# generated using pymatgen
data_CuC
_symmetry_space_group_name_H-M   'P 1'
_cell_length_a   4.71058451
_cell_length_b   4.71058451
_cell_length_c   7.61374500
_cell_angle_alpha   90.00000000
_cell_angle_beta   90.00000000
_cell_angle_gamma   120.00000717
_symmetry_Int_Tables_number   1
_chemical_formula_structural   CuC
_chemical_formula_sum   'Cu2 C2'
_cell_volume   146.31152163
_cell_formula_units_Z   2
loop_
 _symmetry_equiv_pos_site_id
 _symmetry_equiv_pos_as_xyz
  1  'x, y, z'
loop_
 _atom_site_type_symbol
 _atom_site_label
 _atom_site_symmetry_multiplicity
 _atom_site_fract_x
 _atom_site_fract_y
 _atom_site_fract_z
 _atom_site_occupancy
  Cu  Cu0  1  0.29306915  0.63830560  0.98215228  1
  Cu  Cu1  1  0.64125840  0.31794867  0.51106071  1
  C  C2  1  0.33333300  0.66666700  0.37968100  1
  C  C3  1  0.66666700  0.33333300  0.87968100  1
