# generated using pymatgen
data_Cu29NiC8
_symmetry_space_group_name_H-M   'P 1'
_cell_length_a   9.15046599
_cell_length_b   9.15046599
_cell_length_c   9.15046599
_cell_angle_alpha   109.47122063
_cell_angle_beta   109.47122063
_cell_angle_gamma   109.47122063
_symmetry_Int_Tables_number   1
_chemical_formula_structural   Cu29NiC8
_chemical_formula_sum   'Cu29 Ni1 C8'
_cell_volume   589.80403889
_cell_formula_units_Z   1
loop_
 _symmetry_equiv_pos_site_id
 _symmetry_equiv_pos_as_xyz
  1  'x, y, z'
loop_
 _atom_site_type_symbol
 _atom_site_label
 _atom_site_symmetry_multiplicity
 _atom_site_fract_x
 _atom_site_fract_y
 _atom_site_fract_z
 _atom_site_occupancy
  Cu  Cu0  1  0.35014325  0.83560343  0.72218841  1
  Cu  Cu1  1  0.13561322  0.75598614  0.87915007  1
  Cu  Cu2  1  0.74252988  0.33670319  0.82023271  1
  Cu  Cu3  1  0.61139858  0.77869035  0.60227376  1
  Cu  Cu4  1  0.05369566  0.93959770  0.71003367  1
  Cu  Cu5  1  0.07100556  0.28189977  0.08921423  1
  Cu  Cu6  1  0.92086672  0.70490462  0.08733557  1
  Cu  Cu7  1  0.25166574  0.12423299  0.09350251  1
  Cu  Cu8  1  0.20884881  0.43070690  0.55476767  1
  Cu  Cu9  1  0.80128338  0.58744821  0.62261566  1
  Cu  Cu10  1  0.68468976  0.03394676  0.91911815  1
  Cu  Cu11  1  0.51240510  0.17455089  0.42183217  1
  Cu  Cu12  1  0.63960788  0.38494452  0.24414168  1
  Cu  Cu13  1  0.46410179  0.17811868  0.90254039  1
  Ni  Ni14  1  0.87500000  0.12500000  0.75000000  1
  Cu  Cu15  1  0.96184537  0.38204559  0.66910972  1
  Cu  Cu16  1  0.38056752  0.52452312  0.17351586  1
  Cu  Cu17  1  0.13078182  0.12287890  0.32329886  1
  Cu  Cu18  1  0.30475689  0.83453465  0.21591639  1
  Cu  Cu19  1  0.73964963  0.86500443  0.12479216  1
  Cu  Cu20  1  0.88565293  0.46569760  0.15542580  1
  Cu  Cu21  1  0.59285415  0.61245016  0.78071394  1
  Cu  Cu22  1  0.37421453  0.67726313  0.96773670  1
  Cu  Cu23  1  0.78897482  0.73572005  0.34584614  1
  Cu  Cu24  1  0.65298678  0.96638086  0.38090127  1
  Cu  Cu25  1  0.16434092  0.87510552  0.46542094  1
  Cu  Cu26  1  0.22270341  0.30670960  0.82098942  1
  Cu  Cu27  1  0.37549284  0.24547955  0.63314856  1
  Cu  Cu28  1  0.83105009  0.21779094  0.29031955  1
  Cu  Cu29  1  0.25535819  0.62000337  0.37932496  1
  C  C30  1  0.50000000  0.00000000  0.58485600  1
  C  C31  1  0.58485600  0.50000000  0.00000000  1
  C  C32  1  0.50000000  0.00000000  0.08485600  1
  C  C33  1  0.00000000  0.08485600  0.50000000  1
  C  C34  1  0.00000000  0.58485600  0.50000000  1
  C  C35  1  0.08485600  0.50000000  0.00000000  1
  C  C36  1  0.41514400  0.41514400  0.41514400  1
  C  C37  1  0.91514400  0.91514400  0.91514400  1
