# generated using pymatgen
data_Cu4Ni4C
_symmetry_space_group_name_H-M   'P 1'
_cell_length_a   5.41197600
_cell_length_b   5.41197600
_cell_length_c   5.41197600
_cell_angle_alpha   90.00000000
_cell_angle_beta   90.00000000
_cell_angle_gamma   90.00000000
_symmetry_Int_Tables_number   1
_chemical_formula_structural   Cu4Ni4C
_chemical_formula_sum   'Cu4 Ni4 C1'
_cell_volume   158.51398568
_cell_formula_units_Z   1
loop_
 _symmetry_equiv_pos_site_id
 _symmetry_equiv_pos_as_xyz
  1  'x, y, z'
loop_
 _atom_site_type_symbol
 _atom_site_label
 _atom_site_symmetry_multiplicity
 _atom_site_fract_x
 _atom_site_fract_y
 _atom_site_fract_z
 _atom_site_occupancy
  Ni  Ni0  1  0.78084200  0.21915800  0.21915800  1
  Ni  Ni1  1  0.78084200  0.78084200  0.78084200  1
  Ni  Ni2  1  0.21915800  0.78084200  0.21915800  1
  Ni  Ni3  1  0.21915800  0.21915800  0.78084200  1
  C  C4  1  0.50000000  0.50000000  0.50000000  1
  Cu  Cu5  1  0.65490000  0.65490000  0.34510000  1
  Cu  Cu6  1  0.34510000  0.65490000  0.65490000  1
  Cu  Cu7  1  0.34510000  0.34510000  0.34510000  1
  Cu  Cu8  1  0.65490000  0.34510000  0.65490000  1
