# generated using pymatgen
data_Cu5C22
_symmetry_space_group_name_H-M   'P 1'
_cell_length_a   9.62152462
_cell_length_b   9.62152462
_cell_length_c   11.56887052
_cell_angle_alpha   88.38868242
_cell_angle_beta   88.38868242
_cell_angle_gamma   142.21490981
_symmetry_Int_Tables_number   1
_chemical_formula_structural   Cu5C22
_chemical_formula_sum   'Cu5 C22'
_cell_volume   653.70798194
_cell_formula_units_Z   1
loop_
 _symmetry_equiv_pos_site_id
 _symmetry_equiv_pos_as_xyz
  1  'x, y, z'
loop_
 _atom_site_type_symbol
 _atom_site_label
 _atom_site_symmetry_multiplicity
 _atom_site_fract_x
 _atom_site_fract_y
 _atom_site_fract_z
 _atom_site_occupancy
  Cu  Cu0  1  0.63173358  0.84183269  0.48604965  1
  Cu  Cu1  1  0.79929807  0.60159443  0.47515382  1
  Cu  Cu2  1  0.00718761  0.40295471  0.48105164  1
  Cu  Cu3  1  0.38225459  0.01198279  0.48463313  1
  Cu  Cu4  1  0.20277995  0.20808102  0.49792633  1
  C  C5  1  0.11039100  0.44405100  0.83711300  1
  C  C6  1  0.44405100  0.11039100  0.83711300  1
  C  C7  1  0.80000100  0.80000100  0.83349000  1
  C  C8  1  0.81686000  0.48579700  0.13567700  1
  C  C9  1  0.48579700  0.81686000  0.13567700  1
  C  C10  1  0.19335400  0.19335400  0.14142900  1
  C  C11  1  0.93037900  0.12600500  0.61283700  1
  C  C12  1  0.12600500  0.93037900  0.61283700  1
  C  C13  1  0.53675900  0.53675900  0.60929700  1
  C  C14  1  0.31953600  0.71933400  0.60436400  1
  C  C15  1  0.71933400  0.31953600  0.60436400  1
  C  C16  1  0.23537500  0.23537500  0.88917700  1
  C  C17  1  0.03818100  0.37096900  0.08893900  1
  C  C18  1  0.37096900  0.03818100  0.08893900  1
  C  C19  1  0.68553700  0.08908100  0.36305900  1
  C  C20  1  0.08908100  0.68553700  0.36305900  1
  C  C21  1  0.90574500  0.90574500  0.36832100  1
  C  C22  1  0.29886400  0.49947700  0.36293100  1
  C  C23  1  0.49947700  0.29886400  0.36293100  1
  C  C24  1  0.89616100  0.56117400  0.88342900  1
  C  C25  1  0.56117400  0.89616100  0.88342900  1
  C  C26  1  0.70410800  0.70410800  0.08723100  1
