# generated using pymatgen
data_Cu(NiC3)3
_symmetry_space_group_name_H-M   'P 1'
_cell_length_a   10.86849178
_cell_length_b   10.86849178
_cell_length_c   10.86849208
_cell_angle_alpha   37.71051429
_cell_angle_beta   37.71051429
_cell_angle_gamma   37.71051429
_symmetry_Int_Tables_number   1
_chemical_formula_structural   Cu(NiC3)3
_chemical_formula_sum   'Cu1 Ni3 C9'
_cell_volume   430.94281462
_cell_formula_units_Z   1
loop_
 _symmetry_equiv_pos_site_id
 _symmetry_equiv_pos_as_xyz
  1  'x, y, z'
loop_
 _atom_site_type_symbol
 _atom_site_label
 _atom_site_symmetry_multiplicity
 _atom_site_fract_x
 _atom_site_fract_y
 _atom_site_fract_z
 _atom_site_occupancy
  Ni  Ni0  1  0.81318100  0.81318100  0.81318100  1
  Cu  Cu1  1  0.69571796  0.67334488  0.69984269  1
  Ni  Ni2  1  0.31498200  0.31498200  0.31498200  1
  Ni  Ni3  1  0.18681900  0.18681900  0.18681900  1
  C  C4  1  0.44949700  0.44949700  0.44949700  1
  C  C5  1  0.55050300  0.55050300  0.55050300  1
  C  C6  1  0.78791000  0.78791000  0.19399400  1
  C  C7  1  0.21209000  0.80600600  0.21209000  1
  C  C8  1  0.78791000  0.19399400  0.78791000  1
  C  C9  1  0.80600600  0.21209000  0.21209000  1
  C  C10  1  0.19399400  0.78791000  0.78791000  1
  C  C11  1  0.00000000  0.00000000  0.00000000  1
  C  C12  1  0.21209000  0.21209000  0.80600600  1
