# generated using pymatgen
data_CuNiC9
_symmetry_space_group_name_H-M   'P 1'
_cell_length_a   8.33353500
_cell_length_b   8.71729200
_cell_length_c   11.94390647
_cell_angle_alpha   70.64187895
_cell_angle_beta   90.00000000
_cell_angle_gamma   90.00000000
_symmetry_Int_Tables_number   1
_chemical_formula_structural   CuNiC9
_chemical_formula_sum   'Cu4 Ni4 C36'
_cell_volume   818.62147407
_cell_formula_units_Z   4
loop_
 _symmetry_equiv_pos_site_id
 _symmetry_equiv_pos_as_xyz
  1  'x, y, z'
loop_
 _atom_site_type_symbol
 _atom_site_label
 _atom_site_symmetry_multiplicity
 _atom_site_fract_x
 _atom_site_fract_y
 _atom_site_fract_z
 _atom_site_occupancy
  Ni  Ni0  1  0.95839900  0.06317000  0.20191000  1
  Ni  Ni1  1  0.45839900  0.93683000  0.29809000  1
  Ni  Ni2  1  0.04160100  0.93683000  0.79809000  1
  Ni  Ni3  1  0.54160100  0.06317000  0.70191000  1
  C  C4  1  0.09068400  0.56984600  0.20650400  1
  C  C5  1  0.59068400  0.43015400  0.29349600  1
  C  C6  1  0.90931600  0.43015400  0.79349600  1
  C  C7  1  0.40931600  0.56984600  0.70650400  1
  Cu  Cu8  1  0.23209600  0.20058000  0.46082500  1
  Cu  Cu9  1  0.73209600  0.79942000  0.03917500  1
  Cu  Cu10  1  0.76790400  0.79942000  0.53917500  1
  Cu  Cu11  1  0.26790400  0.20058000  0.96082500  1
  C  C12  1  0.02150600  0.41480500  0.14623600  1
  C  C13  1  0.52150600  0.58519500  0.35376400  1
  C  C14  1  0.97849400  0.58519500  0.85376400  1
  C  C15  1  0.47849400  0.41480500  0.64623600  1
  C  C16  1  0.17219900  0.74012700  0.24806900  1
  C  C17  1  0.67219900  0.25987300  0.25193100  1
  C  C18  1  0.82780100  0.25987300  0.75193100  1
  C  C19  1  0.32780100  0.74012700  0.74806900  1
  C  C20  1  0.84888600  0.53331400  0.29607000  1
  C  C21  1  0.34888600  0.46668600  0.20393000  1
  C  C22  1  0.15111400  0.46668600  0.70393000  1
  C  C23  1  0.65111400  0.53331400  0.79607000  1
  C  C24  1  0.93291800  0.77263800  0.07086700  1
  C  C25  1  0.43291800  0.22736200  0.42913300  1
  C  C26  1  0.06708200  0.22736200  0.92913300  1
  C  C27  1  0.56708200  0.77263800  0.57086700  1
  C  C28  1  0.14512500  0.38468600  0.39163900  1
  C  C29  1  0.64512500  0.61531400  0.10836100  1
  C  C30  1  0.85487500  0.61531400  0.60836100  1
  C  C31  1  0.35487500  0.38468600  0.89163900  1
  C  C32  1  0.27470900  0.67800800  0.05965800  1
  C  C33  1  0.77470900  0.32199200  0.44034200  1
  C  C34  1  0.72529100  0.32199200  0.94034200  1
  C  C35  1  0.22529100  0.67800800  0.55965800  1
  C  C36  1  0.21024100  0.15471600  0.60497600  1
  C  C37  1  0.71024100  0.84528400  0.89502400  1
  C  C38  1  0.78975900  0.84528400  0.39502400  1
  C  C39  1  0.28975900  0.15471600  0.10497600  1
  C  C40  1  0.16716300  0.06322500  0.40434100  1
  C  C41  1  0.66716300  0.93677500  0.09565900  1
  C  C42  1  0.83283700  0.93677500  0.59565900  1
  C  C43  1  0.33283700  0.06322500  0.90434100  1
