# generated using pymatgen
data_Cu2C11
_symmetry_space_group_name_H-M   'P 1'
_cell_length_a   3.38505400
_cell_length_b   3.38503546
_cell_length_c   38.89487400
_cell_angle_alpha   89.99949594
_cell_angle_beta   90.00040492
_cell_angle_gamma   119.99680774
_symmetry_Int_Tables_number   1
_chemical_formula_structural   Cu2C11
_chemical_formula_sum   'Cu2 C11'
_cell_volume   385.98088156
_cell_formula_units_Z   1
loop_
 _symmetry_equiv_pos_site_id
 _symmetry_equiv_pos_as_xyz
  1  'x, y, z'
loop_
 _atom_site_type_symbol
 _atom_site_label
 _atom_site_symmetry_multiplicity
 _atom_site_fract_x
 _atom_site_fract_y
 _atom_site_fract_z
 _atom_site_occupancy
  C  C0  1  0.30444200  0.67249800  0.87497100  1
  C  C1  1  0.33335900  0.66671900  0.70584300  1
  C  C2  1  0.66664400  0.33328800  0.04563400  1
  C  C3  1  0.66664600  0.33327900  0.14222600  1
  C  C4  1  0.33336100  0.66673500  0.60921800  1
  C  C5  1  0.33330600  0.66662400  0.09388200  1
  C  C6  1  0.66669500  0.33337500  0.65758800  1
  C  C7  1  0.33331100  0.66663300  0.46964700  1
  C  C8  1  0.66672000  0.33336000  0.28181600  1
  C  C9  1  0.66665400  0.33328000  0.42695300  1
  C  C10  1  0.66665500  0.33329800  0.51231000  1
  Cu  Cu11  1  0.32574748  0.65704302  0.32087688  1
  Cu  Cu12  1  0.38155928  0.69920094  0.24235207  1
