# generated using pymatgen
data_Cu5NiC3
_symmetry_space_group_name_H-M   'P 1'
_cell_length_a   6.76103519
_cell_length_b   6.76103519
_cell_length_c   3.52600500
_cell_angle_alpha   90.00000000
_cell_angle_beta   90.00000000
_cell_angle_gamma   119.99999210
_symmetry_Int_Tables_number   1
_chemical_formula_structural   Cu5NiC3
_chemical_formula_sum   'Cu5 Ni1 C3'
_cell_volume   139.58539606
_cell_formula_units_Z   1
loop_
 _symmetry_equiv_pos_site_id
 _symmetry_equiv_pos_as_xyz
  1  'x, y, z'
loop_
 _atom_site_type_symbol
 _atom_site_label
 _atom_site_symmetry_multiplicity
 _atom_site_fract_x
 _atom_site_fract_y
 _atom_site_fract_z
 _atom_site_occupancy
  C  C0  1  0.66666700  0.33333300  0.00000000  1
  C  C1  1  0.33333300  0.66666700  0.00000000  1
  C  C2  1  0.00000000  0.00000000  0.50000000  1
  Cu  Cu3  1  0.57230527  0.97932646  0.52356346  1
  Cu  Cu4  1  0.39650507  0.39078101  0.51370140  1
  Cu  Cu5  1  0.99883571  0.62895433  0.45624725  1
  Cu  Cu6  1  0.99224053  0.26608577  0.95161537  1
  Cu  Cu7  1  0.72066010  0.73114261  0.00037555  1
  Ni  Ni8  1  0.26759900  0.00000000  0.00000000  1
