# generated using pymatgen
data_Cu4C15
_symmetry_space_group_name_H-M   'P 1'
_cell_length_a   5.59978691
_cell_length_b   6.42474462
_cell_length_c   6.20308057
_cell_angle_alpha   103.16998844
_cell_angle_beta   97.56357365
_cell_angle_gamma   101.03191242
_symmetry_Int_Tables_number   1
_chemical_formula_structural   Cu4C15
_chemical_formula_sum   'Cu4 C15'
_cell_volume   209.66871687
_cell_formula_units_Z   1
loop_
 _symmetry_equiv_pos_site_id
 _symmetry_equiv_pos_as_xyz
  1  'x, y, z'
loop_
 _atom_site_type_symbol
 _atom_site_label
 _atom_site_symmetry_multiplicity
 _atom_site_fract_x
 _atom_site_fract_y
 _atom_site_fract_z
 _atom_site_occupancy
  Cu  Cu0  1  0.12190839  0.55985937  0.30242730  1
  Cu  Cu1  1  0.40298610  0.63475988  0.85739402  1
  Cu  Cu2  1  0.65398409  0.41285910  0.18102991  1
  Cu  Cu3  1  0.85932814  0.45271698  0.67728732  1
  C  C4  1  0.70169100  0.86271800  0.38091800  1
  C  C5  1  0.00848100  0.00114700  0.02490700  1
  C  C6  1  0.30047200  0.13205400  0.60454400  1
  C  C7  1  0.05622100  0.97335300  0.32607900  1
  C  C8  1  0.06520200  0.71356000  0.89138600  1
  C  C9  1  0.42820700  0.84450800  0.58581500  1
  C  C10  1  0.65928500  0.86890300  0.04744800  1
  C  C11  1  0.16639500  0.39530600  0.58289700  1
  C  C12  1  0.42857400  0.59707200  0.20122100  1
  C  C13  1  0.57705200  0.39921700  0.79245600  1
  C  C14  1  0.83303000  0.60330400  0.42377600  1
  C  C15  1  0.33684500  0.12676900  0.94369700  1
  C  C16  1  0.56893900  0.14826400  0.40563000  1
  C  C17  1  0.94139300  0.29442600  0.10420400  1
  C  C18  1  0.92149700  0.02924100  0.69688800  1
