# generated using pymatgen
data_CuNiC2
_symmetry_space_group_name_H-M   'P 1'
_cell_length_a   4.78090819
_cell_length_b   4.78090819
_cell_length_c   7.73291200
_cell_angle_alpha   90.00000000
_cell_angle_beta   90.00000000
_cell_angle_gamma   120.00000262
_symmetry_Int_Tables_number   1
_chemical_formula_structural   CuNiC2
_chemical_formula_sum   'Cu3 Ni3 C6'
_cell_volume   153.07155559
_cell_formula_units_Z   3
loop_
 _symmetry_equiv_pos_site_id
 _symmetry_equiv_pos_as_xyz
  1  'x, y, z'
loop_
 _atom_site_type_symbol
 _atom_site_label
 _atom_site_symmetry_multiplicity
 _atom_site_fract_x
 _atom_site_fract_y
 _atom_site_fract_z
 _atom_site_occupancy
  Cu  Cu0  1  0.83436522  0.20106340  0.73127616  1
  Cu  Cu1  1  0.89338326  0.72572747  0.70732286  1
  Cu  Cu2  1  0.35513833  0.22317730  0.73812030  1
  Ni  Ni3  1  0.17159500  0.82840500  0.25000000  1
  Ni  Ni4  1  0.17159500  0.34319100  0.25000000  1
  Ni  Ni5  1  0.65680900  0.82840500  0.25000000  1
  C  C6  1  0.00000000  0.00000000  0.00000000  1
  C  C7  1  0.00000000  0.00000000  0.50000000  1
  C  C8  1  0.33333300  0.66666700  0.93712700  1
  C  C9  1  0.66666700  0.33333300  0.06287300  1
  C  C10  1  0.66666700  0.33333300  0.43712700  1
  C  C11  1  0.33333300  0.66666700  0.56287300  1
