# generated using pymatgen
data_Cu3C2
_symmetry_space_group_name_H-M   'P 1'
_cell_length_a   4.56767700
_cell_length_b   4.56767700
_cell_length_c   4.56767700
_cell_angle_alpha   90.00000000
_cell_angle_beta   90.00000000
_cell_angle_gamma   90.00000000
_symmetry_Int_Tables_number   1
_chemical_formula_structural   Cu3C2
_chemical_formula_sum   'Cu3 C2'
_cell_volume   95.29852010
_cell_formula_units_Z   1
loop_
 _symmetry_equiv_pos_site_id
 _symmetry_equiv_pos_as_xyz
  1  'x, y, z'
loop_
 _atom_site_type_symbol
 _atom_site_label
 _atom_site_symmetry_multiplicity
 _atom_site_fract_x
 _atom_site_fract_y
 _atom_site_fract_z
 _atom_site_occupancy
  C  C0  1  0.50000000  0.50000000  0.50000000  1
  C  C1  1  0.00000000  0.00000000  0.00000000  1
  Cu  Cu2  1  0.99701501  0.02722358  0.51451493  1
  Cu  Cu3  1  0.56048251  0.00173435  0.00373716  1
  Cu  Cu4  1  0.01094073  0.50736691  0.98368267  1
