# generated using pymatgen
data_Cu2C3
_symmetry_space_group_name_H-M   'P 1'
_cell_length_a   7.09219726
_cell_length_b   7.09219726
_cell_length_c   7.09219726
_cell_angle_alpha   109.47122063
_cell_angle_beta   109.47122063
_cell_angle_gamma   109.47122063
_symmetry_Int_Tables_number   1
_chemical_formula_structural   Cu2C3
_chemical_formula_sum   'Cu8 C12'
_cell_volume   274.61264387
_cell_formula_units_Z   4
loop_
 _symmetry_equiv_pos_site_id
 _symmetry_equiv_pos_as_xyz
  1  'x, y, z'
loop_
 _atom_site_type_symbol
 _atom_site_label
 _atom_site_symmetry_multiplicity
 _atom_site_fract_x
 _atom_site_fract_y
 _atom_site_fract_z
 _atom_site_occupancy
  Cu  Cu0  1  0.08861808  0.10490456  0.08729440  1
  Cu  Cu1  1  0.48850514  0.98821892  0.88163073  1
  Cu  Cu2  1  0.91286756  0.52743375  0.05367318  1
  Cu  Cu3  1  0.99358777  0.88802773  0.48572124  1
  Cu  Cu4  1  0.37892213  0.50600164  0.00618651  1
  Cu  Cu5  1  0.98437074  0.39401489  0.48242201  1
  Cu  Cu6  1  0.47126151  0.96707839  0.37047260  1
  Cu  Cu7  1  0.58117129  0.59914548  0.59265984  1
  C  C8  1  0.54313600  0.29313600  0.25000000  1
  C  C9  1  0.25000000  0.70686400  0.45686400  1
  C  C10  1  0.75000000  0.79313600  0.04313600  1
  C  C11  1  0.04313600  0.75000000  0.79313600  1
  C  C12  1  0.45686400  0.25000000  0.70686400  1
  C  C13  1  0.70686400  0.45686400  0.25000000  1
  C  C14  1  0.20686400  0.75000000  0.95686400  1
  C  C15  1  0.75000000  0.95686400  0.20686400  1
  C  C16  1  0.29313600  0.25000000  0.54313600  1
  C  C17  1  0.25000000  0.54313600  0.29313600  1
  C  C18  1  0.95686400  0.20686400  0.75000000  1
  C  C19  1  0.79313600  0.04313600  0.75000000  1
