# generated using pymatgen
data_CuC
_symmetry_space_group_name_H-M   'P 1'
_cell_length_a   5.64804794
_cell_length_b   5.64804794
_cell_length_c   5.64804794
_cell_angle_alpha   60.00000000
_cell_angle_beta   60.00000000
_cell_angle_gamma   60.00000000
_symmetry_Int_Tables_number   1
_chemical_formula_structural   CuC
_chemical_formula_sum   'Cu2 C2'
_cell_volume   127.40313813
_cell_formula_units_Z   2
loop_
 _symmetry_equiv_pos_site_id
 _symmetry_equiv_pos_as_xyz
  1  'x, y, z'
loop_
 _atom_site_type_symbol
 _atom_site_label
 _atom_site_symmetry_multiplicity
 _atom_site_fract_x
 _atom_site_fract_y
 _atom_site_fract_z
 _atom_site_occupancy
  Cu  Cu0  1  0.73558257  0.71314449  0.81453005  1
  Cu  Cu1  1  0.25151082  0.24994424  0.27381521  1
  C  C2  1  0.50000000  0.50000000  0.50000000  1
  C  C3  1  0.00000000  0.00000000  0.00000000  1
