# generated using pymatgen
data_Cu2C13
_symmetry_space_group_name_H-M   'P 1'
_cell_length_a   7.04428800
_cell_length_b   8.81577900
_cell_length_c   10.88677015
_cell_angle_alpha   89.17405164
_cell_angle_beta   90.00000000
_cell_angle_gamma   90.00000000
_symmetry_Int_Tables_number   1
_chemical_formula_structural   Cu2C13
_chemical_formula_sum   'Cu8 C52'
_cell_volume   676.00782897
_cell_formula_units_Z   4
loop_
 _symmetry_equiv_pos_site_id
 _symmetry_equiv_pos_as_xyz
  1  'x, y, z'
loop_
 _atom_site_type_symbol
 _atom_site_label
 _atom_site_symmetry_multiplicity
 _atom_site_fract_x
 _atom_site_fract_y
 _atom_site_fract_z
 _atom_site_occupancy
  C  C0  1  0.16830800  0.94252200  0.84788800  1
  C  C1  1  0.66830800  0.05747800  0.65211200  1
  C  C2  1  0.83169200  0.05747800  0.15211200  1
  C  C3  1  0.33169200  0.94252200  0.34788800  1
  C  C4  1  0.56059700  0.64615200  0.15111500  1
  C  C5  1  0.06059700  0.35384800  0.34888500  1
  C  C6  1  0.43940300  0.35384800  0.84888500  1
  C  C7  1  0.93940300  0.64615200  0.65111500  1
  C  C8  1  0.79135900  0.59071100  0.13357200  1
  C  C9  1  0.29135900  0.40928900  0.36642800  1
  C  C10  1  0.20864100  0.40928900  0.86642800  1
  C  C11  1  0.70864100  0.59071100  0.63357200  1
  C  C12  1  0.60850400  0.46783400  0.12185800  1
  C  C13  1  0.10850400  0.53216600  0.37814200  1
  C  C14  1  0.39149600  0.53216600  0.87814200  1
  C  C15  1  0.89149600  0.46783400  0.62185800  1
  Cu  Cu16  1  0.14363270  0.76320701  0.07640333  1
  Cu  Cu17  1  0.63793382  0.27013121  0.39614130  1
  Cu  Cu18  1  0.84514599  0.27027111  0.91464733  1
  Cu  Cu19  1  0.36899630  0.72327567  0.59145847  1
  Cu  Cu20  1  0.14795015  0.18731462  0.60434676  1
  Cu  Cu21  1  0.70461859  0.79926266  0.89564871  1
  Cu  Cu22  1  0.85228663  0.78901246  0.39585436  1
  Cu  Cu23  1  0.32035105  0.19298850  0.12788911  1
  C  C24  1  0.01228700  0.61591000  0.12230700  1
  C  C25  1  0.51228700  0.38409000  0.37769300  1
  C  C26  1  0.98771300  0.38409000  0.87769300  1
  C  C27  1  0.48771300  0.61591000  0.62230700  1
  C  C28  1  0.23876900  0.69514400  0.96062800  1
  C  C29  1  0.73876900  0.30485600  0.53937200  1
  C  C30  1  0.76123100  0.30485600  0.03937200  1
  C  C31  1  0.26123100  0.69514400  0.46062800  1
  C  C32  1  0.06211300  0.88148600  0.06075200  1
  C  C33  1  0.56211300  0.11851400  0.43924800  1
  C  C34  1  0.93788700  0.11851400  0.93924800  1
  C  C35  1  0.43788700  0.88148600  0.56075200  1
  C  C36  1  0.30725600  0.74550700  0.17704600  1
  C  C37  1  0.80725600  0.25449300  0.32295400  1
  C  C38  1  0.69274400  0.25449300  0.82295400  1
  C  C39  1  0.19274400  0.74550700  0.67704600  1
  C  C40  1  0.12709600  0.34531400  0.61058700  1
  C  C41  1  0.62709600  0.65468600  0.88941300  1
  C  C42  1  0.87290400  0.65468600  0.38941300  1
  C  C43  1  0.37290400  0.34531400  0.11058700  1
  C  C44  1  0.33592700  0.14298400  0.68877600  1
  C  C45  1  0.83592700  0.85701600  0.81122400  1
  C  C46  1  0.66407300  0.85701600  0.31122400  1
  C  C47  1  0.16407300  0.14298400  0.18877600  1
  C  C48  1  0.00796000  0.09537500  0.68112100  1
  C  C49  1  0.50796000  0.90462500  0.81887900  1
  C  C50  1  0.99204000  0.90462500  0.31887900  1
  C  C51  1  0.49204000  0.09537500  0.18112100  1
  C  C52  1  0.17437900  0.12230800  0.48641900  1
  C  C53  1  0.67437900  0.87769200  0.01358100  1
  C  C54  1  0.82562100  0.87769200  0.51358100  1
  C  C55  1  0.32562100  0.12230800  0.98641900  1
  C  C56  1  0.65518200  0.56328100  0.15950500  1
  C  C57  1  0.15518200  0.43671900  0.34049500  1
  C  C58  1  0.34481800  0.43671900  0.84049500  1
  C  C59  1  0.84481800  0.56328100  0.65950500  1
