# generated using pymatgen
data_Cu3Ni3C4
_symmetry_space_group_name_H-M   'P 1'
_cell_length_a   8.13017376
_cell_length_b   8.13017376
_cell_length_c   8.13017376
_cell_angle_alpha   60.00000000
_cell_angle_beta   60.00000000
_cell_angle_gamma   60.00000000
_symmetry_Int_Tables_number   1
_chemical_formula_structural   Cu3Ni3C4
_chemical_formula_sum   'Cu3 Ni3 C4'
_cell_volume   380.00077754
_cell_formula_units_Z   1
loop_
 _symmetry_equiv_pos_site_id
 _symmetry_equiv_pos_as_xyz
  1  'x, y, z'
loop_
 _atom_site_type_symbol
 _atom_site_label
 _atom_site_symmetry_multiplicity
 _atom_site_fract_x
 _atom_site_fract_y
 _atom_site_fract_z
 _atom_site_occupancy
  C  C0  1  0.75000000  0.75000000  0.75000000  1
  C  C1  1  0.25000000  0.25000000  0.25000000  1
  C  C2  1  0.50000000  0.50000000  0.50000000  1
  C  C3  1  0.00000000  0.00000000  0.00000000  1
  Cu  Cu4  1  0.74934606  0.21938832  0.24375147  1
  Ni  Ni5  1  0.23001900  0.23001900  0.76998100  1
  Cu  Cu6  1  0.25125881  0.73276801  0.78800668  1
  Ni  Ni7  1  0.23001900  0.76998100  0.23001900  1
  Cu  Cu8  1  0.79948149  0.22311075  0.76906852  1
  Ni  Ni9  1  0.76998100  0.76998100  0.23001900  1
