# generated using pymatgen
data_Cu3NiC28
_symmetry_space_group_name_H-M   'P 1'
_cell_length_a   5.65234000
_cell_length_b   7.28069300
_cell_length_c   8.38339400
_cell_angle_alpha   90.00000000
_cell_angle_beta   90.00000000
_cell_angle_gamma   90.00000000
_symmetry_Int_Tables_number   1
_chemical_formula_structural   Cu3NiC28
_chemical_formula_sum   'Cu3 Ni1 C28'
_cell_volume   345.00141316
_cell_formula_units_Z   1
loop_
 _symmetry_equiv_pos_site_id
 _symmetry_equiv_pos_as_xyz
  1  'x, y, z'
loop_
 _atom_site_type_symbol
 _atom_site_label
 _atom_site_symmetry_multiplicity
 _atom_site_fract_x
 _atom_site_fract_y
 _atom_site_fract_z
 _atom_site_occupancy
  C  C0  1  0.50000000  0.35721700  0.32629700  1
  C  C1  1  0.50000000  0.64278300  0.67370300  1
  C  C2  1  0.50000000  0.14278300  0.82629700  1
  C  C3  1  0.50000000  0.85721700  0.17370300  1
  C  C4  1  0.25174800  0.00000000  0.50000000  1
  C  C5  1  0.74825200  0.00000000  0.50000000  1
  C  C6  1  0.74825200  0.50000000  0.00000000  1
  C  C7  1  0.25174800  0.50000000  0.00000000  1
  Cu  Cu8  1  0.98061970  0.09855319  0.13457038  1
  Cu  Cu9  1  0.98850552  0.87497902  0.85106079  1
  Cu  Cu10  1  0.99533637  0.38642502  0.65538142  1
  Ni  Ni11  1  0.00000000  0.62054800  0.35541300  1
  C  C12  1  0.24906000  0.10702300  0.28739200  1
  C  C13  1  0.75094000  0.89297700  0.71260800  1
  C  C14  1  0.24906000  0.89297700  0.71260800  1
  C  C15  1  0.75094000  0.39297700  0.78739200  1
  C  C16  1  0.75094000  0.10702300  0.28739200  1
  C  C17  1  0.24906000  0.60702300  0.21260800  1
  C  C18  1  0.75094000  0.60702300  0.21260800  1
  C  C19  1  0.24906000  0.39297700  0.78739200  1
  C  C20  1  0.50000000  0.33777500  0.05491400  1
  C  C21  1  0.50000000  0.66222500  0.94508600  1
  C  C22  1  0.50000000  0.16222500  0.55491400  1
  C  C23  1  0.50000000  0.83777500  0.44508600  1
  C  C24  1  0.21671800  0.00000000  0.00000000  1
  C  C25  1  0.78328200  0.00000000  0.00000000  1
  C  C26  1  0.78328200  0.50000000  0.50000000  1
  C  C27  1  0.21671800  0.50000000  0.50000000  1
  C  C28  1  0.00000000  0.34693000  0.06805600  1
  C  C29  1  0.00000000  0.65307000  0.93194400  1
  C  C30  1  0.00000000  0.15307000  0.56805600  1
  C  C31  1  0.00000000  0.84693000  0.43194400  1
