# generated using pymatgen
data_Cu30Ni7C13
_symmetry_space_group_name_H-M   'P 1'
_cell_length_a   5.47702325
_cell_length_b   5.52084328
_cell_length_c   38.45887600
_cell_angle_alpha   90.00000000
_cell_angle_beta   90.00000000
_cell_angle_gamma   89.81378306
_symmetry_Int_Tables_number   1
_chemical_formula_structural   Cu30Ni7C13
_chemical_formula_sum   'Cu60 Ni14 C26'
_cell_volume   1162.90515710
_cell_formula_units_Z   2
loop_
 _symmetry_equiv_pos_site_id
 _symmetry_equiv_pos_as_xyz
  1  'x, y, z'
loop_
 _atom_site_type_symbol
 _atom_site_label
 _atom_site_symmetry_multiplicity
 _atom_site_fract_x
 _atom_site_fract_y
 _atom_site_fract_z
 _atom_site_occupancy
  Ni  Ni0  1  0.01370100  0.96758800  0.15000000  1
  Ni  Ni1  1  0.01226900  0.96786000  0.55043400  1
  Ni  Ni2  1  0.01226900  0.96786000  0.74956600  1
  Ni  Ni3  1  0.48888400  0.46249900  0.35122400  1
  Ni  Ni4  1  0.48795000  0.46011800  0.15000000  1
  Ni  Ni5  1  0.48888400  0.46249900  0.94877600  1
  Ni  Ni6  1  0.51047800  0.54001100  0.65000000  1
  Ni  Ni7  1  0.51113200  0.53771700  0.45039000  1
  Ni  Ni8  1  0.51113200  0.53771700  0.84961000  1
  Ni  Ni9  1  0.98907500  0.03252200  0.05145600  1
  Ni  Ni10  1  0.98907500  0.03252200  0.24854400  1
  Ni  Ni11  1  0.98682100  0.03276600  0.65000000  1
  Ni  Ni12  1  0.98688400  0.03378900  0.45238200  1
  Ni  Ni13  1  0.98688400  0.03378900  0.84761800  1
  C  C14  1  0.00763300  0.97445700  0.35040500  1
  C  C15  1  0.00763300  0.97445700  0.94959500  1
  C  C16  1  0.49103000  0.46848600  0.55012000  1
  C  C17  1  0.49103000  0.46848600  0.74988000  1
  C  C18  1  0.50721400  0.53023800  0.05029500  1
  C  C19  1  0.50721400  0.53023800  0.24970500  1
  C  C20  1  0.00027300  0.49899300  0.99961500  1
  C  C21  1  0.00165600  0.49972300  0.10141100  1
  C  C22  1  0.00165600  0.49972300  0.19858900  1
  C  C23  1  0.00027300  0.49899300  0.30038500  1
  C  C24  1  0.99856600  0.49935100  0.40217000  1
  C  C25  1  0.99682100  0.50128100  0.49983600  1
  C  C26  1  0.99739400  0.50083400  0.60135000  1
  C  C27  1  0.99739400  0.50083400  0.69865000  1
  C  C28  1  0.99856600  0.49935100  0.89783000  1
  C  C29  1  0.99682100  0.50128100  0.80016400  1
  C  C30  1  0.50112500  0.99960900  0.10119000  1
  C  C31  1  0.50072900  0.99977800  0.00015100  1
  C  C32  1  0.50072900  0.99977800  0.29984900  1
  C  C33  1  0.50112500  0.99960900  0.19881000  1
  C  C34  1  0.49868400  0.99953900  0.40168500  1
  C  C35  1  0.49937800  0.99994200  0.49971300  1
  C  C36  1  0.49874100  0.00013000  0.60103500  1
  C  C37  1  0.49874100  0.00013000  0.69896500  1
  C  C38  1  0.49868400  0.99953900  0.89831500  1
  C  C39  1  0.49937800  0.99994200  0.80028700  1
  Cu  Cu40  1  0.07092300  0.48348100  0.05021900  1
  Cu  Cu41  1  0.07092300  0.48348100  0.24978100  1
  Cu  Cu42  1  0.08520800  0.47844800  0.44961800  1
  Cu  Cu43  1  0.08520800  0.47529300  0.65000000  1
  Cu  Cu44  1  0.08520800  0.47844800  0.85038200  1
  Cu  Cu45  1  0.21827400  0.22418800  0.19103400  1
  Cu  Cu46  1  0.22534200  0.22313300  0.39166100  1
  Cu  Cu47  1  0.22062900  0.22271400  0.59096300  1
  Cu  Cu48  1  0.21827400  0.22418800  0.10896600  1
  Cu  Cu49  1  0.22410200  0.22787100  0.30823300  1
  Cu  Cu50  1  0.21653700  0.22293100  0.79107200  1
  Cu  Cu51  1  0.22410200  0.22787100  0.99176700  1
  Cu  Cu52  1  0.21653700  0.22293100  0.50892800  1
  Cu  Cu53  1  0.22062900  0.22271400  0.70903700  1
  Cu  Cu54  1  0.22534200  0.22313300  0.90833900  1
  Cu  Cu55  1  0.27901600  0.71650300  0.30846000  1
  Cu  Cu56  1  0.27983500  0.71496700  0.10851200  1
  Cu  Cu57  1  0.27983500  0.71496700  0.19148800  1
  Cu  Cu58  1  0.27840400  0.72129900  0.39136200  1
  Cu  Cu59  1  0.27478100  0.71944200  0.50770500  1
  Cu  Cu60  1  0.27660500  0.71953700  0.59225200  1
  Cu  Cu61  1  0.27660500  0.71953700  0.70774800  1
  Cu  Cu62  1  0.27840400  0.72129900  0.90863800  1
  Cu  Cu63  1  0.27901600  0.71650300  0.99154000  1
  Cu  Cu64  1  0.27478100  0.71944200  0.79229500  1
  Cu  Cu65  1  0.41506300  0.98578400  0.05099200  1
  Cu  Cu66  1  0.41506300  0.98578400  0.24900800  1
  Cu  Cu67  1  0.41582100  0.98259000  0.65000000  1
  Cu  Cu68  1  0.41497600  0.98227300  0.85139900  1
  Cu  Cu69  1  0.41497600  0.98227300  0.44860100  1
  Cu  Cu70  1  0.57498200  0.01743700  0.35170300  1
  Cu  Cu71  1  0.58463200  0.01259900  0.55066300  1
  Cu  Cu72  1  0.58555300  0.01676000  0.15000000  1
  Cu  Cu73  1  0.58463200  0.01259900  0.74933700  1
  Cu  Cu74  1  0.57498200  0.01743700  0.94829700  1
  Cu  Cu75  1  0.72948600  0.27701300  0.00772500  1
  Cu  Cu76  1  0.72258400  0.28042600  0.09214400  1
  Cu  Cu77  1  0.72258400  0.28042600  0.20785600  1
  Cu  Cu78  1  0.72948600  0.27701300  0.29227500  1
  Cu  Cu79  1  0.72546900  0.27866200  0.40864400  1
  Cu  Cu80  1  0.71944500  0.28459800  0.60840200  1
  Cu  Cu81  1  0.71923500  0.28548900  0.80846500  1
  Cu  Cu82  1  0.72546900  0.27866200  0.89135600  1
  Cu  Cu83  1  0.71923500  0.28548900  0.49153500  1
  Cu  Cu84  1  0.71944500  0.28459800  0.69159800  1
  Cu  Cu85  1  0.77918300  0.77628000  0.09097100  1
  Cu  Cu86  1  0.78523400  0.77763800  0.29137500  1
  Cu  Cu87  1  0.77958300  0.77334500  0.49118900  1
  Cu  Cu88  1  0.78066900  0.77527800  0.69112500  1
  Cu  Cu89  1  0.78523400  0.77763800  0.00862500  1
  Cu  Cu90  1  0.77918300  0.77628000  0.20902900  1
  Cu  Cu91  1  0.78363900  0.78241400  0.89109600  1
  Cu  Cu92  1  0.78363900  0.78241400  0.40890400  1
  Cu  Cu93  1  0.78066900  0.77527800  0.60887500  1
  Cu  Cu94  1  0.77958300  0.77334500  0.80881100  1
  Cu  Cu95  1  0.91314100  0.52406700  0.15000000  1
  Cu  Cu96  1  0.91988500  0.51363700  0.35028200  1
  Cu  Cu97  1  0.92945900  0.51627300  0.55005700  1
  Cu  Cu98  1  0.92945900  0.51627300  0.74994300  1
  Cu  Cu99  1  0.91988500  0.51363700  0.94971800  1
