# generated using pymatgen
data_CuC10
_symmetry_space_group_name_H-M   'P 1'
_cell_length_a   22.46849054
_cell_length_b   22.46849054
_cell_length_c   22.46849054
_cell_angle_alpha   159.74204772
_cell_angle_beta   159.74204772
_cell_angle_gamma   28.80239090
_symmetry_Int_Tables_number   1
_chemical_formula_structural   CuC10
_chemical_formula_sum   'Cu8 C80'
_cell_volume   1359.16788708
_cell_formula_units_Z   8
loop_
 _symmetry_equiv_pos_site_id
 _symmetry_equiv_pos_as_xyz
  1  'x, y, z'
loop_
 _atom_site_type_symbol
 _atom_site_label
 _atom_site_symmetry_multiplicity
 _atom_site_fract_x
 _atom_site_fract_y
 _atom_site_fract_z
 _atom_site_occupancy
  C  C0  1  0.87500000  0.12500000  0.75000000  1
  C  C1  1  0.37500000  0.12500000  0.25000000  1
  C  C2  1  0.87500000  0.62500000  0.75000000  1
  C  C3  1  0.37500000  0.62500000  0.25000000  1
  C  C4  1  0.87500000  0.62500000  0.25000000  1
  C  C5  1  0.37500000  0.62500000  0.75000000  1
  C  C6  1  0.37500000  0.12500000  0.75000000  1
  C  C7  1  0.87500000  0.12500000  0.25000000  1
  C  C8  1  0.17332600  0.42673700  0.24601000  1
  C  C9  1  0.67332600  0.42731500  0.74658800  1
  C  C10  1  0.07268500  0.82667400  0.25341200  1
  C  C11  1  0.17731500  0.93072700  0.25399000  1
  C  C12  1  0.57326300  0.81927300  0.74658800  1
  C  C13  1  0.67673700  0.92332600  0.74601000  1
  C  C14  1  0.56927300  0.32268500  0.74601000  1
  C  C15  1  0.68072700  0.92673700  0.25341200  1
  C  C16  1  0.06927300  0.32326300  0.24658800  1
  C  C17  1  0.18072700  0.92731500  0.75399000  1
  C  C18  1  0.17673700  0.43072700  0.75341200  1
  C  C19  1  0.07326300  0.32667400  0.75399000  1
  C  C20  1  0.57268500  0.31927300  0.24601000  1
  C  C21  1  0.67731500  0.42332600  0.24658800  1
  C  C22  1  0.07667400  0.82268500  0.75341200  1
  C  C23  1  0.57667400  0.82326300  0.25399000  1
  Cu  Cu24  1  0.00426368  0.49445526  0.99874044  1
  Cu  Cu25  1  0.48780636  0.52747522  0.52840531  1
  Cu  Cu26  1  0.01285393  0.00470238  0.52572888  1
  Cu  Cu27  1  0.24003371  0.28727845  0.52761417  1
  Cu  Cu28  1  0.53147866  0.99076364  0.01974215  1
  Cu  Cu29  1  0.74485456  0.23666300  0.98160306  1
  Cu  Cu30  1  0.25784871  0.75751075  0.01425455  1
  Cu  Cu31  1  0.76583478  0.75247705  0.51521071  1
  C  C32  1  0.41451900  0.41766000  0.49674500  1
  C  C33  1  0.08222600  0.58548100  0.00314200  1
  C  C34  1  0.21662000  0.46586100  0.24471600  1
  C  C35  1  0.11732900  0.37500000  0.24232900  1
  C  C36  1  0.61732900  0.37500000  0.74232900  1
  C  C37  1  0.71662000  0.47190500  0.75075900  1
  C  C38  1  0.58222600  0.57908500  0.49674500  1
  C  C39  1  0.91451900  0.41777400  0.99685800  1
  C  C40  1  0.62500000  0.86732900  0.74232900  1
  C  C41  1  0.53413900  0.77885400  0.75075900  1
  C  C42  1  0.71586100  0.96662000  0.74471600  1
  C  C43  1  0.16721900  0.66721900  0.50000000  1
  C  C44  1  0.58335400  0.08335400  0.50000000  1
  C  C45  1  0.91721900  0.91721900  0.00000000  1
  C  C46  1  0.33278100  0.83278100  0.50000000  1
  C  C47  1  0.41664600  0.91664600  0.50000000  1
  C  C48  1  0.08278100  0.08278100  0.00000000  1
  C  C49  1  0.83335400  0.83335400  0.00000000  1
  C  C50  1  0.66664600  0.66664600  0.00000000  1
  C  C51  1  0.02809500  0.78338000  0.24924100  1
  C  C52  1  0.22190500  0.97114600  0.25528400  1
  C  C53  1  0.12500000  0.88267100  0.25767100  1
  C  C54  1  0.42091500  0.91766000  0.00314200  1
  C  C55  1  0.82908500  0.33222600  0.99674500  1
  C  C56  1  0.08234000  0.08548100  0.50325500  1
  C  C57  1  0.16766000  0.17091500  0.50314200  1
  C  C58  1  0.52885400  0.27809500  0.74471600  1
  C  C59  1  0.72114600  0.96586100  0.24924100  1
  C  C60  1  0.13267100  0.87500000  0.75767100  1
  C  C61  1  0.63267100  0.87500000  0.25767100  1
  C  C62  1  0.02885400  0.28413900  0.25075900  1
  C  C63  1  0.22114600  0.97190500  0.75528400  1
  C  C64  1  0.66766000  0.16451900  0.99674500  1
  C  C65  1  0.58234000  0.07908500  0.99685800  1
  C  C66  1  0.92091500  0.91777400  0.50325500  1
  C  C67  1  0.32908500  0.33234000  0.49685800  1
  C  C68  1  0.62500000  0.36732900  0.24232900  1
  C  C69  1  0.52809500  0.27885400  0.24471600  1
  C  C70  1  0.72190500  0.46662000  0.25075900  1
  C  C71  1  0.91664600  0.41664600  0.50000000  1
  C  C72  1  0.08335400  0.58335400  0.50000000  1
  C  C73  1  0.16664600  0.16664600  0.00000000  1
  C  C74  1  0.66721900  0.16721900  0.50000000  1
  C  C75  1  0.33335400  0.33335400  0.00000000  1
  C  C76  1  0.83278100  0.33278100  0.50000000  1
  C  C77  1  0.41721900  0.41721900  0.00000000  1
  C  C78  1  0.58278100  0.58278100  0.00000000  1
  C  C79  1  0.21586100  0.47114600  0.74924100  1
  C  C80  1  0.03413900  0.28338000  0.75528400  1
  C  C81  1  0.12500000  0.38267100  0.75767100  1
  C  C82  1  0.83548100  0.83222600  0.50314200  1
  C  C83  1  0.16777400  0.67091500  0.00325500  1
  C  C84  1  0.03338000  0.77809500  0.74924100  1
  C  C85  1  0.53338000  0.78413900  0.25528400  1
  C  C86  1  0.66777400  0.66451900  0.49685800  1
  C  C87  1  0.33548100  0.83234000  0.00325500  1
