# generated using pymatgen
data_Cu4C3
_symmetry_space_group_name_H-M   'P 1'
_cell_length_a   7.14439100
_cell_length_b   8.27253872
_cell_length_c   8.50663843
_cell_angle_alpha   111.06129269
_cell_angle_beta   97.23004550
_cell_angle_gamma   113.77280404
_symmetry_Int_Tables_number   1
_chemical_formula_structural   Cu4C3
_chemical_formula_sum   'Cu16 C12'
_cell_volume   407.22277128
_cell_formula_units_Z   4
loop_
 _symmetry_equiv_pos_site_id
 _symmetry_equiv_pos_as_xyz
  1  'x, y, z'
loop_
 _atom_site_type_symbol
 _atom_site_label
 _atom_site_symmetry_multiplicity
 _atom_site_fract_x
 _atom_site_fract_y
 _atom_site_fract_z
 _atom_site_occupancy
  C  C0  1  0.23280100  0.45898400  0.07941000  1
  C  C1  1  0.97950000  0.57736000  0.11266400  1
  C  C2  1  0.02050000  0.42264000  0.88733600  1
  C  C3  1  0.33475000  0.79148900  0.79874900  1
  C  C4  1  0.76719900  0.54101600  0.92059000  1
  C  C5  1  0.22202000  0.46438200  0.53417300  1
  C  C6  1  0.66525000  0.20851100  0.20125100  1
  C  C7  1  0.77798000  0.53561800  0.46582700  1
  C  C8  1  0.23066300  0.83537300  0.20357700  1
  C  C9  1  0.76933700  0.16462700  0.79642300  1
  C  C10  1  0.71603000  0.86032600  0.17499900  1
  C  C11  1  0.28397000  0.13967400  0.82500100  1
  Cu  Cu12  1  0.01829506  0.89018274  0.05448919  1
  Cu  Cu13  1  0.54127465  0.37243367  0.16887146  1
  Cu  Cu14  1  0.06449319  0.81489693  0.41105051  1
  Cu  Cu15  1  0.96341310  0.12487027  0.92932045  1
  Cu  Cu16  1  0.45953034  0.62912532  0.83878799  1
  Cu  Cu17  1  0.76488849  0.99306566  0.30413240  1
  Cu  Cu18  1  0.42601210  0.09825246  0.97109232  1
  Cu  Cu19  1  0.36267252  0.71858447  0.31549171  1
  Cu  Cu20  1  0.65413607  0.62715465  0.34529307  1
  Cu  Cu21  1  0.98288124  0.18016658  0.60591161  1
  Cu  Cu22  1  0.69519398  0.72231617  0.81621950  1
  Cu  Cu23  1  0.27797828  0.97771814  0.71941448  1
  Cu  Cu24  1  0.57599985  0.87292573  0.00015440  1
  Cu  Cu25  1  0.66223554  0.27881885  0.65711245  1
  Cu  Cu26  1  0.39981830  0.41723878  0.68337692  1
  Cu  Cu27  1  0.33940597  0.31576147  0.20808951  1
