# generated using pymatgen
data_Cu5NiC4
_symmetry_space_group_name_H-M   'P 1'
_cell_length_a   5.82030389
_cell_length_b   5.82030389
_cell_length_c   5.82030389
_cell_angle_alpha   60.00000000
_cell_angle_beta   60.00000000
_cell_angle_gamma   60.00000000
_symmetry_Int_Tables_number   1
_chemical_formula_structural   Cu5NiC4
_chemical_formula_sum   'Cu5 Ni1 C4'
_cell_volume   139.41900674
_cell_formula_units_Z   1
loop_
 _symmetry_equiv_pos_site_id
 _symmetry_equiv_pos_as_xyz
  1  'x, y, z'
loop_
 _atom_site_type_symbol
 _atom_site_label
 _atom_site_symmetry_multiplicity
 _atom_site_fract_x
 _atom_site_fract_y
 _atom_site_fract_z
 _atom_site_occupancy
  C  C0  1  0.75000000  0.75000000  0.75000000  1
  C  C1  1  0.25000000  0.25000000  0.25000000  1
  C  C2  1  0.00000000  0.00000000  0.00000000  1
  C  C3  1  0.50000000  0.50000000  0.50000000  1
  Cu  Cu4  1  0.78713505  0.23200256  0.24280561  1
  Cu  Cu5  1  0.25809911  0.73722280  0.75717573  1
  Cu  Cu6  1  0.74678034  0.21797876  0.73107631  1
  Cu  Cu7  1  0.23224663  0.73556241  0.27334917  1
  Cu  Cu8  1  0.76316779  0.77093280  0.25677716  1
  Ni  Ni9  1  0.25275536  0.25275536  0.74724464  1
