# generated using pymatgen
data_Cu3NiC6
_symmetry_space_group_name_H-M   'P 1'
_cell_length_a   8.46288839
_cell_length_b   8.46288839
_cell_length_c   6.47876100
_cell_angle_alpha   90.00000000
_cell_angle_beta   90.00000000
_cell_angle_gamma   129.72240491
_symmetry_Int_Tables_number   1
_chemical_formula_structural   Cu3NiC6
_chemical_formula_sum   'Cu3 Ni1 C6'
_cell_volume   356.89467491
_cell_formula_units_Z   1
loop_
 _symmetry_equiv_pos_site_id
 _symmetry_equiv_pos_as_xyz
  1  'x, y, z'
loop_
 _atom_site_type_symbol
 _atom_site_label
 _atom_site_symmetry_multiplicity
 _atom_site_fract_x
 _atom_site_fract_y
 _atom_site_fract_z
 _atom_site_occupancy
  C  C0  1  0.79220700  0.20779300  0.25000000  1
  C  C1  1  0.20779300  0.79220700  0.75000000  1
  C  C2  1  0.41603700  0.58396300  0.25000000  1
  C  C3  1  0.58396300  0.41603700  0.75000000  1
  Cu  Cu4  1  0.11990025  0.31981358  0.76443086  1
  Cu  Cu5  1  0.90734511  0.69488132  0.23382455  1
  Ni  Ni6  1  0.26929500  0.06872500  0.25000000  1
  Cu  Cu7  1  0.77099790  0.96607535  0.70546126  1
  C  C8  1  0.00000000  0.00000000  0.00000000  1
  C  C9  1  0.00000000  0.00000000  0.50000000  1
