# generated using pymatgen
data_CuNi11C8
_symmetry_space_group_name_H-M   'P 1'
_cell_length_a   9.25000635
_cell_length_b   9.25000635
_cell_length_c   9.25000722
_cell_angle_alpha   106.81585775
_cell_angle_beta   106.81585775
_cell_angle_gamma   106.81586035
_symmetry_Int_Tables_number   1
_chemical_formula_structural   CuNi11C8
_chemical_formula_sum   'Cu1 Ni11 C8'
_cell_volume   662.41419563
_cell_formula_units_Z   1
loop_
 _symmetry_equiv_pos_site_id
 _symmetry_equiv_pos_as_xyz
  1  'x, y, z'
loop_
 _atom_site_type_symbol
 _atom_site_label
 _atom_site_symmetry_multiplicity
 _atom_site_fract_x
 _atom_site_fract_y
 _atom_site_fract_z
 _atom_site_occupancy
  C  C0  1  0.00000000  0.00000000  0.00000000  1
  C  C1  1  0.59720900  0.52095300  0.80342300  1
  C  C2  1  0.52095300  0.80342300  0.59720900  1
  C  C3  1  0.80342300  0.59720900  0.52095300  1
  C  C4  1  0.40279100  0.47904700  0.19657700  1
  C  C5  1  0.47904700  0.19657700  0.40279100  1
  C  C6  1  0.19657700  0.40279100  0.47904700  1
  C  C7  1  0.50000000  0.50000000  0.50000000  1
  Ni  Ni8  1  0.56925500  0.17912600  0.72190200  1
  Ni  Ni9  1  0.17912600  0.72190200  0.56925500  1
  Ni  Ni10  1  0.72190200  0.56925500  0.17912600  1
  Ni  Ni11  1  0.43074500  0.82087400  0.27809800  1
  Ni  Ni12  1  0.82087400  0.27809800  0.43074500  1
  Ni  Ni13  1  0.27809800  0.43074500  0.82087400  1
  Cu  Cu14  1  0.67204232  0.89250189  0.95882406  1
  Ni  Ni15  1  0.88454000  0.96175200  0.66523600  1
  Ni  Ni16  1  0.96175200  0.66523600  0.88454000  1
  Ni  Ni17  1  0.33476400  0.11546000  0.03824800  1
  Ni  Ni18  1  0.11546000  0.03824800  0.33476400  1
  Ni  Ni19  1  0.03824800  0.33476400  0.11546000  1
