# generated using pymatgen
data_Cu3NiC
_symmetry_space_group_name_H-M   'P 1'
_cell_length_a   5.10056582
_cell_length_b   5.10063200
_cell_length_c   5.46607080
_cell_angle_alpha   62.18776832
_cell_angle_beta   117.81215092
_cell_angle_gamma   119.99891210
_symmetry_Int_Tables_number   1
_chemical_formula_structural   Cu3NiC
_chemical_formula_sum   'Cu6 Ni2 C2'
_cell_volume   103.75352195
_cell_formula_units_Z   2
loop_
 _symmetry_equiv_pos_site_id
 _symmetry_equiv_pos_as_xyz
  1  'x, y, z'
loop_
 _atom_site_type_symbol
 _atom_site_label
 _atom_site_symmetry_multiplicity
 _atom_site_fract_x
 _atom_site_fract_y
 _atom_site_fract_z
 _atom_site_occupancy
  C  C0  1  0.65333200  0.34666600  0.95999500  1
  C  C1  1  0.34666700  0.65333600  0.04000500  1
  Ni  Ni2  1  0.85680400  0.14319200  0.57043600  1
  Ni  Ni3  1  0.14319600  0.85681000  0.42956400  1
  Cu  Cu4  1  0.44689200  0.25478800  0.24638300  1
  Cu  Cu5  1  0.05429100  0.55312500  0.24639000  1
  Cu  Cu6  1  0.74518600  0.94568900  0.24640800  1
  Cu  Cu7  1  0.55310800  0.74520200  0.75361600  1
  Cu  Cu8  1  0.94571000  0.44687800  0.75361000  1
  Cu  Cu9  1  0.25481300  0.05431500  0.75359300  1
