# generated using pymatgen
data_Cu2C3
_symmetry_space_group_name_H-M   'P 1'
_cell_length_a   8.74093900
_cell_length_b   7.55247300
_cell_length_c   12.16052891
_cell_angle_alpha   59.35365698
_cell_angle_beta   90.00000000
_cell_angle_gamma   90.00000000
_symmetry_Int_Tables_number   1
_chemical_formula_structural   Cu2C3
_chemical_formula_sum   'Cu8 C12'
_cell_volume   690.66080307
_cell_formula_units_Z   4
loop_
 _symmetry_equiv_pos_site_id
 _symmetry_equiv_pos_as_xyz
  1  'x, y, z'
loop_
 _atom_site_type_symbol
 _atom_site_label
 _atom_site_symmetry_multiplicity
 _atom_site_fract_x
 _atom_site_fract_y
 _atom_site_fract_z
 _atom_site_occupancy
  C  C0  1  0.65821700  0.69843400  0.35501600  1
  C  C1  1  0.15821700  0.30156600  0.14498400  1
  C  C2  1  0.34178300  0.30156600  0.64498400  1
  C  C3  1  0.84178300  0.69843400  0.85501600  1
  C  C4  1  0.64892200  0.29891600  0.66085100  1
  C  C5  1  0.14892200  0.70108400  0.83914900  1
  C  C6  1  0.35107800  0.70108400  0.33914900  1
  C  C7  1  0.85107800  0.29891600  0.16085100  1
  C  C8  1  0.75493500  0.00507200  0.59150000  1
  C  C9  1  0.25493500  0.99492800  0.90850000  1
  C  C10  1  0.24506500  0.99492800  0.40850000  1
  C  C11  1  0.74506500  0.00507200  0.09150000  1
  Cu  Cu12  1  0.52444511  0.79921448  0.66704301  1
  Cu  Cu13  1  0.01679326  0.21812648  0.82633131  1
  Cu  Cu14  1  0.48046890  0.20629103  0.33565149  1
  Cu  Cu15  1  0.97721130  0.78240627  0.18001691  1
  Cu  Cu16  1  0.00355985  0.23071886  0.52431091  1
  Cu  Cu17  1  0.51787467  0.76407301  0.00449895  1
  Cu  Cu18  1  0.01945659  0.78362430  0.47895434  1
  Cu  Cu19  1  0.49586981  0.21476731  0.03369528  1
