# generated using pymatgen
data_Cu2C5
_symmetry_space_group_name_H-M   'P 1'
_cell_length_a   10.23738906
_cell_length_b   10.23738906
_cell_length_c   6.65936304
_cell_angle_alpha   86.15663868
_cell_angle_beta   86.15663868
_cell_angle_gamma   38.41760399
_symmetry_Int_Tables_number   1
_chemical_formula_structural   Cu2C5
_chemical_formula_sum   'Cu4 C10'
_cell_volume   432.59105419
_cell_formula_units_Z   2
loop_
 _symmetry_equiv_pos_site_id
 _symmetry_equiv_pos_as_xyz
  1  'x, y, z'
loop_
 _atom_site_type_symbol
 _atom_site_label
 _atom_site_symmetry_multiplicity
 _atom_site_fract_x
 _atom_site_fract_y
 _atom_site_fract_z
 _atom_site_occupancy
  Cu  Cu0  1  0.58848052  0.79913273  0.79841528  1
  Cu  Cu1  1  0.18059002  0.41215073  0.70962327  1
  Cu  Cu2  1  0.37334621  0.20928131  0.21740688  1
  Cu  Cu3  1  0.78873318  0.63571075  0.33275745  1
  C  C4  1  0.77892800  0.22107200  0.25000000  1
  C  C5  1  0.22107200  0.77892800  0.75000000  1
  C  C6  1  0.37468800  0.78049300  0.22736100  1
  C  C7  1  0.21950700  0.62531200  0.27263900  1
  C  C8  1  0.62531200  0.21950700  0.77263900  1
  C  C9  1  0.78049300  0.37468800  0.72736100  1
  C  C10  1  0.13219700  0.17470200  0.98622100  1
  C  C11  1  0.82529800  0.86780300  0.51377900  1
  C  C12  1  0.86780300  0.82529800  0.01377900  1
  C  C13  1  0.17470200  0.13219700  0.48622100  1
