# generated using pymatgen
data_Cu3NiC14
_symmetry_space_group_name_H-M   'P 1'
_cell_length_a   4.61641200
_cell_length_b   4.61641200
_cell_length_c   9.35829300
_cell_angle_alpha   90.00000000
_cell_angle_beta   90.00000000
_cell_angle_gamma   90.00000000
_symmetry_Int_Tables_number   1
_chemical_formula_structural   Cu3NiC14
_chemical_formula_sum   'Cu3 Ni1 C14'
_cell_volume   199.43701297
_cell_formula_units_Z   1
loop_
 _symmetry_equiv_pos_site_id
 _symmetry_equiv_pos_as_xyz
  1  'x, y, z'
loop_
 _atom_site_type_symbol
 _atom_site_label
 _atom_site_symmetry_multiplicity
 _atom_site_fract_x
 _atom_site_fract_y
 _atom_site_fract_z
 _atom_site_occupancy
  C  C0  1  0.00000000  0.00000000  0.00000000  1
  C  C1  1  0.50000000  0.50000000  0.50000000  1
  Cu  Cu2  1  0.02899976  0.94990756  0.33561708  1
  Cu  Cu3  1  0.98635186  0.98874321  0.66621870  1
  Ni  Ni4  1  0.50000000  0.50000000  0.83310700  1
  Cu  Cu5  1  0.49095797  0.47312994  0.17645215  1
  C  C6  1  0.29806700  0.29806700  0.00000000  1
  C  C7  1  0.70193300  0.70193300  0.00000000  1
  C  C8  1  0.20193300  0.79806700  0.50000000  1
  C  C9  1  0.79806700  0.20193300  0.50000000  1
  C  C10  1  0.30926500  0.30926500  0.34107900  1
  C  C11  1  0.69073500  0.69073500  0.65892100  1
  C  C12  1  0.69073500  0.69073500  0.34107900  1
  C  C13  1  0.19073500  0.80926500  0.84107900  1
  C  C14  1  0.19073500  0.80926500  0.15892100  1
  C  C15  1  0.30926500  0.30926500  0.65892100  1
  C  C16  1  0.80926500  0.19073500  0.15892100  1
  C  C17  1  0.80926500  0.19073500  0.84107900  1
