# generated using pymatgen
data_Cu5Ni2C11
_symmetry_space_group_name_H-M   'P 1'
_cell_length_a   15.61630400
_cell_length_b   7.13318900
_cell_length_c   7.14834971
_cell_angle_alpha   89.81638644
_cell_angle_beta   90.00000000
_cell_angle_gamma   90.00000000
_symmetry_Int_Tables_number   1
_chemical_formula_structural   Cu5Ni2C11
_chemical_formula_sum   'Cu20 Ni8 C44'
_cell_volume   796.27952082
_cell_formula_units_Z   4
loop_
 _symmetry_equiv_pos_site_id
 _symmetry_equiv_pos_as_xyz
  1  'x, y, z'
loop_
 _atom_site_type_symbol
 _atom_site_label
 _atom_site_symmetry_multiplicity
 _atom_site_fract_x
 _atom_site_fract_y
 _atom_site_fract_z
 _atom_site_occupancy
  Ni  Ni0  1  0.16693500  0.00206500  0.90153600  1
  Ni  Ni1  1  0.33306500  0.50206500  0.90153600  1
  Ni  Ni2  1  0.92342200  0.41069200  0.69486700  1
  Ni  Ni3  1  0.57657800  0.91069200  0.69486700  1
  Ni  Ni4  1  0.42342200  0.08930800  0.30513300  1
  Ni  Ni5  1  0.07657800  0.58930800  0.30513300  1
  Ni  Ni6  1  0.66693500  0.49793500  0.09846400  1
  Ni  Ni7  1  0.83306500  0.99793500  0.09846400  1
  C  C8  1  0.12453300  0.47000700  0.84449400  1
  C  C9  1  0.37546700  0.97000700  0.84449400  1
  C  C10  1  0.62453300  0.02999300  0.15550600  1
  C  C11  1  0.87546700  0.52999300  0.15550600  1
  Cu  Cu12  1  0.02404500  0.09293500  0.79319600  1
  Cu  Cu13  1  0.47595500  0.59293500  0.79319600  1
  Cu  Cu14  1  0.77410900  0.47666100  0.78432600  1
  Cu  Cu15  1  0.72589100  0.97666100  0.78432600  1
  Cu  Cu16  1  0.50495400  0.26212900  0.75056100  1
  Cu  Cu17  1  0.99504600  0.76212900  0.75056100  1
  Cu  Cu18  1  0.62083800  0.49397200  0.67930900  1
  Cu  Cu19  1  0.87916200  0.99397200  0.67930900  1
  Cu  Cu20  1  0.25842900  0.49964000  0.54698600  1
  Cu  Cu21  1  0.24157100  0.99964000  0.54698600  1
  Cu  Cu22  1  0.75842900  0.00036000  0.45301400  1
  Cu  Cu23  1  0.74157100  0.50036000  0.45301400  1
  Cu  Cu24  1  0.12083800  0.00602800  0.32069100  1
  Cu  Cu25  1  0.37916200  0.50602800  0.32069100  1
  Cu  Cu26  1  0.00495400  0.23787100  0.24943900  1
  Cu  Cu27  1  0.49504600  0.73787100  0.24943900  1
  Cu  Cu28  1  0.27410900  0.02333900  0.21567400  1
  Cu  Cu29  1  0.22589100  0.52333900  0.21567400  1
  Cu  Cu30  1  0.52404500  0.40706500  0.20680400  1
  Cu  Cu31  1  0.97595500  0.90706500  0.20680400  1
  C  C32  1  0.83809900  0.45762900  0.91208700  1
  C  C33  1  0.66190100  0.95762900  0.91208700  1
  C  C34  1  0.08568200  0.21794900  0.84370000  1
  C  C35  1  0.41431800  0.71794900  0.84370000  1
  C  C36  1  0.81024700  0.00465700  0.82859600  1
  C  C37  1  0.45260500  0.40355700  0.82604900  1
  C  C38  1  0.68975300  0.50465700  0.82859600  1
  C  C39  1  0.04739500  0.90355700  0.82604900  1
  C  C40  1  0.47830500  0.07768800  0.74623500  1
  C  C41  1  0.02169500  0.57768800  0.74623500  1
  C  C42  1  0.23408600  0.49592600  0.73211400  1
  C  C43  1  0.94604700  0.13921100  0.71959600  1
  C  C44  1  0.26591400  0.99592600  0.73211400  1
  C  C45  1  0.55395300  0.63921100  0.71959600  1
  C  C46  1  0.58306400  0.30569200  0.68116400  1
  C  C47  1  0.91693600  0.80569200  0.68116400  1
  C  C48  1  0.80119000  0.46311300  0.59583200  1
  C  C49  1  0.69881000  0.96311300  0.59583200  1
  C  C50  1  0.34167700  0.46845300  0.50373500  1
  C  C51  1  0.84167700  0.03154700  0.49626500  1
  C  C52  1  0.15832300  0.96845300  0.50373500  1
  C  C53  1  0.65832300  0.53154700  0.49626500  1
  C  C54  1  0.30119000  0.03688700  0.40416800  1
  C  C55  1  0.19881000  0.53688700  0.40416800  1
  C  C56  1  0.08306400  0.19430800  0.31883600  1
  C  C57  1  0.41693600  0.69430800  0.31883600  1
  C  C58  1  0.44604700  0.36078900  0.28040400  1
  C  C59  1  0.73408600  0.00407400  0.26788600  1
  C  C60  1  0.05395300  0.86078900  0.28040400  1
  C  C61  1  0.76591400  0.50407400  0.26788600  1
  C  C62  1  0.97830500  0.42231200  0.25376500  1
  C  C63  1  0.52169500  0.92231200  0.25376500  1
  C  C64  1  0.95260500  0.09644300  0.17395100  1
  C  C65  1  0.31024700  0.49534300  0.17140400  1
  C  C66  1  0.54739500  0.59644300  0.17395100  1
  C  C67  1  0.18975300  0.99534300  0.17140400  1
  C  C68  1  0.58568200  0.28205100  0.15630000  1
  C  C69  1  0.91431800  0.78205100  0.15630000  1
  C  C70  1  0.33809900  0.04237100  0.08791300  1
  C  C71  1  0.16190100  0.54237100  0.08791300  1
