# generated using pymatgen
data_CuC63
_symmetry_space_group_name_H-M   'P 1'
_cell_length_a   8.62658200
_cell_length_b   8.62658200
_cell_length_c   8.62649300
_cell_angle_alpha   90.00000000
_cell_angle_beta   90.00000000
_cell_angle_gamma   90.00000000
_symmetry_Int_Tables_number   1
_chemical_formula_structural   CuC63
_chemical_formula_sum   'Cu1 C63'
_cell_volume   641.96564010
_cell_formula_units_Z   1
loop_
 _symmetry_equiv_pos_site_id
 _symmetry_equiv_pos_as_xyz
  1  'x, y, z'
loop_
 _atom_site_type_symbol
 _atom_site_label
 _atom_site_symmetry_multiplicity
 _atom_site_fract_x
 _atom_site_fract_y
 _atom_site_fract_z
 _atom_site_occupancy
  Cu  Cu0  1  0.00600155  0.01677806  0.97646056  1
  C  C1  1  0.50000000  0.00000000  0.00000000  1
  C  C2  1  0.00000000  0.50000000  0.00000000  1
  C  C3  1  0.00000000  0.00000000  0.50000000  1
  C  C4  1  0.50000000  0.00000000  0.50000000  1
  C  C5  1  0.00000000  0.50000000  0.50000000  1
  C  C6  1  0.50000000  0.50000000  0.50000000  1
  C  C7  1  0.25615700  0.25615700  0.00000000  1
  C  C8  1  0.74384300  0.25615700  0.00000000  1
  C  C9  1  0.25615700  0.74384300  0.00000000  1
  C  C10  1  0.74384300  0.74384300  0.00000000  1
  C  C11  1  0.25096100  0.25096100  0.50000000  1
  C  C12  1  0.74903900  0.25096100  0.50000000  1
  C  C13  1  0.25096100  0.74903900  0.50000000  1
  C  C14  1  0.74903900  0.74903900  0.50000000  1
  C  C15  1  0.25646300  0.00000000  0.25634900  1
  C  C16  1  0.74353700  0.00000000  0.25634900  1
  C  C17  1  0.25061700  0.50000000  0.25115500  1
  C  C18  1  0.74938300  0.50000000  0.25115500  1
  C  C19  1  0.25646300  0.00000000  0.74365100  1
  C  C20  1  0.74353700  0.00000000  0.74365100  1
  C  C21  1  0.25061700  0.50000000  0.74884500  1
  C  C22  1  0.74938300  0.50000000  0.74884500  1
  C  C23  1  0.00000000  0.25646300  0.25634900  1
  C  C24  1  0.50000000  0.25061700  0.25115500  1
  C  C25  1  0.00000000  0.74353700  0.25634900  1
  C  C26  1  0.50000000  0.74938300  0.25115500  1
  C  C27  1  0.00000000  0.25646300  0.74365100  1
  C  C28  1  0.50000000  0.25061700  0.74884500  1
  C  C29  1  0.00000000  0.74353700  0.74365100  1
  C  C30  1  0.50000000  0.74938300  0.74884500  1
  C  C31  1  0.50000000  0.50000000  0.00000000  1
  C  C32  1  0.00000000  0.00000000  0.25893000  1
  C  C33  1  0.50000000  0.00000000  0.25116200  1
  C  C34  1  0.00000000  0.50000000  0.25116200  1
  C  C35  1  0.50000000  0.50000000  0.25417000  1
  C  C36  1  0.00000000  0.00000000  0.74107000  1
  C  C37  1  0.50000000  0.00000000  0.74883800  1
  C  C38  1  0.00000000  0.50000000  0.74883800  1
  C  C39  1  0.50000000  0.50000000  0.74583000  1
  C  C40  1  0.24950400  0.24950400  0.24909400  1
  C  C41  1  0.75049600  0.24950400  0.24909400  1
  C  C42  1  0.24950400  0.75049600  0.24909400  1
  C  C43  1  0.75049600  0.75049600  0.24909400  1
  C  C44  1  0.24950400  0.24950400  0.75090600  1
  C  C45  1  0.75049600  0.24950400  0.75090600  1
  C  C46  1  0.24950400  0.75049600  0.75090600  1
  C  C47  1  0.75049600  0.75049600  0.75090600  1
  C  C48  1  0.25877000  0.00000000  0.00000000  1
  C  C49  1  0.74123000  0.00000000  0.00000000  1
  C  C50  1  0.24658800  0.50000000  0.00000000  1
  C  C51  1  0.75341200  0.50000000  0.00000000  1
  C  C52  1  0.25097700  0.00000000  0.50000000  1
  C  C53  1  0.74902300  0.00000000  0.50000000  1
  C  C54  1  0.24967800  0.50000000  0.50000000  1
  C  C55  1  0.75032200  0.50000000  0.50000000  1
  C  C56  1  0.00000000  0.25877000  0.00000000  1
  C  C57  1  0.50000000  0.24658800  0.00000000  1
  C  C58  1  0.00000000  0.74123000  0.00000000  1
  C  C59  1  0.50000000  0.75341200  0.00000000  1
  C  C60  1  0.00000000  0.25097700  0.50000000  1
  C  C61  1  0.50000000  0.24967800  0.50000000  1
  C  C62  1  0.00000000  0.74902300  0.50000000  1
  C  C63  1  0.50000000  0.75032200  0.50000000  1
