# generated using pymatgen
data_Cu3C7
_symmetry_space_group_name_H-M   'P 1'
_cell_length_a   7.91369511
_cell_length_b   7.91369511
_cell_length_c   7.91369511
_cell_angle_alpha   109.47122063
_cell_angle_beta   109.47122063
_cell_angle_gamma   109.47122063
_symmetry_Int_Tables_number   1
_chemical_formula_structural   Cu3C7
_chemical_formula_sum   'Cu6 C14'
_cell_volume   381.51889484
_cell_formula_units_Z   2
loop_
 _symmetry_equiv_pos_site_id
 _symmetry_equiv_pos_as_xyz
  1  'x, y, z'
loop_
 _atom_site_type_symbol
 _atom_site_label
 _atom_site_symmetry_multiplicity
 _atom_site_fract_x
 _atom_site_fract_y
 _atom_site_fract_z
 _atom_site_occupancy
  Cu  Cu0  1  0.63463965  0.36959849  0.25045195  1
  Cu  Cu1  1  0.37361595  0.23923391  0.64446924  1
  Cu  Cu2  1  0.14129091  0.76185503  0.87400194  1
  Cu  Cu3  1  0.72513332  0.89655507  0.15266317  1
  Cu  Cu4  1  0.25827529  0.63623571  0.38862573  1
  Cu  Cu5  1  0.85472140  0.12065773  0.74178255  1
  C  C6  1  0.87500000  0.25000000  0.12500000  1
  C  C7  1  0.37500000  0.62500000  0.75000000  1
  C  C8  1  0.62500000  0.75000000  0.37500000  1
  C  C9  1  0.75000000  0.37500000  0.62500000  1
  C  C10  1  0.25000000  0.12500000  0.87500000  1
  C  C11  1  0.12500000  0.87500000  0.25000000  1
  C  C12  1  0.50000000  0.00000000  0.83464300  1
  C  C13  1  0.16535700  0.16535700  0.16535700  1
  C  C14  1  0.83464300  0.50000000  0.00000000  1
  C  C15  1  0.00000000  0.83464300  0.50000000  1
  C  C16  1  0.33464300  0.50000000  0.00000000  1
  C  C17  1  0.00000000  0.33464300  0.50000000  1
  C  C18  1  0.50000000  0.00000000  0.33464300  1
  C  C19  1  0.66535700  0.66535700  0.66535700  1
