# generated using pymatgen
data_Cu2NiC6
_symmetry_space_group_name_H-M   'P 1'
_cell_length_a   3.10399800
_cell_length_b   4.78788400
_cell_length_c   14.13417488
_cell_angle_alpha   87.75320936
_cell_angle_beta   90.00000000
_cell_angle_gamma   90.00000000
_symmetry_Int_Tables_number   1
_chemical_formula_structural   Cu2NiC6
_chemical_formula_sum   'Cu4 Ni2 C12'
_cell_volume   209.89471990
_cell_formula_units_Z   2
loop_
 _symmetry_equiv_pos_site_id
 _symmetry_equiv_pos_as_xyz
  1  'x, y, z'
loop_
 _atom_site_type_symbol
 _atom_site_label
 _atom_site_symmetry_multiplicity
 _atom_site_fract_x
 _atom_site_fract_y
 _atom_site_fract_z
 _atom_site_occupancy
  C  C0  1  0.00000000  0.00000000  0.00000000  1
  C  C1  1  0.00000000  0.95269500  0.33247900  1
  C  C2  1  0.00000000  0.04730500  0.66752100  1
  C  C3  1  0.50000000  0.41038500  0.16757700  1
  C  C4  1  0.50000000  0.50000000  0.50000000  1
  C  C5  1  0.50000000  0.58961500  0.83242300  1
  C  C6  1  0.50000000  0.83272100  0.93486800  1
  C  C7  1  0.00000000  0.76255800  0.76787600  1
  C  C8  1  0.00000000  0.67630100  0.43420600  1
  C  C9  1  0.00000000  0.23744200  0.23212400  1
  C  C10  1  0.00000000  0.32369900  0.56579400  1
  C  C11  1  0.50000000  0.16727900  0.06513200  1
  Cu  Cu12  1  0.34048216  0.74470318  0.27434255  1
  Ni  Ni13  1  0.50000000  0.84287400  0.60632000  1
  Cu  Cu14  1  0.00288861  0.66999989  0.11419307  1
  Cu  Cu15  1  0.98740692  0.36102971  0.89886487  1
  Cu  Cu16  1  0.51899304  0.19921583  0.39844081  1
  Ni  Ni17  1  0.50000000  0.25972900  0.73564800  1
