# generated using pymatgen
data_Cu17NiC8
_symmetry_space_group_name_H-M   'P 1'
_cell_length_a   6.04699800
_cell_length_b   8.94277100
_cell_length_c   17.01404686
_cell_angle_alpha   65.17827940
_cell_angle_beta   90.00000000
_cell_angle_gamma   90.00000000
_symmetry_Int_Tables_number   1
_chemical_formula_structural   Cu17NiC8
_chemical_formula_sum   'Cu34 Ni2 C16'
_cell_volume   835.06994134
_cell_formula_units_Z   2
loop_
 _symmetry_equiv_pos_site_id
 _symmetry_equiv_pos_as_xyz
  1  'x, y, z'
loop_
 _atom_site_type_symbol
 _atom_site_label
 _atom_site_symmetry_multiplicity
 _atom_site_fract_x
 _atom_site_fract_y
 _atom_site_fract_z
 _atom_site_occupancy
  C  C0  1  0.23021200  0.13979800  0.89980700  1
  C  C1  1  0.26978800  0.13979800  0.39980700  1
  C  C2  1  0.73021200  0.86020200  0.60019300  1
  C  C3  1  0.76978800  0.86020200  0.10019300  1
  C  C4  1  0.18673400  0.06935200  0.64840200  1
  C  C5  1  0.63656100  0.35927000  0.47727100  1
  C  C6  1  0.08998100  0.58299600  0.30215200  1
  C  C7  1  0.13656100  0.64073000  0.02272900  1
  C  C8  1  0.81326600  0.93064800  0.35159800  1
  C  C9  1  0.36343900  0.64073000  0.52272900  1
  C  C10  1  0.91001900  0.41700400  0.69784800  1
  C  C11  1  0.58998100  0.41700400  0.19784800  1
  C  C12  1  0.31326600  0.06935200  0.14840200  1
  C  C13  1  0.68673400  0.93064800  0.85159800  1
  C  C14  1  0.41001900  0.58299600  0.80215200  1
  C  C15  1  0.86343900  0.35927000  0.97727100  1
  Cu  Cu16  1  0.43381611  0.66218610  0.89348244  1
  Cu  Cu17  1  0.48150508  0.38929616  0.37996353  1
  Cu  Cu18  1  0.08444051  0.67225654  0.38784575  1
  Cu  Cu19  1  0.54420371  0.58591008  0.60320270  1
  Cu  Cu20  1  0.12049251  0.36160514  0.04669936  1
  Cu  Cu21  1  0.31717840  0.35701960  0.24083929  1
  Cu  Cu22  1  0.90227971  0.89274635  0.46216921  1
  Ni  Ni23  1  0.03322000  0.40176200  0.88049600  1
  Cu  Cu24  1  0.91775250  0.09067940  0.82592722  1
  Cu  Cu25  1  0.38081712  0.91007228  0.67230981  1
  Cu  Cu26  1  0.38592537  0.07981779  0.05252279  1
  Cu  Cu27  1  0.96358857  0.59126925  0.11251783  1
  Cu  Cu28  1  0.97844552  0.64668039  0.63359092  1
  Cu  Cu29  1  0.02079046  0.38765103  0.37044458  1
  Cu  Cu30  1  0.42316524  0.35348855  0.56356665  1
  Ni  Ni31  1  0.55084000  0.93705500  0.20225500  1
  Cu  Cu32  1  0.62366293  0.60055541  0.46529492  1
  Cu  Cu33  1  0.50793040  0.63506089  0.13781328  1
  Cu  Cu34  1  0.61619011  0.16802982  0.50253693  1
  Cu  Cu35  1  0.60724356  0.32566080  0.12117314  1
  Cu  Cu36  1  0.94690744  0.62609479  0.94365833  1
  Cu  Cu37  1  0.05266938  0.86947364  0.99665322  1
  Cu  Cu38  1  0.16957043  0.31930676  0.75069589  1
  Cu  Cu39  1  0.81883426  0.65274526  0.25251516  1
  Cu  Cu40  1  0.05922767  0.06525284  0.28845693  1
  Cu  Cu41  1  0.44922809  0.05908733  0.80525913  1
  Cu  Cu42  1  0.96316851  0.96560047  0.69390109  1
  Cu  Cu43  1  0.85531558  0.13222709  0.99182600  1
  Cu  Cu44  1  0.44449578  0.86714824  0.49816847  1
  Cu  Cu45  1  0.60700677  0.09525070  0.32636353  1
  Cu  Cu46  1  0.67913282  0.65073631  0.75759445  1
  Cu  Cu47  1  0.09732763  0.09813810  0.53700575  1
  Cu  Cu48  1  0.48977171  0.37389767  0.87629955  1
  Cu  Cu49  1  0.11145310  0.92080018  0.17074334  1
  Cu  Cu50  1  0.93701925  0.31917279  0.61322191  1
  Cu  Cu51  1  0.60719222  0.93615843  0.95523096  1
