# generated using pymatgen
data_Cu11Ni2C3
_symmetry_space_group_name_H-M   'P 1'
_cell_length_a   7.39039628
_cell_length_b   7.39039628
_cell_length_c   14.22427400
_cell_angle_alpha   90.00000000
_cell_angle_beta   90.00000000
_cell_angle_gamma   120.00000248
_symmetry_Int_Tables_number   1
_chemical_formula_structural   Cu11Ni2C3
_chemical_formula_sum   'Cu33 Ni6 C9'
_cell_volume   672.81580144
_cell_formula_units_Z   3
loop_
 _symmetry_equiv_pos_site_id
 _symmetry_equiv_pos_as_xyz
  1  'x, y, z'
loop_
 _atom_site_type_symbol
 _atom_site_label
 _atom_site_symmetry_multiplicity
 _atom_site_fract_x
 _atom_site_fract_y
 _atom_site_fract_z
 _atom_site_occupancy
  Ni  Ni0  1  0.87354500  0.85907300  0.66710400  1
  Ni  Ni1  1  0.51293000  0.17075200  0.80053500  1
  Ni  Ni2  1  0.98552700  0.12645500  0.00043700  1
  Ni  Ni3  1  0.82924800  0.34217800  0.46720200  1
  Ni  Ni4  1  0.65782200  0.48707000  0.13386900  1
  Ni  Ni5  1  0.14092700  0.01447300  0.33377000  1
  C  C6  1  0.50121900  0.67548000  0.87438200  1
  C  C7  1  0.17426100  0.49878100  0.20771500  1
  C  C8  1  0.32452000  0.82573900  0.54104800  1
  C  C9  1  0.98299400  0.66357100  0.88484800  1
  C  C10  1  0.13754100  0.43712400  0.71902700  1
  C  C11  1  0.56287600  0.70041700  0.38569400  1
  C  C12  1  0.68057700  0.01700600  0.21818100  1
  C  C13  1  0.29958300  0.86245900  0.05236100  1
  C  C14  1  0.33642900  0.31942300  0.55151500  1
  Cu  Cu15  1  0.00066300  0.74966600  0.02039600  1
  Cu  Cu16  1  0.84415900  0.37039800  0.92628600  1
  Cu  Cu17  1  0.74900300  0.99933700  0.35372900  1
  Cu  Cu18  1  0.41176800  0.09153100  0.49591600  1
  Cu  Cu19  1  0.86363700  0.90826900  0.17773500  1
  Cu  Cu20  1  0.24844100  0.30067400  0.18778500  1
  Cu  Cu21  1  0.90846900  0.32023700  0.16258300  1
  Cu  Cu22  1  0.69932600  0.94776700  0.85445200  1
  Cu  Cu23  1  0.04463100  0.13636300  0.51106900  1
  Cu  Cu24  1  0.59295500  0.00043700  0.08653800  1
  Cu  Cu25  1  0.67976300  0.58823200  0.82924900  1
  Cu  Cu26  1  0.25033400  0.25099700  0.68706300  1
  Cu  Cu27  1  0.60360300  0.68335000  0.98758000  1
  Cu  Cu28  1  0.36006800  0.14778900  0.01991500  1
  Cu  Cu29  1  0.07974700  0.39639700  0.32091300  1
  Cu  Cu30  1  0.62960200  0.47376100  0.59295300  1
  Cu  Cu31  1  0.32100200  0.77716500  0.91257800  1
  Cu  Cu32  1  0.40748200  0.40704500  0.41987100  1
  Cu  Cu33  1  0.32496400  0.74853800  0.41854000  1
  Cu  Cu34  1  0.31665000  0.92025300  0.65424600  1
  Cu  Cu35  1  0.42357400  0.67503600  0.75187300  1
  Cu  Cu36  1  0.85221100  0.21227900  0.68658200  1
  Cu  Cu37  1  0.78772100  0.63993200  0.35324800  1
  Cu  Cu38  1  0.45616400  0.67899800  0.24591100  1
  Cu  Cu39  1  0.99956300  0.59251800  0.75320500  1
  Cu  Cu40  1  0.09173100  0.95536900  0.84440200  1
  Cu  Cu41  1  0.52623900  0.15584100  0.25962000  1
  Cu  Cu42  1  0.28096600  0.41065900  0.87880500  1
  Cu  Cu43  1  0.12969300  0.71903400  0.21213900  1
  Cu  Cu44  1  0.25146200  0.57642600  0.08520600  1
  Cu  Cu45  1  0.05223300  0.75155900  0.52111900  1
  Cu  Cu46  1  0.22283500  0.54383600  0.57924400  1
  Cu  Cu47  1  0.58934100  0.87030700  0.54547200  1
