# generated using pymatgen
data_CuC11
_symmetry_space_group_name_H-M   'P 1'
_cell_length_a   9.90519100
_cell_length_b   10.30958000
_cell_length_c   14.75352000
_cell_angle_alpha   90.00000000
_cell_angle_beta   90.00000000
_cell_angle_gamma   90.00000000
_symmetry_Int_Tables_number   1
_chemical_formula_structural   CuC11
_chemical_formula_sum   'Cu8 C88'
_cell_volume   1506.60525231
_cell_formula_units_Z   8
loop_
 _symmetry_equiv_pos_site_id
 _symmetry_equiv_pos_as_xyz
  1  'x, y, z'
loop_
 _atom_site_type_symbol
 _atom_site_label
 _atom_site_symmetry_multiplicity
 _atom_site_fract_x
 _atom_site_fract_y
 _atom_site_fract_z
 _atom_site_occupancy
  Cu  Cu0  1  0.78958788  0.02098965  0.90609662  1
  Cu  Cu1  1  0.78808029  0.54394710  0.61361329  1
  Cu  Cu2  1  0.26878819  0.47793854  0.89769282  1
  Cu  Cu3  1  0.73119559  0.02983464  0.39146114  1
  Cu  Cu4  1  0.22006247  0.95593948  0.10032472  1
  Cu  Cu5  1  0.21622055  0.47044113  0.39987008  1
  Cu  Cu6  1  0.73727172  0.53395786  0.11426916  1
  Cu  Cu7  1  0.26184442  0.97794337  0.60632144  1
  C  C8  1  0.18883800  0.31688100  0.19718300  1
  C  C9  1  0.68883800  0.68311900  0.30281700  1
  C  C10  1  0.31116200  0.81688100  0.80281700  1
  C  C11  1  0.81116200  0.18311900  0.69718300  1
  C  C12  1  0.81116200  0.68311900  0.80281700  1
  C  C13  1  0.31116200  0.31688100  0.69718300  1
  C  C14  1  0.68883800  0.18311900  0.19718300  1
  C  C15  1  0.18883800  0.81688100  0.30281700  1
  C  C16  1  0.66801700  0.89715400  0.65306700  1
  C  C17  1  0.00092500  0.78079600  0.44302800  1
  C  C18  1  0.50092500  0.21920400  0.05697200  1
  C  C19  1  0.49907500  0.28079600  0.55697200  1
  C  C20  1  0.99907500  0.71920400  0.94302800  1
  C  C21  1  0.99907500  0.21920400  0.55697200  1
  C  C22  1  0.49907500  0.78079600  0.94302800  1
  C  C23  1  0.50092500  0.71920400  0.44302800  1
  C  C24  1  0.00092500  0.28079600  0.05697200  1
  C  C25  1  0.16801700  0.10284600  0.84693300  1
  C  C26  1  0.83198300  0.39715400  0.34693300  1
  C  C27  1  0.33198300  0.60284600  0.15306700  1
  C  C28  1  0.66801700  0.39715400  0.84693300  1
  C  C29  1  0.83198300  0.89715400  0.15306700  1
  C  C30  1  0.16801700  0.60284600  0.65306700  1
  C  C31  1  0.33198300  0.10284600  0.34693300  1
  C  C32  1  0.10684300  0.32911000  0.49791200  1
  C  C33  1  0.60684300  0.67089000  0.00208800  1
  C  C34  1  0.39315700  0.82911000  0.50208800  1
  C  C35  1  0.89315700  0.17089000  0.99791200  1
  C  C36  1  0.89315700  0.67089000  0.50208800  1
  C  C37  1  0.39315700  0.32911000  0.99791200  1
  C  C38  1  0.60684300  0.17089000  0.49791200  1
  C  C39  1  0.10684300  0.82911000  0.00208800  1
  C  C40  1  0.24372800  0.98878100  0.27174900  1
  C  C41  1  0.74372700  0.01121900  0.22825100  1
  C  C42  1  0.25627300  0.48878100  0.72825100  1
  C  C43  1  0.75627300  0.51121900  0.77174900  1
  C  C44  1  0.75627300  0.01121900  0.72825100  1
  C  C45  1  0.25627300  0.98878100  0.77174900  1
  C  C46  1  0.74372700  0.51121900  0.27174900  1
  C  C47  1  0.24372800  0.48878100  0.22825100  1
  C  C48  1  0.22446100  0.76595300  0.68000900  1
  C  C49  1  0.72446100  0.23404700  0.81999100  1
  C  C50  1  0.27553900  0.26595300  0.31999100  1
  C  C51  1  0.77553900  0.73404700  0.18000900  1
  C  C52  1  0.77553900  0.23404700  0.31999100  1
  C  C53  1  0.27553900  0.76595300  0.18000900  1
  C  C54  1  0.72446100  0.73404700  0.68000900  1
  C  C55  1  0.89077900  0.32041900  0.63252500  1
  C  C56  1  0.22446100  0.26595300  0.81999100  1
  C  C57  1  0.29318500  0.57309000  0.03732400  1
  C  C58  1  0.70681500  0.92691000  0.53732400  1
  C  C59  1  0.20681500  0.07309000  0.96267600  1
  C  C60  1  0.20681500  0.57309000  0.53732400  1
  C  C61  1  0.70681500  0.42691000  0.96267600  1
  C  C62  1  0.29318500  0.07309000  0.46267600  1
  C  C63  1  0.79318500  0.92691000  0.03732400  1
  C  C64  1  0.90105000  0.62958500  0.02258800  1
  C  C65  1  0.40105000  0.37041500  0.47741200  1
  C  C66  1  0.59895000  0.12958500  0.97741200  1
  C  C67  1  0.09895000  0.87041500  0.52258800  1
  C  C68  1  0.09895000  0.37041500  0.97741200  1
  C  C69  1  0.59895000  0.62958500  0.52258800  1
  C  C70  1  0.40105000  0.87041500  0.02258800  1
  C  C71  1  0.90105000  0.12958500  0.47741200  1
  C  C72  1  0.89690200  0.38786200  0.12324800  1
  C  C73  1  0.39690200  0.61213800  0.37675200  1
  C  C74  1  0.60309800  0.88786200  0.87675200  1
  C  C75  1  0.10309800  0.11213800  0.62324800  1
  C  C76  1  0.10309800  0.61213800  0.87675200  1
  C  C77  1  0.60309800  0.38786200  0.62324800  1
  C  C78  1  0.39690200  0.11213800  0.12324800  1
  C  C79  1  0.89690200  0.88786200  0.37675200  1
  C  C80  1  0.99026600  0.08809900  0.83175900  1
  C  C81  1  0.49026600  0.91190100  0.66824100  1
  C  C82  1  0.50973400  0.58809900  0.16824100  1
  C  C83  1  0.00973400  0.41190100  0.33175900  1
  C  C84  1  0.00973400  0.91190100  0.16824100  1
  C  C85  1  0.50973400  0.08809900  0.33175900  1
  C  C86  1  0.49026600  0.41190100  0.83175900  1
  C  C87  1  0.99026600  0.58809900  0.66824100  1
  C  C88  1  0.89077900  0.82041900  0.86747500  1
  C  C89  1  0.39077900  0.17958100  0.63252500  1
  C  C90  1  0.60922100  0.32041900  0.13252500  1
  C  C91  1  0.10922100  0.67958100  0.36747500  1
  C  C92  1  0.10922100  0.17958100  0.13252500  1
  C  C93  1  0.60922100  0.82041900  0.36747500  1
  C  C94  1  0.39077900  0.67958100  0.86747500  1
  C  C95  1  0.79318500  0.42691000  0.46267600  1
