# generated using pymatgen
data_CuC2
_symmetry_space_group_name_H-M   'P 1'
_cell_length_a   9.68222117
_cell_length_b   9.68222117
_cell_length_c   9.68222117
_cell_angle_alpha   153.69915768
_cell_angle_beta   153.69915768
_cell_angle_gamma   37.53702076
_symmetry_Int_Tables_number   1
_chemical_formula_structural   CuC2
_chemical_formula_sum   'Cu2 C4'
_cell_volume   177.93029047
_cell_formula_units_Z   2
loop_
 _symmetry_equiv_pos_site_id
 _symmetry_equiv_pos_as_xyz
  1  'x, y, z'
loop_
 _atom_site_type_symbol
 _atom_site_label
 _atom_site_symmetry_multiplicity
 _atom_site_fract_x
 _atom_site_fract_y
 _atom_site_fract_z
 _atom_site_occupancy
  Cu  Cu0  1  0.36215767  0.36095248  0.05804696  1
  Cu  Cu1  1  0.66756110  0.62670045  0.93490029  1
  C  C2  1  0.00000000  0.00000000  0.00000000  1
  C  C3  1  0.84209000  0.84209000  0.00000000  1
  C  C4  1  0.15791000  0.15791000  0.00000000  1
  C  C5  1  0.50000000  0.50000000  0.00000000  1
