# generated using pymatgen
data_Cu3NiC5
_symmetry_space_group_name_H-M   'P 1'
_cell_length_a   6.19996800
_cell_length_b   7.84546300
_cell_length_c   14.31128300
_cell_angle_alpha   90.00000000
_cell_angle_beta   90.00000000
_cell_angle_gamma   90.00000000
_symmetry_Int_Tables_number   1
_chemical_formula_structural   Cu3NiC5
_chemical_formula_sum   'Cu12 Ni4 C20'
_cell_volume   696.12398289
_cell_formula_units_Z   4
loop_
 _symmetry_equiv_pos_site_id
 _symmetry_equiv_pos_as_xyz
  1  'x, y, z'
loop_
 _atom_site_type_symbol
 _atom_site_label
 _atom_site_symmetry_multiplicity
 _atom_site_fract_x
 _atom_site_fract_y
 _atom_site_fract_z
 _atom_site_occupancy
  C  C0  1  0.50000000  0.00000000  0.00000000  1
  C  C1  1  0.50000000  0.50000000  0.00000000  1
  C  C2  1  0.86873600  0.25000000  0.08719900  1
  C  C3  1  0.30429100  0.49985700  0.17779500  1
  C  C4  1  0.30429100  0.00014300  0.17779500  1
  C  C5  1  0.80429100  0.99985700  0.32220500  1
  C  C6  1  0.80429100  0.50014300  0.32220500  1
  C  C7  1  0.36873600  0.75000000  0.41280100  1
  C  C8  1  0.00000000  0.00000000  0.50000000  1
  C  C9  1  0.00000000  0.50000000  0.50000000  1
  C  C10  1  0.63126400  0.25000000  0.58719900  1
  C  C11  1  0.19570900  0.49985700  0.67779500  1
  C  C12  1  0.19570900  0.00014300  0.67779500  1
  C  C13  1  0.69570900  0.99985700  0.82220500  1
  C  C14  1  0.69570900  0.50014300  0.82220500  1
  C  C15  1  0.13126400  0.75000000  0.91280100  1
  C  C16  1  0.84788600  0.75000000  0.08850600  1
  C  C17  1  0.34788600  0.25000000  0.41149400  1
  C  C18  1  0.65211400  0.75000000  0.58850600  1
  C  C19  1  0.15211400  0.25000000  0.91149400  1
  Ni  Ni20  1  0.26418400  0.25000000  0.06370500  1
  Ni  Ni21  1  0.21366900  0.75000000  0.08245900  1
  Cu  Cu22  1  0.71019784  0.52189535  0.15016104  1
  Cu  Cu23  1  0.68772073  0.00683149  0.16226186  1
  Cu  Cu24  1  0.23825614  0.99154577  0.35152474  1
  Ni  Ni25  1  0.21739700  0.49074400  0.34317600  1
  Cu  Cu26  1  0.68975553  0.25379421  0.41133005  1
  Cu  Cu27  1  0.77393691  0.75089519  0.44816850  1
  Cu  Cu28  1  0.29585852  0.23268742  0.56471816  1
  Ni  Ni29  1  0.28633100  0.75000000  0.58245900  1
  Cu  Cu30  1  0.79871588  0.50334352  0.67223095  1
  Cu  Cu31  1  0.79697902  0.96877875  0.64606793  1
  Cu  Cu32  1  0.26897850  0.00727888  0.84947118  1
  Cu  Cu33  1  0.29566443  0.47865084  0.83633867  1
  Cu  Cu34  1  0.80255190  0.26113894  0.92092143  1
  Cu  Cu35  1  0.72469703  0.76210272  0.92660334  1
