# generated using pymatgen
data_CuC6
_symmetry_space_group_name_H-M   'P 1'
_cell_length_a   16.14134400
_cell_length_b   5.87639500
_cell_length_c   8.34867215
_cell_angle_alpha   46.12116467
_cell_angle_beta   90.00000000
_cell_angle_gamma   90.00000000
_symmetry_Int_Tables_number   1
_chemical_formula_structural   CuC6
_chemical_formula_sum   'Cu4 C24'
_cell_volume   570.80424840
_cell_formula_units_Z   4
loop_
 _symmetry_equiv_pos_site_id
 _symmetry_equiv_pos_as_xyz
  1  'x, y, z'
loop_
 _atom_site_type_symbol
 _atom_site_label
 _atom_site_symmetry_multiplicity
 _atom_site_fract_x
 _atom_site_fract_y
 _atom_site_fract_z
 _atom_site_occupancy
  C  C0  1  0.69171200  0.35895700  0.17617500  1
  C  C1  1  0.42929300  0.70776200  0.09250400  1
  C  C2  1  0.92929300  0.29223800  0.40749600  1
  C  C3  1  0.19171200  0.64104300  0.32382500  1
  C  C4  1  0.68860500  0.79404400  0.23204600  1
  C  C5  1  0.18860500  0.20595600  0.26795400  1
  C  C6  1  0.81139500  0.79404400  0.73204600  1
  C  C7  1  0.31139500  0.20595600  0.76795400  1
  C  C8  1  0.80828800  0.35895700  0.67617500  1
  C  C9  1  0.07070700  0.70776200  0.59250400  1
  C  C10  1  0.57070700  0.29223800  0.90749600  1
  C  C11  1  0.30828800  0.64104300  0.82382500  1
  Cu  Cu12  1  0.91081650  0.11304569  0.10883577  1
  Cu  Cu13  1  0.40963277  0.87709378  0.36186229  1
  Cu  Cu14  1  0.60895810  0.15624627  0.58971124  1
  Cu  Cu15  1  0.09759518  0.86270466  0.93302817  1
  C  C16  1  0.91048800  0.77587400  0.99316000  1
  C  C17  1  0.25383500  0.70682000  0.04167200  1
  C  C18  1  0.41808800  0.25100300  0.97782400  1
  C  C19  1  0.75383500  0.29318000  0.45832800  1
  C  C20  1  0.91808800  0.74899700  0.52217600  1
  C  C21  1  0.41048800  0.22412600  0.50684000  1
  C  C22  1  0.58951200  0.77587400  0.49316000  1
  C  C23  1  0.08191200  0.25100300  0.47782400  1
  C  C24  1  0.24616500  0.70682000  0.54167200  1
  C  C25  1  0.58191200  0.74899700  0.02217600  1
  C  C26  1  0.74616500  0.29318000  0.95832800  1
  C  C27  1  0.08951200  0.22412600  0.00684000  1
