# generated using pymatgen
data_Cu3C4
_symmetry_space_group_name_H-M   'P 1'
_cell_length_a   5.96588800
_cell_length_b   5.96588800
_cell_length_c   5.96588800
_cell_angle_alpha   90.00000000
_cell_angle_beta   90.00000000
_cell_angle_gamma   90.00000000
_symmetry_Int_Tables_number   1
_chemical_formula_structural   Cu3C4
_chemical_formula_sum   'Cu3 C4'
_cell_volume   212.33680962
_cell_formula_units_Z   1
loop_
 _symmetry_equiv_pos_site_id
 _symmetry_equiv_pos_as_xyz
  1  'x, y, z'
loop_
 _atom_site_type_symbol
 _atom_site_label
 _atom_site_symmetry_multiplicity
 _atom_site_fract_x
 _atom_site_fract_y
 _atom_site_fract_z
 _atom_site_occupancy
  Cu  Cu0  1  0.51133471  0.98435872  0.01578729  1
  Cu  Cu1  1  0.00902863  0.47156548  0.01457584  1
  Cu  Cu2  1  0.96779326  0.98841879  0.51221097  1
  C  C3  1  0.00000000  0.00000000  0.00000000  1
  C  C4  1  0.00000000  0.50000000  0.50000000  1
  C  C5  1  0.50000000  0.00000000  0.50000000  1
  C  C6  1  0.50000000  0.50000000  0.00000000  1
