# generated using pymatgen
data_Cu15NiC20
_symmetry_space_group_name_H-M   'P 1'
_cell_length_a   9.65843851
_cell_length_b   9.65843851
_cell_length_c   17.00555057
_cell_angle_alpha   73.70461791
_cell_angle_beta   73.70461791
_cell_angle_gamma   38.03191118
_symmetry_Int_Tables_number   1
_chemical_formula_structural   Cu15NiC20
_chemical_formula_sum   'Cu30 Ni2 C40'
_cell_volume   933.32715935
_cell_formula_units_Z   2
loop_
 _symmetry_equiv_pos_site_id
 _symmetry_equiv_pos_as_xyz
  1  'x, y, z'
loop_
 _atom_site_type_symbol
 _atom_site_label
 _atom_site_symmetry_multiplicity
 _atom_site_fract_x
 _atom_site_fract_y
 _atom_site_fract_z
 _atom_site_occupancy
  C  C0  1  0.92154400  0.07845600  0.25000000  1
  C  C1  1  0.07845600  0.92154400  0.75000000  1
  C  C2  1  0.00000000  0.50000000  0.00000000  1
  C  C3  1  0.50000000  0.00000000  0.50000000  1
  C  C4  1  0.13377300  0.15344100  0.38879000  1
  C  C5  1  0.84655900  0.86622700  0.11121000  1
  C  C6  1  0.86622700  0.84655900  0.61121000  1
  C  C7  1  0.15344100  0.13377300  0.88879000  1
  C  C8  1  0.47843300  0.42094500  0.38144600  1
  C  C9  1  0.57905500  0.52156700  0.11855400  1
  C  C10  1  0.52156700  0.57905500  0.61855400  1
  C  C11  1  0.42094500  0.47843300  0.88144600  1
  C  C12  1  0.60915600  0.59303700  0.35839200  1
  C  C13  1  0.40696300  0.39084400  0.14160800  1
  C  C14  1  0.39084400  0.40696300  0.64160800  1
  C  C15  1  0.59303700  0.60915600  0.85839200  1
  C  C16  1  0.57367800  0.93370200  0.09658700  1
  C  C17  1  0.06629800  0.42632200  0.40341300  1
  C  C18  1  0.42632200  0.06629800  0.90341300  1
  C  C19  1  0.93370200  0.57367800  0.59658700  1
  C  C20  1  0.38018700  0.93043800  0.09466900  1
  C  C21  1  0.06956200  0.61981300  0.40533100  1
  C  C22  1  0.61981300  0.06956200  0.90533100  1
  C  C23  1  0.93043800  0.38018700  0.59466900  1
  C  C24  1  0.10622700  0.32134200  0.21837700  1
  C  C25  1  0.67865800  0.89377300  0.28162300  1
  C  C26  1  0.89377300  0.67865800  0.78162300  1
  C  C27  1  0.32134200  0.10622700  0.71837700  1
  C  C28  1  0.84064500  0.15074800  0.57449400  1
  C  C29  1  0.84925200  0.15935500  0.92550600  1
  C  C30  1  0.15935500  0.84925200  0.42550600  1
  C  C31  1  0.15074800  0.84064500  0.07449400  1
  C  C32  1  0.87833800  0.71651200  0.35544200  1
  C  C33  1  0.28348800  0.12166200  0.14455800  1
  C  C34  1  0.12166200  0.28348800  0.64455800  1
  C  C35  1  0.71651200  0.87833800  0.85544200  1
  C  C36  1  0.09429800  0.25004700  0.23671600  1
  C  C37  1  0.74995300  0.90570200  0.26328400  1
  C  C38  1  0.90570200  0.74995300  0.76328400  1
  C  C39  1  0.25004700  0.09429800  0.73671600  1
  Cu  Cu40  1  0.09793839  0.10061495  0.36856052  1
  Ni  Ni41  1  0.94907200  0.87953900  0.13311600  1
  Cu  Cu42  1  0.86978017  0.96516873  0.63673017  1
  Cu  Cu43  1  0.03350863  0.13085632  0.86299551  1
  Cu  Cu44  1  0.15895844  0.23575477  0.41421270  1
  Cu  Cu45  1  0.75809345  0.82550963  0.09670701  1
  Cu  Cu46  1  0.81338199  0.76970514  0.58741518  1
  Cu  Cu47  1  0.26055896  0.16995667  0.90446058  1
  Cu  Cu48  1  0.62095335  0.69909291  0.36950669  1
  Cu  Cu49  1  0.32172458  0.35139146  0.13917476  1
  Cu  Cu50  1  0.35403533  0.31382225  0.64291061  1
  Cu  Cu51  1  0.63477772  0.67821292  0.85495165  1
  Cu  Cu52  1  0.61247168  0.19718559  0.36456684  1
  Cu  Cu53  1  0.76693742  0.41220261  0.13318836  1
  Cu  Cu54  1  0.42622081  0.76348004  0.64193787  1
  Cu  Cu55  1  0.23195470  0.58967198  0.86272491  1
  Cu  Cu56  1  0.20024078  0.69140232  0.47103543  1
  Cu  Cu57  1  0.26480756  0.82541822  0.05863841  1
  Ni  Ni58  1  0.82372100  0.25961900  0.53285800  1
  Cu  Cu59  1  0.77793614  0.13268518  0.96918285  1
  Cu  Cu60  1  0.54939924  0.51469686  0.35761330  1
  Cu  Cu61  1  0.48273722  0.45943029  0.15554467  1
  Cu  Cu62  1  0.44441643  0.48304859  0.65296733  1
  Cu  Cu63  1  0.49951184  0.58323797  0.84850704  1
  Cu  Cu64  1  0.97056222  0.60810603  0.40647139  1
  Cu  Cu65  1  0.38814194  0.03567733  0.09211645  1
  Cu  Cu66  1  0.02137387  0.38027893  0.59750483  1
  Cu  Cu67  1  0.62156874  0.98045637  0.89413689  1
  Cu  Cu68  1  0.40000896  0.77527626  0.07752368  1
  Cu  Cu69  1  0.22428027  0.60494865  0.41809603  1
  Cu  Cu70  1  0.56866029  0.25520321  0.92966818  1
  Cu  Cu71  1  0.75051643  0.43746317  0.58663381  1
