# generated using pymatgen
data_CuNiC2
_symmetry_space_group_name_H-M   'P 1'
_cell_length_a   8.60346400
_cell_length_b   8.60346400
_cell_length_c   8.60749100
_cell_angle_alpha   90.00000000
_cell_angle_beta   90.00000000
_cell_angle_gamma   90.00000000
_symmetry_Int_Tables_number   1
_chemical_formula_structural   CuNiC2
_chemical_formula_sum   'Cu16 Ni16 C32'
_cell_volume   637.12297884
_cell_formula_units_Z   16
loop_
 _symmetry_equiv_pos_site_id
 _symmetry_equiv_pos_as_xyz
  1  'x, y, z'
loop_
 _atom_site_type_symbol
 _atom_site_label
 _atom_site_symmetry_multiplicity
 _atom_site_fract_x
 _atom_site_fract_y
 _atom_site_fract_z
 _atom_site_occupancy
  C  C0  1  0.00000000  0.50000000  0.00000000  1
  C  C1  1  0.50000000  0.00000000  0.00000000  1
  C  C2  1  0.00000000  0.00000000  0.50000000  1
  C  C3  1  0.00000000  0.50000000  0.50000000  1
  C  C4  1  0.50000000  0.00000000  0.50000000  1
  C  C5  1  0.50000000  0.50000000  0.50000000  1
  C  C6  1  0.24540300  0.24540300  0.00000000  1
  C  C7  1  0.24540300  0.75459700  0.00000000  1
  C  C8  1  0.75459700  0.24540300  0.00000000  1
  C  C9  1  0.75459700  0.75459700  0.00000000  1
  C  C10  1  0.24958600  0.24958600  0.50000000  1
  C  C11  1  0.24958600  0.75041400  0.50000000  1
  C  C12  1  0.75041400  0.24958600  0.50000000  1
  C  C13  1  0.75041400  0.75041400  0.50000000  1
  C  C14  1  0.00000000  0.24964700  0.25041000  1
  C  C15  1  0.00000000  0.75035300  0.25041000  1
  C  C16  1  0.50000000  0.24535600  0.25447700  1
  C  C17  1  0.50000000  0.75464400  0.25447700  1
  C  C18  1  0.00000000  0.24964700  0.74959000  1
  C  C19  1  0.00000000  0.75035300  0.74959000  1
  C  C20  1  0.50000000  0.24535600  0.74552300  1
  C  C21  1  0.50000000  0.75464400  0.74552300  1
  C  C22  1  0.24964700  0.00000000  0.25041000  1
  C  C23  1  0.24535600  0.50000000  0.25447700  1
  C  C24  1  0.75035300  0.00000000  0.25041000  1
  C  C25  1  0.75464400  0.50000000  0.25447700  1
  C  C26  1  0.24964700  0.00000000  0.74959000  1
  C  C27  1  0.24535600  0.50000000  0.74552300  1
  C  C28  1  0.75035300  0.00000000  0.74959000  1
  C  C29  1  0.75464400  0.50000000  0.74552300  1
  C  C30  1  0.00000000  0.00000000  0.00000000  1
  C  C31  1  0.50000000  0.50000000  0.00000000  1
  Ni  Ni32  1  0.00000000  0.00000000  0.25449300  1
  Ni  Ni33  1  0.00000000  0.50000000  0.25379600  1
  Cu  Cu34  1  0.49107969  0.99248088  0.27208331  1
  Cu  Cu35  1  0.50554276  0.48599296  0.25899349  1
  Cu  Cu36  1  0.99543445  0.96438267  0.78160003  1
  Cu  Cu37  1  0.98597917  0.50547395  0.73908698  1
  Cu  Cu38  1  0.48595951  0.99921321  0.74549448  1
  Ni  Ni39  1  0.50000000  0.50000000  0.72958800  1
  Cu  Cu40  1  0.27726784  0.25889125  0.25482535  1
  Ni  Ni41  1  0.25027000  0.74973000  0.24922100  1
  Cu  Cu42  1  0.73956998  0.25835587  0.24453375  1
  Ni  Ni43  1  0.74973000  0.74973000  0.24922100  1
  Ni  Ni44  1  0.25027000  0.25027000  0.75077900  1
  Cu  Cu45  1  0.23786503  0.73302434  0.75541016  1
  Ni  Ni46  1  0.74973000  0.25027000  0.75077900  1
  Cu  Cu47  1  0.73569710  0.76747934  0.75971296  1
  Ni  Ni48  1  0.00000000  0.24973300  0.00000000  1
  Ni  Ni49  1  0.00000000  0.75026700  0.00000000  1
  Ni  Ni50  1  0.50000000  0.22978900  0.00000000  1
  Ni  Ni51  1  0.50000000  0.77021100  0.00000000  1
  Ni  Ni52  1  0.00000000  0.24959300  0.50000000  1
  Cu  Cu53  1  0.00652892  0.74116781  0.50266144  1
  Ni  Ni54  1  0.50000000  0.24645900  0.50000000  1
  Cu  Cu55  1  0.49297361  0.74171553  0.49397099  1
  Ni  Ni56  1  0.24973300  0.00000000  0.00000000  1
  Ni  Ni57  1  0.22978900  0.50000000  0.00000000  1
  Ni  Ni58  1  0.75026700  0.00000000  0.00000000  1
  Cu  Cu59  1  0.77968543  0.49609283  0.00994292  1
  Cu  Cu60  1  0.24184255  0.00453918  0.49317213  1
  Cu  Cu61  1  0.27147369  0.50648805  0.49571653  1
  Cu  Cu62  1  0.75724837  0.97762306  0.51009137  1
  Cu  Cu63  1  0.76343232  0.49499320  0.49900813  1
