# generated using pymatgen
data_Cu8C19
_symmetry_space_group_name_H-M   'P 1'
_cell_length_a   8.18184872
_cell_length_b   8.18184872
_cell_length_c   12.10892504
_cell_angle_alpha   84.46979741
_cell_angle_beta   84.46979741
_cell_angle_gamma   26.90778798
_symmetry_Int_Tables_number   1
_chemical_formula_structural   Cu8C19
_chemical_formula_sum   'Cu8 C19'
_cell_volume   365.03800184
_cell_formula_units_Z   1
loop_
 _symmetry_equiv_pos_site_id
 _symmetry_equiv_pos_as_xyz
  1  'x, y, z'
loop_
 _atom_site_type_symbol
 _atom_site_label
 _atom_site_symmetry_multiplicity
 _atom_site_fract_x
 _atom_site_fract_y
 _atom_site_fract_z
 _atom_site_occupancy
  C  C0  1  0.44448200  0.44448200  0.80483900  1
  C  C1  1  0.55551800  0.55551800  0.19516100  1
  Cu  Cu2  1  0.85702475  0.92344222  0.06021267  1
  Cu  Cu3  1  0.86177256  0.82409806  0.32014695  1
  Cu  Cu4  1  0.71204633  0.86004389  0.57789473  1
  Cu  Cu5  1  0.73994431  0.77697430  0.84021125  1
  Cu  Cu6  1  0.23657163  0.25252712  0.17943499  1
  Cu  Cu7  1  0.21142196  0.18503839  0.42972716  1
  Cu  Cu8  1  0.14515160  0.14756845  0.67218048  1
  Cu  Cu9  1  0.16997838  0.05114302  0.94748760  1
  C  C10  1  0.93518000  0.93518000  0.21824700  1
  C  C11  1  0.89183100  0.89183100  0.46268400  1
  C  C12  1  0.84705800  0.84705800  0.71083300  1
  C  C13  1  0.82858200  0.82858200  0.93644800  1
  C  C14  1  0.36359400  0.36359400  0.08482500  1
  C  C15  1  0.31440700  0.31440700  0.32178500  1
  C  C16  1  0.27203500  0.27203500  0.56786300  1
  C  C17  1  0.22740200  0.22740200  0.81885000  1
  C  C18  1  0.77259800  0.77259800  0.18115000  1
  C  C19  1  0.72796500  0.72796500  0.43213700  1
  C  C20  1  0.68559300  0.68559300  0.67821500  1
  C  C21  1  0.63640600  0.63640600  0.91517500  1
  C  C22  1  0.17141800  0.17141800  0.06355200  1
  C  C23  1  0.15294200  0.15294200  0.28916700  1
  C  C24  1  0.10816900  0.10816900  0.53731600  1
  C  C25  1  0.06482000  0.06482000  0.78175300  1
  C  C26  1  0.00000000  0.00000000  0.00000000  1
