# generated using pymatgen
data_Cu7Ni17C24
_symmetry_space_group_name_H-M   'P 1'
_cell_length_a   9.16653700
_cell_length_b   10.07873400
_cell_length_c   16.03328000
_cell_angle_alpha   90.00000000
_cell_angle_beta   90.00000000
_cell_angle_gamma   90.00000000
_symmetry_Int_Tables_number   1
_chemical_formula_structural   Cu7Ni17C24
_chemical_formula_sum   'Cu7 Ni17 C24'
_cell_volume   1481.26805228
_cell_formula_units_Z   1
loop_
 _symmetry_equiv_pos_site_id
 _symmetry_equiv_pos_as_xyz
  1  'x, y, z'
loop_
 _atom_site_type_symbol
 _atom_site_label
 _atom_site_symmetry_multiplicity
 _atom_site_fract_x
 _atom_site_fract_y
 _atom_site_fract_z
 _atom_site_occupancy
  C  C0  1  0.72561100  0.51191600  0.81004200  1
  C  C1  1  0.22561100  0.98808400  0.68995800  1
  C  C2  1  0.77438900  0.51191600  0.18995800  1
  C  C3  1  0.27438900  0.98808400  0.31004200  1
  C  C4  1  0.27438900  0.48808400  0.18995800  1
  C  C5  1  0.77438900  0.01191600  0.31004200  1
  C  C6  1  0.22561100  0.48808400  0.81004200  1
  C  C7  1  0.72561100  0.01191600  0.68995800  1
  C  C8  1  0.94038900  0.68024300  0.97119700  1
  C  C9  1  0.44038900  0.81975700  0.52880300  1
  C  C10  1  0.55961100  0.68024300  0.02880300  1
  C  C11  1  0.05961100  0.81975700  0.47119700  1
  C  C12  1  0.05961100  0.31975700  0.02880300  1
  C  C13  1  0.55961100  0.18024300  0.47119700  1
  C  C14  1  0.44038900  0.31975700  0.97119700  1
  C  C15  1  0.94038900  0.18024300  0.52880300  1
  C  C16  1  0.75797800  0.67047000  0.61333600  1
  C  C17  1  0.25797800  0.82953000  0.88666400  1
  C  C18  1  0.74202200  0.67047000  0.38666400  1
  C  C19  1  0.24202200  0.82953000  0.11333600  1
  C  C20  1  0.24202200  0.32953000  0.38666400  1
  C  C21  1  0.74202200  0.17047000  0.11333600  1
  C  C22  1  0.25797800  0.32953000  0.61333600  1
  C  C23  1  0.75797800  0.17047000  0.88666400  1
  Ni  Ni24  1  0.75000000  0.92775400  0.50000000  1
  Cu  Cu25  1  0.23977865  0.56338714  0.99325318  1
  Ni  Ni26  1  0.25000000  0.07224600  0.50000000  1
  Ni  Ni27  1  0.75000000  0.42775400  0.00000000  1
  Ni  Ni28  1  0.51119900  0.24726100  0.25305500  1
  Cu  Cu29  1  0.02834231  0.25273515  0.24444158  1
  Cu  Cu30  1  0.99616125  0.26141115  0.74540811  1
  Cu  Cu31  1  0.49095227  0.25195523  0.76275114  1
  Ni  Ni32  1  0.48880100  0.75273900  0.74694500  1
  Cu  Cu33  1  0.99781072  0.73559217  0.76109783  1
  Ni  Ni34  1  0.01119900  0.75273900  0.25305500  1
  Cu  Cu35  1  0.50750180  0.76295236  0.25621870  1
  Ni  Ni36  1  0.30770500  0.14067900  0.13281800  1
  Ni  Ni37  1  0.80770500  0.35932100  0.36718200  1
  Ni  Ni38  1  0.19229500  0.14067900  0.86718200  1
  Ni  Ni39  1  0.69229500  0.35932100  0.63281800  1
  Cu  Cu40  1  0.69166210  0.85313734  0.88243823  1
  Ni  Ni41  1  0.19229500  0.64067900  0.63281800  1
  Ni  Ni42  1  0.80770500  0.85932100  0.13281800  1
  Ni  Ni43  1  0.30770500  0.64067900  0.36718200  1
  Ni  Ni44  1  0.00000000  0.50000000  0.50000000  1
  Ni  Ni45  1  0.50000000  0.00000000  0.00000000  1
  Ni  Ni46  1  0.50000000  0.50000000  0.50000000  1
  Ni  Ni47  1  0.00000000  0.00000000  0.00000000  1
