# generated using pymatgen
data_Cu5NiC4
_symmetry_space_group_name_H-M   'P 1'
_cell_length_a   4.48140351
_cell_length_b   6.19762300
_cell_length_c   6.19762300
_cell_angle_alpha   89.26843982
_cell_angle_beta   90.00000000
_cell_angle_gamma   90.00000000
_symmetry_Int_Tables_number   1
_chemical_formula_structural   Cu5NiC4
_chemical_formula_sum   'Cu5 Ni1 C4'
_cell_volume   172.11905687
_cell_formula_units_Z   1
loop_
 _symmetry_equiv_pos_site_id
 _symmetry_equiv_pos_as_xyz
  1  'x, y, z'
loop_
 _atom_site_type_symbol
 _atom_site_label
 _atom_site_symmetry_multiplicity
 _atom_site_fract_x
 _atom_site_fract_y
 _atom_site_fract_z
 _atom_site_occupancy
  C  C0  1  0.50000000  -0.00000000  0.00000000  1
  C  C1  1  0.50000000  0.50000000  0.50000000  1
  C  C2  1  -0.00000000  -0.00000000  0.50000000  1
  C  C3  1  -0.00000000  0.50000000  0.00000000  1
  Cu  Cu4  1  0.51452273  0.98742129  0.50275275  1
  Cu  Cu5  1  0.48251370  0.49932420  0.98035752  1
  Cu  Cu6  1  0.01047640  0.32460549  0.69370859  1
  Cu  Cu7  1  0.97813720  0.68583871  0.32273904  1
  Cu  Cu8  1  0.00505214  0.83783737  0.78159583  1
  Ni  Ni9  1  -0.00000000  0.18890100  0.18890100  1
