# generated using pymatgen
data_Cu3C10
_symmetry_space_group_name_H-M   'P 1'
_cell_length_a   3.34659916
_cell_length_b   3.34666572
_cell_length_c   44.40663784
_cell_angle_alpha   90.01882525
_cell_angle_beta   89.90947279
_cell_angle_gamma   120.00146939
_symmetry_Int_Tables_number   1
_chemical_formula_structural   Cu3C10
_chemical_formula_sum   'Cu3 C10'
_cell_volume   430.71254590
_cell_formula_units_Z   1
loop_
 _symmetry_equiv_pos_site_id
 _symmetry_equiv_pos_as_xyz
  1  'x, y, z'
loop_
 _atom_site_type_symbol
 _atom_site_label
 _atom_site_symmetry_multiplicity
 _atom_site_fract_x
 _atom_site_fract_y
 _atom_site_fract_z
 _atom_site_occupancy
  C  C0  1  0.99869700  0.99989900  0.19614400  1
  C  C1  1  0.33247300  0.66641000  0.70132700  1
  C  C2  1  0.33423000  0.66701400  0.61545800  1
  Cu  Cu3  1  0.30917818  0.59899554  0.08863291  1
  Cu  Cu4  1  0.32170097  0.67460782  0.46826568  1
  Cu  Cu5  1  0.68268011  0.39193742  0.28864363  1
  C  C6  1  0.66670500  0.33338400  0.65839700  1
  C  C7  1  0.66702500  0.33349500  0.04997500  1
  C  C8  1  0.66755700  0.33364700  0.43139400  1
  C  C9  1  0.66545500  0.33292400  0.12518700  1
  C  C10  1  0.66608500  0.33318500  0.50639100  1
  C  C11  1  0.33290700  0.66642000  0.32111500  1
  C  C12  1  0.33512100  0.66700000  0.25243700  1
