# generated using pymatgen
data_CuNiC3
_symmetry_space_group_name_H-M   'P 1'
_cell_length_a   7.41026900
_cell_length_b   7.41026900
_cell_length_c   3.63039300
_cell_angle_alpha   90.00000000
_cell_angle_beta   90.00000000
_cell_angle_gamma   90.00000000
_symmetry_Int_Tables_number   1
_chemical_formula_structural   CuNiC3
_chemical_formula_sum   'Cu2 Ni2 C6'
_cell_volume   199.35245500
_cell_formula_units_Z   2
loop_
 _symmetry_equiv_pos_site_id
 _symmetry_equiv_pos_as_xyz
  1  'x, y, z'
loop_
 _atom_site_type_symbol
 _atom_site_label
 _atom_site_symmetry_multiplicity
 _atom_site_fract_x
 _atom_site_fract_y
 _atom_site_fract_z
 _atom_site_occupancy
  C  C0  1  0.67307700  0.17307700  0.50000000  1
  C  C1  1  0.32692300  0.82692300  0.50000000  1
  C  C2  1  0.17307700  0.32692300  0.50000000  1
  C  C3  1  0.82692300  0.67307700  0.50000000  1
  C  C4  1  0.50000000  0.50000000  0.00000000  1
  C  C5  1  0.00000000  0.00000000  0.00000000  1
  Ni  Ni6  1  0.11932400  0.61932400  0.00000000  1
  Cu  Cu7  1  0.88659857  0.37310207  0.96341875  1
  Cu  Cu8  1  0.61629260  0.87085048  0.00911718  1
  Ni  Ni9  1  0.38067600  0.11932400  0.00000000  1
