# generated using pymatgen
data_Cu2NiC
_symmetry_space_group_name_H-M   'P 1'
_cell_length_a   4.18422016
_cell_length_b   4.18422016
_cell_length_c   7.53618900
_cell_angle_alpha   90.00000000
_cell_angle_beta   90.00000000
_cell_angle_gamma   120.00000253
_symmetry_Int_Tables_number   1
_chemical_formula_structural   Cu2NiC
_chemical_formula_sum   'Cu4 Ni2 C2'
_cell_volume   114.26453523
_cell_formula_units_Z   2
loop_
 _symmetry_equiv_pos_site_id
 _symmetry_equiv_pos_as_xyz
  1  'x, y, z'
loop_
 _atom_site_type_symbol
 _atom_site_label
 _atom_site_symmetry_multiplicity
 _atom_site_fract_x
 _atom_site_fract_y
 _atom_site_fract_z
 _atom_site_occupancy
  C  C0  1  0.66666700  0.33333300  0.00000000  1
  C  C1  1  0.33333300  0.66666700  0.50000000  1
  Cu  Cu2  1  0.04818177  0.01452435  0.01041930  1
  Cu  Cu3  1  0.98915517  0.94851487  0.53032194  1
  Cu  Cu4  1  0.76061533  0.39954188  0.31962605  1
  Ni  Ni5  1  0.33333300  0.66666700  0.79367300  1
  Cu  Cu6  1  0.36084678  0.63599055  0.19723311  1
  Ni  Ni7  1  0.66666700  0.33333300  0.65430600  1
