# generated using pymatgen
data_Cu6Ni2C3
_symmetry_space_group_name_H-M   'P 1'
_cell_length_a   4.66968600
_cell_length_b   4.66968600
_cell_length_c   12.12739000
_cell_angle_alpha   90.00000000
_cell_angle_beta   90.00000000
_cell_angle_gamma   90.00000000
_symmetry_Int_Tables_number   1
_chemical_formula_structural   Cu6Ni2C3
_chemical_formula_sum   'Cu6 Ni2 C3'
_cell_volume   264.44947024
_cell_formula_units_Z   1
loop_
 _symmetry_equiv_pos_site_id
 _symmetry_equiv_pos_as_xyz
  1  'x, y, z'
loop_
 _atom_site_type_symbol
 _atom_site_label
 _atom_site_symmetry_multiplicity
 _atom_site_fract_x
 _atom_site_fract_y
 _atom_site_fract_z
 _atom_site_occupancy
  C  C0  1  0.50000000  0.50000000  0.69114800  1
  C  C1  1  0.50000000  0.50000000  0.30885200  1
  Ni  Ni2  1  0.00000000  0.50000000  0.50000000  1
  Cu  Cu3  1  0.50900381  0.99746973  0.50394164  1
  Cu  Cu4  1  0.02060212  0.51037517  0.86481239  1
  Cu  Cu5  1  0.47323855  0.98316088  0.87394596  1
  Cu  Cu6  1  0.00633035  0.49036067  0.11778063  1
  Cu  Cu7  1  0.46357808  0.98734428  0.10360054  1
  Ni  Ni8  1  0.00000000  0.00000000  0.69055500  1
  Cu  Cu9  1  0.01259167  0.98204184  0.30385076  1
  C  C10  1  0.50000000  0.50000000  0.00000000  1
