# generated using pymatgen
data_Cu4Ni2C3
_symmetry_space_group_name_H-M   'P 1'
_cell_length_a   8.31846600
_cell_length_b   11.89176000
_cell_length_c   12.92415778
_cell_angle_alpha   57.47735723
_cell_angle_beta   90.00000000
_cell_angle_gamma   90.00000000
_symmetry_Int_Tables_number   1
_chemical_formula_structural   Cu4Ni2C3
_chemical_formula_sum   'Cu32 Ni16 C24'
_cell_volume   1077.98182105
_cell_formula_units_Z   8
loop_
 _symmetry_equiv_pos_site_id
 _symmetry_equiv_pos_as_xyz
  1  'x, y, z'
loop_
 _atom_site_type_symbol
 _atom_site_label
 _atom_site_symmetry_multiplicity
 _atom_site_fract_x
 _atom_site_fract_y
 _atom_site_fract_z
 _atom_site_occupancy
  C  C0  1  0.06384500  0.41326600  0.64676200  1
  C  C1  1  0.56384500  0.58673400  0.85323800  1
  C  C2  1  0.43615500  0.41326600  0.14676200  1
  C  C3  1  0.93615500  0.58673400  0.35323800  1
  C  C4  1  0.63194900  0.21420800  0.80999900  1
  C  C5  1  0.43190500  0.37544900  0.87610700  1
  C  C6  1  0.83032900  0.71151000  0.94854300  1
  C  C7  1  0.93190500  0.62455100  0.62389300  1
  C  C8  1  0.97709700  0.96653400  0.75197400  1
  C  C9  1  0.13194900  0.78579200  0.69000100  1
  C  C10  1  0.47709700  0.03346600  0.74802600  1
  C  C11  1  0.66967100  0.71151000  0.44854300  1
  C  C12  1  0.33032900  0.28849000  0.55145700  1
  C  C13  1  0.52290300  0.96653400  0.25197400  1
  C  C14  1  0.86805100  0.21420800  0.30999900  1
  C  C15  1  0.02290300  0.03346600  0.24802600  1
  C  C16  1  0.06809500  0.37544900  0.37610700  1
  C  C17  1  0.16967100  0.28849000  0.05145700  1
  C  C18  1  0.56809500  0.62455100  0.12389300  1
  C  C19  1  0.36805100  0.78579200  0.19000100  1
  C  C20  1  0.76719000  0.23113300  0.04967000  1
  C  C21  1  0.23281000  0.76886700  0.95033000  1
  C  C22  1  0.26719000  0.76886700  0.45033000  1
  C  C23  1  0.73281000  0.23113300  0.54967000  1
  Cu  Cu24  1  0.74612836  0.17562389  0.91752464  1
  Cu  Cu25  1  0.30190397  0.25681924  0.98649371  1
  Cu  Cu26  1  0.99635814  0.31807812  0.00228791  1
  Cu  Cu27  1  0.59373473  0.36875819  0.94836993  1
  Cu  Cu28  1  0.47921179  0.29596904  0.82146385  1
  Cu  Cu29  1  0.74331536  0.62692025  0.90335879  1
  Ni  Ni30  1  0.87423900  0.48633000  0.71077400  1
  Ni  Ni31  1  0.20503000  0.71652400  0.81581300  1
  Cu  Cu32  1  0.36632467  0.50405447  0.78931580  1
  Cu  Cu33  1  0.43803200  0.89059240  0.83838203  1
  Ni  Ni34  1  0.10097800  0.94930600  0.84401700  1
  Ni  Ni35  1  0.83133000  0.86567000  0.82664200  1
  Cu  Cu36  1  0.54255406  0.08757707  0.82670472  1
  Cu  Cu37  1  0.99304016  0.70010388  0.69835403  1
  Ni  Ni38  1  0.07363800  0.62369500  0.54757300  1
  Cu  Cu39  1  0.49562250  0.67541714  0.50796168  1
  Cu  Cu40  1  0.04014909  0.92087932  0.66046404  1
  Cu  Cu41  1  0.78887700  0.73202427  0.53099577  1
  Ni  Ni42  1  0.24078800  0.82224500  0.58420100  1
  Cu  Cu43  1  0.34194451  0.12710507  0.67043850  1
  Cu  Cu44  1  0.60339484  0.07328003  0.65446431  1
  Ni  Ni45  1  0.92525100  0.10776100  0.66763200  1
  Ni  Ni46  1  0.74683500  0.62529600  0.41212200  1
  Cu  Cu47  1  0.67153933  0.27942815  0.69242433  1
  Cu  Cu48  1  0.32165030  0.73254384  0.31171183  1
  Cu  Cu49  1  0.27396068  0.35564823  0.60739854  1
  Ni  Ni50  1  0.07474900  0.89223900  0.33236800  1
  Cu  Cu51  1  0.41977865  0.95305512  0.34123508  1
  Ni  Ni52  1  0.66867000  0.86567000  0.32664200  1
  Cu  Cu53  1  0.75420860  0.18702981  0.41697112  1
  Cu  Cu54  1  0.21433768  0.25190564  0.46887915  1
  Cu  Cu55  1  0.94705061  0.07865885  0.35767123  1
  Ni  Ni56  1  0.49299400  0.32128800  0.48996900  1
  Cu  Cu57  1  0.91601740  0.38468897  0.42761272  1
  Ni  Ni58  1  0.01699100  0.30173200  0.30683600  1
  Cu  Cu59  1  0.47855363  0.92966152  0.15817628  1
  Ni  Ni60  1  0.16867000  0.13433000  0.17335800  1
  Cu  Cu61  1  0.89084784  0.07266344  0.16335462  1
  Cu  Cu62  1  0.57249342  0.07726695  0.17944619  1
  Cu  Cu63  1  0.62076659  0.49096470  0.20332932  1
  Cu  Cu64  1  0.79563664  0.27310220  0.20132880  1
  Cu  Cu65  1  0.11371408  0.53573830  0.26897563  1
  Cu  Cu66  1  0.23814367  0.36856128  0.09099976  1
  Ni  Ni67  1  0.51699100  0.69826800  0.19316400  1
  Ni  Ni68  1  0.42636200  0.62369500  0.04757300  1
  Ni  Ni69  1  0.99299400  0.67871200  0.01003100  1
  Cu  Cu70  1  0.69339684  0.69475677  0.03674623  1
  Cu  Cu71  1  0.25517253  0.82391427  0.09112634  1
