# generated using pymatgen
data_CuNi
_symmetry_space_group_name_H-M   'P 1'
_cell_length_a   3.85425770
_cell_length_b   3.85425770
_cell_length_c   56.67484800
_cell_angle_alpha   90.00000000
_cell_angle_beta   90.00000000
_cell_angle_gamma   119.99999493
_symmetry_Int_Tables_number   1
_chemical_formula_structural   CuNi
_chemical_formula_sum   'Cu18 Ni18'
_cell_volume   729.12588474
_cell_formula_units_Z   18
loop_
 _symmetry_equiv_pos_site_id
 _symmetry_equiv_pos_as_xyz
  1  'x, y, z'
loop_
 _atom_site_type_symbol
 _atom_site_label
 _atom_site_symmetry_multiplicity
 _atom_site_fract_x
 _atom_site_fract_y
 _atom_site_fract_z
 _atom_site_occupancy
  Ni  Ni0  1  0.00000000  0.00000000  0.16666800  1
  Ni  Ni1  1  0.33333300  0.66666700  0.72221800  1
  Ni  Ni2  1  0.66666700  0.33333300  0.27777700  1
  Ni  Ni3  1  0.33333300  0.66666700  0.55556200  1
  Ni  Ni4  1  0.33333300  0.66666700  0.05556100  1
  Ni  Ni5  1  0.66666700  0.33333300  0.61111300  1
  Ni  Ni6  1  0.00000000  0.00000000  0.66666800  1
  Ni  Ni7  1  0.66666700  0.33333300  0.11111300  1
  Ni  Ni8  1  0.66666700  0.33333300  0.44444300  1
  Ni  Ni9  1  0.33333300  0.66666700  0.22222300  1
  Ni  Ni10  1  0.66666700  0.33333300  0.77777600  1
  Ni  Ni11  1  0.66666700  0.33333300  0.94443900  1
  Ni  Ni12  1  0.33333300  0.66666700  0.38889200  1
  Ni  Ni13  1  0.00000000  0.00000000  0.33333200  1
  Ni  Ni14  1  0.33333300  0.66666700  0.83334600  1
  Ni  Ni15  1  0.00000000  0.00000000  0.00001300  1
  Ni  Ni16  1  0.00000000  0.00000000  0.88888600  1
  Ni  Ni17  1  0.00000000  0.00000000  0.50000100  1
  Cu  Cu18  1  0.66666700  0.33333300  0.98614300  1
  Cu  Cu19  1  0.00000000  0.00000000  0.04166700  1
  Cu  Cu20  1  0.66666700  0.33333300  0.48610800  1
  Cu  Cu21  1  0.33333300  0.66666700  0.43055700  1
  Cu  Cu22  1  0.66666700  0.33333300  0.65277900  1
  Cu  Cu23  1  0.66666700  0.33333300  0.15277900  1
  Cu  Cu24  1  0.00000000  0.00000000  0.54166900  1
  Cu  Cu25  1  0.33333300  0.66666700  0.09722800  1
  Cu  Cu26  1  0.33333300  0.66666700  0.76385500  1
  Cu  Cu27  1  0.00000000  0.00000000  0.70833100  1
  Cu  Cu28  1  0.66666700  0.33333300  0.81947900  1
  Cu  Cu29  1  0.00000000  0.00000000  0.37499800  1
  Cu  Cu30  1  0.00000000  0.00000000  0.93052200  1
  Cu  Cu31  1  0.33333300  0.66666700  0.59722800  1
  Cu  Cu32  1  0.33333300  0.66666700  0.26388800  1
  Cu  Cu33  1  0.66666700  0.33333300  0.31943900  1
  Cu  Cu34  1  0.00000000  0.00000000  0.20833100  1
  Cu  Cu35  1  0.33333300  0.66666700  0.87499700  1
