# generated using pymatgen
data_Cu25C82
_symmetry_space_group_name_H-M   'P 1'
_cell_length_a   3.98461445
_cell_length_b   22.35928388
_cell_length_c   22.35928388
_cell_angle_alpha   119.99999835
_cell_angle_beta   90.00000000
_cell_angle_gamma   90.00000000
_symmetry_Int_Tables_number   1
_chemical_formula_structural   Cu25C82
_chemical_formula_sum   'Cu25 C82'
_cell_volume   1725.17328529
_cell_formula_units_Z   1
loop_
 _symmetry_equiv_pos_site_id
 _symmetry_equiv_pos_as_xyz
  1  'x, y, z'
loop_
 _atom_site_type_symbol
 _atom_site_label
 _atom_site_symmetry_multiplicity
 _atom_site_fract_x
 _atom_site_fract_y
 _atom_site_fract_z
 _atom_site_occupancy
  Cu  Cu0  1  0.47824459  0.56410181  0.60264056  1
  Cu  Cu1  1  0.47361552  0.02054558  0.42113365  1
  Cu  Cu2  1  0.56115275  0.02846593  0.60237160  1
  Cu  Cu3  1  0.47212795  0.38308515  0.96195290  1
  Cu  Cu4  1  0.47759549  0.39530560  0.42409581  1
  Cu  Cu5  1  0.50893153  0.56998078  0.95010322  1
  Cu  Cu6  1  0.93979469  0.83147967  0.65001056  1
  Cu  Cu7  1  0.01675008  0.82689156  0.17782684  1
  Cu  Cu8  1  0.97491274  0.34763206  0.17794648  1
  Cu  Cu9  1  0.53876574  0.56458107  0.14712783  1
  Cu  Cu10  1  0.53406105  0.56220009  0.40370910  1
  Cu  Cu11  1  0.53803647  0.85963577  0.43790252  1
  Cu  Cu12  1  0.96225597  0.99359725  0.17456250  1
  Cu  Cu13  1  0.99307636  0.19014454  0.99990563  1
  Cu  Cu14  1  0.03615906  0.17412273  0.17255050  1
  Cu  Cu15  1  0.02649094  0.82041302  0.83472662  1
  Cu  Cu16  1  0.02826975  0.83426581  0.00840201  1
  Cu  Cu17  1  0.01655948  0.99845650  0.82485624  1
  Cu  Cu18  1  0.02288112  0.00028343  0.00834510  1
  Cu  Cu19  1  0.54176499  0.22320105  0.43562786  1
  Cu  Cu20  1  0.52061993  0.20965959  0.77019694  1
  Cu  Cu21  1  0.48822896  0.56893479  0.79355920  1
  Cu  Cu22  1  0.50690522  0.38701206  0.78281210  1
  Cu  Cu23  1  0.52484799  0.39867693  0.61517795  1
  Cu  Cu24  1  0.48173742  0.20231069  0.59832947  1
  C  C25  1  0.50000000  0.88512885  0.30377619  1
  C  C26  1  0.50000000  0.41864735  0.11487115  1
  C  C27  1  0.50000000  0.41864735  0.30377619  1
  C  C28  1  0.50000000  0.69622381  0.58135265  1
  C  C29  1  0.50000000  0.69622381  0.11487115  1
  C  C30  1  0.50000000  0.88512885  0.58135265  1
  C  C31  1  0.00000000  0.80468053  0.30371866  1
  C  C32  1  -0.00000000  0.49903813  0.19531947  1
  C  C33  1  0.00000000  0.49903813  0.30371866  1
  C  C34  1  0.00000000  0.69628134  0.50096187  1
  C  C35  1  0.00000000  0.69628134  0.19531947  1
  C  C36  1  -0.00000000  0.80468053  0.50096187  1
  C  C37  1  0.50000000  0.69540978  0.75985860  1
  C  C38  1  0.50000000  0.06444883  0.30459022  1
  C  C39  1  0.50000000  0.06444883  0.75985860  1
  C  C40  1  0.50000000  0.24014140  0.93555117  1
  C  C41  1  0.50000000  0.24014140  0.30459022  1
  C  C42  1  0.50000000  0.69540978  0.93555117  1
  C  C43  1  -0.00000000  0.51245905  0.02491810  1
  C  C44  1  0.00000000  0.51245905  0.48754095  1
  C  C45  1  -0.00000000  0.97508190  0.48754095  1
  C  C46  1  -0.00000000  0.63100638  0.26201275  1
  C  C47  1  0.00000000  0.63100638  0.36899362  1
  C  C48  1  -0.00000000  0.73798725  0.36899362  1
  C  C49  1  0.50000000  0.06019394  0.12038789  1
  C  C50  1  0.50000000  0.06019394  0.93980606  1
  C  C51  1  0.50000000  0.87961211  0.93980606  1
  C  C52  1  0.50000000  0.70750110  0.41500219  1
  C  C53  1  0.50000000  0.70750110  0.29249890  1
  C  C54  1  0.50000000  0.58499781  0.29249890  1
  C  C55  1  -0.00000000  0.33333300  0.66666700  1
  C  C56  1  0.00000000  0.97367080  0.30293720  1
  C  C57  1  -0.00000000  0.32926640  0.02632920  1
  C  C58  1  -0.00000000  0.32926640  0.30293720  1
  C  C59  1  -0.00000000  0.69706280  0.67073360  1
  C  C60  1  0.00000000  0.69706280  0.02632920  1
  C  C61  1  -0.00000000  0.97367080  0.67073360  1
  C  C62  1  0.00000000  0.15104440  0.30208879  1
  C  C63  1  -0.00000000  0.15104440  0.84895560  1
  C  C64  1  0.00000000  0.69791121  0.84895560  1
  C  C65  1  0.50000000  0.88067140  0.76134280  1
  C  C66  1  0.50000000  0.88067140  0.11932860  1
  C  C67  1  0.50000000  0.23865720  0.11932860  1
  C  C68  1  -0.00000000  0.51277830  0.66720561  1
  C  C69  1  0.00000000  0.15442731  0.48722170  1
  C  C70  1  0.00000000  0.15442731  0.66720561  1
  C  C71  1  0.00000000  0.33279439  0.84557269  1
  C  C72  1  -0.00000000  0.33279439  0.48722170  1
  C  C73  1  0.00000000  0.51277830  0.84557269  1
  C  C74  1  0.50000000  0.76377806  0.52755612  1
  C  C75  1  0.50000000  0.76377806  0.23622194  1
  C  C76  1  0.50000000  0.47244388  0.23622194  1
  C  C77  1  -0.00000000  0.27372522  0.54745043  1
  C  C78  1  0.00000000  0.27372522  0.72627478  1
  C  C79  1  -0.00000000  0.45254957  0.72627478  1
  C  C80  1  0.00000000  0.45245407  0.90490814  1
  C  C81  1  -0.00000000  0.45245407  0.54754593  1
  C  C82  1  0.00000000  0.09509186  0.54754593  1
  C  C83  1  0.50000000  0.11928351  0.23856701  1
  C  C84  1  0.50000000  0.11928351  0.88071649  1
  C  C85  1  0.50000000  0.76143299  0.88071649  1
  C  C86  1  -0.00000000  0.63157696  0.72676512  1
  C  C87  1  0.00000000  0.09518816  0.36842304  1
  C  C88  1  0.00000000  0.09518816  0.72676512  1
  C  C89  1  0.00000000  0.27323488  0.90481184  1
  C  C90  1  -0.00000000  0.27323488  0.36842304  1
  C  C91  1  0.00000000  0.63157696  0.90481184  1
  C  C92  1  0.00000000  0.91947485  0.37018912  1
  C  C93  1  0.00000000  0.45071427  0.08052515  1
  C  C94  1  -0.00000000  0.45071427  0.37018912  1
  C  C95  1  -0.00000000  0.62981088  0.54928573  1
  C  C96  1  0.00000000  0.62981088  0.08052515  1
  C  C97  1  0.00000000  0.91947485  0.54928573  1
  C  C98  1  0.50000000  0.94058707  0.88117414  1
  C  C99  1  0.50000000  0.94058707  0.05941293  1
  C  C100  1  0.50000000  0.11882586  0.05941293  1
  C  C101  1  0.50000000  0.94194692  0.23850196  1
  C  C102  1  0.50000000  0.29655504  0.05805308  1
  C  C103  1  0.50000000  0.29655504  0.23850196  1
  C  C104  1  0.50000000  0.76149804  0.70344496  1
  C  C105  1  0.50000000  0.76149804  0.05805308  1
  C  C106  1  0.50000000  0.94194692  0.70344496  1
