# generated using pymatgen
data_CuNiC9
_symmetry_space_group_name_H-M   'P 1'
_cell_length_a   10.80872884
_cell_length_b   10.80872884
_cell_length_c   8.76916700
_cell_angle_alpha   90.00000000
_cell_angle_beta   90.00000000
_cell_angle_gamma   120.00000514
_symmetry_Int_Tables_number   1
_chemical_formula_structural   CuNiC9
_chemical_formula_sum   'Cu8 Ni8 C72'
_cell_volume   887.23403549
_cell_formula_units_Z   8
loop_
 _symmetry_equiv_pos_site_id
 _symmetry_equiv_pos_as_xyz
  1  'x, y, z'
loop_
 _atom_site_type_symbol
 _atom_site_label
 _atom_site_symmetry_multiplicity
 _atom_site_fract_x
 _atom_site_fract_y
 _atom_site_fract_z
 _atom_site_occupancy
  Ni  Ni0  1  0.14832100  0.82228500  0.45224900  1
  Ni  Ni1  1  0.33333300  0.66666700  0.07487800  1
  Ni  Ni2  1  0.17771500  0.32603600  0.45224900  1
  Ni  Ni3  1  0.67396400  0.85167900  0.45224900  1
  Ni  Ni4  1  0.32603600  0.14832100  0.95224900  1
  Ni  Ni5  1  0.82228500  0.67396400  0.95224900  1
  Ni  Ni6  1  0.66666700  0.33333300  0.57487800  1
  Ni  Ni7  1  0.85167900  0.17771500  0.95224900  1
  C  C8  1  0.14637400  0.81925100  0.07178500  1
  C  C9  1  0.33333300  0.66666700  0.46701300  1
  C  C10  1  0.18074900  0.32712300  0.07178500  1
  C  C11  1  0.67287700  0.85362600  0.07178500  1
  C  C12  1  0.32712300  0.14637400  0.57178500  1
  C  C13  1  0.81925100  0.67287700  0.57178500  1
  C  C14  1  0.66666700  0.33333300  0.96701300  1
  C  C15  1  0.85362600  0.18074900  0.57178500  1
  C  C16  1  0.03192800  0.93088500  0.79346100  1
  C  C17  1  0.00697300  0.58738700  0.69363600  1
  C  C18  1  0.02846700  0.57349800  0.27100000  1
  C  C19  1  0.09325900  0.58681700  0.85531100  1
  C  C20  1  0.12547100  0.53022000  0.68383900  1
  C  C21  1  0.40474900  0.87452900  0.68383900  1
  C  C22  1  0.00000000  0.00000000  0.13369300  1
  C  C23  1  0.00000000  0.00000000  0.63369300  1
  C  C24  1  0.06911500  0.10104300  0.79346100  1
  C  C25  1  0.49355800  0.90674100  0.85531100  1
  C  C26  1  0.54503100  0.97153300  0.27100000  1
  C  C27  1  0.10104300  0.03192800  0.29346100  1
  C  C28  1  0.58041300  0.99302700  0.69363600  1
  C  C29  1  0.41318300  0.50644200  0.85531100  1
  C  C30  1  0.46978000  0.59525100  0.68383900  1
  C  C31  1  0.41261300  0.41958700  0.69363600  1
  C  C32  1  0.42650200  0.45496900  0.27100000  1
  C  C33  1  0.57349800  0.54503100  0.77100000  1
  C  C34  1  0.58738700  0.58041300  0.19363600  1
  C  C35  1  0.53022000  0.40474900  0.18383900  1
  C  C36  1  0.58681700  0.49355800  0.35531100  1
  C  C37  1  0.41958700  0.00697300  0.19363600  1
  C  C38  1  0.89895700  0.96807200  0.79346100  1
  C  C39  1  0.45496900  0.02846700  0.77100000  1
  C  C40  1  0.50644200  0.09325900  0.35531100  1
  C  C41  1  0.93088500  0.89895700  0.29346100  1
  C  C42  1  0.59525100  0.12547100  0.18383900  1
  C  C43  1  0.87452900  0.46978000  0.18383900  1
  C  C44  1  0.90674100  0.41318300  0.35531100  1
  C  C45  1  0.97153300  0.42650200  0.77100000  1
  C  C46  1  0.99302700  0.41261300  0.19363600  1
  C  C47  1  0.96807200  0.06911500  0.29346100  1
  Cu  Cu48  1  0.04806200  0.53221600  0.75375600  1
  Cu  Cu49  1  0.00000000  0.00000000  0.25109300  1
  Cu  Cu50  1  0.00000000  0.00000000  0.75109300  1
  Cu  Cu51  1  0.48415300  0.95193800  0.75375600  1
  Cu  Cu52  1  0.46778400  0.51584700  0.75375600  1
  Cu  Cu53  1  0.53221600  0.48415300  0.25375600  1
  Cu  Cu54  1  0.51584700  0.04806200  0.25375600  1
  Cu  Cu55  1  0.95193800  0.46778400  0.25375600  1
  C  C56  1  0.02569800  0.81759500  0.97330400  1
  C  C57  1  0.09197200  0.77237900  0.23734800  1
  C  C58  1  0.27632100  0.97375500  0.07265700  1
  C  C59  1  0.18935100  0.71354500  0.00160800  1
  C  C60  1  0.02624500  0.30256600  0.07265700  1
  C  C61  1  0.28786400  0.77261900  0.53148900  1
  C  C62  1  0.22738100  0.51524500  0.53148900  1
  C  C63  1  0.33333300  0.66666700  0.29367300  1
  C  C64  1  0.28645500  0.47580600  0.00160800  1
  C  C65  1  0.22762100  0.31959300  0.23734800  1
  C  C66  1  0.18240500  0.20810300  0.97330400  1
  C  C67  1  0.52419400  0.81064900  0.00160800  1
  C  C68  1  0.48475500  0.71213600  0.53148900  1
  C  C69  1  0.30256600  0.27632100  0.57265700  1
  C  C70  1  0.20810300  0.02569800  0.47330400  1
  C  C71  1  0.68040700  0.90802800  0.23734800  1
  C  C72  1  0.31959300  0.09197200  0.73734800  1
  C  C73  1  0.79189700  0.97430200  0.97330400  1
  C  C74  1  0.69743400  0.72367900  0.07265700  1
  C  C75  1  0.51524500  0.28786400  0.03148900  1
  C  C76  1  0.47580600  0.18935100  0.50160800  1
  C  C77  1  0.81759500  0.79189700  0.47330400  1
  C  C78  1  0.77237900  0.68040700  0.73734800  1
  C  C79  1  0.71354500  0.52419400  0.50160800  1
  C  C80  1  0.66666700  0.33333300  0.79367300  1
  C  C81  1  0.77261900  0.48475500  0.03148900  1
  C  C82  1  0.71213600  0.22738100  0.03148900  1
  C  C83  1  0.97375500  0.69743400  0.57265700  1
  C  C84  1  0.81064900  0.28645500  0.50160800  1
  C  C85  1  0.72367900  0.02624500  0.57265700  1
  C  C86  1  0.90802800  0.22762100  0.73734800  1
  C  C87  1  0.97430200  0.18240500  0.47330400  1
