# generated using pymatgen
data_Cu5NiC7
_symmetry_space_group_name_H-M   'P 1'
_cell_length_a   8.20751500
_cell_length_b   8.14707142
_cell_length_c   11.89761590
_cell_angle_alpha   109.15241742
_cell_angle_beta   90.00000000
_cell_angle_gamma   120.24572130
_symmetry_Int_Tables_number   1
_chemical_formula_structural   Cu5NiC7
_chemical_formula_sum   'Cu10 Ni2 C14'
_cell_volume   635.77113328
_cell_formula_units_Z   2
loop_
 _symmetry_equiv_pos_site_id
 _symmetry_equiv_pos_as_xyz
  1  'x, y, z'
loop_
 _atom_site_type_symbol
 _atom_site_label
 _atom_site_symmetry_multiplicity
 _atom_site_fract_x
 _atom_site_fract_y
 _atom_site_fract_z
 _atom_site_occupancy
  Ni  Ni0  1  0.73359600  0.46719200  0.24937300  1
  Ni  Ni1  1  0.26640400  0.53280800  0.75062700  1
  C  C2  1  0.50000000  0.00000000  0.50000000  1
  C  C3  1  0.00000000  0.00000000  0.00000000  1
  Cu  Cu4  1  0.29126500  0.26841000  0.76381000  1
  Cu  Cu5  1  0.70873500  0.73159000  0.23619000  1
  Cu  Cu6  1  0.02285500  0.73159000  0.23619000  1
  Cu  Cu7  1  0.97714500  0.26841000  0.76381000  1
  Cu  Cu8  1  0.31836200  0.63672400  0.91206900  1
  Cu  Cu9  1  0.68163800  0.36327600  0.08793100  1
  Cu  Cu10  1  0.49941100  0.66465000  0.71031400  1
  Cu  Cu11  1  0.50058900  0.33535000  0.28968600  1
  Cu  Cu12  1  0.83476100  0.33535000  0.28968600  1
  Cu  Cu13  1  0.16523900  0.66465000  0.71031400  1
  C  C14  1  0.71655200  0.00000000  0.00000000  1
  C  C15  1  0.28344800  0.00000000  0.00000000  1
  C  C16  1  0.49221600  0.98443200  0.69200800  1
  C  C17  1  0.50778400  0.01556800  0.30799200  1
  C  C18  1  0.82462000  0.64923900  0.89105500  1
  C  C19  1  0.17538000  0.35076100  0.10894500  1
  C  C20  1  0.67679500  0.35359000  0.58315900  1
  C  C21  1  0.32320500  0.64641000  0.41684100  1
  C  C22  1  0.07503100  0.15006300  0.76633700  1
  C  C23  1  0.92496900  0.84993700  0.23366300  1
  C  C24  1  0.85357800  0.70715600  0.46107800  1
  C  C25  1  0.14642200  0.29284500  0.53892200  1
