# generated using pymatgen
data_Cu7NiC64
_symmetry_space_group_name_H-M   'P 1'
_cell_length_a   8.69532700
_cell_length_b   11.88809500
_cell_length_c   12.01798155
_cell_angle_alpha   66.76478950
_cell_angle_beta   90.00000000
_cell_angle_gamma   90.00000000
_symmetry_Int_Tables_number   1
_chemical_formula_structural   Cu7NiC64
_chemical_formula_sum   'Cu7 Ni1 C64'
_cell_volume   1141.54936432
_cell_formula_units_Z   1
loop_
 _symmetry_equiv_pos_site_id
 _symmetry_equiv_pos_as_xyz
  1  'x, y, z'
loop_
 _atom_site_type_symbol
 _atom_site_label
 _atom_site_symmetry_multiplicity
 _atom_site_fract_x
 _atom_site_fract_y
 _atom_site_fract_z
 _atom_site_occupancy
  Cu  Cu0  1  0.22487156  0.93297065  0.44286732  1
  Cu  Cu1  1  0.74721977  0.06274555  0.55467565  1
  Cu  Cu2  1  0.23219036  0.40422318  0.07837724  1
  Ni  Ni3  1  0.75000000  0.58834500  0.91962700  1
  Cu  Cu4  1  0.25989433  0.50960250  0.47482666  1
  Cu  Cu5  1  0.76694967  0.51006483  0.53191533  1
  Cu  Cu6  1  0.23564266  0.05654722  0.02297653  1
  Cu  Cu7  1  0.76789742  0.95833528  0.96654689  1
  C  C8  1  0.99462600  0.78941800  0.28855900  1
  C  C9  1  0.49462600  0.21058200  0.71144100  1
  C  C10  1  0.00537400  0.21058200  0.71144100  1
  C  C11  1  0.50537400  0.78941800  0.28855900  1
  C  C12  1  0.07240700  0.71974600  0.03170800  1
  C  C13  1  0.57240700  0.28025400  0.96829200  1
  C  C14  1  0.92759300  0.28025400  0.96829200  1
  C  C15  1  0.42759300  0.71974600  0.03170800  1
  C  C16  1  0.92906100  0.51048400  0.24249500  1
  C  C17  1  0.42906100  0.48951600  0.75750500  1
  C  C18  1  0.07093900  0.48951600  0.75750500  1
  C  C19  1  0.57093900  0.51048400  0.24249500  1
  C  C20  1  0.07203800  0.25219100  0.37925800  1
  C  C21  1  0.57203800  0.74780900  0.62074200  1
  C  C22  1  0.92796200  0.74780900  0.62074200  1
  C  C23  1  0.42796200  0.25219100  0.37925800  1
  C  C24  1  0.06502800  0.88829800  0.76492700  1
  C  C25  1  0.56502800  0.11170200  0.23507300  1
  C  C26  1  0.93497200  0.11170200  0.23507300  1
  C  C27  1  0.43497200  0.88829800  0.76492700  1
  C  C28  1  0.96444500  0.00693400  0.74989500  1
  C  C29  1  0.46444500  0.99306600  0.25010500  1
  C  C30  1  0.03555500  0.99306600  0.25010500  1
  C  C31  1  0.53555500  0.00693400  0.74989500  1
  C  C32  1  0.05316800  0.81935100  0.08965900  1
  C  C33  1  0.55316800  0.18064900  0.91034100  1
  C  C34  1  0.94683200  0.18064900  0.91034100  1
  C  C35  1  0.44683200  0.81935100  0.08965900  1
  C  C36  1  0.96361900  0.58206400  0.32887000  1
  C  C37  1  0.46361900  0.41793600  0.67113000  1
  C  C38  1  0.03638100  0.41793600  0.67113000  1
  C  C39  1  0.53638100  0.58206400  0.32887000  1
  C  C40  1  0.04571400  0.24874800  0.51161000  1
  C  C41  1  0.54571400  0.75125200  0.48839000  1
  C  C42  1  0.95428600  0.75125200  0.48839000  1
  C  C43  1  0.45428600  0.24874800  0.51161000  1
  C  C44  1  0.25000000  0.66735900  0.03655500  1
  C  C45  1  0.75000000  0.33264100  0.96344500  1
  C  C46  1  0.01396500  0.77018900  0.88916400  1
  C  C47  1  0.51396500  0.22981100  0.11083600  1
  C  C48  1  0.98603500  0.22981100  0.11083600  1
  C  C49  1  0.48603500  0.77018900  0.88916400  1
  C  C50  1  0.96508000  0.59525000  0.09739900  1
  C  C51  1  0.46508000  0.40475000  0.90260100  1
  C  C52  1  0.03492000  0.40475000  0.90260100  1
  C  C53  1  0.53492000  0.59525000  0.09739900  1
  C  C54  1  0.04139000  0.38986300  0.27274800  1
  C  C55  1  0.54139000  0.61013700  0.72725200  1
  C  C56  1  0.95861000  0.61013700  0.72725200  1
  C  C57  1  0.45861000  0.38986300  0.27274800  1
  C  C58  1  0.75000000  0.46267100  0.24903600  1
  C  C59  1  0.25000000  0.53732900  0.75096400  1
  C  C60  1  0.03763400  0.84718900  0.64947000  1
  C  C61  1  0.53763400  0.15281100  0.35053000  1
  C  C62  1  0.96236600  0.15281100  0.35053000  1
  C  C63  1  0.46236600  0.84718900  0.64947000  1
  C  C64  1  0.25000000  0.91163600  0.77152700  1
  C  C65  1  0.75000000  0.08836400  0.22847300  1
  C  C66  1  0.25000000  0.21670000  0.35403300  1
  C  C67  1  0.75000000  0.78330000  0.64596700  1
  C  C68  1  0.75000000  0.82740000  0.21664300  1
  C  C69  1  0.25000000  0.17260000  0.78335700  1
  C  C70  1  0.25000000  0.75193100  0.34325200  1
  C  C71  1  0.75000000  0.24806900  0.65674800  1
