# generated using pymatgen
data_Cu3NiC16
_symmetry_space_group_name_H-M   'P 1'
_cell_length_a   6.84340613
_cell_length_b   6.84340613
_cell_length_c   6.84340698
_cell_angle_alpha   107.75692554
_cell_angle_beta   107.75692554
_cell_angle_gamma   107.75692883
_symmetry_Int_Tables_number   1
_chemical_formula_structural   Cu3NiC16
_chemical_formula_sum   'Cu3 Ni1 C16'
_cell_volume   261.20162184
_cell_formula_units_Z   1
loop_
 _symmetry_equiv_pos_site_id
 _symmetry_equiv_pos_as_xyz
  1  'x, y, z'
loop_
 _atom_site_type_symbol
 _atom_site_label
 _atom_site_symmetry_multiplicity
 _atom_site_fract_x
 _atom_site_fract_y
 _atom_site_fract_z
 _atom_site_occupancy
  Ni  Ni0  1  0.49568100  0.49568100  0.49568100  1
  C  C1  1  0.63884200  0.02525100  0.51077600  1
  C  C2  1  0.02525100  0.51077600  0.63884200  1
  C  C3  1  0.51077600  0.63884200  0.02525100  1
  C  C4  1  0.98192700  0.98192700  0.98192700  1
  Cu  Cu5  1  0.19560600  0.06829500  0.65441400  1
  Cu  Cu6  1  0.65441400  0.19560600  0.06829500  1
  Cu  Cu7  1  0.06829500  0.65441400  0.19560600  1
  C  C8  1  0.65476800  0.89438600  0.96223500  1
  C  C9  1  0.96223500  0.65476800  0.89438600  1
  C  C10  1  0.73126500  0.25110600  0.39084400  1
  C  C11  1  0.39084400  0.73126500  0.25110600  1
  C  C12  1  0.89438600  0.96223500  0.65476800  1
  C  C13  1  0.25110600  0.39084400  0.73126500  1
  C  C14  1  0.11755300  0.98566500  0.32143700  1
  C  C15  1  0.98566500  0.32143700  0.11755300  1
  C  C16  1  0.32143700  0.11755300  0.98566500  1
  C  C17  1  0.16425600  0.73601100  0.53580000  1
  C  C18  1  0.73601100  0.53580000  0.16425600  1
  C  C19  1  0.53580000  0.16425600  0.73601100  1
