# generated using pymatgen
data_Cu4C7
_symmetry_space_group_name_H-M   'P 1'
_cell_length_a   10.55465300
_cell_length_b   6.21524200
_cell_length_c   13.22424864
_cell_angle_alpha   73.07910618
_cell_angle_beta   90.00000000
_cell_angle_gamma   90.00000000
_symmetry_Int_Tables_number   1
_chemical_formula_structural   Cu4C7
_chemical_formula_sum   'Cu16 C28'
_cell_volume   829.95050347
_cell_formula_units_Z   4
loop_
 _symmetry_equiv_pos_site_id
 _symmetry_equiv_pos_as_xyz
  1  'x, y, z'
loop_
 _atom_site_type_symbol
 _atom_site_label
 _atom_site_symmetry_multiplicity
 _atom_site_fract_x
 _atom_site_fract_y
 _atom_site_fract_z
 _atom_site_occupancy
  C  C0  1  0.94518300  0.07158500  0.12041400  1
  C  C1  1  0.44518300  0.92841500  0.37958600  1
  C  C2  1  0.05481700  0.92841500  0.87958600  1
  C  C3  1  0.55481700  0.07158500  0.62041400  1
  C  C4  1  0.69017600  0.01729500  0.02536900  1
  C  C5  1  0.19017600  0.98270500  0.47463100  1
  C  C6  1  0.30982400  0.98270500  0.97463100  1
  C  C7  1  0.80982400  0.01729500  0.52536900  1
  C  C8  1  0.61516100  0.35374200  0.12982700  1
  C  C9  1  0.11516100  0.64625800  0.37017300  1
  C  C10  1  0.38483900  0.64625800  0.87017300  1
  C  C11  1  0.88483900  0.35374200  0.62982700  1
  C  C12  1  0.89284700  0.31863900  0.19243300  1
  C  C13  1  0.39284700  0.68136100  0.30756700  1
  C  C14  1  0.10715300  0.68136100  0.80756700  1
  C  C15  1  0.60715300  0.31863900  0.69243300  1
  Cu  Cu16  1  0.83736736  0.99340889  0.06936357  1
  Cu  Cu17  1  0.34604398  0.99758817  0.43194598  1
  Cu  Cu18  1  0.17001922  0.02855376  0.92123568  1
  Cu  Cu19  1  0.68986202  0.98176933  0.56108942  1
  Cu  Cu20  1  0.59886959  0.18720737  0.06449428  1
  Cu  Cu21  1  0.08831509  0.81305508  0.43018888  1
  Cu  Cu22  1  0.42160287  0.81486343  0.94620311  1
  Cu  Cu23  1  0.88157917  0.16310802  0.56469612  1
  Cu  Cu24  1  0.74999832  0.41305425  0.17421694  1
  Cu  Cu25  1  0.25024582  0.63535598  0.32145177  1
  Cu  Cu26  1  0.25271755  0.61406362  0.83452705  1
  Cu  Cu27  1  0.76947000  0.41095594  0.66912746  1
  Cu  Cu28  1  0.19032670  0.30308489  0.14741921  1
  Cu  Cu29  1  0.69723016  0.65968676  0.35041971  1
  Cu  Cu30  1  0.79986308  0.68739245  0.84543902  1
  Cu  Cu31  1  0.28652586  0.29220960  0.63874752  1
  C  C32  1  0.15382400  0.49068300  0.07606300  1
  C  C33  1  0.65382400  0.50931700  0.42393700  1
  C  C34  1  0.84617600  0.50931700  0.92393700  1
  C  C35  1  0.34617600  0.49068300  0.57606300  1
  C  C36  1  0.12451800  0.19305500  0.21404300  1
  C  C37  1  0.62451800  0.80694500  0.28595700  1
  C  C38  1  0.87548200  0.80694500  0.78595700  1
  C  C39  1  0.37548200  0.19305500  0.71404300  1
  C  C40  1  0.31754100  0.30605700  0.16253300  1
  C  C41  1  0.81754100  0.69394300  0.33746700  1
  C  C42  1  0.68245900  0.69394300  0.83746700  1
  C  C43  1  0.18245900  0.30605700  0.66253300  1
