# generated using pymatgen
data_Cu14C23
_symmetry_space_group_name_H-M   'P 1'
_cell_length_a   4.98659700
_cell_length_b   13.62763300
_cell_length_c   13.98125400
_cell_angle_alpha   90.00000000
_cell_angle_beta   90.00000000
_cell_angle_gamma   90.00000000
_symmetry_Int_Tables_number   1
_chemical_formula_structural   Cu14C23
_chemical_formula_sum   'Cu28 C46'
_cell_volume   950.10329963
_cell_formula_units_Z   2
loop_
 _symmetry_equiv_pos_site_id
 _symmetry_equiv_pos_as_xyz
  1  'x, y, z'
loop_
 _atom_site_type_symbol
 _atom_site_label
 _atom_site_symmetry_multiplicity
 _atom_site_fract_x
 _atom_site_fract_y
 _atom_site_fract_z
 _atom_site_occupancy
  Cu  Cu0  1  0.48681877  0.24117608  0.55008169  1
  Cu  Cu1  1  0.51210636  0.22458174  0.72353960  1
  Cu  Cu2  1  0.01388402  0.23535411  0.04329808  1
  Cu  Cu3  1  0.00508577  0.43211071  0.94575304  1
  Cu  Cu4  1  0.96896798  0.71179136  0.77730036  1
  Cu  Cu5  1  0.45009832  0.92564043  0.55455151  1
  Cu  Cu6  1  0.50401458  0.14961979  0.01790387  1
  Cu  Cu7  1  0.45570500  0.57202418  0.16518356  1
  Cu  Cu8  1  0.48063501  0.73971577  0.44185650  1
  Cu  Cu9  1  0.00189786  0.88530454  0.26372590  1
  Cu  Cu10  1  0.48644482  0.49918574  0.57048871  1
  Cu  Cu11  1  0.54126513  0.78887102  0.25331235  1
  Cu  Cu12  1  0.47022071  0.60489902  0.75128787  1
  Cu  Cu13  1  0.48462520  0.48580959  0.41603846  1
  Cu  Cu14  1  0.49322883  0.43500611  0.82399077  1
  Cu  Cu15  1  0.00724568  0.06348854  0.31119041  1
  Cu  Cu16  1  0.92743472  0.37009046  0.52063643  1
  Cu  Cu17  1  0.03955837  0.92006153  0.67823065  1
  Cu  Cu18  1  0.04382195  0.55105767  0.04863687  1
  Cu  Cu19  1  0.98450135  0.09190989  0.73828665  1
  Cu  Cu20  1  0.97751857  0.00240163  0.06647744  1
  Cu  Cu21  1  0.01517092  0.28506033  0.23488549  1
  Cu  Cu22  1  0.98777869  0.00161586  0.93155705  1
  Cu  Cu23  1  0.48560817  0.85172536  0.96470972  1
  Cu  Cu24  1  0.47924476  0.39243874  0.24494318  1
  Cu  Cu25  1  0.50519826  0.08568405  0.44808856  1
  Cu  Cu26  1  0.93223743  0.64798218  0.47343688  1
  Cu  Cu27  1  0.01963668  0.75418619  0.95467054  1
  C  C28  1  0.00000000  0.31141900  0.82022700  1
  C  C29  1  0.73367100  0.09672600  0.60675100  1
  C  C30  1  0.50000000  0.74588400  0.84750000  1
  C  C31  1  0.27281600  0.61150900  0.32848700  1
  C  C32  1  0.50000000  0.98738900  0.08449500  1
  C  C33  1  0.74204300  0.33805100  0.38617500  1
  C  C34  1  0.25795700  0.33805100  0.38617500  1
  C  C35  1  0.00000000  0.75411600  0.34750000  1
  C  C36  1  0.50000000  0.01884300  0.73722300  1
  C  C37  1  0.25795700  0.66194900  0.61382500  1
  C  C38  1  0.00000000  0.18429400  0.46342200  1
  C  C39  1  0.76632900  0.40327400  0.10675100  1
  C  C40  1  0.27281600  0.38849100  0.67151300  1
  C  C41  1  0.75795700  0.83805100  0.11382500  1
  C  C42  1  0.50000000  0.81141900  0.67977300  1
  C  C43  1  0.23367100  0.59672600  0.89324900  1
  C  C44  1  0.76632900  0.59672600  0.89324900  1
  C  C45  1  0.00000000  0.48115700  0.23722300  1
  C  C46  1  0.72718400  0.61150900  0.32848700  1
  C  C47  1  0.72718400  0.38849100  0.67151300  1
  C  C48  1  0.75795700  0.16194900  0.88617500  1
  C  C49  1  0.00000000  0.81570600  0.53657800  1
  C  C50  1  0.50000000  0.18858100  0.32022700  1
  C  C51  1  0.23367100  0.40327400  0.10675100  1
  C  C52  1  0.50000000  0.68429400  0.03657800  1
  C  C53  1  0.24204300  0.16194900  0.88617500  1
  C  C54  1  0.00000000  0.00000000  0.50000000  1
  C  C55  1  0.50000000  0.01261100  0.91550500  1
  C  C56  1  0.74204300  0.66194900  0.61382500  1
  C  C57  1  0.26632900  0.90327400  0.39324900  1
  C  C58  1  0.77281600  0.88849100  0.82848700  1
  C  C59  1  0.00000000  0.68858100  0.17977300  1
  C  C60  1  0.50000000  0.98115700  0.26277700  1
  C  C61  1  0.00000000  0.24588400  0.65250000  1
  C  C62  1  0.24204300  0.83805100  0.11382500  1
  C  C63  1  0.00000000  0.51884300  0.76277700  1
  C  C64  1  0.26632900  0.09672600  0.60675100  1
  C  C65  1  0.77281600  0.11150900  0.17151300  1
  C  C66  1  0.73367100  0.90327400  0.39324900  1
  C  C67  1  0.50000000  0.31570600  0.96342200  1
  C  C68  1  0.50000000  0.50000000  0.00000000  1
  C  C69  1  0.00000000  0.51261100  0.58449500  1
  C  C70  1  0.50000000  0.25411600  0.15250000  1
  C  C71  1  0.22718400  0.88849100  0.82848700  1
  C  C72  1  0.22718400  0.11150900  0.17151300  1
  C  C73  1  0.00000000  0.48738900  0.41550500  1
