# generated using pymatgen
data_Cu5NiC4
_symmetry_space_group_name_H-M   'P 1'
_cell_length_a   7.91176686
_cell_length_b   7.91176686
_cell_length_c   7.91176686
_cell_angle_alpha   60.00000000
_cell_angle_beta   60.00000000
_cell_angle_gamma   60.00000000
_symmetry_Int_Tables_number   1
_chemical_formula_structural   Cu5NiC4
_chemical_formula_sum   'Cu5 Ni1 C4'
_cell_volume   350.19137565
_cell_formula_units_Z   1
loop_
 _symmetry_equiv_pos_site_id
 _symmetry_equiv_pos_as_xyz
  1  'x, y, z'
loop_
 _atom_site_type_symbol
 _atom_site_label
 _atom_site_symmetry_multiplicity
 _atom_site_fract_x
 _atom_site_fract_y
 _atom_site_fract_z
 _atom_site_occupancy
  C  C0  1  0.75000000  0.75000000  0.75000000  1
  C  C1  1  0.25000000  0.25000000  0.25000000  1
  C  C2  1  0.50000000  0.50000000  0.50000000  1
  C  C3  1  0.00000000  0.00000000  0.00000000  1
  Cu  Cu4  1  0.76494476  0.22552053  0.21955220  1
  Ni  Ni5  1  0.23443400  0.23443400  0.76556600  1
  Cu  Cu6  1  0.26576552  0.74739574  0.76548930  1
  Cu  Cu7  1  0.21765114  0.74715668  0.24973394  1
  Cu  Cu8  1  0.75769409  0.25308864  0.75898139  1
  Cu  Cu9  1  0.77214031  0.79940353  0.20260202  1
