# generated using pymatgen
data_Cu12Ni4C7
_symmetry_space_group_name_H-M   'P 1'
_cell_length_a   9.03071600
_cell_length_b   9.03071600
_cell_length_c   9.03071600
_cell_angle_alpha   90.00000000
_cell_angle_beta   90.00000000
_cell_angle_gamma   90.00000000
_symmetry_Int_Tables_number   1
_chemical_formula_structural   Cu12Ni4C7
_chemical_formula_sum   'Cu24 Ni8 C14'
_cell_volume   736.48949074
_cell_formula_units_Z   2
loop_
 _symmetry_equiv_pos_site_id
 _symmetry_equiv_pos_as_xyz
  1  'x, y, z'
loop_
 _atom_site_type_symbol
 _atom_site_label
 _atom_site_symmetry_multiplicity
 _atom_site_fract_x
 _atom_site_fract_y
 _atom_site_fract_z
 _atom_site_occupancy
  Ni  Ni0  1  0.18574100  0.18574100  0.18574100  1
  Ni  Ni1  1  0.68574100  0.68574100  0.68574100  1
  Ni  Ni2  1  0.31425900  0.68574100  0.31425900  1
  Ni  Ni3  1  0.31425900  0.31425900  0.68574100  1
  Ni  Ni4  1  0.68574100  0.31425900  0.31425900  1
  Ni  Ni5  1  0.81425900  0.81425900  0.18574100  1
  Ni  Ni6  1  0.81425900  0.18574100  0.81425900  1
  Ni  Ni7  1  0.18574100  0.81425900  0.81425900  1
  C  C8  1  0.75000000  0.50000000  0.00000000  1
  C  C9  1  0.00000000  0.25000000  0.50000000  1
  C  C10  1  0.50000000  0.00000000  0.25000000  1
  C  C11  1  0.50000000  0.00000000  0.75000000  1
  C  C12  1  0.25000000  0.50000000  0.00000000  1
  C  C13  1  0.00000000  0.75000000  0.50000000  1
  C  C14  1  0.75000000  0.00000000  0.50000000  1
  C  C15  1  0.25000000  0.00000000  0.50000000  1
  C  C16  1  0.00000000  0.50000000  0.75000000  1
  C  C17  1  0.00000000  0.50000000  0.25000000  1
  C  C18  1  0.50000000  0.25000000  0.00000000  1
  C  C19  1  0.50000000  0.75000000  0.00000000  1
  C  C20  1  0.00000000  0.00000000  0.00000000  1
  C  C21  1  0.50000000  0.50000000  0.50000000  1
  Cu  Cu22  1  0.34952000  0.05742500  0.64055500  1
  Cu  Cu23  1  0.64055500  0.65048000  0.94257500  1
  Cu  Cu24  1  0.64055500  0.34952000  0.05742500  1
  Cu  Cu25  1  0.65048000  0.94257500  0.64055500  1
  Cu  Cu26  1  0.34952000  0.94257500  0.35944500  1
  Cu  Cu27  1  0.94257500  0.64055500  0.65048000  1
  Cu  Cu28  1  0.05742500  0.35944500  0.65048000  1
  Cu  Cu29  1  0.85944500  0.55742500  0.15048000  1
  Cu  Cu30  1  0.85944500  0.44257500  0.84952000  1
  Cu  Cu31  1  0.14055500  0.55742500  0.84952000  1
  Cu  Cu32  1  0.44257500  0.84952000  0.85944500  1
  Cu  Cu33  1  0.84952000  0.14055500  0.55742500  1
  Cu  Cu34  1  0.84952000  0.85944500  0.44257500  1
  Cu  Cu35  1  0.55742500  0.15048000  0.85944500  1
  Cu  Cu36  1  0.15048000  0.85944500  0.55742500  1
  Cu  Cu37  1  0.55742500  0.84952000  0.14055500  1
  Cu  Cu38  1  0.44257500  0.15048000  0.14055500  1
  Cu  Cu39  1  0.15048000  0.14055500  0.44257500  1
  Cu  Cu40  1  0.05742500  0.64055500  0.34952000  1
  Cu  Cu41  1  0.94257500  0.35944500  0.34952000  1
  Cu  Cu42  1  0.14055500  0.44257500  0.15048000  1
  Cu  Cu43  1  0.35944500  0.65048000  0.05742500  1
  Cu  Cu44  1  0.35944500  0.34952000  0.94257500  1
  Cu  Cu45  1  0.65048000  0.05742500  0.35944500  1
