# generated using pymatgen
data_CuC3
_symmetry_space_group_name_H-M   'P 1'
_cell_length_a   5.52620300
_cell_length_b   11.07878900
_cell_length_c   14.29200100
_cell_angle_alpha   90.00000000
_cell_angle_beta   90.00000000
_cell_angle_gamma   90.00000000
_symmetry_Int_Tables_number   1
_chemical_formula_structural   CuC3
_chemical_formula_sum   'Cu16 C48'
_cell_volume   875.00828134
_cell_formula_units_Z   16
loop_
 _symmetry_equiv_pos_site_id
 _symmetry_equiv_pos_as_xyz
  1  'x, y, z'
loop_
 _atom_site_type_symbol
 _atom_site_label
 _atom_site_symmetry_multiplicity
 _atom_site_fract_x
 _atom_site_fract_y
 _atom_site_fract_z
 _atom_site_occupancy
  C  C0  1  0.72311800  0.97384900  0.43874300  1
  C  C1  1  0.22311800  0.52615100  0.56125700  1
  C  C2  1  0.27688200  0.47384900  0.06125700  1
  C  C3  1  0.77688200  0.02615100  0.93874300  1
  C  C4  1  0.27688200  0.02615100  0.56125700  1
  C  C5  1  0.77688200  0.47384900  0.43874300  1
  C  C6  1  0.72311800  0.52615100  0.93874300  1
  C  C7  1  0.22311800  0.97384900  0.06125700  1
  C  C8  1  0.79427000  0.25902300  0.31068600  1
  C  C9  1  0.29427000  0.24097700  0.68931400  1
  C  C10  1  0.20573000  0.75902300  0.18931400  1
  C  C11  1  0.70573000  0.74097700  0.81068600  1
  C  C12  1  0.20573000  0.74097700  0.68931400  1
  C  C13  1  0.70573000  0.75902300  0.31068600  1
  C  C14  1  0.79427000  0.24097700  0.81068600  1
  C  C15  1  0.29427000  0.25902300  0.18931400  1
  Cu  Cu16  1  0.63914241  0.02118391  0.18816966  1
  Cu  Cu17  1  0.18833694  0.46762022  0.82188562  1
  Cu  Cu18  1  0.28633448  0.53533944  0.31166880  1
  Cu  Cu19  1  0.81582699  0.97859970  0.69133198  1
  Cu  Cu20  1  0.32552633  0.98428976  0.80841946  1
  Cu  Cu21  1  0.79796664  0.51524392  0.17794074  1
  Cu  Cu22  1  0.68320110  0.48084387  0.69679972  1
  Cu  Cu23  1  0.15888215  0.00552950  0.30297599  1
  Cu  Cu24  1  0.78694554  0.26418702  0.04766877  1
  Cu  Cu25  1  0.27371680  0.22905172  0.93806306  1
  Cu  Cu26  1  0.22046642  0.77985566  0.42744836  1
  Cu  Cu27  1  0.71463833  0.73002824  0.58148853  1
  Cu  Cu28  1  0.23690818  0.71844631  0.94927891  1
  Cu  Cu29  1  0.70029450  0.78014543  0.05829596  1
  Cu  Cu30  1  0.79144271  0.21427173  0.56475124  1
  Cu  Cu31  1  0.26536890  0.27187035  0.44106204  1
  C  C32  1  0.63520800  0.47590900  0.29234800  1
  C  C33  1  0.13520800  0.02409100  0.70765200  1
  C  C34  1  0.36479200  0.97590900  0.20765200  1
  C  C35  1  0.86479200  0.52409100  0.79234800  1
  C  C36  1  0.36479200  0.52409100  0.70765200  1
  C  C37  1  0.86479200  0.97590900  0.29234800  1
  C  C38  1  0.63520800  0.02409100  0.79234800  1
  C  C39  1  0.13520800  0.47590900  0.20765200  1
  C  C40  1  0.62619100  0.27277100  0.45430000  1
  C  C41  1  0.12619100  0.22722900  0.54570000  1
  C  C42  1  0.37380900  0.77277100  0.04570000  1
  C  C43  1  0.87380900  0.72722900  0.95430000  1
  C  C44  1  0.37380900  0.72722900  0.54570000  1
  C  C45  1  0.87380900  0.77277100  0.45430000  1
  C  C46  1  0.62619100  0.22722900  0.95430000  1
  C  C47  1  0.12619100  0.27277100  0.04570000  1
  C  C48  1  0.69947000  0.44135700  0.08043500  1
  C  C49  1  0.19947000  0.05864300  0.91956500  1
  C  C50  1  0.30053000  0.94135700  0.41956500  1
  C  C51  1  0.80053000  0.55864300  0.58043500  1
  C  C52  1  0.30053000  0.55864300  0.91956500  1
  C  C53  1  0.80053000  0.94135700  0.08043500  1
  C  C54  1  0.69947000  0.05864300  0.58043500  1
  C  C55  1  0.19947000  0.44135700  0.41956500  1
  C  C56  1  0.68949000  0.19211800  0.16827300  1
  C  C57  1  0.18949000  0.30788200  0.83172700  1
  C  C58  1  0.31051000  0.69211800  0.33172700  1
  C  C59  1  0.81051000  0.80788200  0.66827300  1
  C  C60  1  0.31051000  0.80788200  0.83172700  1
  C  C61  1  0.81051000  0.69211800  0.16827300  1
  C  C62  1  0.68949000  0.30788200  0.66827300  1
  C  C63  1  0.18949000  0.19211800  0.33172700  1
