# generated using pymatgen
data_Cu4Ni2C3
_symmetry_space_group_name_H-M   'P 1'
_cell_length_a   5.85610084
_cell_length_b   5.85610084
_cell_length_c   5.79490321
_cell_angle_alpha   71.72822170
_cell_angle_beta   108.27177830
_cell_angle_gamma   68.56832746
_symmetry_Int_Tables_number   1
_chemical_formula_structural   Cu4Ni2C3
_chemical_formula_sum   'Cu4 Ni2 C3'
_cell_volume   153.68637900
_cell_formula_units_Z   1
loop_
 _symmetry_equiv_pos_site_id
 _symmetry_equiv_pos_as_xyz
  1  'x, y, z'
loop_
 _atom_site_type_symbol
 _atom_site_label
 _atom_site_symmetry_multiplicity
 _atom_site_fract_x
 _atom_site_fract_y
 _atom_site_fract_z
 _atom_site_occupancy
  Ni  Ni0  1  0.35334584  0.35334584  0.75000000  1
  Ni  Ni1  1  0.61264503  0.61264503  0.25000000  1
  C  C2  1  0.73111318  0.73111318  0.75000000  1
  C  C3  1  0.01123970  0.01123970  0.75000000  1
  C  C4  1  0.00722878  0.00722878  0.25000000  1
  Cu  Cu5  1  0.31650800  0.90567730  0.63158684  1
  Cu  Cu6  1  0.96043849  0.77888667  0.05351197  1
  Cu  Cu7  1  0.90567730  0.31650800  0.86841316  1
  Cu  Cu8  1  0.77888667  0.96043849  0.44648803  1
