# generated using pymatgen
data_Cu4NiC10
_symmetry_space_group_name_H-M   'P 1'
_cell_length_a   4.70945000
_cell_length_b   5.66789918
_cell_length_c   13.32128766
_cell_angle_alpha   78.98913348
_cell_angle_beta   87.90697405
_cell_angle_gamma   87.81308263
_symmetry_Int_Tables_number   1
_chemical_formula_structural   Cu4NiC10
_chemical_formula_sum   'Cu8 Ni2 C20'
_cell_volume   348.62591790
_cell_formula_units_Z   2
loop_
 _symmetry_equiv_pos_site_id
 _symmetry_equiv_pos_as_xyz
  1  'x, y, z'
loop_
 _atom_site_type_symbol
 _atom_site_label
 _atom_site_symmetry_multiplicity
 _atom_site_fract_x
 _atom_site_fract_y
 _atom_site_fract_z
 _atom_site_occupancy
  Cu  Cu0  1  0.45997207  0.51809767  0.02727413  1
  Cu  Cu1  1  0.54790399  0.66820438  0.39242503  1
  Ni  Ni2  1  0.48784200  0.30085200  0.60424100  1
  Cu  Cu3  1  0.50218425  0.10836714  0.20561089  1
  Ni  Ni4  1  0.53984000  0.88831700  0.78638600  1
  Cu  Cu5  1  0.97907722  0.22106943  0.38161253  1
  Cu  Cu6  1  0.97945486  0.41286493  0.82069242  1
  Cu  Cu7  1  0.97316522  0.63746315  0.19371058  1
  Cu  Cu8  1  0.01262056  0.78775663  0.59047106  1
  Cu  Cu9  1  0.96625588  0.98123741  0.00718696  1
  C  C10  1  0.70305200  0.96729000  0.66261600  1
  C  C11  1  0.70173700  0.58077400  0.86218900  1
  C  C12  1  0.70000500  0.78197600  0.25834500  1
  C  C13  1  0.29513700  0.42431600  0.13951100  1
  C  C14  1  0.29844600  0.61982300  0.54063000  1
  C  C15  1  0.79966800  0.27913000  0.26064500  1
  C  C16  1  0.80278700  0.08605800  0.85851900  1
  C  C17  1  0.80074000  0.68837400  0.05980600  1
  C  C18  1  0.80251300  0.88010500  0.46174100  1
  C  C19  1  0.81001600  0.47206100  0.66308900  1
  C  C20  1  0.69040400  0.18577800  0.05833700  1
  C  C21  1  0.69392900  0.37910700  0.46297200  1
  C  C22  1  0.28969300  0.21463400  0.74781600  1
  C  C23  1  0.30856900  0.83015300  0.92975000  1
  C  C24  1  0.30699900  0.01871200  0.33987000  1
  C  C25  1  0.19767900  0.92271000  0.13859700  1
  C  C26  1  0.19284000  0.32484800  0.93811500  1
  C  C27  1  0.19302600  0.11680100  0.54152800  1
  C  C28  1  0.20482000  0.70716500  0.74013200  1
  C  C29  1  0.19573900  0.51769200  0.34063200  1
