# generated using pymatgen
data_Cu6NiC3
_symmetry_space_group_name_H-M   'P 1'
_cell_length_a   5.95516734
_cell_length_b   5.95516734
_cell_length_c   8.62647769
_cell_angle_alpha   90.00000000
_cell_angle_beta   90.00000000
_cell_angle_gamma   89.48502899
_symmetry_Int_Tables_number   1
_chemical_formula_structural   Cu6NiC3
_chemical_formula_sum   'Cu12 Ni2 C6'
_cell_volume   305.91720394
_cell_formula_units_Z   2
loop_
 _symmetry_equiv_pos_site_id
 _symmetry_equiv_pos_as_xyz
  1  'x, y, z'
loop_
 _atom_site_type_symbol
 _atom_site_label
 _atom_site_symmetry_multiplicity
 _atom_site_fract_x
 _atom_site_fract_y
 _atom_site_fract_z
 _atom_site_occupancy
  Ni  Ni0  1  0.00000000  -0.00000000  0.25000000  1
  Ni  Ni1  1  0.00000000  -0.00000000  0.75000000  1
  C  C2  1  0.50000000  0.50000000  0.25000000  1
  C  C3  1  0.50000000  0.50000000  0.75000000  1
  C  C4  1  0.00000000  0.50000000  -0.00000000  1
  C  C5  1  0.50000000  -0.00000000  0.50000000  1
  C  C6  1  0.00000000  0.50000000  0.50000000  1
  C  C7  1  0.50000000  -0.00000000  -0.00000000  1
  Cu  Cu8  1  0.00000000  0.50000000  0.26733581  1
  Cu  Cu9  1  0.50000000  -0.00000000  0.23266419  1
  Cu  Cu10  1  0.00000000  0.50000000  0.73266419  1
  Cu  Cu11  1  0.50000000  -0.00000000  0.76733581  1
  Cu  Cu12  1  0.35199707  0.69434121  -0.00000000  1
  Cu  Cu13  1  0.64800293  0.30565879  -0.00000000  1
  Cu  Cu14  1  0.80234611  0.84697792  -0.00000000  1
  Cu  Cu15  1  0.19765389  0.15302208  -0.00000000  1
  Cu  Cu16  1  0.84697792  0.80234611  0.50000000  1
  Cu  Cu17  1  0.15302208  0.19765389  0.50000000  1
  Cu  Cu18  1  0.30565879  0.64800293  0.50000000  1
  Cu  Cu19  1  0.69434121  0.35199707  0.50000000  1
