# generated using pymatgen
data_CuNiC3
_symmetry_space_group_name_H-M   'P 1'
_cell_length_a   3.34733100
_cell_length_b   3.34733872
_cell_length_c   5.82835000
_cell_angle_alpha   89.99999772
_cell_angle_beta   89.99993627
_cell_angle_gamma   120.00009821
_symmetry_Int_Tables_number   1
_chemical_formula_structural   CuNiC3
_chemical_formula_sum   'Cu1 Ni1 C3'
_cell_volume   56.55540892
_cell_formula_units_Z   1
loop_
 _symmetry_equiv_pos_site_id
 _symmetry_equiv_pos_as_xyz
  1  'x, y, z'
loop_
 _atom_site_type_symbol
 _atom_site_label
 _atom_site_symmetry_multiplicity
 _atom_site_fract_x
 _atom_site_fract_y
 _atom_site_fract_z
 _atom_site_occupancy
  C  C0  1  0.00000000  0.00000000  0.00000000  1
  C  C1  1  0.66666700  0.33333400  0.34576600  1
  C  C2  1  0.33333300  0.66666600  0.65423400  1
  Ni  Ni3  1  0.66666700  0.33333300  0.76936900  1
  Cu  Cu4  1  0.36103257  0.66108775  0.23974674  1
