# generated using pymatgen
data_Cu11NiC50
_symmetry_space_group_name_H-M   'P 1'
_cell_length_a   7.42366300
_cell_length_b   7.06721800
_cell_length_c   17.41876133
_cell_angle_alpha   89.59819053
_cell_angle_beta   90.00000000
_cell_angle_gamma   90.00000000
_symmetry_Int_Tables_number   1
_chemical_formula_structural   Cu11NiC50
_chemical_formula_sum   'Cu11 Ni1 C50'
_cell_volume   913.84665350
_cell_formula_units_Z   1
loop_
 _symmetry_equiv_pos_site_id
 _symmetry_equiv_pos_as_xyz
  1  'x, y, z'
loop_
 _atom_site_type_symbol
 _atom_site_label
 _atom_site_symmetry_multiplicity
 _atom_site_fract_x
 _atom_site_fract_y
 _atom_site_fract_z
 _atom_site_occupancy
  Ni  Ni0  1  0.62533400  0.00000000  0.25000000  1
  Cu  Cu1  1  0.37005058  0.99555933  0.75071999  1
  Cu  Cu2  1  0.09749748  0.98090886  0.26320713  1
  Cu  Cu3  1  0.86984164  0.06534912  0.74280001  1
  Cu  Cu4  1  0.87041600  0.16107807  0.44300487  1
  Cu  Cu5  1  0.85203269  0.84890524  0.07961784  1
  Cu  Cu6  1  0.13217731  0.85979273  0.57060050  1
  Cu  Cu7  1  0.13077015  0.14981581  0.93736177  1
  Cu  Cu8  1  0.36590036  0.17812557  0.43187293  1
  Cu  Cu9  1  0.38506918  0.83521517  0.05856335  1
  Cu  Cu10  1  0.61625846  0.85188436  0.57245881  1
  Cu  Cu11  1  0.61133259  0.16266697  0.93063592  1
  C  C12  1  0.83465000  0.26906000  0.10540400  1
  C  C13  1  0.83465000  0.73094000  0.39459600  1
  C  C14  1  0.16535000  0.73094000  0.89459600  1
  C  C15  1  0.16535000  0.26906000  0.60540400  1
  C  C16  1  0.41453700  0.26771100  0.10539300  1
  C  C17  1  0.41453700  0.73228900  0.39460700  1
  C  C18  1  0.58546300  0.73228900  0.89460700  1
  C  C19  1  0.58546300  0.26771100  0.60539300  1
  C  C20  1  0.12474800  0.44533900  0.34078100  1
  C  C21  1  0.12474800  0.55466100  0.15921900  1
  C  C22  1  0.87525200  0.55466100  0.65921900  1
  C  C23  1  0.87525200  0.44533900  0.84078100  1
  C  C24  1  0.12532400  0.50000000  0.25000000  1
  C  C25  1  0.87467600  0.50000000  0.75000000  1
  C  C26  1  0.62436900  0.34227600  0.10571200  1
  C  C27  1  0.62436900  0.65772400  0.39428800  1
  C  C28  1  0.37563100  0.65772400  0.89428800  1
  C  C29  1  0.37563100  0.34227600  0.60571200  1
  C  C30  1  0.37471800  0.11553500  0.17367900  1
  C  C31  1  0.37471800  0.88446500  0.32632100  1
  C  C32  1  0.62528200  0.88446500  0.82632100  1
  C  C33  1  0.62528200  0.11553500  0.67367900  1
  C  C34  1  0.87478200  0.11637500  0.17350700  1
  C  C35  1  0.87478200  0.88362500  0.32649300  1
  C  C36  1  0.12521800  0.88362500  0.82649300  1
  C  C37  1  0.12521800  0.11637500  0.67350700  1
  C  C38  1  0.94554100  0.47269200  0.11525900  1
  C  C39  1  0.94554100  0.52730800  0.38474100  1
  C  C40  1  0.05445900  0.52730800  0.88474100  1
  C  C41  1  0.05445900  0.47269200  0.61525900  1
  C  C42  1  0.30268600  0.47115400  0.11472000  1
  C  C43  1  0.30268600  0.52884600  0.38528000  1
  C  C44  1  0.69731400  0.52884600  0.88528000  1
  C  C45  1  0.69731400  0.47115400  0.61472000  1
  C  C46  1  0.37278700  0.16729000  0.02318600  1
  C  C47  1  0.37278700  0.83271000  0.47681400  1
  C  C48  1  0.62721300  0.83271000  0.97681400  1
  C  C49  1  0.62721300  0.16729000  0.52318600  1
  C  C50  1  0.87717700  0.17036300  0.02291300  1
  C  C51  1  0.87717700  0.82963700  0.47708700  1
  C  C52  1  0.12282300  0.82963700  0.97708700  1
  C  C53  1  0.12282300  0.17036300  0.52291300  1
  C  C54  1  0.12520600  0.21947800  0.35260600  1
  C  C55  1  0.12520600  0.78052200  0.14739400  1
  C  C56  1  0.87479400  0.78052200  0.64739400  1
  C  C57  1  0.87479400  0.21947800  0.85260600  1
  C  C58  1  0.62454300  0.19963800  0.35375100  1
  C  C59  1  0.62454300  0.80036200  0.14624900  1
  C  C60  1  0.37545700  0.80036200  0.64624900  1
  C  C61  1  0.37545700  0.19963800  0.85375100  1
