# generated using pymatgen
data_Cu8NiC5
_symmetry_space_group_name_H-M   'P 1'
_cell_length_a   7.31423295
_cell_length_b   7.31423295
_cell_length_c   7.31423309
_cell_angle_alpha   60.15786839
_cell_angle_beta   60.15786839
_cell_angle_gamma   60.15787672
_symmetry_Int_Tables_number   1
_chemical_formula_structural   Cu8NiC5
_chemical_formula_sum   'Cu8 Ni1 C5'
_cell_volume   277.67804031
_cell_formula_units_Z   1
loop_
 _symmetry_equiv_pos_site_id
 _symmetry_equiv_pos_as_xyz
  1  'x, y, z'
loop_
 _atom_site_type_symbol
 _atom_site_label
 _atom_site_symmetry_multiplicity
 _atom_site_fract_x
 _atom_site_fract_y
 _atom_site_fract_z
 _atom_site_occupancy
  Ni  Ni0  1  0.00000000  0.00000000  0.00000000  1
  C  C1  1  0.38009700  0.38009700  0.38009700  1
  C  C2  1  0.61990300  0.61990300  0.61990300  1
  C  C3  1  0.50000000  0.00000000  0.00000000  1
  C  C4  1  0.00000000  0.00000000  0.50000000  1
  C  C5  1  0.00000000  0.50000000  0.00000000  1
  Cu  Cu6  1  0.25084300  0.25084300  0.25084300  1
  Cu  Cu7  1  0.77064400  0.23051000  0.23051000  1
  Cu  Cu8  1  0.23051000  0.23051000  0.77064400  1
  Cu  Cu9  1  0.23051000  0.77064400  0.23051000  1
  Cu  Cu10  1  0.74915700  0.74915700  0.74915700  1
  Cu  Cu11  1  0.22935600  0.76949000  0.76949000  1
  Cu  Cu12  1  0.76949000  0.76949000  0.22935600  1
  Cu  Cu13  1  0.76949000  0.22935600  0.76949000  1
