# generated using pymatgen
data_Cu29C42
_symmetry_space_group_name_H-M   'P 1'
_cell_length_a   6.37649868
_cell_length_b   6.37649868
_cell_length_c   66.51574723
_cell_angle_alpha   84.98143575
_cell_angle_beta   84.98143575
_cell_angle_gamma   33.83932880
_symmetry_Int_Tables_number   1
_chemical_formula_structural   Cu29C42
_chemical_formula_sum   'Cu29 C42'
_cell_volume   1499.74187307
_cell_formula_units_Z   1
loop_
 _symmetry_equiv_pos_site_id
 _symmetry_equiv_pos_as_xyz
  1  'x, y, z'
loop_
 _atom_site_type_symbol
 _atom_site_label
 _atom_site_symmetry_multiplicity
 _atom_site_fract_x
 _atom_site_fract_y
 _atom_site_fract_z
 _atom_site_occupancy
  Cu  Cu0  1  0.98462333  0.01387041  0.99820528  1
  Cu  Cu1  1  0.45403294  0.39674804  0.04494890  1
  Cu  Cu2  1  0.08888429  0.19294382  0.07313196  1
  Cu  Cu3  1  0.82337466  0.89153008  0.09891539  1
  Cu  Cu4  1  0.29669875  0.28058193  0.14238982  1
  Cu  Cu5  1  0.75846475  0.66737837  0.18780735  1
  Cu  Cu6  1  0.15527726  0.13457810  0.23843973  1
  Cu  Cu7  1  0.53782898  0.58698565  0.28887049  1
  Cu  Cu8  1  0.95666589  0.03862721  0.33636223  1
  Cu  Cu9  1  0.49970125  0.37057389  0.37657128  1
  Cu  Cu10  1  0.85254770  0.85408267  0.42386043  1
  Cu  Cu11  1  0.70230450  0.67712910  0.52434100  1
  Cu  Cu12  1  0.29999817  0.28990379  0.47411071  1
  Cu  Cu13  1  0.55546623  0.60030397  0.61876725  1
  Cu  Cu14  1  0.13644000  0.13188956  0.56691289  1
  Cu  Cu15  1  0.86265479  0.86221468  0.59337263  1
  Cu  Cu16  1  0.98391746  0.05686826  0.66773630  1
  Cu  Cu17  1  0.72865911  0.68430563  0.69004821  1
  Cu  Cu18  1  0.37055567  0.49580429  0.71162574  1
  Cu  Cu19  1  0.22816936  0.09547996  0.73726071  1
  Cu  Cu20  1  0.90735189  0.84508446  0.76091398  1
  Cu  Cu21  1  0.28730640  0.27017531  0.81448443  1
  Cu  Cu22  1  0.05524147  0.95229579  0.83320707  1
  Cu  Cu23  1  0.68525844  0.72193878  0.85923134  1
  Cu  Cu24  1  0.41226334  0.46586569  0.88047863  1
  Cu  Cu25  1  0.18084020  0.08882396  0.90384476  1
  Cu  Cu26  1  0.83758108  0.85809892  0.92920792  1
  Cu  Cu27  1  0.53191960  0.56456171  0.95012450  1
  Cu  Cu28  1  0.30264900  0.26597115  0.97514610  1
  C  C29  1  0.36249200  0.36249200  0.01109500  1
  C  C30  1  0.78546600  0.78546600  0.05923000  1
  C  C31  1  0.06519800  0.06519800  0.03598700  1
  C  C32  1  0.21560700  0.21560700  0.10550400  1
  C  C33  1  0.50125000  0.50125000  0.08188000  1
  C  C34  1  0.65133200  0.65133200  0.15470700  1
  C  C35  1  0.92107500  0.92107500  0.13017800  1
  C  C36  1  0.08099200  0.08099200  0.20266300  1
  C  C37  1  0.34935200  0.34935200  0.17897700  1
  C  C38  1  0.50921200  0.50921200  0.24996100  1
  C  C39  1  0.77559700  0.77559700  0.22621100  1
  C  C40  1  0.93757300  0.93757300  0.29766800  1
  C  C41  1  0.20505000  0.20505000  0.27378100  1
  C  C42  1  0.36599900  0.36599900  0.34532900  1
  C  C43  1  0.63403400  0.63403400  0.32135700  1
  C  C44  1  0.79501200  0.79501200  0.39290400  1
  C  C45  1  0.06243500  0.06243500  0.36899600  1
  C  C46  1  0.22440100  0.22440100  0.44046200  1
  C  C47  1  0.49071200  0.49071200  0.41671600  1
  C  C48  1  0.65062600  0.65062600  0.48766700  1
  C  C49  1  0.91904700  0.91904700  0.46400000  1
  C  C50  1  0.07886500  0.07886500  0.53648100  1
  C  C51  1  0.34858600  0.34858600  0.51195200  1
  C  C52  1  0.49879400  0.49879400  0.58473200  1
  C  C53  1  0.78439900  0.78439900  0.56112600  1
  C  C54  1  0.93484900  0.93484900  0.63062700  1
  C  C55  1  0.21456000  0.21456000  0.60739900  1
  C  C56  1  0.35561400  0.35561400  0.67843900  1
  C  C57  1  0.63723800  0.63723800  0.65559700  1
  C  C58  1  0.78561700  0.78561700  0.72636500  1
  C  C59  1  0.07153000  0.07153000  0.70242400  1
  C  C60  1  0.21927800  0.21927800  0.77336500  1
  C  C61  1  0.50123100  0.50123100  0.75022600  1
  C  C62  1  0.64156400  0.64156400  0.82140500  1
  C  C63  1  0.92377600  0.92377600  0.79809700  1
  C  C64  1  0.07098200  0.07098200  0.86886000  1
  C  C65  1  0.35651700  0.35651700  0.84493500  1
  C  C66  1  0.50016100  0.50016100  0.91652700  1
  C  C67  1  0.78553300  0.78553300  0.89299500  1
  C  C68  1  0.92931300  0.92931300  0.96447400  1
  C  C69  1  0.21467600  0.21467600  0.94058700  1
  C  C70  1  0.64445500  0.64445500  0.98809200  1
