# generated using pymatgen
data_Cu2C
_symmetry_space_group_name_H-M   'P 1'
_cell_length_a   9.99005632
_cell_length_b   9.08544067
_cell_length_c   6.46080344
_cell_angle_alpha   77.96134424
_cell_angle_beta   62.80383816
_cell_angle_gamma   39.23481759
_symmetry_Int_Tables_number   1
_chemical_formula_structural   Cu2C
_chemical_formula_sum   'Cu20 C10'
_cell_volume   318.68523455
_cell_formula_units_Z   10
loop_
 _symmetry_equiv_pos_site_id
 _symmetry_equiv_pos_as_xyz
  1  'x, y, z'
loop_
 _atom_site_type_symbol
 _atom_site_label
 _atom_site_symmetry_multiplicity
 _atom_site_fract_x
 _atom_site_fract_y
 _atom_site_fract_z
 _atom_site_occupancy
  C  C0  1  0.25000000  0.25000000  0.25000000  1
  C  C1  1  0.00000000  0.00000000  0.00000000  1
  C  C2  1  0.62500000  0.62500000  0.12500000  1
  C  C3  1  0.62500000  0.12500000  0.62500000  1
  C  C4  1  0.62500000  0.62500000  0.62500000  1
  C  C5  1  0.12500000  0.62500000  0.62500000  1
  C  C6  1  0.79207000  0.79207000  0.20793000  1
  C  C7  1  0.45793000  0.45793000  0.04207000  1
  C  C8  1  0.20793000  0.20793000  0.79207000  1
  C  C9  1  0.04207000  0.04207000  0.45793000  1
  Cu  Cu10  1  0.94523434  0.35330444  0.02890439  1
  Cu  Cu11  1  0.39425632  0.44909657  0.60266677  1
  Cu  Cu12  1  0.88329728  0.09802635  0.37911462  1
  Cu  Cu13  1  0.25757636  0.56361147  0.26926438  1
  Cu  Cu14  1  0.28647822  0.98552392  0.70491184  1
  Cu  Cu15  1  0.35204695  0.16169249  0.89313087  1
  Cu  Cu16  1  0.82608570  0.84780631  0.67151588  1
  Cu  Cu17  1  0.56859544  0.60084079  0.43368513  1
  Cu  Cu18  1  0.67968033  0.67188675  0.80712380  1
  Cu  Cu19  1  0.27057224  0.90739142  0.25282618  1
  Cu  Cu20  1  0.73611168  0.98359258  0.32557995  1
  Cu  Cu21  1  0.55815343  0.25075320  0.91989594  1
  Cu  Cu22  1  0.03590320  0.68712221  0.94785232  1
  Cu  Cu23  1  0.10040722  0.87642413  0.64761755  1
  Cu  Cu24  1  0.60563327  0.88545999  0.16611245  1
  Cu  Cu25  1  0.36581692  0.66156191  0.92515576  1
  Cu  Cu26  1  0.89728518  0.57636083  0.32003097  1
  Cu  Cu27  1  0.69073079  0.35367479  0.07626058  1
  Cu  Cu28  1  0.89762130  0.31187843  0.56621625  1
  Cu  Cu29  1  0.17589864  0.36050716  0.59948675  1
