# generated using pymatgen
data_Cu2C3
_symmetry_space_group_name_H-M   'P 1'
_cell_length_a   8.27348800
_cell_length_b   8.28795305
_cell_length_c   8.29252977
_cell_angle_alpha   109.57152445
_cell_angle_beta   109.19302437
_cell_angle_gamma   109.45036825
_symmetry_Int_Tables_number   1
_chemical_formula_structural   Cu2C3
_chemical_formula_sum   'Cu16 C24'
_cell_volume   438.79132984
_cell_formula_units_Z   8
loop_
 _symmetry_equiv_pos_site_id
 _symmetry_equiv_pos_as_xyz
  1  'x, y, z'
loop_
 _atom_site_type_symbol
 _atom_site_label
 _atom_site_symmetry_multiplicity
 _atom_site_fract_x
 _atom_site_fract_y
 _atom_site_fract_z
 _atom_site_occupancy
  Cu  Cu0  1  0.68778456  0.71765688  0.53533242  1
  Cu  Cu1  1  0.26675350  0.51424315  0.26423218  1
  Cu  Cu2  1  0.95676285  0.18656780  0.77145932  1
  Cu  Cu3  1  0.47953405  0.16168128  0.31175266  1
  Cu  Cu4  1  0.21603645  0.95548724  0.73810465  1
  Cu  Cu5  1  0.32268470  0.79252811  0.95074921  1
  Cu  Cu6  1  0.77039400  0.01483592  0.23092907  1
  Cu  Cu7  1  0.00534002  0.81391019  0.21232780  1
  Cu  Cu8  1  0.30286694  0.25240327  0.43179373  1
  Cu  Cu9  1  0.70897340  0.45369629  0.72207795  1
  Cu  Cu10  1  0.53313865  0.78552362  0.73498953  1
  Cu  Cu11  1  0.69567239  0.24145776  0.03402814  1
  Cu  Cu12  1  0.46884578  0.50199167  0.98915642  1
  Cu  Cu13  1  0.99808340  0.01504836  0.01091597  1
  Cu  Cu14  1  0.50542124  0.02051111  0.48844726  1
  Cu  Cu15  1  0.99463676  0.51110735  0.50392185  1
  C  C16  1  0.18406100  0.92030900  0.54441200  1
  C  C17  1  0.46645000  0.49998000  0.77169400  1
  C  C18  1  0.20887500  0.93966600  0.01287400  1
  C  C19  1  0.80671900  0.31600300  0.22772800  1
  C  C20  1  0.19510900  0.68386400  0.77215500  1
  C  C21  1  0.81865700  0.08137100  0.45456900  1
  C  C22  1  0.44662000  0.68439200  0.04469900  1
  C  C23  1  0.00007300  0.01151500  0.72702500  1
  C  C24  1  0.29703000  0.52084400  0.96630300  1
  C  C25  1  0.81641700  0.28234400  0.72831100  1
  C  C26  1  0.02211100  0.25289900  0.51209300  1
  C  C27  1  0.74347500  0.78856100  0.24258700  1
  C  C28  1  0.51703100  0.97209300  0.25712100  1
  C  C29  1  0.48633600  0.03116700  0.74122900  1
  C  C30  1  0.53630200  0.50250400  0.22693300  1
  C  C31  1  0.70056300  0.47788800  0.03450500  1
  C  C32  1  0.99721400  0.98510600  0.27459100  1
  C  C33  1  0.79123000  0.06275900  0.98603300  1
  C  C34  1  0.58002100  0.30336800  0.46651700  1
  C  C35  1  0.41925000  0.69408100  0.53465400  1
  C  C36  1  0.97953400  0.74888400  0.48757100  1
  C  C37  1  0.18363900  0.71855400  0.27262600  1
  C  C38  1  0.25382600  0.20837500  0.75858600  1
  C  C39  1  0.55205800  0.31551800  0.95571100  1
