# generated using pymatgen
data_Cu11NiC9
_symmetry_space_group_name_H-M   'P 1'
_cell_length_a   7.16272800
_cell_length_b   9.72650949
_cell_length_c   9.73040868
_cell_angle_alpha   119.91255891
_cell_angle_beta   90.06445947
_cell_angle_gamma   90.01821399
_symmetry_Int_Tables_number   1
_chemical_formula_structural   Cu11NiC9
_chemical_formula_sum   'Cu22 Ni2 C18'
_cell_volume   587.59579368
_cell_formula_units_Z   2
loop_
 _symmetry_equiv_pos_site_id
 _symmetry_equiv_pos_as_xyz
  1  'x, y, z'
loop_
 _atom_site_type_symbol
 _atom_site_label
 _atom_site_symmetry_multiplicity
 _atom_site_fract_x
 _atom_site_fract_y
 _atom_site_fract_z
 _atom_site_occupancy
  C  C0  1  0.24260300  0.00716100  0.24292200  1
  C  C1  1  0.74244700  0.25527600  0.24360500  1
  C  C2  1  0.74377800  0.75632900  0.01043500  1
  C  C3  1  0.74356500  0.98730000  0.75056700  1
  C  C4  1  0.99564600  0.33351100  0.66814500  1
  C  C5  1  0.49375800  0.66745200  0.33231700  1
  C  C6  1  0.49271200  0.33234700  0.66664100  1
  C  C7  1  0.99345800  0.66778100  0.33290700  1
  C  C8  1  0.24320000  0.75330600  0.74568800  1
  C  C9  1  0.24273500  0.25017000  0.00158700  1
  C  C10  1  0.74583900  0.60170600  0.63055700  1
  C  C11  1  0.74612900  0.36894500  0.97139000  1
  C  C12  1  0.74441900  0.03264800  0.40368700  1
  C  C13  1  0.24422600  0.40144000  0.37035000  1
  C  C14  1  0.24555000  0.62635000  0.02874000  1
  C  C15  1  0.24464300  0.96706000  0.59912000  1
  Cu  Cu16  1  0.56659634  0.66757544  0.74130096  1
  Cu  Cu17  1  0.59806538  0.26467572  0.93459670  1
  Cu  Cu18  1  0.55861337  0.10132163  0.35413045  1
  Cu  Cu19  1  0.09286429  0.34181167  0.25159174  1
  Cu  Cu20  1  0.09686622  0.73751048  0.08179594  1
  Cu  Cu21  1  0.08467473  0.93363324  0.66997457  1
  Ni  Ni22  1  0.75555900  0.66027100  0.50864400  1
  Cu  Cu23  1  0.75281026  0.50065340  0.15639287  1
  Cu  Cu24  1  0.75471284  0.87447426  0.34932095  1
  Cu  Cu25  1  0.23724524  0.33002782  0.47525006  1
  Cu  Cu26  1  0.25684118  0.52290754  0.84213986  1
  Cu  Cu27  1  0.22165136  0.16221455  0.68777432  1
  Cu  Cu28  1  0.91134618  0.64682147  0.73074126  1
  Cu  Cu29  1  0.92665604  0.26490893  0.92152285  1
  Cu  Cu30  1  0.96046394  0.11773122  0.36308343  1
  Cu  Cu31  1  0.40630932  0.35191329  0.24156974  1
  Cu  Cu32  1  0.41405090  0.72315534  0.07113590  1
  Cu  Cu33  1  0.44197555  0.90842656  0.63452157  1
  Cu  Cu34  1  0.71329562  0.40651838  0.53817338  1
  Cu  Cu35  1  0.74009723  0.44433561  0.86096494  1
  Cu  Cu36  1  0.69681256  0.10406111  0.56690098  1
  Cu  Cu37  1  0.29420074  0.60319201  0.44827599  1
  Cu  Cu38  1  0.20580866  0.53153955  0.12831808  1
  Ni  Ni39  1  0.23064600  0.88132500  0.41483200  1
  C  C40  1  0.24878800  0.00040600  0.98208800  1
  C  C41  1  0.75591700  0.00081800  0.00498200  1
