# generated using pymatgen
data_CuNiC2
_symmetry_space_group_name_H-M   'P 1'
_cell_length_a   8.53216100
_cell_length_b   8.53216100
_cell_length_c   4.26443100
_cell_angle_alpha   90.00000000
_cell_angle_beta   90.00000000
_cell_angle_gamma   90.00000000
_symmetry_Int_Tables_number   1
_chemical_formula_structural   CuNiC2
_chemical_formula_sum   'Cu8 Ni8 C16'
_cell_volume   310.44107279
_cell_formula_units_Z   8
loop_
 _symmetry_equiv_pos_site_id
 _symmetry_equiv_pos_as_xyz
  1  'x, y, z'
loop_
 _atom_site_type_symbol
 _atom_site_label
 _atom_site_symmetry_multiplicity
 _atom_site_fract_x
 _atom_site_fract_y
 _atom_site_fract_z
 _atom_site_occupancy
  C  C0  1  0.50000000  0.00000000  0.00000000  1
  C  C1  1  0.00000000  0.50000000  0.00000000  1
  C  C2  1  0.24995500  0.00000000  0.50000000  1
  C  C3  1  0.75004500  0.00000000  0.50000000  1
  C  C4  1  0.25095100  0.50000000  0.50000000  1
  C  C5  1  0.74904900  0.50000000  0.50000000  1
  C  C6  1  0.00000000  0.24995500  0.50000000  1
  C  C7  1  0.50000000  0.25095100  0.50000000  1
  C  C8  1  0.00000000  0.75004500  0.50000000  1
  C  C9  1  0.50000000  0.74904900  0.50000000  1
  C  C10  1  0.25048100  0.25048100  0.00000000  1
  C  C11  1  0.74951900  0.25048100  0.00000000  1
  C  C12  1  0.25048100  0.74951900  0.00000000  1
  C  C13  1  0.74951900  0.74951900  0.00000000  1
  C  C14  1  0.00000000  0.00000000  0.00000000  1
  C  C15  1  0.50000000  0.50000000  0.00000000  1
  Ni  Ni16  1  0.00000000  0.25362200  0.00000000  1
  Cu  Cu17  1  0.49051855  0.26284495  0.00950755  1
  Ni  Ni18  1  0.00000000  0.74637800  0.00000000  1
  Ni  Ni19  1  0.50000000  0.75298100  0.00000000  1
  Ni  Ni20  1  0.24991900  0.24991900  0.50000000  1
  Ni  Ni21  1  0.75008100  0.24991900  0.50000000  1
  Cu  Cu22  1  0.26305264  0.75002620  0.49482588  1
  Ni  Ni23  1  0.75008100  0.75008100  0.50000000  1
  Cu  Cu24  1  0.98690935  0.00952612  0.49577037  1
  Cu  Cu25  1  0.48284115  0.99899434  0.52277642  1
  Cu  Cu26  1  0.97587134  0.47365184  0.48432788  1
  Cu  Cu27  1  0.50913637  0.50823633  0.51793075  1
  Ni  Ni28  1  0.25362200  0.00000000  0.00000000  1
  Cu  Cu29  1  0.73571053  0.02474548  0.03783821  1
  Ni  Ni30  1  0.24701900  0.50000000  0.00000000  1
  Cu  Cu31  1  0.73621158  0.48884678  0.94294296  1
