# generated using pymatgen
data_Cu11NiC6
_symmetry_space_group_name_H-M   'P 1'
_cell_length_a   9.10381470
_cell_length_b   9.10381470
_cell_length_c   4.09494900
_cell_angle_alpha   90.00000000
_cell_angle_beta   90.00000000
_cell_angle_gamma   120.00000506
_symmetry_Int_Tables_number   1
_chemical_formula_structural   Cu11NiC6
_chemical_formula_sum   'Cu11 Ni1 C6'
_cell_volume   293.91782517
_cell_formula_units_Z   1
loop_
 _symmetry_equiv_pos_site_id
 _symmetry_equiv_pos_as_xyz
  1  'x, y, z'
loop_
 _atom_site_type_symbol
 _atom_site_label
 _atom_site_symmetry_multiplicity
 _atom_site_fract_x
 _atom_site_fract_y
 _atom_site_fract_z
 _atom_site_occupancy
  C  C0  1  0.00000000  0.40927500  0.00000000  1
  C  C1  1  0.59072500  0.59072500  0.00000000  1
  C  C2  1  0.40927500  0.00000000  0.00000000  1
  Cu  Cu3  1  0.01750968  0.78981453  0.09384607  1
  Ni  Ni4  1  0.25844300  0.25844300  0.00000000  1
  Cu  Cu5  1  0.75031434  0.98039831  0.02462444  1
  Cu  Cu6  1  0.00132884  0.17640459  0.52459000  1
  Cu  Cu7  1  0.81534039  0.82037149  0.51334553  1
  Cu  Cu8  1  0.17329909  0.99505318  0.45947041  1
  Cu  Cu9  1  0.31196809  0.48868519  0.49533047  1
  Cu  Cu10  1  0.15513074  0.66129159  0.54530057  1
  Cu  Cu11  1  0.53187374  0.81835532  0.48591060  1
  Cu  Cu12  1  0.79912648  0.48121038  0.47650637  1
  Cu  Cu13  1  0.72318644  0.19549758  0.52243558  1
  Cu  Cu14  1  0.49393511  0.29791252  0.53668994  1
  C  C15  1  0.66666700  0.33333300  0.00000000  1
  C  C16  1  0.33333300  0.66666700  0.00000000  1
  C  C17  1  0.00000000  0.00000000  0.00000000  1
