# generated using pymatgen
data_CuNi35C18
_symmetry_space_group_name_H-M   'P 1'
_cell_length_a   8.85296800
_cell_length_b   7.47056800
_cell_length_c   17.43134624
_cell_angle_alpha   65.80883338
_cell_angle_beta   90.00000000
_cell_angle_gamma   90.00000000
_symmetry_Int_Tables_number   1
_chemical_formula_structural   CuNi35C18
_chemical_formula_sum   'Cu1 Ni35 C18'
_cell_volume   1051.61207888
_cell_formula_units_Z   1
loop_
 _symmetry_equiv_pos_site_id
 _symmetry_equiv_pos_as_xyz
  1  'x, y, z'
loop_
 _atom_site_type_symbol
 _atom_site_label
 _atom_site_symmetry_multiplicity
 _atom_site_fract_x
 _atom_site_fract_y
 _atom_site_fract_z
 _atom_site_occupancy
  C  C0  1  0.65427900  0.72929900  0.92011900  1
  C  C1  1  0.65427900  0.27070100  0.57988100  1
  C  C2  1  0.64864900  0.28895900  0.32070300  1
  C  C3  1  0.34572100  0.27070100  0.07988100  1
  C  C4  1  0.49629200  0.00000000  0.75000000  1
  C  C5  1  0.64864900  0.71104100  0.17929700  1
  C  C6  1  0.60359100  0.31014500  0.94428400  1
  C  C7  1  0.82528500  0.06466600  0.49074400  1
  C  C8  1  0.17471500  0.06466600  0.99074400  1
  C  C9  1  0.34572100  0.72929900  0.42011900  1
  C  C10  1  0.39640900  0.68985500  0.05571600  1
  C  C11  1  0.35135100  0.28895900  0.82070300  1
  C  C12  1  0.50370800  0.00000000  0.25000000  1
  C  C13  1  0.35135100  0.71104100  0.67929700  1
  C  C14  1  0.82528500  0.93533400  0.00925600  1
  C  C15  1  0.39640900  0.31014500  0.44428400  1
  C  C16  1  0.60359100  0.68985500  0.55571600  1
  C  C17  1  0.17471500  0.93533400  0.50925600  1
  Ni  Ni18  1  0.22086600  0.19484400  0.89250500  1
  Ni  Ni19  1  0.72212800  0.86845000  0.52936000  1
  Ni  Ni20  1  0.38940800  0.12692400  0.17499000  1
  Ni  Ni21  1  0.69462800  0.51370500  0.92343900  1
  Ni  Ni22  1  0.61426000  0.85945900  0.22415900  1
  Ni  Ni23  1  0.30537200  0.51370500  0.42343900  1
  Ni  Ni24  1  0.69462800  0.48629500  0.57656100  1
  Ni  Ni25  1  0.77913400  0.80515600  0.10749500  1
  Ni  Ni26  1  0.61426000  0.14054100  0.27584100  1
  Ni  Ni27  1  0.50938700  0.27446000  0.52219600  1
  Ni  Ni28  1  0.38940800  0.87307600  0.32501000  1
  Ni  Ni29  1  0.19912100  0.80735800  0.45349000  1
  Ni  Ni30  1  0.50753400  0.32280800  0.86276900  1
  Ni  Ni31  1  0.50938700  0.72554000  0.97780400  1
  Ni  Ni32  1  0.27787200  0.86845000  0.02936000  1
  Ni  Ni33  1  0.30537200  0.48629500  0.07656100  1
  Ni  Ni34  1  0.38574000  0.85945900  0.72415900  1
  Ni  Ni35  1  0.49246600  0.32280800  0.36276900  1
  Ni  Ni36  1  0.50753400  0.67719200  0.63723100  1
  Ni  Ni37  1  0.72212800  0.13155000  0.97064000  1
  Ni  Ni38  1  0.61059200  0.87307600  0.82501000  1
  Ni  Ni39  1  0.49246600  0.67719200  0.13723100  1
  Ni  Ni40  1  0.00000000  0.00000000  0.00000000  1
  Ni  Ni41  1  0.38574000  0.14054100  0.77584100  1
  Ni  Ni42  1  0.61059200  0.12692400  0.67499000  1
  Ni  Ni43  1  0.22086600  0.80515600  0.60749500  1
  Ni  Ni44  1  0.77913400  0.19484400  0.39250500  1
  Ni  Ni45  1  0.49061300  0.27446000  0.02219600  1
  Cu  Cu46  1  0.18591894  0.19984301  0.04866192  1
  Ni  Ni47  1  0.29367100  0.50000000  0.75000000  1
  Ni  Ni48  1  0.49061300  0.72554000  0.47780400  1
  Ni  Ni49  1  0.00000000  0.00000000  0.50000000  1
  Ni  Ni50  1  0.70632900  0.50000000  0.25000000  1
  Ni  Ni51  1  0.27787200  0.13155000  0.47064000  1
  Ni  Ni52  1  0.80087900  0.19264200  0.54651000  1
  Ni  Ni53  1  0.80087900  0.80735800  0.95349000  1
