# generated using pymatgen
data_Cu3C
_symmetry_space_group_name_H-M   'P 1'
_cell_length_a   8.31154279
_cell_length_b   8.31154279
_cell_length_c   8.31154287
_cell_angle_alpha   17.30817166
_cell_angle_beta   17.30817166
_cell_angle_gamma   17.30817821
_symmetry_Int_Tables_number   1
_chemical_formula_structural   Cu3C
_chemical_formula_sum   'Cu3 C1'
_cell_volume   44.34773944
_cell_formula_units_Z   1
loop_
 _symmetry_equiv_pos_site_id
 _symmetry_equiv_pos_as_xyz
  1  'x, y, z'
loop_
 _atom_site_type_symbol
 _atom_site_label
 _atom_site_symmetry_multiplicity
 _atom_site_fract_x
 _atom_site_fract_y
 _atom_site_fract_z
 _atom_site_occupancy
  C  C0  1  0.00000000  0.00000000  0.00000000  1
  Cu  Cu1  1  0.33562995  0.19578495  0.24678604  1
  Cu  Cu2  1  0.45367717  0.48801326  0.56877589  1
  Cu  Cu3  1  0.71834840  0.76668448  0.78539970  1
