# generated using pymatgen
data_Cu2NiC4
_symmetry_space_group_name_H-M   'P 1'
_cell_length_a   7.13287682
_cell_length_b   7.13287682
_cell_length_c   7.13287673
_cell_angle_alpha   93.11222868
_cell_angle_beta   93.11222868
_cell_angle_gamma   93.11222260
_symmetry_Int_Tables_number   1
_chemical_formula_structural   Cu2NiC4
_chemical_formula_sum   'Cu8 Ni4 C16'
_cell_volume   361.23955507
_cell_formula_units_Z   4
loop_
 _symmetry_equiv_pos_site_id
 _symmetry_equiv_pos_as_xyz
  1  'x, y, z'
loop_
 _atom_site_type_symbol
 _atom_site_label
 _atom_site_symmetry_multiplicity
 _atom_site_fract_x
 _atom_site_fract_y
 _atom_site_fract_z
 _atom_site_occupancy
  C  C0  1  0.00000000  0.50000000  0.50000000  1
  C  C1  1  0.50000000  0.00000000  0.50000000  1
  C  C2  1  0.50000000  0.50000000  0.00000000  1
  Cu  Cu3  1  0.09773742  0.85289201  0.11629152  1
  Ni  Ni4  1  0.88002700  0.15800100  0.88002700  1
  Ni  Ni5  1  0.15800100  0.88002700  0.88002700  1
  Cu  Cu6  1  0.88554116  0.89911733  0.14087484  1
  Cu  Cu7  1  0.05304119  0.04985479  0.21672507  1
  Cu  Cu8  1  0.23432130  0.04352584  0.04718639  1
  Cu  Cu9  1  0.06628808  0.25145818  0.06420927  1
  Ni  Ni10  1  0.94188800  0.77048400  0.94188800  1
  Ni  Ni11  1  0.94188800  0.94188800  0.77048400  1
  Cu  Cu12  1  0.78568322  0.92597052  0.93060957  1
  Cu  Cu13  1  0.11468600  0.10876228  0.83760971  1
  Cu  Cu14  1  0.83493749  0.11367753  0.11438728  1
  C  C15  1  0.79369000  0.79369000  0.26939600  1
  C  C16  1  0.26939600  0.79369000  0.79369000  1
  C  C17  1  0.79369000  0.26939600  0.79369000  1
  C  C18  1  0.20631000  0.73060400  0.20631000  1
  C  C19  1  0.90051000  0.90051000  0.60735300  1
  C  C20  1  0.60735300  0.90051000  0.90051000  1
  C  C21  1  0.90051000  0.60735300  0.90051000  1
  C  C22  1  0.09949000  0.39264700  0.09949000  1
  C  C23  1  0.09949000  0.09949000  0.39264700  1
  C  C24  1  0.39264700  0.09949000  0.09949000  1
  C  C25  1  0.20631000  0.20631000  0.73060400  1
  C  C26  1  0.73060400  0.20631000  0.20631000  1
  C  C27  1  0.50000000  0.50000000  0.50000000  1
