# generated using pymatgen
data_Cu6Ni2C25
_symmetry_space_group_name_H-M   'P 1'
_cell_length_a   6.27812200
_cell_length_b   9.06869643
_cell_length_c   10.97065986
_cell_angle_alpha   103.32741023
_cell_angle_beta   101.11638746
_cell_angle_gamma   104.50908253
_symmetry_Int_Tables_number   1
_chemical_formula_structural   Cu6Ni2C25
_chemical_formula_sum   'Cu6 Ni2 C25'
_cell_volume   567.20898650
_cell_formula_units_Z   1
loop_
 _symmetry_equiv_pos_site_id
 _symmetry_equiv_pos_as_xyz
  1  'x, y, z'
loop_
 _atom_site_type_symbol
 _atom_site_label
 _atom_site_symmetry_multiplicity
 _atom_site_fract_x
 _atom_site_fract_y
 _atom_site_fract_z
 _atom_site_occupancy
  Cu  Cu0  1  0.29541069  0.71213077  0.26124505  1
  Ni  Ni1  1  0.58254400  0.31138700  0.72361900  1
  Cu  Cu2  1  0.48143700  0.57287082  0.95315083  1
  Cu  Cu3  1  0.93414074  0.86068037  0.46300900  1
  Cu  Cu4  1  0.39420805  0.48002933  0.48795404  1
  Ni  Ni5  1  0.96016100  0.43516100  0.99096900  1
  Cu  Cu6  1  0.57125315  0.11500586  0.51106309  1
  Cu  Cu7  1  0.93093902  0.57479862  0.53464427  1
  C  C8  1  0.97185200  0.01950100  0.01125400  1
  C  C9  1  0.94083900  0.69066000  0.85574200  1
  C  C10  1  0.79022000  0.54022700  0.26466700  1
  C  C11  1  0.12031700  0.08877200  0.25790700  1
  C  C12  1  0.34888200  0.33395000  0.15414000  1
  C  C13  1  0.09631200  0.36515300  0.68557500  1
  C  C14  1  0.78528600  0.93211600  0.75181700  1
  C  C15  1  0.28709200  0.48455900  0.12954200  1
  C  C16  1  0.87940000  0.63603400  0.17012000  1
  C  C17  1  0.70737900  0.96341900  0.61847100  1
  C  C18  1  0.75506400  0.54382900  0.86384500  1
  C  C19  1  0.12451000  0.33118900  0.82464400  1
  C  C20  1  0.20424400  0.99539500  0.35213700  1
  C  C21  1  0.26021700  0.31255400  0.59753800  1
  C  C22  1  0.19959800  0.16702000  0.03175000  1
  C  C23  1  0.83562800  0.33519500  0.60208000  1
  C  C24  1  0.68904700  0.62266000  0.37892000  1
  C  C25  1  0.02061000  0.84792100  0.98649700  1
  C  C26  1  0.17114300  0.62999700  0.43312900  1
  C  C27  1  0.00470500  0.47945000  0.34407700  1
  C  C28  1  0.61976900  0.35206100  0.17524600  1
  C  C29  1  0.28870800  0.26964200  0.28193600  1
  C  C30  1  0.21670200  0.58147000  0.72426100  1
  C  C31  1  0.20335500  0.67915700  0.85236800  1
  C  C32  1  0.84930900  0.76298400  0.73233500  1
