# generated using pymatgen
data_Cu5Ni3C8
_symmetry_space_group_name_H-M   'P 1'
_cell_length_a   6.06633367
_cell_length_b   6.51126944
_cell_length_c   12.08773963
_cell_angle_alpha   105.18599478
_cell_angle_beta   95.36974104
_cell_angle_gamma   75.59874407
_symmetry_Int_Tables_number   1
_chemical_formula_structural   Cu5Ni3C8
_chemical_formula_sum   'Cu15 Ni9 C24'
_cell_volume   446.10193432
_cell_formula_units_Z   3
loop_
 _symmetry_equiv_pos_site_id
 _symmetry_equiv_pos_as_xyz
  1  'x, y, z'
loop_
 _atom_site_type_symbol
 _atom_site_label
 _atom_site_symmetry_multiplicity
 _atom_site_fract_x
 _atom_site_fract_y
 _atom_site_fract_z
 _atom_site_occupancy
  C  C0  1  0.66659400  0.33336000  0.16664600  1
  C  C1  1  0.16673700  0.33327100  0.66666200  1
  C  C2  1  0.34476400  0.64856000  0.08328200  1
  C  C3  1  0.83485700  0.65341700  0.59438700  1
  C  C4  1  0.98862500  0.01814000  0.25001100  1
  C  C5  1  0.49851800  0.01318200  0.73902500  1
  C  C6  1  0.65159300  0.33494400  0.42624300  1
  C  C7  1  0.14566900  0.32760200  0.92323400  1
  C  C8  1  0.18782700  0.33902700  0.41005700  1
  C  C9  1  0.68176000  0.33171800  0.90716700  1
  C  C10  1  0.84027800  0.66200300  0.07303200  1
  C  C11  1  0.31554400  0.66815800  0.59056000  1
  C  C12  1  0.49310400  0.00483200  0.26030300  1
  C  C13  1  0.01785400  0.99838300  0.74280700  1
  C  C14  1  0.66677400  0.33319500  0.66672800  1
  C  C15  1  0.16644700  0.33351000  0.16667900  1
  C  C16  1  0.98847700  0.99962300  0.00408600  1
  C  C17  1  0.49237800  0.00174600  0.50548800  1
  C  C18  1  0.34479400  0.66703400  0.32914100  1
  C  C19  1  0.84093900  0.66474800  0.82786000  1
  C  C20  1  0.49514200  0.99924800  0.00439900  1
  C  C21  1  0.00283700  0.00696000  0.50243100  1
  C  C22  1  0.83794600  0.66773500  0.32897500  1
  C  C23  1  0.33064300  0.65960800  0.83091800  1
  Ni  Ni24  1  0.77205500  0.98796300  0.37437600  1
  Ni  Ni25  1  0.22892400  0.98694100  0.89476300  1
  Cu  Cu26  1  0.08893842  0.71017398  0.42501771  1
  Cu  Cu27  1  0.58594133  0.66395379  0.97144881  1
  Ni  Ni28  1  0.92942000  0.31644500  0.04575300  1
  Cu  Cu29  1  0.43022741  0.33558798  0.54696922  1
  Cu  Cu30  1  0.44218156  0.34221208  0.28971985  1
  Cu  Cu31  1  0.91432500  0.37411067  0.80261400  1
  Ni  Ni32  1  0.56765800  0.66998500  0.22625100  1
  Ni  Ni33  1  0.09689800  0.66748700  0.71448900  1
  Cu  Cu34  1  0.77042490  0.00180340  0.10814922  1
  Cu  Cu35  1  0.23811495  0.99710561  0.61223223  1
  Ni  Ni36  1  0.26970000  0.98691300  0.37597400  1
  Ni  Ni37  1  0.75928100  0.98967200  0.88208700  1
  Cu  Cu38  1  0.55220743  0.68096029  0.46102215  1
  Cu  Cu39  1  0.05905196  0.68767401  0.95721776  1
  Cu  Cu40  1  0.36837232  0.28758917  0.04642906  1
  Ni  Ni41  1  0.88614900  0.32273800  0.55440600  1
  Cu  Cu42  1  0.93764760  0.37153302  0.28420850  1
  Cu  Cu43  1  0.46044335  0.33300368  0.78865781  1
  Ni  Ni44  1  0.11065200  0.64929300  0.20641200  1
  Cu  Cu45  1  0.59023567  0.67015385  0.70631654  1
  Cu  Cu46  1  0.19765037  0.04822962  0.13889623  1
  Cu  Cu47  1  0.72943480  0.01749075  0.63819749  1
