# generated using pymatgen
data_Cu3C2
_symmetry_space_group_name_H-M   'P 1'
_cell_length_a   6.31768774
_cell_length_b   6.31768774
_cell_length_c   5.68153800
_cell_angle_alpha   90.00000000
_cell_angle_beta   90.00000000
_cell_angle_gamma   119.99999727
_symmetry_Int_Tables_number   1
_chemical_formula_structural   Cu3C2
_chemical_formula_sum   'Cu6 C4'
_cell_volume   196.38706168
_cell_formula_units_Z   2
loop_
 _symmetry_equiv_pos_site_id
 _symmetry_equiv_pos_as_xyz
  1  'x, y, z'
loop_
 _atom_site_type_symbol
 _atom_site_label
 _atom_site_symmetry_multiplicity
 _atom_site_fract_x
 _atom_site_fract_y
 _atom_site_fract_z
 _atom_site_occupancy
  C  C0  1  0.33333300  0.66666700  0.75000000  1
  C  C1  1  0.66666700  0.33333300  0.25000000  1
  C  C2  1  0.00000000  0.00000000  0.50000000  1
  C  C3  1  0.00000000  0.00000000  0.00000000  1
  Cu  Cu4  1  0.18470008  0.83363221  0.23748044  1
  Cu  Cu5  1  0.20750660  0.39911659  0.25554007  1
  Cu  Cu6  1  0.61058171  0.81266647  0.23272463  1
  Cu  Cu7  1  0.77955976  0.14664300  0.73467784  1
  Cu  Cu8  1  0.78905876  0.60378424  0.72574580  1
  Cu  Cu9  1  0.37486788  0.21562038  0.72508232  1
