# generated using pymatgen
data_Cu3NiC3
_symmetry_space_group_name_H-M   'P 1'
_cell_length_a   4.67763400
_cell_length_b   7.66531727
_cell_length_c   10.75113756
_cell_angle_alpha   110.85422726
_cell_angle_beta   102.13852594
_cell_angle_gamma   89.37759373
_symmetry_Int_Tables_number   1
_chemical_formula_structural   Cu3NiC3
_chemical_formula_sum   'Cu9 Ni3 C9'
_cell_volume   351.31517083
_cell_formula_units_Z   3
loop_
 _symmetry_equiv_pos_site_id
 _symmetry_equiv_pos_as_xyz
  1  'x, y, z'
loop_
 _atom_site_type_symbol
 _atom_site_label
 _atom_site_symmetry_multiplicity
 _atom_site_fract_x
 _atom_site_fract_y
 _atom_site_fract_z
 _atom_site_occupancy
  C  C0  1  0.99735300  0.48841500  0.00041600  1
  C  C1  1  0.42119000  0.91990400  0.66935300  1
  C  C2  1  0.58039300  0.25320900  0.33068000  1
  C  C3  1  0.45343800  0.87536200  0.00688200  1
  C  C4  1  0.86173800  0.55030500  0.68426900  1
  C  C5  1  0.13824600  0.86681500  0.31700900  1
  C  C6  1  0.98873500  0.99900500  0.99705400  1
  C  C7  1  0.30325300  0.40896000  0.66510500  1
  C  C8  1  0.69949200  0.74477800  0.33489100  1
  Cu  Cu9  1  0.70402089  0.85241627  0.93811413  1
  Cu  Cu10  1  0.27687572  0.86291287  0.05491077  1
  Cu  Cu11  1  0.06028312  0.03753322  0.86913544  1
  Cu  Cu12  1  0.92041539  0.17884495  0.11686378  1
  Cu  Cu13  1  0.56226101  0.49681140  0.61246663  1
  Ni  Ni14  1  0.46796600  0.90780500  0.38981100  1
  Ni  Ni15  1  0.09598500  0.23769200  0.53752200  1
  Cu  Cu16  1  0.89494928  0.71126173  0.44030918  1
  Cu  Cu17  1  0.06494369  0.57120501  0.74371902  1
  Cu  Cu18  1  0.91616673  0.84671155  0.26084074  1
  Ni  Ni19  1  0.47056300  0.34659300  0.79264400  1
  Cu  Cu20  1  0.54823362  0.56204790  0.19810262  1
