# generated using pymatgen
data_Cu2C3
_symmetry_space_group_name_H-M   'P 1'
_cell_length_a   7.29598800
_cell_length_b   7.29598800
_cell_length_c   4.31185900
_cell_angle_alpha   90.00000000
_cell_angle_beta   90.00000000
_cell_angle_gamma   90.00000000
_symmetry_Int_Tables_number   1
_chemical_formula_structural   Cu2C3
_chemical_formula_sum   'Cu4 C6'
_cell_volume   229.52646751
_cell_formula_units_Z   2
loop_
 _symmetry_equiv_pos_site_id
 _symmetry_equiv_pos_as_xyz
  1  'x, y, z'
loop_
 _atom_site_type_symbol
 _atom_site_label
 _atom_site_symmetry_multiplicity
 _atom_site_fract_x
 _atom_site_fract_y
 _atom_site_fract_z
 _atom_site_occupancy
  C  C0  1  0.67923300  0.17923300  0.50000000  1
  C  C1  1  0.17923300  0.32076700  0.50000000  1
  C  C2  1  0.82076700  0.67923300  0.50000000  1
  C  C3  1  0.32076700  0.82076700  0.50000000  1
  C  C4  1  0.00000000  0.00000000  0.00000000  1
  C  C5  1  0.50000000  0.50000000  0.00000000  1
  Cu  Cu6  1  0.91139640  0.37173281  0.01341787  1
  Cu  Cu7  1  0.39317799  0.13742470  0.95705699  1
  Cu  Cu8  1  0.62243381  0.90467675  0.01928923  1
  Cu  Cu9  1  0.12052124  0.60681472  0.98490202  1
