# generated using pymatgen
data_Cu4Ni2C5
_symmetry_space_group_name_H-M   'P 1'
_cell_length_a   6.56906692
_cell_length_b   5.81962372
_cell_length_c   5.53164284
_cell_angle_alpha   68.87395837
_cell_angle_beta   65.37223024
_cell_angle_gamma   49.43208672
_symmetry_Int_Tables_number   1
_chemical_formula_structural   Cu4Ni2C5
_chemical_formula_sum   'Cu4 Ni2 C5'
_cell_volume   144.79956985
_cell_formula_units_Z   1
loop_
 _symmetry_equiv_pos_site_id
 _symmetry_equiv_pos_as_xyz
  1  'x, y, z'
loop_
 _atom_site_type_symbol
 _atom_site_label
 _atom_site_symmetry_multiplicity
 _atom_site_fract_x
 _atom_site_fract_y
 _atom_site_fract_z
 _atom_site_occupancy
  C  C0  1  0.70029419  0.68175714  0.75891679  1
  C  C1  1  0.31889373  0.27685237  0.23059764  1
  C  C2  1  0.00002785  0.99477224  0.50116368  1
  C  C3  1  0.50128453  0.49950453  0.48673542  1
  C  C4  1  0.00676730  0.99368704  0.00045129  1
  Cu  Cu5  1  0.28391596  0.83841737  0.15822543  1
  Ni  Ni6  1  0.72802653  0.08327253  0.34398994  1
  Cu  Cu7  1  0.17309830  0.51961310  0.58871244  1
  Cu  Cu8  1  0.69293676  0.19369067  0.84637478  1
  Ni  Ni9  1  0.85451593  0.46819724  0.35915084  1
  Cu  Cu10  1  0.27176977  0.88808478  0.68081842  1
