# generated using pymatgen
data_Cu2NiC2
_symmetry_space_group_name_H-M   'P 1'
_cell_length_a   4.90799699
_cell_length_b   6.44730920
_cell_length_c   7.92031042
_cell_angle_alpha   42.57420723
_cell_angle_beta   118.89629397
_cell_angle_gamma   119.54753629
_symmetry_Int_Tables_number   1
_chemical_formula_structural   Cu2NiC2
_chemical_formula_sum   'Cu4 Ni2 C4'
_cell_volume   144.40519297
_cell_formula_units_Z   2
loop_
 _symmetry_equiv_pos_site_id
 _symmetry_equiv_pos_as_xyz
  1  'x, y, z'
loop_
 _atom_site_type_symbol
 _atom_site_label
 _atom_site_symmetry_multiplicity
 _atom_site_fract_x
 _atom_site_fract_y
 _atom_site_fract_z
 _atom_site_occupancy
  C  C0  1  0.00000000  0.00000000  0.50000000  1
  C  C1  1  0.50000000  0.50000000  0.00000000  1
  C  C2  1  0.00000000  0.50000000  0.00000000  1
  C  C3  1  0.00000000  0.00000000  0.00000000  1
  Cu  Cu4  1  0.05433499  0.54545980  0.72189188  1
  Cu  Cu5  1  0.98716752  0.44686458  0.29027929  1
  Ni  Ni6  1  0.83039200  0.87281400  0.74937300  1
  Cu  Cu7  1  0.20122912  0.14093289  0.26306539  1
  Cu  Cu8  1  0.49887790  0.84484799  0.97522848  1
  Ni  Ni9  1  0.54374000  0.19859600  0.03005600  1
