# generated using pymatgen
data_Cu2C
_symmetry_space_group_name_H-M   'P 1'
_cell_length_a   11.16430670
_cell_length_b   11.16430670
_cell_length_c   11.16430670
_cell_angle_alpha   101.64037774
_cell_angle_beta   101.64037774
_cell_angle_gamma   126.61703903
_symmetry_Int_Tables_number   1
_chemical_formula_structural   Cu2C
_chemical_formula_sum   'Cu32 C16'
_cell_volume   997.88537486
_cell_formula_units_Z   16
loop_
 _symmetry_equiv_pos_site_id
 _symmetry_equiv_pos_as_xyz
  1  'x, y, z'
loop_
 _atom_site_type_symbol
 _atom_site_label
 _atom_site_symmetry_multiplicity
 _atom_site_fract_x
 _atom_site_fract_y
 _atom_site_fract_z
 _atom_site_occupancy
  C  C0  1  0.26572800  0.42243000  0.37760500  1
  C  C1  1  0.88812200  0.26572800  0.84329700  1
  C  C2  1  0.42243000  0.04482500  0.15670300  1
  C  C3  1  0.95517500  0.57757000  0.84329700  1
  C  C4  1  0.73427200  0.11187800  0.15670300  1
  C  C5  1  0.04482500  0.88812200  0.62239500  1
  C  C6  1  0.11187800  0.95517500  0.37760500  1
  C  C7  1  0.57757000  0.73427200  0.62239500  1
  C  C8  1  0.73427200  0.57757000  0.62239500  1
  C  C9  1  0.11187800  0.73427200  0.15670300  1
  C  C10  1  0.57757000  0.95517500  0.84329700  1
  C  C11  1  0.04482500  0.42243000  0.15670300  1
  C  C12  1  0.26572800  0.88812200  0.84329700  1
  C  C13  1  0.95517500  0.11187800  0.37760500  1
  C  C14  1  0.88812200  0.04482500  0.62239500  1
  C  C15  1  0.42243000  0.26572800  0.37760500  1
  Cu  Cu16  1  0.35593968  0.37135870  0.34325639  1
  Cu  Cu17  1  0.04304301  0.39319761  0.00719856  1
  Cu  Cu18  1  0.36282346  0.02576639  0.99028368  1
  Cu  Cu19  1  0.94937010  0.62739032  0.97166878  1
  Cu  Cu20  1  0.64761208  0.98457089  0.99188570  1
  Cu  Cu21  1  0.02919034  0.01516197  0.65027558  1
  Cu  Cu22  1  0.99760225  0.99799058  0.35921572  1
  Cu  Cu23  1  0.60719765  0.61772381  0.63715695  1
  Cu  Cu24  1  0.10564987  0.28486002  0.43306125  1
  Cu  Cu25  1  0.72401015  0.13199064  0.84141442  1
  Cu  Cu26  1  0.29895103  0.89680441  0.18679929  1
  Cu  Cu27  1  0.11824613  0.69149750  0.83392104  1
  Cu  Cu28  1  0.89455014  0.28892952  0.16300139  1
  Cu  Cu29  1  0.88351877  0.71137971  0.60049053  1
  Cu  Cu30  1  0.27561549  0.10157230  0.42535802  1
  Cu  Cu31  1  0.72055367  0.89551556  0.60563475  1
  Cu  Cu32  1  0.18773462  0.45023121  0.23252251  1
  Cu  Cu33  1  0.91352535  0.16643537  0.75562717  1
  Cu  Cu34  1  0.41058046  0.14584961  0.23278024  1
  Cu  Cu35  1  0.76386791  0.53182329  0.75220463  1
  Cu  Cu36  1  0.82366389  0.06327537  0.25791883  1
  Cu  Cu37  1  0.22987153  0.96932926  0.79372301  1
  Cu  Cu38  1  0.05920256  0.80420480  0.24117132  1
  Cu  Cu39  1  0.54473146  0.83403264  0.76682917  1
  Cu  Cu40  1  0.40992200  0.60831153  0.48597833  1
  Cu  Cu41  1  0.89075746  0.37958284  0.77916726  1
  Cu  Cu42  1  0.58199394  0.08520410  0.19441857  1
  Cu  Cu43  1  0.12690852  0.89842169  0.49965133  1
  Cu  Cu44  1  0.59834004  0.39282637  0.48698428  1
  Cu  Cu45  1  0.08497169  0.59051315  0.22179055  1
  Cu  Cu46  1  0.39815034  0.87950489  0.77757992  1
  Cu  Cu47  1  0.88427239  0.08068457  0.50150873  1
