# generated using pymatgen
data_Cu53(NiC6)5
_symmetry_space_group_name_H-M   'P 1'
_cell_length_a   9.77924900
_cell_length_b   9.79398043
_cell_length_c   14.23851213
_cell_angle_alpha   89.95442337
_cell_angle_beta   90.72042774
_cell_angle_gamma   119.85566548
_symmetry_Int_Tables_number   1
_chemical_formula_structural   Cu53(NiC6)5
_chemical_formula_sum   'Cu53 Ni5 C30'
_cell_volume   1182.62439194
_cell_formula_units_Z   1
loop_
 _symmetry_equiv_pos_site_id
 _symmetry_equiv_pos_as_xyz
  1  'x, y, z'
loop_
 _atom_site_type_symbol
 _atom_site_label
 _atom_site_symmetry_multiplicity
 _atom_site_fract_x
 _atom_site_fract_y
 _atom_site_fract_z
 _atom_site_occupancy
  C  C0  1  0.77321700  0.08997400  0.06082500  1
  C  C1  1  0.32041200  0.22723900  0.06561200  1
  C  C2  1  0.67133100  0.90476900  0.44084900  1
  C  C3  1  0.32638800  0.09450600  0.55660100  1
  C  C4  1  0.69112900  0.77345100  0.93749600  1
  C  C5  1  0.22291100  0.90778500  0.94668300  1
  C  C6  1  0.09402800  0.32355000  0.94187000  1
  C  C7  1  0.00190000  0.00614100  0.49270900  1
  C  C8  1  0.56758000  0.00056300  0.25056500  1
  C  C9  1  0.43124600  0.99804700  0.75141100  1
  C  C10  1  0.56784800  0.56257600  0.74526200  1
  C  C11  1  0.43404000  0.44109700  0.25580600  1
  C  C12  1  0.99968000  0.56513600  0.25522600  1
  C  C13  1  0.99854900  0.43861900  0.74120100  1
  C  C14  1  0.91617900  0.68644000  0.83956300  1
  C  C15  1  0.78072800  0.69669300  0.33570200  1
  C  C16  1  0.91971500  0.22180800  0.34206200  1
  C  C17  1  0.66548000  0.33338600  0.13345900  1
  C  C18  1  0.66153100  0.33057800  0.62950200  1
  C  C19  1  0.77340600  0.09305600  0.83762500  1
  C  C20  1  0.68406900  0.91091700  0.65830700  1
  C  C21  1  0.32143500  0.23394600  0.84622200  1
  C  C22  1  0.67887200  0.76709900  0.15328500  1
  C  C23  1  0.31553500  0.09076800  0.34170800  1
  C  C24  1  0.22539100  0.90661700  0.16407200  1
  C  C25  1  0.33529800  0.66879800  0.37144200  1
  C  C26  1  0.33317700  0.66243600  0.86619000  1
  C  C27  1  0.08040300  0.77903400  0.65506900  1
  C  C28  1  0.22129700  0.30564400  0.66340200  1
  C  C29  1  0.08628500  0.31814700  0.15896100  1
  Cu  Cu30  1  0.01284392  0.78098438  0.57524645  1
  Cu  Cu31  1  0.88950242  0.66861995  0.34745196  1
  Cu  Cu32  1  0.73471156  0.74518701  0.06000752  1
  Cu  Cu33  1  0.75123748  0.66054782  0.83679245  1
  Cu  Cu34  1  0.88546303  0.49816798  0.83044017  1
  Cu  Cu35  1  0.80292114  0.48756088  0.18032318  1
  Cu  Cu36  1  0.93771522  0.38167972  0.32924763  1
  Cu  Cu37  1  0.01649059  0.25806100  0.06736843  1
  Cu  Cu38  1  0.90960246  0.25301870  0.83509958  1
  Cu  Cu39  1  0.66444587  0.49638452  0.67969623  1
  Cu  Cu40  1  0.64641099  0.52593202  0.33212624  1
  Cu  Cu41  1  0.82321734  0.35138848  0.66997978  1
  Cu  Cu42  1  0.65143810  0.34284367  0.01253023  1
  Ni  Ni43  1  0.66793700  0.34274200  0.52591500  1
  Cu  Cu44  1  0.66073464  0.20103711  0.17588817  1
  Cu  Cu45  1  0.46840537  0.39419554  0.81493965  1
  Cu  Cu46  1  0.52077141  0.32552490  0.17545867  1
  Ni  Ni47  1  0.74382400  0.08618100  0.33571600  1
  Cu  Cu48  1  0.79250807  0.01386092  0.74501747  1
  Ni  Ni49  1  0.76771900  0.97553500  0.56868800  1
  Cu  Cu50  1  0.74266995  0.98069480  0.91761893  1
  Cu  Cu51  1  0.61968601  0.09833176  0.82473425  1
  Cu  Cu52  1  0.54336542  0.20833073  0.65148767  1
  Cu  Cu53  1  0.66736109  0.91612152  0.15970825  1
  Cu  Cu54  1  0.44391676  0.08105859  0.33587328  1
  Cu  Cu55  1  0.34878119  0.24592806  0.32844268  1
  Cu  Cu56  1  0.80405266  0.77437800  0.24242899  1
  Cu  Cu57  1  0.79218051  0.80411644  0.41720999  1
  Cu  Cu58  1  0.20117056  0.21066000  0.57920594  1
  Cu  Cu59  1  0.67587283  0.76248829  0.66411913  1
  Cu  Cu60  1  0.52428478  0.90428830  0.67320640  1
  Cu  Cu61  1  0.34093867  0.08195530  0.84417456  1
  Cu  Cu62  1  0.51783570  0.83815501  0.33346348  1
  Cu  Cu63  1  0.37920273  0.91383385  0.17521653  1
  Cu  Cu64  1  0.25148706  0.00906909  0.07184709  1
  Cu  Cu65  1  0.20860217  0.04153318  0.42307117  1
  Ni  Ni66  1  0.20416300  0.99777000  0.25196300  1
  Cu  Cu67  1  0.26037399  0.91913042  0.66822591  1
  Cu  Cu68  1  0.47366439  0.64430227  0.84324131  1
  Cu  Cu69  1  0.52926517  0.63287445  0.17749734  1
  Ni  Ni70  1  0.33105600  0.81408300  0.83152700  1
  Cu  Cu71  1  0.33054690  0.69166815  0.95812093  1
  Cu  Cu72  1  0.32600892  0.65519089  0.49480955  1
  Cu  Cu73  1  0.17869324  0.63565197  0.32155333  1
  Cu  Cu74  1  0.38239588  0.45710635  0.67789970  1
  Cu  Cu75  1  0.33642057  0.53445300  0.32156506  1
  Cu  Cu76  1  0.09501963  0.74368974  0.17590050  1
  Cu  Cu77  1  0.99835915  0.78994847  0.75000087  1
  Cu  Cu78  1  0.01188859  0.79131158  0.91364306  1
  Cu  Cu79  1  0.06134501  0.60096494  0.66849496  1
  Cu  Cu80  1  0.19461539  0.51670484  0.81851042  1
  Cu  Cu81  1  0.09868715  0.48870436  0.17769994  1
  Cu  Cu82  1  0.27249565  0.33998906  0.16938674  1
  Cu  Cu83  1  0.23171148  0.22666999  0.93626096  1
  Cu  Cu84  1  0.20520509  0.21285682  0.75255248  1
  Cu  Cu85  1  0.09881077  0.36425898  0.66469211  1
  Cu  Cu86  1  0.00515041  0.16913723  0.42896962  1
  Cu  Cu87  1  0.97614348  0.17930693  0.25251762  1
