# generated using pymatgen
data_Cu12NiC6
_symmetry_space_group_name_H-M   'P 1'
_cell_length_a   3.72450554
_cell_length_b   8.86468428
_cell_length_c   9.81342266
_cell_angle_alpha   104.80982428
_cell_angle_beta   89.96980381
_cell_angle_gamma   102.08428212
_symmetry_Int_Tables_number   1
_chemical_formula_structural   Cu12NiC6
_chemical_formula_sum   'Cu12 Ni1 C6'
_cell_volume   305.81921130
_cell_formula_units_Z   1
loop_
 _symmetry_equiv_pos_site_id
 _symmetry_equiv_pos_as_xyz
  1  'x, y, z'
loop_
 _atom_site_type_symbol
 _atom_site_label
 _atom_site_symmetry_multiplicity
 _atom_site_fract_x
 _atom_site_fract_y
 _atom_site_fract_z
 _atom_site_occupancy
  Ni  Ni0  1  0.24334000  0.48534900  0.44530000  1
  C  C1  1  0.58732200  0.17478200  0.83539200  1
  C  C2  1  0.40651100  0.81200900  0.16167300  1
  C  C3  1  0.85216900  0.70320500  0.36473800  1
  C  C4  1  0.16652700  0.33318000  0.65767200  1
  C  C5  1  0.86667100  0.73524200  0.75888400  1
  C  C6  1  0.09759800  0.19776400  0.17991200  1
  Cu  Cu7  1  0.66759800  0.33560400  0.72230200  1
  Cu  Cu8  1  0.34092300  0.68051500  0.29959100  1
  Cu  Cu9  1  0.90895400  0.81698900  0.21236500  1
  Cu  Cu10  1  0.09756800  0.19526800  0.79106700  1
  Cu  Cu11  1  0.62645000  0.25342900  0.01527400  1
  Cu  Cu12  1  0.35549200  0.70929600  0.99493700  1
  Cu  Cu13  1  0.12952800  0.25853600  0.47804800  1
  Cu  Cu14  1  0.90279100  0.80500100  0.53675800  1
  Cu  Cu15  1  0.48694700  0.97372500  0.80259600  1
  Cu  Cu16  1  0.74341700  0.48523300  0.36728100  1
  Cu  Cu17  1  0.27862500  0.55745600  0.65756600  1
  Cu  Cu18  1  0.50942800  0.01866400  0.17003400  1
