# generated using pymatgen
data_Cu3C
_symmetry_space_group_name_H-M   'P 1'
_cell_length_a   7.54413873
_cell_length_b   7.54413873
_cell_length_c   6.23692800
_cell_angle_alpha   90.00000000
_cell_angle_beta   90.00000000
_cell_angle_gamma   120.00000640
_symmetry_Int_Tables_number   1
_chemical_formula_structural   Cu3C
_chemical_formula_sum   'Cu6 C2'
_cell_volume   307.41189377
_cell_formula_units_Z   2
loop_
 _symmetry_equiv_pos_site_id
 _symmetry_equiv_pos_as_xyz
  1  'x, y, z'
loop_
 _atom_site_type_symbol
 _atom_site_label
 _atom_site_symmetry_multiplicity
 _atom_site_fract_x
 _atom_site_fract_y
 _atom_site_fract_z
 _atom_site_occupancy
  Cu  Cu0  1  0.14868215  0.32456610  0.26200781  1
  Cu  Cu1  1  0.67684753  0.85292695  0.28983508  1
  Cu  Cu2  1  0.16345540  0.82998436  0.25919641  1
  Cu  Cu3  1  0.81852572  0.63077413  0.77530783  1
  Cu  Cu4  1  0.36267996  0.17294917  0.76601530  1
  Cu  Cu5  1  0.79453276  0.12949281  0.72371538  1
  C  C6  1  0.33333300  0.66666700  0.75000000  1
  C  C7  1  0.66666700  0.33333300  0.25000000  1
