# generated using pymatgen
data_Cu11NiC8
_symmetry_space_group_name_H-M   'P 1'
_cell_length_a   8.76627300
_cell_length_b   8.79223268
_cell_length_c   14.45516939
_cell_angle_alpha   73.65206640
_cell_angle_beta   74.58257417
_cell_angle_gamma   61.03002979
_symmetry_Int_Tables_number   1
_chemical_formula_structural   Cu11NiC8
_chemical_formula_sum   'Cu44 Ni4 C32'
_cell_volume   924.11976422
_cell_formula_units_Z   4
loop_
 _symmetry_equiv_pos_site_id
 _symmetry_equiv_pos_as_xyz
  1  'x, y, z'
loop_
 _atom_site_type_symbol
 _atom_site_label
 _atom_site_symmetry_multiplicity
 _atom_site_fract_x
 _atom_site_fract_y
 _atom_site_fract_z
 _atom_site_occupancy
  C  C0  1  0.14040500  0.01312000  0.11163500  1
  C  C1  1  0.49885500  0.00035300  0.00004800  1
  C  C2  1  0.23482100  0.10969200  0.63818700  1
  C  C3  1  0.74570100  0.25304700  0.24865200  1
  C  C4  1  0.35765200  0.48737400  0.38624600  1
  C  C5  1  0.26686500  0.39183600  0.86306700  1
  C  C6  1  0.73342100  0.60833200  0.13714800  1
  C  C7  1  0.64104100  0.51458700  0.61180100  1
  C  C8  1  0.25052900  0.75059600  0.74976800  1
  C  C9  1  0.99631900  0.50347700  0.50159900  1
  C  C10  1  0.76438900  0.89182900  0.36438100  1
  C  C11  1  0.85893400  0.98591700  0.88796200  1
  C  C12  1  0.82183700  0.32740300  0.03469900  1
  C  C13  1  0.17963000  0.67093600  0.96506100  1
  C  C14  1  0.92459300  0.42661200  0.71532900  1
  C  C15  1  0.32135900  0.82907800  0.53514100  1
  C  C16  1  0.57660200  0.06698700  0.78690200  1
  C  C17  1  0.68183100  0.17517400  0.46274800  1
  C  C18  1  0.07533400  0.57079500  0.28667000  1
  C  C19  1  0.42161700  0.93190900  0.21318800  1
  C  C20  1  0.13257700  0.33239300  0.11659800  1
  C  C21  1  0.36577400  0.16964900  0.38172400  1
  C  C22  1  0.18174000  0.06574100  0.87706700  1
  C  C23  1  0.91809100  0.11821400  0.63492200  1
  C  C24  1  0.32436400  0.42557000  0.62443100  1
  C  C25  1  0.41565900  0.61917900  0.13241200  1
  C  C26  1  0.58556100  0.38084400  0.86735900  1
  C  C27  1  0.67649700  0.57382700  0.37505600  1
  C  C28  1  0.08225500  0.88244700  0.36959300  1
  C  C29  1  0.82177100  0.92980100  0.12385000  1
  C  C30  1  0.63156100  0.83235800  0.61552900  1
  C  C31  1  0.86909000  0.66548900  0.88149600  1
  Cu  Cu32  1  0.26000870  0.15588069  0.12521598  1
  Cu  Cu33  1  0.35933907  0.09620187  0.29910249  1
  Cu  Cu34  1  0.31329854  0.06754518  0.47881092  1
  Cu  Cu35  1  0.17913487  0.45850321  0.01321719  1
  Cu  Cu36  1  0.12324808  0.41119517  0.20346047  1
  Cu  Cu37  1  0.81080792  0.11047940  0.12070563  1
  Cu  Cu38  1  0.11543046  0.19744096  0.76995342  1
  Cu  Cu39  1  0.53743652  0.19639844  0.36120976  1
  Cu  Cu40  1  0.08040152  0.13472051  0.95309896  1
  Ni  Ni41  1  0.89156400  0.03247200  0.36495200  1
  Cu  Cu42  1  0.22019594  0.35310798  0.38910346  1
  Cu  Cu43  1  0.36057568  0.06838222  0.88410708  1
  Ni  Ni44  1  0.14116400  0.43770600  0.62181600  1
  Cu  Cu45  1  0.84056404  0.15020865  0.55076732  1
  Cu  Cu46  1  0.29653973  0.64471761  0.06715621  1
  Cu  Cu47  1  0.44864697  0.34087563  0.53705414  1
  Cu  Cu48  1  0.81198379  0.07510755  0.72399713  1
  Cu  Cu49  1  0.62727163  0.47122107  0.14318845  1
  Cu  Cu50  1  0.42029553  0.29388757  0.71181189  1
  Cu  Cu51  1  0.29217796  0.59588328  0.22177559  1
  Cu  Cu52  1  0.96565866  0.30808396  0.13414267  1
  Cu  Cu53  1  0.58666553  0.20784430  0.88312607  1
  Cu  Cu54  1  0.71555023  0.37633733  0.37743517  1
  Cu  Cu55  1  0.10731460  0.66102345  0.37559482  1
  Cu  Cu56  1  0.97097721  0.27502478  0.60182101  1
  Cu  Cu57  1  0.31463576  0.61699213  0.62694899  1
  Cu  Cu58  1  0.44573311  0.81183703  0.10162992  1
  Cu  Cu59  1  0.04900573  0.66677153  0.87728241  1
  Cu  Cu60  1  0.71714258  0.40517124  0.77610271  1
  Cu  Cu61  1  0.56688493  0.72050028  0.28453718  1
  Cu  Cu62  1  0.38957266  0.53257265  0.86906134  1
  Cu  Cu63  1  0.19151509  0.93311619  0.26293589  1
  Cu  Cu64  1  0.54022730  0.61655124  0.47928360  1
  Cu  Cu65  1  0.61578859  0.39476640  0.95359363  1
  Cu  Cu66  1  0.15391986  0.84825024  0.45917955  1
  Cu  Cu67  1  0.85004307  0.54570578  0.38813614  1
  Cu  Cu68  1  0.64571410  0.94207573  0.11734085  1
  Cu  Cu69  1  0.77799138  0.64232547  0.59548273  1
  Cu  Cu70  1  0.11073934  0.95811212  0.64916092  1
  Cu  Cu71  1  0.95058901  0.86254238  0.02474937  1
  Ni  Ni72  1  0.44996000  0.82166500  0.63150500  1
  Cu  Cu73  1  0.87984427  0.79787782  0.24409272  1
  Cu  Cu74  1  0.18812473  0.89071245  0.88125357  1
  Cu  Cu75  1  0.89095996  0.57771121  0.79611240  1
  Cu  Cu76  1  0.82950930  0.55926131  0.98406576  1
  Cu  Cu77  1  0.66094743  0.95517772  0.52044573  1
  Cu  Cu78  1  0.59852071  0.90065168  0.72438042  1
  Ni  Ni79  1  0.72093100  0.85566000  0.88411600  1
