# generated using pymatgen
data_Cu16Ni5C7
_symmetry_space_group_name_H-M   'P 1'
_cell_length_a   6.42281200
_cell_length_b   8.37181042
_cell_length_c   11.19787457
_cell_angle_alpha   90.03647125
_cell_angle_beta   90.00000000
_cell_angle_gamma   90.00000000
_symmetry_Int_Tables_number   1
_chemical_formula_structural   Cu16Ni5C7
_chemical_formula_sum   'Cu16 Ni5 C7'
_cell_volume   602.11591417
_cell_formula_units_Z   1
loop_
 _symmetry_equiv_pos_site_id
 _symmetry_equiv_pos_as_xyz
  1  'x, y, z'
loop_
 _atom_site_type_symbol
 _atom_site_label
 _atom_site_symmetry_multiplicity
 _atom_site_fract_x
 _atom_site_fract_y
 _atom_site_fract_z
 _atom_site_occupancy
  C  C0  1  0.75000000  0.32720300  0.58895400  1
  C  C1  1  0.75000000  0.82732600  0.91114900  1
  C  C2  1  0.25000000  0.67278300  0.41102600  1
  Ni  Ni3  1  0.25000000  0.17513400  0.08791300  1
  Ni  Ni4  1  0.75000000  0.50682500  0.20572300  1
  Ni  Ni5  1  0.75000000  0.00708400  0.29404900  1
  Ni  Ni6  1  0.25000000  0.49286300  0.79436400  1
  Ni  Ni7  1  0.25000000  0.99303000  0.70591000  1
  C  C8  1  0.75000000  0.27133600  0.92055000  1
  C  C9  1  0.75000000  0.77157400  0.58008800  1
  C  C10  1  0.25000000  0.72808500  0.08008900  1
  C  C11  1  0.25000000  0.22821200  0.41944600  1
  Cu  Cu12  1  0.75000000  0.47113000  0.91899500  1
  Cu  Cu13  1  0.75000000  0.97138800  0.58108300  1
  Cu  Cu14  1  0.25000000  0.52803400  0.08109700  1
  Cu  Cu15  1  0.25000000  0.02846300  0.41889100  1
  Cu  Cu16  1  0.75000000  0.20285300  0.06191700  1
  Cu  Cu17  1  0.75000000  0.70312800  0.43872000  1
  Cu  Cu18  1  0.25000000  0.79696600  0.93888300  1
  Cu  Cu19  1  0.25000000  0.29685500  0.56084700  1
  Cu  Cu20  1  0.96454800  0.20344300  0.85094500  1
  Cu  Cu21  1  0.53613500  0.70365300  0.65009800  1
  Cu  Cu22  1  0.46357600  0.79683300  0.15004200  1
  Cu  Cu23  1  0.03638000  0.29593500  0.34906900  1
  Cu  Cu24  1  0.03642400  0.79683300  0.15004200  1
  Cu  Cu25  1  0.46362000  0.29593500  0.34906900  1
  Cu  Cu26  1  0.53545200  0.20344300  0.85094500  1
  Cu  Cu27  1  0.96386500  0.70365300  0.65009800  1
