# generated using pymatgen
data_Cu2NiC6
_symmetry_space_group_name_H-M   'P 1'
_cell_length_a   13.36701108
_cell_length_b   13.36701108
_cell_length_c   13.36701193
_cell_angle_alpha   19.16382717
_cell_angle_beta   19.16382717
_cell_angle_gamma   19.16382602
_symmetry_Int_Tables_number   1
_chemical_formula_structural   Cu2NiC6
_chemical_formula_sum   'Cu4 Ni2 C12'
_cell_volume   224.97071585
_cell_formula_units_Z   2
loop_
 _symmetry_equiv_pos_site_id
 _symmetry_equiv_pos_as_xyz
  1  'x, y, z'
loop_
 _atom_site_type_symbol
 _atom_site_label
 _atom_site_symmetry_multiplicity
 _atom_site_fract_x
 _atom_site_fract_y
 _atom_site_fract_z
 _atom_site_occupancy
  Ni  Ni0  1  0.00000000  0.00000000  0.00000000  1
  Ni  Ni1  1  0.50000000  0.50000000  0.50000000  1
  C  C2  1  0.59808200  0.59808200  0.59808200  1
  C  C3  1  0.09808200  0.09808200  0.09808200  1
  C  C4  1  0.40191800  0.40191800  0.40191800  1
  C  C5  1  0.90191800  0.90191800  0.90191800  1
  C  C6  1  0.25000000  0.25000000  0.25000000  1
  C  C7  1  0.75000000  0.75000000  0.75000000  1
  C  C8  1  0.25000000  0.55997500  0.94002500  1
  C  C9  1  0.94002500  0.25000000  0.55997500  1
  C  C10  1  0.55997500  0.94002500  0.25000000  1
  C  C11  1  0.44002500  0.05997500  0.75000000  1
  C  C12  1  0.75000000  0.44002500  0.05997500  1
  C  C13  1  0.05997500  0.75000000  0.44002500  1
  Cu  Cu14  1  0.63743900  0.63743900  0.63743900  1
  Cu  Cu15  1  0.13743900  0.13743900  0.13743900  1
  Cu  Cu16  1  0.36256100  0.36256100  0.36256100  1
  Cu  Cu17  1  0.86256100  0.86256100  0.86256100  1
