# generated using pymatgen
data_Cu3Ni
_symmetry_space_group_name_H-M   'P 1'
_cell_length_a   6.55082492
_cell_length_b   6.55082492
_cell_length_c   4.90342100
_cell_angle_alpha   90.00000000
_cell_angle_beta   90.00000000
_cell_angle_gamma   113.71629469
_symmetry_Int_Tables_number   1
_chemical_formula_structural   Cu3Ni
_chemical_formula_sum   'Cu6 Ni2'
_cell_volume   192.65150327
_cell_formula_units_Z   2
loop_
 _symmetry_equiv_pos_site_id
 _symmetry_equiv_pos_as_xyz
  1  'x, y, z'
loop_
 _atom_site_type_symbol
 _atom_site_label
 _atom_site_symmetry_multiplicity
 _atom_site_fract_x
 _atom_site_fract_y
 _atom_site_fract_z
 _atom_site_occupancy
  Ni  Ni0  1  0.36378700  0.63621300  0.75000000  1
  Ni  Ni1  1  0.63621300  0.36378700  0.25000000  1
  Cu  Cu2  1  0.12148200  0.30974400  0.25000000  1
  Cu  Cu3  1  0.87851800  0.69025600  0.75000000  1
  Cu  Cu4  1  0.30974400  0.12148200  0.75000000  1
  Cu  Cu5  1  0.69025600  0.87851800  0.25000000  1
  Cu  Cu6  1  0.82462300  0.17537700  0.75000000  1
  Cu  Cu7  1  0.17537700  0.82462300  0.25000000  1
