# generated using pymatgen
data_CuC9
_symmetry_space_group_name_H-M   'P 1'
_cell_length_a   4.23302052
_cell_length_b   5.81797010
_cell_length_c   5.81797010
_cell_angle_alpha   90.86610689
_cell_angle_beta   90.00000000
_cell_angle_gamma   90.00000000
_symmetry_Int_Tables_number   1
_chemical_formula_structural   CuC9
_chemical_formula_sum   'Cu1 C9'
_cell_volume   143.26619367
_cell_formula_units_Z   1
loop_
 _symmetry_equiv_pos_site_id
 _symmetry_equiv_pos_as_xyz
  1  'x, y, z'
loop_
 _atom_site_type_symbol
 _atom_site_label
 _atom_site_symmetry_multiplicity
 _atom_site_fract_x
 _atom_site_fract_y
 _atom_site_fract_z
 _atom_site_occupancy
  Cu  Cu0  1  0.51354315  0.53034622  0.47753684  1
  C  C1  1  0.00000000  0.00000000  0.50000000  1
  C  C2  1  0.00000000  0.50000000  -0.00000000  1
  C  C3  1  0.50000000  0.00000000  -0.00000000  1
  C  C4  1  0.50000000  0.00000000  0.50000000  1
  C  C5  1  0.50000000  0.50000000  -0.00000000  1
  C  C6  1  0.00000000  0.31454277  0.68545723  1
  C  C7  1  0.00000000  0.68545723  0.31454277  1
  C  C8  1  0.00000000  0.81266804  0.81266804  1
  C  C9  1  0.00000000  0.18733196  0.18733196  1
