# generated using pymatgen
data_Cu5NiC8
_symmetry_space_group_name_H-M   'P 1'
_cell_length_a   16.42652600
_cell_length_b   7.91049000
_cell_length_c   10.92396788
_cell_angle_alpha   49.53465566
_cell_angle_beta   90.00000000
_cell_angle_gamma   90.00000000
_symmetry_Int_Tables_number   1
_chemical_formula_structural   Cu5NiC8
_chemical_formula_sum   'Cu20 Ni4 C32'
_cell_volume   1079.93908221
_cell_formula_units_Z   4
loop_
 _symmetry_equiv_pos_site_id
 _symmetry_equiv_pos_as_xyz
  1  'x, y, z'
loop_
 _atom_site_type_symbol
 _atom_site_label
 _atom_site_symmetry_multiplicity
 _atom_site_fract_x
 _atom_site_fract_y
 _atom_site_fract_z
 _atom_site_occupancy
  Ni  Ni0  1  0.48411500  0.86363300  0.08101300  1
  Ni  Ni1  1  0.95408800  0.38628500  0.35421000  1
  Ni  Ni2  1  0.51588500  0.86363300  0.58101300  1
  Ni  Ni3  1  0.04591200  0.38628500  0.85421000  1
  Cu  Cu4  1  0.44429800  0.50907000  0.02526100  1
  Cu  Cu5  1  0.20429100  0.60915200  0.10159300  1
  Cu  Cu6  1  0.20788700  0.14706800  0.10694900  1
  Cu  Cu7  1  0.72864700  0.67840900  0.26424100  1
  Cu  Cu8  1  0.95822000  0.03890800  0.27246600  1
  Cu  Cu9  1  0.71925100  0.20862200  0.28224300  1
  Cu  Cu10  1  0.36299100  0.77207700  0.42522400  1
  Cu  Cu11  1  0.34772900  0.32064000  0.41104100  1
  Cu  Cu12  1  0.14621800  0.54526400  0.45366900  1
  Cu  Cu13  1  0.13815600  0.08166100  0.46327700  1
  Cu  Cu14  1  0.55570200  0.50907000  0.52526100  1
  Cu  Cu15  1  0.79570900  0.60915200  0.60159300  1
  Cu  Cu16  1  0.79211300  0.14706800  0.60694900  1
  Cu  Cu17  1  0.27135300  0.67840900  0.76424100  1
  Cu  Cu18  1  0.28074900  0.20862200  0.78224300  1
  Cu  Cu19  1  0.04178000  0.03890800  0.77246600  1
  Cu  Cu20  1  0.65227100  0.32064000  0.91104100  1
  Cu  Cu21  1  0.63700900  0.77207700  0.92522400  1
  Cu  Cu22  1  0.85378200  0.54526400  0.95366900  1
  Cu  Cu23  1  0.86184400  0.08166100  0.96327700  1
  C  C24  1  0.95425900  0.39087400  0.12456300  1
  C  C25  1  0.75679500  0.55865600  0.10785800  1
  C  C26  1  0.60351600  0.43350500  0.04843600  1
  C  C27  1  0.97810000  0.03692200  0.07909800  1
  C  C28  1  0.61973700  0.80399700  0.10498000  1
  C  C29  1  0.79896700  0.21161700  0.10568100  1
  C  C30  1  0.27733700  0.62456300  0.27405200  1
  C  C31  1  0.44608500  0.47241000  0.23792700  1
  C  C32  1  0.10708500  0.43106100  0.30930600  1
  C  C33  1  0.25483400  0.27514100  0.26221200  1
  C  C34  1  0.49569900  0.82485000  0.38214400  1
  C  C35  1  0.08901300  0.02501000  0.30368300  1
  C  C36  1  0.67352700  0.69791600  0.44268600  1
  C  C37  1  0.68599200  0.33371200  0.42465700  1
  C  C38  1  0.84144900  0.47070800  0.46371000  1
  C  C39  1  0.82921300  0.11134400  0.42941300  1
  C  C40  1  0.24320500  0.55865600  0.60785800  1
  C  C41  1  0.04574100  0.39087400  0.62456300  1
  C  C42  1  0.38026300  0.80399700  0.60498000  1
  C  C43  1  0.39648400  0.43350500  0.54843600  1
  C  C44  1  0.02190000  0.03692200  0.57909800  1
  C  C45  1  0.20103300  0.21161700  0.60568100  1
  C  C46  1  0.72266300  0.62456300  0.77405200  1
  C  C47  1  0.55391500  0.47241000  0.73792700  1
  C  C48  1  0.89291500  0.43106100  0.80930600  1
  C  C49  1  0.74516600  0.27514100  0.76221200  1
  C  C50  1  0.50430100  0.82485000  0.88214400  1
  C  C51  1  0.91098700  0.02501000  0.80368300  1
  C  C52  1  0.32647300  0.69791600  0.94268600  1
  C  C53  1  0.31400800  0.33371200  0.92465700  1
  C  C54  1  0.15855100  0.47070800  0.96371000  1
  C  C55  1  0.17078700  0.11134400  0.92941300  1
