# generated using pymatgen
data_Cu2NiC2
_symmetry_space_group_name_H-M   'P 1'
_cell_length_a   8.36078108
_cell_length_b   8.36078108
_cell_length_c   8.36078108
_cell_angle_alpha   60.00000000
_cell_angle_beta   60.00000000
_cell_angle_gamma   60.00000000
_symmetry_Int_Tables_number   1
_chemical_formula_structural   Cu2NiC2
_chemical_formula_sum   'Cu4 Ni2 C4'
_cell_volume   413.26208123
_cell_formula_units_Z   2
loop_
 _symmetry_equiv_pos_site_id
 _symmetry_equiv_pos_as_xyz
  1  'x, y, z'
loop_
 _atom_site_type_symbol
 _atom_site_label
 _atom_site_symmetry_multiplicity
 _atom_site_fract_x
 _atom_site_fract_y
 _atom_site_fract_z
 _atom_site_occupancy
  C  C0  1  0.75000000  0.75000000  0.75000000  1
  C  C1  1  0.25000000  0.25000000  0.25000000  1
  C  C2  1  0.50000000  0.50000000  0.50000000  1
  C  C3  1  0.00000000  0.00000000  0.00000000  1
  Cu  Cu4  1  0.76168791  0.21970312  0.22335675  1
  Cu  Cu5  1  0.22058999  0.23271073  0.75414140  1
  Cu  Cu6  1  0.21745359  0.77595383  0.78613347  1
  Ni  Ni7  1  0.22537500  0.77462500  0.22537500  1
  Ni  Ni8  1  0.77462500  0.22537500  0.77462500  1
  Cu  Cu9  1  0.73463010  0.79018800  0.23560731  1
