# generated using pymatgen
data_Cu10NiC4
_symmetry_space_group_name_H-M   'P 1'
_cell_length_a   7.40353103
_cell_length_b   7.36038084
_cell_length_c   7.41453845
_cell_angle_alpha   119.98065625
_cell_angle_beta   89.99034485
_cell_angle_gamma   90.00756966
_symmetry_Int_Tables_number   1
_chemical_formula_structural   Cu10NiC4
_chemical_formula_sum   'Cu20 Ni2 C8'
_cell_volume   349.97623387
_cell_formula_units_Z   2
loop_
 _symmetry_equiv_pos_site_id
 _symmetry_equiv_pos_as_xyz
  1  'x, y, z'
loop_
 _atom_site_type_symbol
 _atom_site_label
 _atom_site_symmetry_multiplicity
 _atom_site_fract_x
 _atom_site_fract_y
 _atom_site_fract_z
 _atom_site_occupancy
  C  C0  1  0.27505900  0.29629600  0.03597100  1
  C  C1  1  0.77504100  0.20387200  0.46422800  1
  C  C2  1  0.72491900  0.70375900  0.96420300  1
  C  C3  1  0.22492700  0.79643000  0.53628300  1
  Ni  Ni4  1  0.50020800  0.50020500  0.49990300  1
  Ni  Ni5  1  0.99957100  0.99986400  0.00017900  1
  C  C6  1  0.62271300  0.00133200  0.74977900  1
  C  C7  1  0.87737000  0.50128300  0.24979100  1
  C  C8  1  0.12283700  0.49874600  0.75017500  1
  C  C9  1  0.37716200  0.99875700  0.25017500  1
  Cu  Cu10  1  0.24959000  0.58847400  0.64533000  1
  Cu  Cu11  1  0.74924800  0.91163600  0.85479500  1
  Cu  Cu12  1  0.75057700  0.41169300  0.35467400  1
  Cu  Cu13  1  0.25034000  0.08818700  0.14513000  1
  Cu  Cu14  1  0.99718400  0.68310600  0.90361700  1
  Cu  Cu15  1  0.50280100  0.18328100  0.40338700  1
  Cu  Cu16  1  0.49715400  0.81685200  0.59638000  1
  Cu  Cu17  1  0.00281200  0.31666900  0.09638700  1
  Cu  Cu18  1  0.49269800  0.81842100  0.08893700  1
  Cu  Cu19  1  0.99293400  0.68145600  0.41093500  1
  Cu  Cu20  1  0.50715500  0.18158600  0.91081500  1
  Cu  Cu21  1  0.00731200  0.31862400  0.58882600  1
  Cu  Cu22  1  0.75342300  0.57574400  0.13442000  1
  Cu  Cu23  1  0.74685700  0.07550000  0.63433800  1
  Cu  Cu24  1  0.24674800  0.42434200  0.86555800  1
  Cu  Cu25  1  0.25330200  0.92444200  0.36575000  1
  Cu  Cu26  1  0.33881700  0.50289000  0.27240200  1
  Cu  Cu27  1  0.66183400  0.49666300  0.72753600  1
  Cu  Cu28  1  0.16109300  0.00308800  0.77269100  1
  Cu  Cu29  1  0.83831400  0.99680200  0.22740400  1
