# generated using pymatgen
data_CuC2
_symmetry_space_group_name_H-M   'P 1'
_cell_length_a   3.77747100
_cell_length_b   6.45342000
_cell_length_c   7.36793900
_cell_angle_alpha   90.00000000
_cell_angle_beta   90.00000000
_cell_angle_gamma   90.00000000
_symmetry_Int_Tables_number   1
_chemical_formula_structural   CuC2
_chemical_formula_sum   'Cu4 C8'
_cell_volume   179.61272061
_cell_formula_units_Z   4
loop_
 _symmetry_equiv_pos_site_id
 _symmetry_equiv_pos_as_xyz
  1  'x, y, z'
loop_
 _atom_site_type_symbol
 _atom_site_label
 _atom_site_symmetry_multiplicity
 _atom_site_fract_x
 _atom_site_fract_y
 _atom_site_fract_z
 _atom_site_occupancy
  C  C0  1  0.75000000  0.47450500  0.32657400  1
  C  C1  1  0.25000000  0.02549500  0.82657400  1
  C  C2  1  0.75000000  0.97450500  0.17342600  1
  C  C3  1  0.25000000  0.52549500  0.67342600  1
  Cu  Cu4  1  0.24938460  0.25794445  0.10854781  1
  Cu  Cu5  1  0.27245362  0.73104983  0.36545844  1
  Cu  Cu6  1  0.72105704  0.73083387  0.86800477  1
  Cu  Cu7  1  0.74116542  0.25572807  0.60282079  1
  C  C8  1  0.25000000  0.64525800  0.06254700  1
  C  C9  1  0.25000000  0.14525800  0.43745300  1
  C  C10  1  0.75000000  0.85474200  0.56254700  1
  C  C11  1  0.75000000  0.35474200  0.93745300  1
