# generated using pymatgen
data_Cu4NiC
_symmetry_space_group_name_H-M   'P 1'
_cell_length_a   4.61411700
_cell_length_b   5.18541000
_cell_length_c   11.87664800
_cell_angle_alpha   90.00000000
_cell_angle_beta   90.00000000
_cell_angle_gamma   90.00000000
_symmetry_Int_Tables_number   1
_chemical_formula_structural   Cu4NiC
_chemical_formula_sum   'Cu16 Ni4 C4'
_cell_volume   284.16173034
_cell_formula_units_Z   4
loop_
 _symmetry_equiv_pos_site_id
 _symmetry_equiv_pos_as_xyz
  1  'x, y, z'
loop_
 _atom_site_type_symbol
 _atom_site_label
 _atom_site_symmetry_multiplicity
 _atom_site_fract_x
 _atom_site_fract_y
 _atom_site_fract_z
 _atom_site_occupancy
  Ni  Ni0  1  0.00000000  0.75000000  0.32097400  1
  Ni  Ni1  1  0.00000000  0.25000000  0.67902600  1
  Ni  Ni2  1  0.50000000  0.25000000  0.17902600  1
  Ni  Ni3  1  0.50000000  0.75000000  0.82097400  1
  C  C4  1  0.00000000  0.75000000  0.07111300  1
  C  C5  1  0.00000000  0.25000000  0.92888700  1
  C  C6  1  0.50000000  0.25000000  0.42888700  1
  C  C7  1  0.50000000  0.75000000  0.57111300  1
  Cu  Cu8  1  0.22872300  0.08681600  0.05384800  1
  Cu  Cu9  1  0.22872300  0.58681600  0.94615200  1
  Cu  Cu10  1  0.23135100  0.08996700  0.81658500  1
  Cu  Cu11  1  0.23135100  0.58996700  0.18341500  1
  Cu  Cu12  1  0.26864900  0.08996700  0.31658500  1
  Cu  Cu13  1  0.26864900  0.58996700  0.68341500  1
  Cu  Cu14  1  0.27127700  0.08681600  0.55384800  1
  Cu  Cu15  1  0.27127700  0.58681600  0.44615200  1
  Cu  Cu16  1  0.72872300  0.91318400  0.44615200  1
  Cu  Cu17  1  0.72872300  0.41318400  0.55384800  1
  Cu  Cu18  1  0.73135100  0.91003300  0.68341500  1
  Cu  Cu19  1  0.73135100  0.41003300  0.31658500  1
  Cu  Cu20  1  0.76864900  0.91003300  0.18341500  1
  Cu  Cu21  1  0.76864900  0.41003300  0.81658500  1
  Cu  Cu22  1  0.77127700  0.91318400  0.94615200  1
  Cu  Cu23  1  0.77127700  0.41318400  0.05384800  1
