# generated using pymatgen
data_Cu3C
_symmetry_space_group_name_H-M   'P 1'
_cell_length_a   5.92846528
_cell_length_b   5.92846528
_cell_length_c   5.92846528
_cell_angle_alpha   60.00000000
_cell_angle_beta   60.00000000
_cell_angle_gamma   60.00000000
_symmetry_Int_Tables_number   1
_chemical_formula_structural   Cu3C
_chemical_formula_sum   'Cu3 C1'
_cell_volume   147.33700722
_cell_formula_units_Z   1
loop_
 _symmetry_equiv_pos_site_id
 _symmetry_equiv_pos_as_xyz
  1  'x, y, z'
loop_
 _atom_site_type_symbol
 _atom_site_label
 _atom_site_symmetry_multiplicity
 _atom_site_fract_x
 _atom_site_fract_y
 _atom_site_fract_z
 _atom_site_occupancy
  Cu  Cu0  1  0.28190931  0.24839570  0.23822520  1
  Cu  Cu1  1  0.78125448  0.77841578  0.72249354  1
  Cu  Cu2  1  0.51128459  0.47761680  0.50906025  1
  C  C3  1  0.00000000  0.00000000  0.00000000  1
