# generated using pymatgen
data_CuC2
_symmetry_space_group_name_H-M   'P 1'
_cell_length_a   5.69354200
_cell_length_b   5.69354200
_cell_length_c   5.69354200
_cell_angle_alpha   90.00000000
_cell_angle_beta   90.00000000
_cell_angle_gamma   90.00000000
_symmetry_Int_Tables_number   1
_chemical_formula_structural   CuC2
_chemical_formula_sum   'Cu4 C8'
_cell_volume   184.56425164
_cell_formula_units_Z   4
loop_
 _symmetry_equiv_pos_site_id
 _symmetry_equiv_pos_as_xyz
  1  'x, y, z'
loop_
 _atom_site_type_symbol
 _atom_site_label
 _atom_site_symmetry_multiplicity
 _atom_site_fract_x
 _atom_site_fract_y
 _atom_site_fract_z
 _atom_site_occupancy
  Cu  Cu0  1  0.88620204  0.10502878  0.63085223  1
  Cu  Cu1  1  0.13296244  0.58239982  0.90651584  1
  Cu  Cu2  1  0.59427089  0.86364817  0.11952829  1
  Cu  Cu3  1  0.39725024  0.38069795  0.38401580  1
  C  C4  1  0.49460100  0.50539900  0.00539900  1
  C  C5  1  0.50539900  0.00539900  0.49460100  1
  C  C6  1  0.00539900  0.49460100  0.50539900  1
  C  C7  1  0.99460100  0.99460100  0.99460100  1
  C  C8  1  0.10971900  0.89028100  0.39028100  1
  C  C9  1  0.89028100  0.39028100  0.10971900  1
  C  C10  1  0.39028100  0.10971900  0.89028100  1
  C  C11  1  0.60971900  0.60971900  0.60971900  1
