# generated using pymatgen
data_Cu2C3
_symmetry_space_group_name_H-M   'P 1'
_cell_length_a   5.77591900
_cell_length_b   5.77591900
_cell_length_c   3.16644300
_cell_angle_alpha   90.00000000
_cell_angle_beta   90.00000000
_cell_angle_gamma   90.00000000
_symmetry_Int_Tables_number   1
_chemical_formula_structural   Cu2C3
_chemical_formula_sum   'Cu4 C6'
_cell_volume   105.63646580
_cell_formula_units_Z   2
loop_
 _symmetry_equiv_pos_site_id
 _symmetry_equiv_pos_as_xyz
  1  'x, y, z'
loop_
 _atom_site_type_symbol
 _atom_site_label
 _atom_site_symmetry_multiplicity
 _atom_site_fract_x
 _atom_site_fract_y
 _atom_site_fract_z
 _atom_site_occupancy
  C  C0  1  0.50000000  0.50000000  0.00000000  1
  C  C1  1  0.00000000  0.00000000  0.00000000  1
  Cu  Cu2  1  0.09934298  0.59013993  0.96534450  1
  Cu  Cu3  1  0.89950764  0.41049070  0.02995556  1
  Cu  Cu4  1  0.61090810  0.88835467  0.00573401  1
  Cu  Cu5  1  0.38786666  0.12067266  0.14527713  1
  C  C6  1  0.67760500  0.17760500  0.50000000  1
  C  C7  1  0.32239500  0.82239500  0.50000000  1
  C  C8  1  0.17760500  0.32239500  0.50000000  1
  C  C9  1  0.82239500  0.67760500  0.50000000  1
