# generated using pymatgen
data_Cu2NiC
_symmetry_space_group_name_H-M   'P 1'
_cell_length_a   5.90966164
_cell_length_b   5.90966164
_cell_length_c   4.81478100
_cell_angle_alpha   90.00000000
_cell_angle_beta   90.00000000
_cell_angle_gamma   119.99999593
_symmetry_Int_Tables_number   1
_chemical_formula_structural   Cu2NiC
_chemical_formula_sum   'Cu4 Ni2 C2'
_cell_volume   145.62381985
_cell_formula_units_Z   2
loop_
 _symmetry_equiv_pos_site_id
 _symmetry_equiv_pos_as_xyz
  1  'x, y, z'
loop_
 _atom_site_type_symbol
 _atom_site_label
 _atom_site_symmetry_multiplicity
 _atom_site_fract_x
 _atom_site_fract_y
 _atom_site_fract_z
 _atom_site_occupancy
  Ni  Ni0  1  0.17461400  0.34922900  0.25000000  1
  Ni  Ni1  1  0.17461400  0.82538600  0.25000000  1
  Cu  Cu2  1  0.59874246  0.79606159  0.18872914  1
  Cu  Cu3  1  0.34433849  0.15658831  0.72637130  1
  Cu  Cu4  1  0.82032145  0.18649616  0.77639436  1
  Cu  Cu5  1  0.79919496  0.62234401  0.74743987  1
  C  C6  1  0.66666700  0.33333300  0.25000000  1
  C  C7  1  0.33333300  0.66666700  0.75000000  1
