# generated using pymatgen
data_CuC5
_symmetry_space_group_name_H-M   'P 1'
_cell_length_a   4.56773679
_cell_length_b   4.56773679
_cell_length_c   4.60374019
_cell_angle_alpha   81.44973386
_cell_angle_beta   81.44973386
_cell_angle_gamma   81.66451265
_symmetry_Int_Tables_number   1
_chemical_formula_structural   CuC5
_chemical_formula_sum   'Cu1 C5'
_cell_volume   93.18586749
_cell_formula_units_Z   1
loop_
 _symmetry_equiv_pos_site_id
 _symmetry_equiv_pos_as_xyz
  1  'x, y, z'
loop_
 _atom_site_type_symbol
 _atom_site_label
 _atom_site_symmetry_multiplicity
 _atom_site_fract_x
 _atom_site_fract_y
 _atom_site_fract_z
 _atom_site_occupancy
  Cu  Cu0  1  0.89885681  0.89470543  0.92870234  1
  C  C1  1  0.25803438  0.25803438  0.26311223  1
  C  C2  1  0.54133799  0.54133799  0.54512906  1
  C  C3  1  0.51694170  0.01870773  0.51867766  1
  C  C4  1  0.01870773  0.51694170  0.51867766  1
  C  C5  1  0.51500185  0.51500185  0.01913847  1
