# generated using pymatgen
data_Cu15NiC3
_symmetry_space_group_name_H-M   'P 1'
_cell_length_a   10.86716200
_cell_length_b   5.66253800
_cell_length_c   9.92427247
_cell_angle_alpha   84.28151027
_cell_angle_beta   90.00000000
_cell_angle_gamma   90.00000000
_symmetry_Int_Tables_number   1
_chemical_formula_structural   Cu15NiC3
_chemical_formula_sum   'Cu30 Ni2 C6'
_cell_volume   607.65807491
_cell_formula_units_Z   2
loop_
 _symmetry_equiv_pos_site_id
 _symmetry_equiv_pos_as_xyz
  1  'x, y, z'
loop_
 _atom_site_type_symbol
 _atom_site_label
 _atom_site_symmetry_multiplicity
 _atom_site_fract_x
 _atom_site_fract_y
 _atom_site_fract_z
 _atom_site_occupancy
  Ni  Ni0  1  0.75000000  0.40131400  0.70182200  1
  Ni  Ni1  1  0.25000000  0.59868600  0.29817800  1
  C  C2  1  0.50000000  0.00000000  0.50000000  1
  C  C3  1  0.56558300  0.98909400  0.15856800  1
  C  C4  1  0.43441700  0.01090600  0.84143200  1
  C  C5  1  0.00000000  0.00000000  0.50000000  1
  C  C6  1  0.93441700  0.98909400  0.15856800  1
  C  C7  1  0.06558300  0.01090600  0.84143200  1
  Cu  Cu8  1  0.75000000  0.70253300  0.57166000  1
  Cu  Cu9  1  0.75000000  0.86847600  0.15517200  1
  Cu  Cu10  1  0.75000000  0.57329400  0.86703100  1
  Cu  Cu11  1  0.25000000  0.29746700  0.42834000  1
  Cu  Cu12  1  0.25000000  0.42670600  0.13296900  1
  Cu  Cu13  1  0.25000000  0.13152400  0.84482800  1
  Cu  Cu14  1  0.38289500  0.13132100  0.63587400  1
  Cu  Cu15  1  0.45108600  0.15889900  0.31408800  1
  Cu  Cu16  1  0.41477600  0.12256200  0.03200400  1
  Cu  Cu17  1  0.61710500  0.86867900  0.36412600  1
  Cu  Cu18  1  0.58522400  0.87743800  0.96799600  1
  Cu  Cu19  1  0.54891400  0.84110100  0.68591200  1
  Cu  Cu20  1  0.11796900  0.74294800  0.47239500  1
  Cu  Cu21  1  0.05628600  0.72836300  0.20323500  1
  Cu  Cu22  1  0.12728500  0.69405000  0.86562000  1
  Cu  Cu23  1  0.88203100  0.25705200  0.52760500  1
  Cu  Cu24  1  0.87271500  0.30595000  0.13438000  1
  Cu  Cu25  1  0.94371400  0.27163700  0.79676500  1
  Cu  Cu26  1  0.61796900  0.25705200  0.52760500  1
  Cu  Cu27  1  0.62728500  0.30595000  0.13438000  1
  Cu  Cu28  1  0.55628600  0.27163700  0.79676500  1
  Cu  Cu29  1  0.38203100  0.74294800  0.47239500  1
  Cu  Cu30  1  0.44371400  0.72836300  0.20323500  1
  Cu  Cu31  1  0.37271500  0.69405000  0.86562000  1
  Cu  Cu32  1  0.11710500  0.13132100  0.63587400  1
  Cu  Cu33  1  0.04891400  0.15889900  0.31408800  1
  Cu  Cu34  1  0.08522400  0.12256200  0.03200400  1
  Cu  Cu35  1  0.88289500  0.86867900  0.36412600  1
  Cu  Cu36  1  0.91477600  0.87743800  0.96799600  1
  Cu  Cu37  1  0.95108600  0.84110100  0.68591200  1
