# generated using pymatgen
data_Cu20Ni2C21
_symmetry_space_group_name_H-M   'P 1'
_cell_length_a   10.66736900
_cell_length_b   7.12821400
_cell_length_c   12.05782769
_cell_angle_alpha   63.87587282
_cell_angle_beta   90.00000000
_cell_angle_gamma   90.00000000
_symmetry_Int_Tables_number   1
_chemical_formula_structural   Cu20Ni2C21
_chemical_formula_sum   'Cu40 Ni4 C42'
_cell_volume   823.20339630
_cell_formula_units_Z   2
loop_
 _symmetry_equiv_pos_site_id
 _symmetry_equiv_pos_as_xyz
  1  'x, y, z'
loop_
 _atom_site_type_symbol
 _atom_site_label
 _atom_site_symmetry_multiplicity
 _atom_site_fract_x
 _atom_site_fract_y
 _atom_site_fract_z
 _atom_site_occupancy
  Ni  Ni0  1  0.33932500  0.70057800  0.04727300  1
  Ni  Ni1  1  0.83932500  0.29942200  0.45272700  1
  Ni  Ni2  1  0.16067500  0.70057800  0.54727300  1
  Ni  Ni3  1  0.66067500  0.29942200  0.95272700  1
  C  C4  1  0.00000000  0.00000000  0.00000000  1
  C  C5  1  0.50000000  0.00000000  0.50000000  1
  C  C6  1  0.04401000  0.53750000  0.22321400  1
  C  C7  1  0.54401000  0.46250000  0.27678600  1
  C  C8  1  0.23871700  0.17992100  0.58348700  1
  C  C9  1  0.73871700  0.82007900  0.91651300  1
  C  C10  1  0.26128300  0.17992100  0.08348700  1
  C  C11  1  0.76128300  0.82007900  0.41651300  1
  C  C12  1  0.45599000  0.53750000  0.72321400  1
  C  C13  1  0.95599000  0.46250000  0.77678600  1
  C  C14  1  0.70846800  0.64504000  0.28841100  1
  C  C15  1  0.41190500  0.40592400  0.42570900  1
  C  C16  1  0.10380000  0.39965100  0.44467200  1
  C  C17  1  0.59450900  0.24396200  0.60176900  1
  C  C18  1  0.96287300  0.17837500  0.68320700  1
  C  C19  1  0.56514000  0.98313100  0.90011200  1
  C  C20  1  0.60380000  0.60034900  0.05532800  1
  C  C21  1  0.91190500  0.59407600  0.07429100  1
  C  C22  1  0.17040000  0.96774100  0.84281600  1
  C  C23  1  0.37692400  0.99588900  0.81454900  1
  C  C24  1  0.87692400  0.00411100  0.68545100  1
  C  C25  1  0.20846800  0.35496000  0.21158900  1
  C  C26  1  0.67040000  0.03225900  0.65718400  1
  C  C27  1  0.06514000  0.01686900  0.59988800  1
  C  C28  1  0.46287300  0.82162500  0.81679300  1
  C  C29  1  0.09450900  0.75603800  0.89823100  1
  C  C30  1  0.90549100  0.24396200  0.10176900  1
  C  C31  1  0.53712700  0.17837500  0.18320700  1
  C  C32  1  0.93486000  0.98313100  0.40011200  1
  C  C33  1  0.32960000  0.96774100  0.34281600  1
  C  C34  1  0.79153200  0.64504000  0.78841100  1
  C  C35  1  0.12307600  0.99588900  0.31454900  1
  C  C36  1  0.62307600  0.00411100  0.18545100  1
  C  C37  1  0.82960000  0.03225900  0.15718400  1
  C  C38  1  0.08809500  0.40592400  0.92570900  1
  C  C39  1  0.39620000  0.39965100  0.94467200  1
  C  C40  1  0.43486000  0.01686900  0.09988800  1
  C  C41  1  0.03712700  0.82162500  0.31679300  1
  C  C42  1  0.40549100  0.75603800  0.39823100  1
  C  C43  1  0.89620000  0.60034900  0.55532800  1
  C  C44  1  0.58809500  0.59407600  0.57429100  1
  C  C45  1  0.29153200  0.35496000  0.71158900  1
  Cu  Cu46  1  0.02796600  0.77063800  0.18477600  1
  Cu  Cu47  1  0.45723900  0.53341400  0.35935300  1
  Cu  Cu48  1  0.16570700  0.39307600  0.51611800  1
  Cu  Cu49  1  0.68604200  0.49405000  0.30610500  1
  Cu  Cu50  1  0.51328000  0.60244500  0.14172100  1
  Cu  Cu51  1  0.25762900  0.13963600  0.71815000  1
  Cu  Cu52  1  0.01328000  0.39755500  0.35827900  1
  Cu  Cu53  1  0.65550600  0.00022800  0.92361500  1
  Cu  Cu54  1  0.18604200  0.50595000  0.19389500  1
  Cu  Cu55  1  0.95723900  0.46658600  0.14064700  1
  Cu  Cu56  1  0.93751100  0.11068000  0.62980600  1
  Cu  Cu57  1  0.63615200  0.14310000  0.57850700  1
  Cu  Cu58  1  0.36150800  0.19363600  0.51553900  1
  Cu  Cu59  1  0.86150800  0.80636400  0.98446100  1
  Cu  Cu60  1  0.13615200  0.85690000  0.92149300  1
  Cu  Cu61  1  0.43751100  0.88932000  0.87019400  1
  Cu  Cu62  1  0.52796600  0.22936200  0.31522400  1
  Cu  Cu63  1  0.15550600  0.99977200  0.57638500  1
  Cu  Cu64  1  0.75762900  0.86036400  0.78185000  1
  Cu  Cu65  1  0.33429300  0.39307600  0.01611800  1
  Cu  Cu66  1  0.66570700  0.60692400  0.98388200  1
  Cu  Cu67  1  0.24237100  0.13963600  0.21815000  1
  Cu  Cu68  1  0.84449400  0.00022800  0.42361500  1
  Cu  Cu69  1  0.47203400  0.77063800  0.68477600  1
  Cu  Cu70  1  0.56248900  0.11068000  0.12980600  1
  Cu  Cu71  1  0.86384800  0.14310000  0.07850700  1
  Cu  Cu72  1  0.13849200  0.19363600  0.01553900  1
  Cu  Cu73  1  0.63849200  0.80636400  0.48446100  1
  Cu  Cu74  1  0.36384800  0.85690000  0.42149300  1
  Cu  Cu75  1  0.06248900  0.88932000  0.37019400  1
  Cu  Cu76  1  0.04276100  0.53341400  0.85935300  1
  Cu  Cu77  1  0.81395800  0.49405000  0.80610500  1
  Cu  Cu78  1  0.34449400  0.99977200  0.07638500  1
  Cu  Cu79  1  0.98672000  0.60244500  0.64172100  1
  Cu  Cu80  1  0.74237100  0.86036400  0.28185000  1
  Cu  Cu81  1  0.48672000  0.39755500  0.85827900  1
  Cu  Cu82  1  0.31395800  0.50595000  0.69389500  1
  Cu  Cu83  1  0.83429300  0.60692400  0.48388200  1
  Cu  Cu84  1  0.54276100  0.46658600  0.64064700  1
  Cu  Cu85  1  0.97203400  0.22936200  0.81522400  1
