# generated using pymatgen
data_Cu16Ni4C11
_symmetry_space_group_name_H-M   'P 1'
_cell_length_a   6.98859100
_cell_length_b   7.70336210
_cell_length_c   9.31900542
_cell_angle_alpha   107.07992778
_cell_angle_beta   93.51508125
_cell_angle_gamma   112.48383501
_symmetry_Int_Tables_number   1
_chemical_formula_structural   Cu16Ni4C11
_chemical_formula_sum   'Cu16 Ni4 C11'
_cell_volume   434.46815987
_cell_formula_units_Z   1
loop_
 _symmetry_equiv_pos_site_id
 _symmetry_equiv_pos_as_xyz
  1  'x, y, z'
loop_
 _atom_site_type_symbol
 _atom_site_label
 _atom_site_symmetry_multiplicity
 _atom_site_fract_x
 _atom_site_fract_y
 _atom_site_fract_z
 _atom_site_occupancy
  C  C0  1  0.00000000  0.50000000  0.00000000  1
  C  C1  1  0.80924900  0.80353500  0.32255600  1
  C  C2  1  0.33601300  0.63167000  0.51341300  1
  C  C3  1  0.43315700  0.29042900  0.08468000  1
  C  C4  1  0.56684300  0.70957100  0.91532000  1
  C  C5  1  0.66398700  0.36833000  0.48658700  1
  C  C6  1  0.19075100  0.19646500  0.67744400  1
  C  C7  1  0.34084000  0.88943200  0.25177100  1
  C  C8  1  0.65916000  0.11056800  0.74822900  1
  C  C9  1  0.94865100  0.23374300  0.23892100  1
  C  C10  1  0.05134900  0.76625700  0.76107900  1
  Cu  Cu11  1  0.44636429  0.48335734  0.63310411  1
  Cu  Cu12  1  0.16015098  0.99799540  0.84934690  1
  Cu  Cu13  1  0.35835679  0.82420192  0.07915311  1
  Cu  Cu14  1  0.22226729  0.66060265  0.74664402  1
  Cu  Cu15  1  0.49902175  0.86576971  0.35982097  1
  Cu  Cu16  1  0.90576378  0.64381751  0.86317004  1
  Ni  Ni17  1  0.48267900  0.12469500  0.64804300  1
  Cu  Cu18  1  0.05860243  0.27215127  0.39873295  1
  Cu  Cu19  1  0.62275345  0.87520254  0.67693359  1
  Ni  Ni20  1  0.85125900  0.00091300  0.16750200  1
  Cu  Cu21  1  0.78113745  0.33468787  0.23630771  1
  Cu  Cu22  1  0.96643842  0.70895992  0.59128336  1
  Cu  Cu23  1  0.57327812  0.55273188  0.37362669  1
  Cu  Cu24  1  0.88094621  0.26075492  0.72923148  1
  Cu  Cu25  1  0.33187053  0.42509316  0.91737798  1
  Cu  Cu26  1  0.69041853  0.18340328  0.92519240  1
  Ni  Ni27  1  0.68241900  0.59108400  0.09530400  1
  Cu  Cu28  1  0.14012054  0.33775835  0.18015474  1
  Cu  Cu29  1  0.36302087  0.07415394  0.29321928  1
  Ni  Ni30  1  0.12059900  0.74783900  0.27006000  1
