# generated using pymatgen
data_Cu12NiC9
_symmetry_space_group_name_H-M   'P 1'
_cell_length_a   5.37926654
_cell_length_b   18.62923218
_cell_length_c   10.69506866
_cell_angle_alpha   90.45808036
_cell_angle_beta   80.03118478
_cell_angle_gamma   90.04836561
_symmetry_Int_Tables_number   1
_chemical_formula_structural   Cu12NiC9
_chemical_formula_sum   'Cu48 Ni4 C36'
_cell_volume   1055.55464960
_cell_formula_units_Z   4
loop_
 _symmetry_equiv_pos_site_id
 _symmetry_equiv_pos_as_xyz
  1  'x, y, z'
loop_
 _atom_site_type_symbol
 _atom_site_label
 _atom_site_symmetry_multiplicity
 _atom_site_fract_x
 _atom_site_fract_y
 _atom_site_fract_z
 _atom_site_occupancy
  Ni  Ni0  1  0.99424000  0.24877100  0.02407500  1
  Ni  Ni1  1  0.49442600  0.49871700  0.02421500  1
  Ni  Ni2  1  0.99433900  0.74926600  0.02414800  1
  Ni  Ni3  1  0.49427300  0.99924900  0.02402700  1
  C  C4  1  0.50415200  0.08441900  0.49484000  1
  C  C5  1  0.00420800  0.33423200  0.49486300  1
  C  C6  1  0.50401000  0.58431800  0.49476000  1
  C  C7  1  0.00413700  0.83449600  0.49477600  1
  C  C8  1  0.00350900  0.16623500  0.49511100  1
  C  C9  1  0.50361200  0.41623500  0.49502400  1
  C  C10  1  0.00341200  0.66636500  0.49509900  1
  C  C11  1  0.50346500  0.91638600  0.49512100  1
  C  C12  1  0.42468900  0.16633700  0.23334600  1
  C  C13  1  0.92489100  0.41625300  0.23334700  1
  C  C14  1  0.42476900  0.66639400  0.23337800  1
  C  C15  1  0.92472200  0.91646000  0.23330100  1
  C  C16  1  0.99543200  0.49911300  0.49362600  1
  C  C17  1  0.49544100  0.74928600  0.49371400  1
  C  C18  1  0.49573000  0.24915400  0.49372100  1
  C  C19  1  0.99556000  0.99926200  0.49366800  1
  C  C20  1  0.92587200  0.08391200  0.22918900  1
  C  C21  1  0.42604200  0.33378700  0.22918600  1
  C  C22  1  0.92596200  0.58385300  0.22927900  1
  C  C23  1  0.42590900  0.83396400  0.22923500  1
  C  C24  1  0.07693900  0.08321200  0.76298100  1
  C  C25  1  0.57686000  0.33316800  0.76292300  1
  C  C26  1  0.07680700  0.58319000  0.76289200  1
  C  C27  1  0.57700400  0.83325300  0.76293400  1
  C  C28  1  0.57927000  0.16572400  0.76301200  1
  C  C29  1  0.07920700  0.41569000  0.76290300  1
  C  C30  1  0.57918200  0.66575100  0.76293400  1
  C  C31  1  0.07932100  0.91578900  0.76301400  1
  C  C32  1  0.39188000  0.00125700  0.31093900  1
  C  C33  1  0.89185400  0.25104600  0.31091400  1
  C  C34  1  0.39224000  0.50097200  0.31078900  1
  C  C35  1  0.89190800  0.75120500  0.31098900  1
  C  C36  1  0.60557900  0.00169500  0.69285800  1
  C  C37  1  0.10557900  0.25153600  0.69287200  1
  C  C38  1  0.60546200  0.50166400  0.69269600  1
  C  C39  1  0.10586700  0.75179100  0.69273500  1
  Cu  Cu40  1  0.87452700  0.25006200  0.40246400  1
  Cu  Cu41  1  0.37462400  0.50004400  0.40233900  1
  Cu  Cu42  1  0.87440600  0.75025500  0.40252900  1
  Cu  Cu43  1  0.37441600  0.00024400  0.40248900  1
  Cu  Cu44  1  0.61727900  0.00148700  0.60165600  1
  Cu  Cu45  1  0.11730900  0.25131900  0.60166600  1
  Cu  Cu46  1  0.61717400  0.50137600  0.60151200  1
  Cu  Cu47  1  0.11724200  0.75152200  0.60156400  1
  Cu  Cu48  1  0.36508400  0.16464900  0.40030600  1
  Cu  Cu49  1  0.86540800  0.41453100  0.40033600  1
  Cu  Cu50  1  0.36511400  0.66468500  0.40038000  1
  Cu  Cu51  1  0.86500100  0.91475100  0.40028400  1
  Cu  Cu52  1  0.86827000  0.08643500  0.38698800  1
  Cu  Cu53  1  0.36838700  0.33629200  0.38699100  1
  Cu  Cu54  1  0.86841600  0.58640500  0.38714000  1
  Cu  Cu55  1  0.36837000  0.83655000  0.38706400  1
  Cu  Cu56  1  0.12692700  0.08454500  0.60992000  1
  Cu  Cu57  1  0.62692600  0.33445900  0.60987300  1
  Cu  Cu58  1  0.12675200  0.58451900  0.60982600  1
  Cu  Cu59  1  0.62697000  0.83465600  0.60987300  1
  Cu  Cu60  1  0.63713600  0.16315400  0.61031300  1
  Cu  Cu61  1  0.13707600  0.41308200  0.61021300  1
  Cu  Cu62  1  0.63703800  0.66319600  0.61023000  1
  Cu  Cu63  1  0.13714500  0.91327500  0.61031000  1
  Cu  Cu64  1  0.01920700  0.00329600  0.17742600  1
  Cu  Cu65  1  0.51930200  0.25313900  0.17742500  1
  Cu  Cu66  1  0.01890400  0.50316400  0.17764800  1
  Cu  Cu67  1  0.51884300  0.75330100  0.17761700  1
  Cu  Cu68  1  0.55328800  0.24968200  0.81923800  1
  Cu  Cu69  1  0.05328200  0.49967900  0.81910600  1
  Cu  Cu70  1  0.55332600  0.74974100  0.81915900  1
  Cu  Cu71  1  0.05332000  0.99973900  0.81932000  1
  Cu  Cu72  1  0.14902300  0.14154500  0.17366400  1
  Cu  Cu73  1  0.64927300  0.39138000  0.17370300  1
  Cu  Cu74  1  0.14916600  0.64145500  0.17374500  1
  Cu  Cu75  1  0.64910700  0.89158100  0.17362600  1
  Cu  Cu76  1  0.66872500  0.10478100  0.17353000  1
  Cu  Cu77  1  0.16899900  0.35471300  0.17349400  1
  Cu  Cu78  1  0.66884100  0.60479600  0.17369200  1
  Cu  Cu79  1  0.16880600  0.85489300  0.17360000  1
  Cu  Cu80  1  0.30959800  0.12389900  0.82101800  1
  Cu  Cu81  1  0.80946900  0.37389600  0.82092700  1
  Cu  Cu82  1  0.30943300  0.62393100  0.82090400  1
  Cu  Cu83  1  0.80968200  0.87392700  0.82101400  1
  Cu  Cu84  1  0.80896200  0.12564400  0.82364800  1
  Cu  Cu85  1  0.30884600  0.37559300  0.82356100  1
  Cu  Cu86  1  0.80881800  0.62562900  0.82358800  1
  Cu  Cu87  1  0.30902000  0.87569200  0.82364400  1
