# generated using pymatgen
data_Cu3C
_symmetry_space_group_name_H-M   'P 1'
_cell_length_a   4.82099000
_cell_length_b   4.82099000
_cell_length_c   4.82099000
_cell_angle_alpha   90.00000000
_cell_angle_beta   90.00000000
_cell_angle_gamma   90.00000000
_symmetry_Int_Tables_number   1
_chemical_formula_structural   Cu3C
_chemical_formula_sum   'Cu3 C1'
_cell_volume   112.04918240
_cell_formula_units_Z   1
loop_
 _symmetry_equiv_pos_site_id
 _symmetry_equiv_pos_as_xyz
  1  'x, y, z'
loop_
 _atom_site_type_symbol
 _atom_site_label
 _atom_site_symmetry_multiplicity
 _atom_site_fract_x
 _atom_site_fract_y
 _atom_site_fract_z
 _atom_site_occupancy
  Cu  Cu0  1  0.99974337  0.51971825  0.47280411  1
  Cu  Cu1  1  0.47078630  0.01183735  0.48611965  1
  Cu  Cu2  1  0.45527971  0.50875911  0.99008318  1
  C  C3  1  0.00000000  0.00000000  0.00000000  1
