# generated using pymatgen
data_Cu21Ni4C5
_symmetry_space_group_name_H-M   'P 1'
_cell_length_a   5.38013100
_cell_length_b   7.48108100
_cell_length_c   42.16759800
_cell_angle_alpha   90.00000000
_cell_angle_beta   90.00000000
_cell_angle_gamma   90.00000000
_symmetry_Int_Tables_number   1
_chemical_formula_structural   Cu21Ni4C5
_chemical_formula_sum   'Cu84 Ni16 C20'
_cell_volume   1697.21190839
_cell_formula_units_Z   4
loop_
 _symmetry_equiv_pos_site_id
 _symmetry_equiv_pos_as_xyz
  1  'x, y, z'
loop_
 _atom_site_type_symbol
 _atom_site_label
 _atom_site_symmetry_multiplicity
 _atom_site_fract_x
 _atom_site_fract_y
 _atom_site_fract_z
 _atom_site_occupancy
  Ni  Ni0  1  0.74783500  0.98709100  0.35121800  1
  Ni  Ni1  1  0.67467700  0.99633700  0.51137500  1
  Ni  Ni2  1  0.25216500  0.48709100  0.14878200  1
  Ni  Ni3  1  0.76432700  0.01744900  0.11989600  1
  Ni  Ni4  1  0.74804100  0.21793700  0.23580700  1
  Ni  Ni5  1  0.23567300  0.51744900  0.38010400  1
  Ni  Ni6  1  0.75195900  0.78206300  0.73580700  1
  Ni  Ni7  1  0.75216500  0.01290900  0.85121800  1
  Ni  Ni8  1  0.24783500  0.51290900  0.64878200  1
  Ni  Ni9  1  0.24804100  0.28206300  0.76419300  1
  Ni  Ni10  1  0.26432700  0.48255100  0.88010400  1
  Ni  Ni11  1  0.73567300  0.98255100  0.61989600  1
  Ni  Ni12  1  0.32532300  0.49633700  0.98862500  1
  Ni  Ni13  1  0.17467700  0.50366300  0.48862500  1
  Ni  Ni14  1  0.25195900  0.71793700  0.26419300  1
  Ni  Ni15  1  0.82532300  0.00366300  0.01137500  1
  C  C16  1  0.23584800  0.98963400  0.68030500  1
  C  C17  1  0.76073400  0.68860600  0.19981900  1
  C  C18  1  0.23926600  0.18860600  0.30018100  1
  C  C19  1  0.33350100  0.20853000  0.06049500  1
  C  C20  1  0.26415200  0.01036600  0.18030500  1
  C  C21  1  0.26073400  0.81139400  0.80018100  1
  C  C22  1  0.73926600  0.31139400  0.69981900  1
  C  C23  1  0.66649900  0.70853000  0.43950500  1
  C  C24  1  0.83350100  0.29147000  0.93950500  1
  C  C25  1  0.16649900  0.79147000  0.56049500  1
  C  C26  1  0.76415200  0.48963400  0.81969500  1
  C  C27  1  0.73584800  0.51036600  0.31969500  1
  C  C28  1  0.18051900  0.27490800  0.56634600  1
  C  C29  1  0.68051900  0.22509200  0.43365400  1
  C  C30  1  0.29961000  0.99065700  0.92527100  1
  C  C31  1  0.31948100  0.72509200  0.06634600  1
  C  C32  1  0.81948100  0.77490800  0.93365400  1
  C  C33  1  0.70039000  0.49065700  0.57472900  1
  C  C34  1  0.20039000  0.00934300  0.42527100  1
  C  C35  1  0.79961000  0.50934300  0.07472900  1
  Cu  Cu36  1  0.98279800  0.99855100  0.56489400  1
  Cu  Cu37  1  0.86091000  0.68331900  0.55045100  1
  Cu  Cu38  1  0.46151400  0.18234700  0.68315100  1
  Cu  Cu39  1  0.49372900  0.68188600  0.10470100  1
  Cu  Cu40  1  0.10868000  0.86467400  0.38989900  1
  Cu  Cu41  1  0.26101100  0.92724800  0.83734700  1
  Cu  Cu42  1  0.89132000  0.36467400  0.11010100  1
  Cu  Cu43  1  0.44677300  0.91515600  0.56778300  1
  Cu  Cu44  1  0.46056100  0.35145100  0.31985100  1
  Cu  Cu45  1  0.53943900  0.85145100  0.18014900  1
  Cu  Cu46  1  0.51505600  0.69223900  0.32412900  1
  Cu  Cu47  1  0.18703400  0.84126100  0.51749400  1
  Cu  Cu48  1  0.66965600  0.73628100  0.97371400  1
  Cu  Cu49  1  0.55322700  0.41515600  0.93221700  1
  Cu  Cu50  1  0.39195600  0.26273500  0.10147800  1
  Cu  Cu51  1  0.64052900  0.66622800  0.04353800  1
  Cu  Cu52  1  0.50047800  0.55905100  0.21373300  1
  Cu  Cu53  1  0.22075900  0.98197800  0.72253800  1
  Cu  Cu54  1  0.13909000  0.18331900  0.94954900  1
  Cu  Cu55  1  0.72075900  0.51802200  0.27746200  1
  Cu  Cu56  1  0.96151400  0.31765300  0.31684900  1
  Cu  Cu57  1  0.51720200  0.00144900  0.06489400  1
  Cu  Cu58  1  0.50781700  0.33356500  0.82199800  1
  Cu  Cu59  1  0.03943900  0.64854900  0.81985100  1
  Cu  Cu60  1  0.33034400  0.23628100  0.52628600  1
  Cu  Cu61  1  0.01828500  0.03363100  0.28357100  1
  Cu  Cu62  1  0.51828500  0.46636900  0.71642900  1
  Cu  Cu63  1  0.25221700  0.97174200  0.13843600  1
  Cu  Cu64  1  0.10804400  0.73726500  0.60147800  1
  Cu  Cu65  1  0.48494400  0.19223900  0.17587100  1
  Cu  Cu66  1  0.49396400  0.29088400  0.59108300  1
  Cu  Cu67  1  0.74778300  0.47174200  0.36156400  1
  Cu  Cu68  1  0.26747800  0.66800600  0.76609900  1
  Cu  Cu69  1  0.35947100  0.16622800  0.45646200  1
  Cu  Cu70  1  0.81973700  0.91885400  0.44804700  1
  Cu  Cu71  1  0.63909000  0.31668100  0.05045100  1
  Cu  Cu72  1  0.99952200  0.44094900  0.71373300  1
  Cu  Cu73  1  0.89195600  0.23726500  0.89852200  1
  Cu  Cu74  1  0.23898900  0.07275200  0.33734700  1
  Cu  Cu75  1  0.50627100  0.18188600  0.39529900  1
  Cu  Cu76  1  0.73898900  0.42724800  0.66265300  1
  Cu  Cu77  1  0.01720200  0.49855100  0.93510600  1
  Cu  Cu78  1  0.01505600  0.80776100  0.67587100  1
  Cu  Cu79  1  0.05322700  0.08484400  0.06778300  1
  Cu  Cu80  1  0.27924100  0.01802200  0.22253800  1
  Cu  Cu81  1  0.81296600  0.34126100  0.98250600  1
  Cu  Cu82  1  0.73252200  0.16800600  0.73390100  1
  Cu  Cu83  1  0.18026300  0.41885400  0.05195300  1
  Cu  Cu84  1  0.75221700  0.52825800  0.86156400  1
  Cu  Cu85  1  0.76747800  0.83199400  0.23390100  1
  Cu  Cu86  1  0.68703400  0.65873900  0.48250600  1
  Cu  Cu87  1  0.00047800  0.94094900  0.78626700  1
  Cu  Cu88  1  0.99396400  0.20911600  0.40891700  1
  Cu  Cu89  1  0.39132000  0.13532600  0.88989900  1
  Cu  Cu90  1  0.68026300  0.08114600  0.94804700  1
  Cu  Cu91  1  0.00603600  0.70911600  0.09108300  1
  Cu  Cu92  1  0.00781700  0.16643500  0.17800200  1
  Cu  Cu93  1  0.96056100  0.14854900  0.68014900  1
  Cu  Cu94  1  0.85947100  0.33377200  0.54353800  1
  Cu  Cu95  1  0.76101100  0.57275200  0.16265300  1
  Cu  Cu96  1  0.49952200  0.05905100  0.28626700  1
  Cu  Cu97  1  0.14052900  0.83377200  0.95646200  1
  Cu  Cu98  1  0.36091000  0.81668100  0.44954900  1
  Cu  Cu99  1  0.60804400  0.76273500  0.39852200  1
  Cu  Cu100  1  0.03848600  0.81765300  0.18315100  1
  Cu  Cu101  1  0.99218300  0.66643500  0.32199800  1
  Cu  Cu102  1  0.99372900  0.81811400  0.89529900  1
  Cu  Cu103  1  0.48279800  0.50144900  0.43510600  1
  Cu  Cu104  1  0.00627100  0.31811400  0.60470100  1
  Cu  Cu105  1  0.31973700  0.58114600  0.55195300  1
  Cu  Cu106  1  0.49218300  0.83356500  0.67800200  1
  Cu  Cu107  1  0.77924100  0.48197800  0.77746200  1
  Cu  Cu108  1  0.83034400  0.26371900  0.47371400  1
  Cu  Cu109  1  0.24778300  0.02825800  0.63843600  1
  Cu  Cu110  1  0.98494400  0.30776100  0.82412900  1
  Cu  Cu111  1  0.98171500  0.53363100  0.21642900  1
  Cu  Cu112  1  0.31296600  0.15873900  0.01749400  1
  Cu  Cu113  1  0.94677300  0.58484400  0.43221700  1
  Cu  Cu114  1  0.16965600  0.76371900  0.02628600  1
  Cu  Cu115  1  0.53848600  0.68234700  0.81684900  1
  Cu  Cu116  1  0.48171500  0.96636900  0.78357100  1
  Cu  Cu117  1  0.60868000  0.63532600  0.61010100  1
  Cu  Cu118  1  0.50603600  0.79088400  0.90891700  1
  Cu  Cu119  1  0.23252200  0.33199400  0.26609900  1
