# generated using pymatgen
data_CuC
_symmetry_space_group_name_H-M   'P 1'
_cell_length_a   4.21624724
_cell_length_b   4.21624724
_cell_length_c   12.06115100
_cell_angle_alpha   90.00000000
_cell_angle_beta   90.00000000
_cell_angle_gamma   119.99998809
_symmetry_Int_Tables_number   1
_chemical_formula_structural   CuC
_chemical_formula_sum   'Cu4 C4'
_cell_volume   185.68275811
_cell_formula_units_Z   4
loop_
 _symmetry_equiv_pos_site_id
 _symmetry_equiv_pos_as_xyz
  1  'x, y, z'
loop_
 _atom_site_type_symbol
 _atom_site_label
 _atom_site_symmetry_multiplicity
 _atom_site_fract_x
 _atom_site_fract_y
 _atom_site_fract_z
 _atom_site_occupancy
  C  C0  1  0.00000000  0.00000000  0.50000000  1
  C  C1  1  0.00000000  0.00000000  0.25525600  1
  C  C2  1  0.00000000  0.00000000  0.74474400  1
  C  C3  1  0.00000000  0.00000000  0.00000000  1
  Cu  Cu4  1  0.29448676  0.63434374  0.88736283  1
  Cu  Cu5  1  0.33087818  0.67203980  0.38433617  1
  Cu  Cu6  1  0.70139317  0.37406383  0.12888169  1
  Cu  Cu7  1  0.68602794  0.38010096  0.62351812  1
