# generated using pymatgen
data_CuC4
_symmetry_space_group_name_H-M   'P 1'
_cell_length_a   5.91604642
_cell_length_b   5.91604642
_cell_length_c   5.04062021
_cell_angle_alpha   73.96329913
_cell_angle_beta   73.96329913
_cell_angle_gamma   59.31406730
_symmetry_Int_Tables_number   1
_chemical_formula_structural   CuC4
_chemical_formula_sum   'Cu3 C12'
_cell_volume   143.84674366
_cell_formula_units_Z   3
loop_
 _symmetry_equiv_pos_site_id
 _symmetry_equiv_pos_as_xyz
  1  'x, y, z'
loop_
 _atom_site_type_symbol
 _atom_site_label
 _atom_site_symmetry_multiplicity
 _atom_site_fract_x
 _atom_site_fract_y
 _atom_site_fract_z
 _atom_site_occupancy
  Cu  Cu0  1  0.77117254  0.74229949  0.51000858  1
  Cu  Cu1  1  0.05238298  0.49364449  0.96282492  1
  Cu  Cu2  1  0.51873616  0.01832460  0.00100494  1
  C  C3  1  0.75654300  0.24529500  0.50021000  1
  C  C4  1  0.24529500  0.75654300  0.50021000  1
  C  C5  1  0.49830300  0.49830300  0.00509900  1
  C  C6  1  0.00126500  0.00126500  0.99570800  1
  C  C7  1  0.84797900  0.36476500  0.77837800  1
  C  C8  1  0.36476500  0.84797900  0.77837800  1
  C  C9  1  0.61047000  0.61047000  0.25070200  1
  C  C10  1  0.10991600  0.10991600  0.24224200  1
  C  C11  1  0.88645800  0.88645800  0.74434800  1
  C  C12  1  0.39187200  0.39187200  0.76343700  1
  C  C13  1  0.65228000  0.13603600  0.22187600  1
  C  C14  1  0.13603600  0.65228000  0.22187600  1
