# generated using pymatgen
data_Cu7NiC12
_symmetry_space_group_name_H-M   'P 1'
_cell_length_a   4.61246900
_cell_length_b   8.82723700
_cell_length_c   8.92344827
_cell_angle_alpha   74.44783980
_cell_angle_beta   90.00000000
_cell_angle_gamma   90.00000000
_symmetry_Int_Tables_number   1
_chemical_formula_structural   Cu7NiC12
_chemical_formula_sum   'Cu7 Ni1 C12'
_cell_volume   350.01901257
_cell_formula_units_Z   1
loop_
 _symmetry_equiv_pos_site_id
 _symmetry_equiv_pos_as_xyz
  1  'x, y, z'
loop_
 _atom_site_type_symbol
 _atom_site_label
 _atom_site_symmetry_multiplicity
 _atom_site_fract_x
 _atom_site_fract_y
 _atom_site_fract_z
 _atom_site_occupancy
  Ni  Ni0  1  0.79524200  0.37956100  0.08488300  1
  Cu  Cu1  1  0.30473940  0.61792985  0.93806422  1
  Cu  Cu2  1  0.92585947  0.10679515  0.88720650  1
  Cu  Cu3  1  0.44935412  0.86712250  0.10825186  1
  Cu  Cu4  1  0.42021609  0.38111624  0.59690641  1
  Cu  Cu5  1  0.88909155  0.57613501  0.38155874  1
  Cu  Cu6  1  0.36154133  0.14606416  0.42407129  1
  Cu  Cu7  1  0.85514517  0.85884899  0.53091759  1
  C  C8  1  0.67443100  0.56641500  0.95356800  1
  C  C9  1  0.17443100  0.43358500  0.04643200  1
  C  C10  1  0.73733300  0.26009200  0.94987700  1
  C  C11  1  0.23733300  0.73990800  0.05012300  1
  C  C12  1  0.64403100  0.96564300  0.92250800  1
  C  C13  1  0.14403100  0.03435700  0.07749200  1
  C  C14  1  0.74022700  0.51869000  0.57757800  1
  C  C15  1  0.24022700  0.48131000  0.42242200  1
  C  C16  1  0.54801600  0.22751400  0.57006400  1
  C  C17  1  0.04801600  0.77248600  0.42993600  1
  C  C18  1  0.18646300  0.98115700  0.59036200  1
  C  C19  1  0.68646300  0.01884300  0.40963800  1
