# generated using pymatgen
data_Cu4NiC7
_symmetry_space_group_name_H-M   'P 1'
_cell_length_a   8.29028900
_cell_length_b   10.69011100
_cell_length_c   9.03090813
_cell_angle_alpha   90.00000000
_cell_angle_beta   113.19382790
_cell_angle_gamma   90.00000000
_symmetry_Int_Tables_number   1
_chemical_formula_structural   Cu4NiC7
_chemical_formula_sum   'Cu8 Ni2 C14'
_cell_volume   735.66962030
_cell_formula_units_Z   2
loop_
 _symmetry_equiv_pos_site_id
 _symmetry_equiv_pos_as_xyz
  1  'x, y, z'
loop_
 _atom_site_type_symbol
 _atom_site_label
 _atom_site_symmetry_multiplicity
 _atom_site_fract_x
 _atom_site_fract_y
 _atom_site_fract_z
 _atom_site_occupancy
  C  C0  1  0.92434900  0.18246400  0.32885200  1
  C  C1  1  0.07565100  0.68246400  0.67114800  1
  C  C2  1  0.94895200  0.66808400  0.35542900  1
  C  C3  1  0.05104800  0.16808400  0.64457100  1
  C  C4  1  0.49744900  0.18059100  0.98477200  1
  C  C5  1  0.50255100  0.68059100  0.01522800  1
  C  C6  1  0.80513700  0.43205100  0.01985300  1
  C  C7  1  0.19486300  0.93205100  0.98014700  1
  C  C8  1  0.50300600  0.43108700  0.50984900  1
  C  C9  1  0.49699400  0.93108700  0.49015100  1
  C  C10  1  0.80256300  0.20433700  0.02905600  1
  C  C11  1  0.19743700  0.70433700  0.97094400  1
  C  C12  1  0.19404100  0.15748800  0.94449900  1
  C  C13  1  0.80595900  0.65748800  0.05550100  1
  Cu  Cu14  1  0.85025165  0.92178009  0.69539251  1
  Ni  Ni15  1  0.16220400  0.42362100  0.31005100  1
  Cu  Cu16  1  0.86146731  0.42670991  0.71791841  1
  Cu  Cu17  1  0.14725333  0.93343990  0.29187242  1
  Cu  Cu18  1  0.41509692  0.44820570  0.77806949  1
  Cu  Cu19  1  0.61030184  0.95515222  0.23122126  1
  Cu  Cu20  1  0.58790183  0.39584782  0.26423584  1
  Cu  Cu21  1  0.42080510  0.91930240  0.74018668  1
  Cu  Cu22  1  0.49836200  0.18921654  0.55561462  1
  Ni  Ni23  1  0.50098600  0.68521700  0.43214900  1
