# generated using pymatgen
data_CuC2
_symmetry_space_group_name_H-M   'P 1'
_cell_length_a   9.47037669
_cell_length_b   9.47037669
_cell_length_c   6.26120700
_cell_angle_alpha   90.00000000
_cell_angle_beta   90.00000000
_cell_angle_gamma   120.00000484
_symmetry_Int_Tables_number   1
_chemical_formula_structural   CuC2
_chemical_formula_sum   'Cu6 C12'
_cell_volume   486.32117566
_cell_formula_units_Z   6
loop_
 _symmetry_equiv_pos_site_id
 _symmetry_equiv_pos_as_xyz
  1  'x, y, z'
loop_
 _atom_site_type_symbol
 _atom_site_label
 _atom_site_symmetry_multiplicity
 _atom_site_fract_x
 _atom_site_fract_y
 _atom_site_fract_z
 _atom_site_occupancy
  Cu  Cu0  1  0.62679279  0.01692423  0.79538624  1
  Cu  Cu1  1  0.38864739  0.97806310  0.24775720  1
  Cu  Cu2  1  0.98767005  0.63081638  0.80452415  1
  Cu  Cu3  1  0.99829086  0.39360764  0.25808201  1
  Cu  Cu4  1  0.38159395  0.34651008  0.75813837  1
  Cu  Cu5  1  0.64139540  0.61163384  0.28621222  1
  C  C6  1  0.00000000  0.00000000  0.50000000  1
  C  C7  1  0.00000000  0.00000000  0.00000000  1
  C  C8  1  0.26116400  0.00000000  0.75000000  1
  C  C9  1  0.73883600  0.00000000  0.25000000  1
  C  C10  1  0.00000000  0.26116400  0.75000000  1
  C  C11  1  0.00000000  0.73883600  0.25000000  1
  C  C12  1  0.73883600  0.73883600  0.75000000  1
  C  C13  1  0.26116400  0.26116400  0.25000000  1
  C  C14  1  0.33333300  0.66666700  0.50000000  1
  C  C15  1  0.66666700  0.33333300  0.50000000  1
  C  C16  1  0.66666700  0.33333300  0.00000000  1
  C  C17  1  0.33333300  0.66666700  0.00000000  1
