# generated using pymatgen
data_CuC14
_symmetry_space_group_name_H-M   'P 1'
_cell_length_a   3.66441743
_cell_length_b   4.16301638
_cell_length_c   15.16418295
_cell_angle_alpha   90.00000000
_cell_angle_beta   90.00000000
_cell_angle_gamma   90.00000000
_symmetry_Int_Tables_number   1
_chemical_formula_structural   CuC14
_chemical_formula_sum   'Cu1 C14'
_cell_volume   231.33006256
_cell_formula_units_Z   1
loop_
 _symmetry_equiv_pos_site_id
 _symmetry_equiv_pos_as_xyz
  1  'x, y, z'
loop_
 _atom_site_type_symbol
 _atom_site_label
 _atom_site_symmetry_multiplicity
 _atom_site_fract_x
 _atom_site_fract_y
 _atom_site_fract_z
 _atom_site_occupancy
  C  C0  1  0.50000000  0.50000000  0.10323912  1
  C  C1  1  0.50000000  0.50000000  0.83381743  1
  Cu  Cu2  1  0.52129020  0.48051333  0.58002055  1
  C  C3  1  0.50000000  0.50000000  0.38342609  1
  C  C4  1  0.00000000  0.00000000  0.28190901  1
  C  C5  1  0.00000000  0.00000000  0.95509929  1
  C  C6  1  0.00000000  0.00000000  0.69091810  1
  C  C7  1  0.00000000  0.50000000  0.45362921  1
  C  C8  1  0.50000000  0.00000000  0.33498344  1
  C  C9  1  0.50000000  0.00000000  0.98524402  1
  C  C10  1  0.00000000  0.00000000  0.15951586  1
  C  C11  1  0.00000000  0.50000000  0.66471611  1
  C  C12  1  0.50000000  0.00000000  0.62100456  1
  C  C13  1  0.00000000  0.00000000  0.82371933  1
  C  C14  1  0.00000000  0.50000000  0.96635618  1
