# generated using pymatgen
data_Cu3C5
_symmetry_space_group_name_H-M   'P 1'
_cell_length_a   3.30149600
_cell_length_b   3.30149600
_cell_length_c   8.97960800
_cell_angle_alpha   90.00000000
_cell_angle_beta   90.00000000
_cell_angle_gamma   90.00000000
_symmetry_Int_Tables_number   1
_chemical_formula_structural   Cu3C5
_chemical_formula_sum   'Cu3 C5'
_cell_volume   97.87661227
_cell_formula_units_Z   1
loop_
 _symmetry_equiv_pos_site_id
 _symmetry_equiv_pos_as_xyz
  1  'x, y, z'
loop_
 _atom_site_type_symbol
 _atom_site_label
 _atom_site_symmetry_multiplicity
 _atom_site_fract_x
 _atom_site_fract_y
 _atom_site_fract_z
 _atom_site_occupancy
  C  C0  1  0.00000000  0.00000000  0.00000000  1
  Cu  Cu1  1  0.52534591  0.51611580  0.73884510  1
  Cu  Cu2  1  0.06179902  0.01899406  0.49402350  1
  Cu  Cu3  1  0.53315523  0.52904817  0.27305021  1
  C  C4  1  0.00000000  0.00000000  0.27498400  1
  C  C5  1  0.50000000  0.50000000  0.00000000  1
  C  C6  1  0.00000000  0.00000000  0.72501600  1
  C  C7  1  0.50000000  0.50000000  0.50000000  1
