# generated using pymatgen
data_CuC18
_symmetry_space_group_name_H-M   'P 1'
_cell_length_a   4.99124849
_cell_length_b   4.94601792
_cell_length_c   8.81762590
_cell_angle_alpha   89.82872874
_cell_angle_beta   90.23934461
_cell_angle_gamma   101.36166316
_symmetry_Int_Tables_number   1
_chemical_formula_structural   CuC18
_chemical_formula_sum   'Cu1 C18'
_cell_volume   213.41081339
_cell_formula_units_Z   1
loop_
 _symmetry_equiv_pos_site_id
 _symmetry_equiv_pos_as_xyz
  1  'x, y, z'
loop_
 _atom_site_type_symbol
 _atom_site_label
 _atom_site_symmetry_multiplicity
 _atom_site_fract_x
 _atom_site_fract_y
 _atom_site_fract_z
 _atom_site_occupancy
  Cu  Cu0  1  0.99101728  0.49794391  0.65859072  1
  C  C1  1  0.01394930  0.97410403  0.99753794  1
  C  C2  1  0.01219119  0.97235174  0.33504829  1
  C  C3  1  0.04983102  0.01356539  0.67061779  1
  C  C4  1  0.52530072  0.46330221  0.16664490  1
  C  C5  1  0.43427231  0.54263171  0.85291944  1
  C  C6  1  0.42196973  0.55586226  0.47741946  1
  C  C7  1  0.16264453  0.79678306  0.82170591  1
  C  C8  1  0.15784266  0.80149608  0.51736511  1
  C  C9  1  0.30325485  0.27798268  0.32030629  1
  C  C10  1  0.31015206  0.28072838  0.00318874  1
  C  C11  1  0.31344535  0.33568779  0.67351826  1
  C  C12  1  0.68877252  0.68788282  0.00024484  1
  C  C13  1  0.70242284  0.68845502  0.32625425  1
  C  C14  1  0.17957991  0.79457912  0.16321008  1
  C  C15  1  0.69239783  0.73795001  0.67262195  1
  C  C16  1  0.82537130  0.16540359  0.16003666  1
  C  C17  1  0.85720133  0.19895830  0.82062220  1
  C  C18  1  0.86263567  0.19920264  0.51713139  1
