# generated using pymatgen
data_Cu3Ni5C7
_symmetry_space_group_name_H-M   'P 1'
_cell_length_a   5.89264243
_cell_length_b   10.37644510
_cell_length_c   5.92048357
_cell_angle_alpha   106.57221962
_cell_angle_beta   59.84557763
_cell_angle_gamma   106.50032656
_symmetry_Int_Tables_number   1
_chemical_formula_structural   Cu3Ni5C7
_chemical_formula_sum   'Cu6 Ni10 C14'
_cell_volume   295.65709190
_cell_formula_units_Z   2
loop_
 _symmetry_equiv_pos_site_id
 _symmetry_equiv_pos_as_xyz
  1  'x, y, z'
loop_
 _atom_site_type_symbol
 _atom_site_label
 _atom_site_symmetry_multiplicity
 _atom_site_fract_x
 _atom_site_fract_y
 _atom_site_fract_z
 _atom_site_occupancy
  C  C0  1  0.00104500  0.99991600  0.49944000  1
  C  C1  1  0.49898700  0.50008500  0.00047800  1
  C  C2  1  0.49872700  0.00026000  0.50150200  1
  C  C3  1  0.00127200  0.49972300  0.99845400  1
  C  C4  1  0.49876600  0.00028500  0.99999500  1
  C  C5  1  0.00119900  0.49971200  0.49999600  1
  C  C6  1  0.74997800  0.25000600  0.75003400  1
  C  C7  1  0.25000700  0.75000300  0.24999800  1
  C  C8  1  0.74999600  0.75003300  0.25002700  1
  C  C9  1  0.75000200  0.74997700  0.75000300  1
  C  C10  1  0.75009500  0.25001100  0.24992500  1
  C  C11  1  0.24995900  0.25000200  0.74996600  1
  C  C12  1  0.24993800  0.25000500  0.24999100  1
  C  C13  1  0.25002300  0.75001800  0.74997700  1
  Ni  Ni14  1  0.12081400  0.36217500  0.12066700  1
  Ni  Ni15  1  0.62211800  0.86218600  0.61999100  1
  Cu  Cu16  1  0.39223257  0.13797459  0.36347436  1
  Ni  Ni17  1  0.87781800  0.63781100  0.88002900  1
  Ni  Ni18  1  0.62666000  0.35755500  0.10389900  1
  Cu  Cu19  1  0.15601000  0.85767930  0.56910123  1
  Ni  Ni20  1  0.62660100  0.35754300  0.62697000  1
  Cu  Cu21  1  0.11946876  0.84254940  0.11578902  1
  Ni  Ni22  1  0.10705400  0.35717900  0.62504100  1
  Ni  Ni23  1  0.60358500  0.85677400  0.12664700  1
  Cu  Cu24  1  0.40687208  0.14444308  0.85398570  1
  Ni  Ni25  1  0.89633400  0.64322300  0.37350500  1
  Cu  Cu26  1  0.93598833  0.14074738  0.84651711  1
  Cu  Cu27  1  0.36112298  0.63458595  0.37507445  1
  Ni  Ni28  1  0.87350100  0.14243100  0.39592300  1
  Ni  Ni29  1  0.37288300  0.64191200  0.89445400  1
