# generated using pymatgen
data_Cu11NiC15
_symmetry_space_group_name_H-M   'P 1'
_cell_length_a   6.65802800
_cell_length_b   10.54616200
_cell_length_c   14.12099000
_cell_angle_alpha   90.00000000
_cell_angle_beta   90.00000000
_cell_angle_gamma   90.00000000
_symmetry_Int_Tables_number   1
_chemical_formula_structural   Cu11NiC15
_chemical_formula_sum   'Cu44 Ni4 C60'
_cell_volume   991.52849794
_cell_formula_units_Z   4
loop_
 _symmetry_equiv_pos_site_id
 _symmetry_equiv_pos_as_xyz
  1  'x, y, z'
loop_
 _atom_site_type_symbol
 _atom_site_label
 _atom_site_symmetry_multiplicity
 _atom_site_fract_x
 _atom_site_fract_y
 _atom_site_fract_z
 _atom_site_occupancy
  C  C0  1  0.36996500  0.98251600  0.20490800  1
  C  C1  1  0.86996500  0.01748400  0.79509200  1
  C  C2  1  0.86996500  0.48251600  0.29509200  1
  C  C3  1  0.36996500  0.51748400  0.70490800  1
  Ni  Ni4  1  0.17945400  0.06617800  0.41897800  1
  Cu  Cu5  1  0.73755427  0.25187429  0.94440539  1
  Cu  Cu6  1  0.05519699  0.73646526  0.18976976  1
  Ni  Ni7  1  0.68240400  0.73801100  0.19022700  1
  Ni  Ni8  1  0.67945400  0.56617800  0.08102200  1
  Cu  Cu9  1  0.69686532  0.77783011  0.69155401  1
  Cu  Cu10  1  0.25596736  0.75719661  0.05045767  1
  Cu  Cu11  1  0.08468478  0.54743718  0.08877742  1
  Cu  Cu12  1  0.87718583  0.90513090  0.25641370  1
  Cu  Cu13  1  0.53564233  0.29281773  0.80445659  1
  Cu  Cu14  1  0.69739040  0.93458127  0.57663030  1
  Cu  Cu15  1  0.86256393  0.59110631  0.74095275  1
  Cu  Cu16  1  0.19780905  0.73538069  0.30804261  1
  Cu  Cu17  1  0.66053268  0.27216554  0.69309129  1
  Cu  Cu18  1  0.05042330  0.58301819  0.88268873  1
  Cu  Cu19  1  0.99759862  0.25727379  0.46127207  1
  Cu  Cu20  1  0.89107832  0.47396460  0.64510851  1
  Cu  Cu21  1  0.52801190  0.43117371  0.92123340  1
  Cu  Cu22  1  0.18611489  0.08207406  0.60317776  1
  Cu  Cu23  1  0.19314527  0.42464565  0.91926026  1
  Cu  Cu24  1  0.36412726  0.95643272  0.85535822  1
  Cu  Cu25  1  0.68514232  0.91828654  0.39038341  1
  Cu  Cu26  1  0.36409408  0.07808121  0.76075465  1
  Cu  Cu27  1  0.35206169  0.52865673  0.34417335  1
  Cu  Cu28  1  0.85614152  0.03098735  0.14705245  1
  Ni  Ni29  1  0.55893500  0.72471100  0.30292000  1
  Cu  Cu30  1  0.21831384  0.75654097  0.54875508  1
  Cu  Cu31  1  0.34899623  0.40930360  0.24890098  1
  Cu  Cu32  1  0.16515861  0.24265887  0.30288594  1
  Cu  Cu33  1  0.52826542  0.08591752  0.61538386  1
  Cu  Cu34  1  0.03902449  0.93324501  0.39467197  1
  Cu  Cu35  1  0.73859930  0.26799389  0.44776799  1
  Cu  Cu36  1  0.59131401  0.07696262  0.41999827  1
  Cu  Cu37  1  0.67038224  0.58027950  0.89006119  1
  Cu  Cu38  1  0.55539618  0.77864428  0.81022016  1
  Cu  Cu39  1  0.16780258  0.43373293  0.10621481  1
  Cu  Cu40  1  0.50836000  0.42843542  0.10485756  1
  Cu  Cu41  1  0.49096992  0.73336843  0.54243808  1
  Cu  Cu42  1  0.08992728  0.76676707  0.70101430  1
  Cu  Cu43  1  0.19048335  0.25483471  0.80845069  1
  Cu  Cu44  1  0.54100478  0.23081478  0.31146226  1
  Cu  Cu45  1  0.47168231  0.75536018  0.04024443  1
  Cu  Cu46  1  0.98601155  0.24847614  0.95245092  1
  Cu  Cu47  1  0.04937696  0.28400515  0.70524741  1
  Cu  Cu48  1  0.68561604  0.21532196  0.19548100  1
  Cu  Cu49  1  0.03081893  0.23112234  0.19277732  1
  Cu  Cu50  1  0.02980918  0.92677387  0.59021469  1
  Cu  Cu51  1  0.19340484  0.78201405  0.80176257  1
  C  C52  1  0.37079300  0.99194000  0.76489200  1
  C  C53  1  0.37079300  0.50806000  0.26489200  1
  C  C54  1  0.86480700  0.28127100  0.91796100  1
  C  C55  1  0.86480700  0.21872900  0.41796100  1
  C  C56  1  0.36480700  0.71872900  0.08203900  1
  C  C57  1  0.18705800  0.97175800  0.61821200  1
  C  C58  1  0.18982800  0.80041000  0.73109100  1
  C  C59  1  0.68982800  0.19959000  0.26890900  1
  C  C60  1  0.05142800  0.19951800  0.27241000  1
  C  C61  1  0.54532300  0.52754600  0.11584300  1
  C  C62  1  0.87079300  0.49194000  0.73510800  1
  C  C63  1  0.68705800  0.47175800  0.88178800  1
  C  C64  1  0.04532300  0.02754600  0.38415700  1
  C  C65  1  0.68705800  0.02824200  0.38178800  1
  C  C66  1  0.68982800  0.30041000  0.76890900  1
  C  C67  1  0.55142800  0.69951800  0.22759000  1
  C  C68  1  0.55142800  0.80048200  0.72759000  1
  C  C69  1  0.04532300  0.47245400  0.88415700  1
  C  C70  1  0.36480700  0.78127100  0.58203900  1
  C  C71  1  0.18705800  0.52824200  0.11821200  1
  C  C72  1  0.18982800  0.69959000  0.23109100  1
  C  C73  1  0.87079300  0.00806000  0.23510800  1
  C  C74  1  0.54532300  0.97245400  0.61584300  1
  C  C75  1  0.05142800  0.30048200  0.77241000  1
  C  C76  1  0.68469400  0.05969600  0.27857700  1
  C  C77  1  0.36497900  0.58041900  0.07117800  1
  C  C78  1  0.86497900  0.41958100  0.92882200  1
  C  C79  1  0.87692600  0.63473200  0.47834300  1
  C  C80  1  0.05447200  0.05937500  0.28108700  1
  C  C81  1  0.55447200  0.94062500  0.71891300  1
  C  C82  1  0.87692600  0.86526800  0.97834300  1
  C  C83  1  0.18469400  0.94030400  0.72142300  1
  C  C84  1  0.68469400  0.44030400  0.77857700  1
  C  C85  1  0.86866700  0.24424300  0.81549100  1
  C  C86  1  0.86866700  0.25575700  0.31549100  1
  C  C87  1  0.55447200  0.55937500  0.21891300  1
  C  C88  1  0.36866700  0.74424300  0.68450900  1
  C  C89  1  0.36497900  0.91958100  0.57117800  1
  C  C90  1  0.05447200  0.44062500  0.78108700  1
  C  C91  1  0.36866700  0.75575700  0.18450900  1
  C  C92  1  0.86497900  0.08041900  0.42882200  1
  C  C93  1  0.37692600  0.36526800  0.52165700  1
  C  C94  1  0.18469400  0.55969600  0.22142300  1
  C  C95  1  0.37692600  0.13473200  0.02165700  1
  C  C96  1  0.36186500  0.31031600  0.60238800  1
  C  C97  1  0.40106100  0.01587100  0.01825100  1
  C  C98  1  0.90106100  0.98412900  0.98174900  1
  C  C99  1  0.36808600  0.29954200  0.44674300  1
  C  C100  1  0.86808600  0.79954200  0.05325700  1
  C  C101  1  0.86186500  0.81031600  0.89761200  1
  C  C102  1  0.86808600  0.70045800  0.55325700  1
  C  C103  1  0.36808600  0.20045800  0.94674300  1
  C  C104  1  0.86186500  0.68968400  0.39761200  1
  C  C105  1  0.90106100  0.51587100  0.48174900  1
  C  C106  1  0.36186500  0.18968400  0.10238800  1
  C  C107  1  0.40106100  0.48412900  0.51825100  1
