# generated using pymatgen
data_Cu2C5
_symmetry_space_group_name_H-M   'P 1'
_cell_length_a   5.89458800
_cell_length_b   5.89458300
_cell_length_c   8.58897100
_cell_angle_alpha   89.99975453
_cell_angle_beta   89.99945833
_cell_angle_gamma   90.00163297
_symmetry_Int_Tables_number   1
_chemical_formula_structural   Cu2C5
_chemical_formula_sum   'Cu8 C20'
_cell_volume   298.43357346
_cell_formula_units_Z   4
loop_
 _symmetry_equiv_pos_site_id
 _symmetry_equiv_pos_as_xyz
  1  'x, y, z'
loop_
 _atom_site_type_symbol
 _atom_site_label
 _atom_site_symmetry_multiplicity
 _atom_site_fract_x
 _atom_site_fract_y
 _atom_site_fract_z
 _atom_site_occupancy
  Cu  Cu0  1  0.26139980  0.25105515  0.40319168  1
  Cu  Cu1  1  0.25229031  0.76751047  0.10900644  1
  Cu  Cu2  1  0.77652515  0.23109634  0.62136197  1
  Cu  Cu3  1  0.75257353  0.73506582  0.87485680  1
  Cu  Cu4  1  0.29838071  0.45194849  0.75893003  1
  Cu  Cu5  1  0.47785225  0.25871935  0.98816470  1
  Cu  Cu6  1  0.49262226  0.72884021  0.47010027  1
  Cu  Cu7  1  0.68297922  0.48801125  0.26407174  1
  C  C8  1  0.24037300  0.98323100  0.76129600  1
  C  C9  1  0.75962200  0.01677100  0.26129500  1
  C  C10  1  0.01676800  0.24038000  0.01129600  1
  C  C11  1  0.98323400  0.75961600  0.51129700  1
  C  C12  1  0.02800600  0.77272700  0.73219000  1
  C  C13  1  0.22726400  0.02801200  0.98218800  1
  C  C14  1  0.77273800  0.97198200  0.48218700  1
  C  C15  1  0.97199000  0.22727300  0.23218700  1
  C  C16  1  0.01050800  0.25813100  0.76024100  1
  C  C17  1  0.25813500  0.98948400  0.51024100  1
  C  C18  1  0.74185500  0.01051900  0.01024100  1
  C  C19  1  0.98949000  0.74186800  0.26023700  1
  C  C20  1  0.24817100  0.49158700  0.99558900  1
  C  C21  1  0.49158300  0.75184200  0.74559200  1
  C  C22  1  0.50841900  0.24816700  0.24559400  1
  C  C23  1  0.75183900  0.50840800  0.49559000  1
  C  C24  1  0.23305200  0.53011600  0.50010600  1
  C  C25  1  0.46987300  0.23305100  0.75010100  1
  C  C26  1  0.53012900  0.76694800  0.25010700  1
  C  C27  1  0.76695700  0.46988200  0.00009900  1
