# generated using pymatgen
data_Cu51Ni5C44
_symmetry_space_group_name_H-M   'P 1'
_cell_length_a   14.60678966
_cell_length_b   14.60678966
_cell_length_c   14.60678966
_cell_angle_alpha   117.98832883
_cell_angle_beta   117.98832883
_cell_angle_gamma   93.52112839
_symmetry_Int_Tables_number   1
_chemical_formula_structural   Cu51Ni5C44
_chemical_formula_sum   'Cu51 Ni5 C44'
_cell_volume   2266.06122561
_cell_formula_units_Z   1
loop_
 _symmetry_equiv_pos_site_id
 _symmetry_equiv_pos_as_xyz
  1  'x, y, z'
loop_
 _atom_site_type_symbol
 _atom_site_label
 _atom_site_symmetry_multiplicity
 _atom_site_fract_x
 _atom_site_fract_y
 _atom_site_fract_z
 _atom_site_occupancy
  C  C0  1  0.29352400  0.14422100  0.59256100  1
  C  C1  1  0.67605000  0.04962600  0.36083500  1
  C  C2  1  0.85577900  0.44834000  0.14930300  1
  C  C3  1  0.79352400  0.20096300  0.14930300  1
  C  C4  1  0.86441500  0.63558500  0.50000000  1
  C  C5  1  0.57395000  0.43478500  0.87357500  1
  C  C6  1  0.45647600  0.10577900  0.90743900  1
  C  C7  1  0.05166000  0.64422100  0.85069700  1
  C  C8  1  0.45096300  0.54352400  0.64930300  1
  C  C9  1  0.95647600  0.04903700  0.35069700  1
  C  C10  1  0.39422100  0.04352400  0.09256100  1
  C  C11  1  0.55166000  0.70096300  0.40743900  1
  C  C12  1  0.68478500  0.32395000  0.37357500  1
  C  C13  1  0.18478500  0.81121000  0.36083500  1
  C  C14  1  0.29903700  0.70647600  0.85069700  1
  C  C15  1  0.13558500  0.36441500  0.50000000  1
  C  C16  1  0.95037400  0.31121000  0.62642500  1
  C  C17  1  0.45037400  0.82395000  0.63916500  1
  C  C18  1  0.06521500  0.92605000  0.12642500  1
  C  C19  1  0.63558500  0.13558500  0.77117000  1
  C  C20  1  0.11441500  0.11441500  0.72883000  1
  C  C21  1  0.36441500  0.86441500  0.22883000  1
  C  C22  1  0.06121000  0.93478500  0.86083500  1
  C  C23  1  0.56521500  0.43879000  0.13916500  1
  C  C24  1  0.61441500  0.88558500  0.00000000  1
  C  C25  1  0.18879000  0.54962600  0.37357500  1
  C  C26  1  0.79903700  0.94834000  0.59256100  1
  C  C27  1  0.89422100  0.80166000  0.35069700  1
  C  C28  1  0.88558500  0.61441500  0.00000000  1
  C  C29  1  0.95096300  0.30166000  0.90743900  1
  C  C30  1  0.56121000  0.70037400  0.12642500  1
  C  C31  1  0.68879000  0.31521500  0.63916500  1
  C  C32  1  0.29962600  0.42605000  0.86083500  1
  C  C33  1  0.17605000  0.81521500  0.62642500  1
  C  C34  1  0.19834000  0.54903700  0.09256100  1
  C  C35  1  0.07395000  0.20037400  0.13916500  1
  C  C36  1  0.35577900  0.20647600  0.40743900  1
  C  C37  1  0.79962600  0.93879000  0.87357500  1
  C  C38  1  0.69834000  0.60577900  0.64930300  1
  C  C39  1  0.38558500  0.38558500  0.27117000  1
  Cu  Cu40  1  0.29751566  0.64237942  0.01898616  1
  Cu  Cu41  1  0.92741804  0.08804847  0.55796178  1
  Cu  Cu42  1  0.80044418  0.43384777  0.30217460  1
  Cu  Cu43  1  0.11111760  0.22914604  0.59358633  1
  Cu  Cu44  1  0.76501598  0.61723323  0.12128016  1
  Cu  Cu45  1  0.61782231  0.90605824  0.62428167  1
  Cu  Cu46  1  0.12436625  0.48663076  0.70847503  1
  Cu  Cu47  1  0.74077970  0.88360644  0.21609054  1
  Cu  Cu48  1  0.47000921  0.25388918  0.14062521  1
  Cu  Cu49  1  0.18918263  0.85233598  0.99782069  1
  Cu  Cu50  1  0.62069513  0.03336515  0.90324517  1
  Ni  Ni51  1  0.27490100  0.99140700  0.35980400  1
  Cu  Cu52  1  0.98384060  0.63137445  0.38042925  1
  Ni  Ni53  1  0.97810200  0.87500000  0.60310200  1
  Cu  Cu54  1  0.96585040  0.84807562  0.22087165  1
  Cu  Cu55  1  0.26533158  0.38085465  0.40541651  1
  Cu  Cu56  1  0.99524543  0.08520433  0.82112226  1
  Cu  Cu57  1  0.89416252  0.23319504  0.39092752  1
  Cu  Cu58  1  0.83890510  0.19479040  0.95531877  1
  Cu  Cu59  1  0.17276082  0.39399541  0.15710042  1
  Cu  Cu60  1  0.75656409  0.13410326  0.64946325  1
  Cu  Cu61  1  0.47684543  0.09677936  0.33328340  1
  Ni  Ni62  1  0.25379600  0.59754200  0.60789500  1
  Cu  Cu63  1  0.94544292  0.47756885  0.84788576  1
  Cu  Cu64  1  0.34661172  0.73238767  0.34528646  1
  Ni  Ni65  1  0.62500000  0.52189800  0.39689800  1
  Cu  Cu66  1  0.39871002  0.88736662  0.83469132  1
  Cu  Cu67  1  0.76758148  0.38223446  0.90868327  1
  Cu  Cu68  1  0.86841925  0.50039099  0.60721019  1
  Cu  Cu69  1  0.05967178  0.71176461  0.69770984  1
  Cu  Cu70  1  0.12367714  0.95446878  0.53123504  1
  Cu  Cu71  1  0.23173494  0.01631818  0.85733111  1
  Cu  Cu72  1  0.48246884  0.87879059  0.09806513  1
  Cu  Cu73  1  0.12021668  0.73456933  0.09089497  1
  Cu  Cu74  1  0.13753040  0.16232494  0.34817315  1
  Cu  Cu75  1  0.39369638  0.50092375  0.14891840  1
  Cu  Cu76  1  0.34276745  0.37332350  0.65106089  1
  Cu  Cu77  1  0.88806310  0.74686019  0.89924169  1
  Cu  Cu78  1  0.51260599  0.23207494  0.65486945  1
  Cu  Cu79  1  0.28212644  0.16434743  0.15872539  1
  Cu  Cu80  1  0.11808149  0.35376413  0.87456981  1
  Cu  Cu81  1  0.64671369  0.51986918  0.76404815  1
  Cu  Cu82  1  0.80314483  0.78279122  0.65031645  1
  Cu  Cu83  1  0.03559006  0.56249181  0.14648598  1
  Cu  Cu84  1  0.85896534  0.00575689  0.12156883  1
  Cu  Cu85  1  0.60366974  0.76481493  0.78338344  1
  Cu  Cu86  1  0.99975482  0.36742120  0.27743515  1
  Cu  Cu87  1  0.72174878  0.69153854  0.34244640  1
  Cu  Cu88  1  0.50544564  0.65731963  0.88801610  1
  Cu  Cu89  1  0.39706497  0.02111885  0.66139583  1
  Cu  Cu90  1  0.33583952  0.19590876  0.81057559  1
  Cu  Cu91  1  0.44323380  0.59899881  0.47124052  1
  Cu  Cu92  1  0.62033649  0.11305401  0.16745631  1
  Ni  Ni93  1  0.58490300  0.86839700  0.35980400  1
  Cu  Cu94  1  0.63438418  0.29663900  0.99672135  1
  Cu  Cu95  1  0.53845908  0.36179076  0.46979082  1
  C  C96  1  0.00000000  0.00000000  0.00000000  1
  C  C97  1  0.75000000  0.25000000  0.50000000  1
  C  C98  1  0.50000000  0.50000000  0.00000000  1
  C  C99  1  0.25000000  0.75000000  0.50000000  1
