# generated using pymatgen
data_CuNi2C5
_symmetry_space_group_name_H-M   'P 1'
_cell_length_a   6.02014600
_cell_length_b   6.92076900
_cell_length_c   10.78953700
_cell_angle_alpha   90.00000000
_cell_angle_beta   90.00000000
_cell_angle_gamma   90.00000000
_symmetry_Int_Tables_number   1
_chemical_formula_structural   CuNi2C5
_chemical_formula_sum   'Cu4 Ni8 C20'
_cell_volume   449.53569912
_cell_formula_units_Z   4
loop_
 _symmetry_equiv_pos_site_id
 _symmetry_equiv_pos_as_xyz
  1  'x, y, z'
loop_
 _atom_site_type_symbol
 _atom_site_label
 _atom_site_symmetry_multiplicity
 _atom_site_fract_x
 _atom_site_fract_y
 _atom_site_fract_z
 _atom_site_occupancy
  Ni  Ni0  1  0.60931300  0.25000000  0.50000000  1
  Ni  Ni1  1  0.60931300  0.25000000  0.00000000  1
  Ni  Ni2  1  0.39068700  0.75000000  0.50000000  1
  Ni  Ni3  1  0.39068700  0.75000000  0.00000000  1
  Ni  Ni4  1  0.86549400  0.52694200  0.75000000  1
  Ni  Ni5  1  0.86549400  0.97305800  0.25000000  1
  Ni  Ni6  1  0.13450600  0.02694200  0.75000000  1
  Ni  Ni7  1  0.13450600  0.47305800  0.25000000  1
  C  C8  1  0.11462400  0.25000000  0.00000000  1
  C  C9  1  0.88537600  0.75000000  0.00000000  1
  C  C10  1  0.88537600  0.75000000  0.50000000  1
  C  C11  1  0.11462400  0.25000000  0.50000000  1
  Cu  Cu12  1  0.57096200  0.86669700  0.75000000  1
  Cu  Cu13  1  0.57096200  0.63330300  0.25000000  1
  Cu  Cu14  1  0.42903800  0.36669700  0.75000000  1
  Cu  Cu15  1  0.42903800  0.13330300  0.25000000  1
  C  C16  1  0.27904500  0.43294600  0.03137200  1
  C  C17  1  0.27904500  0.06705400  0.96862800  1
  C  C18  1  0.72095500  0.93294600  0.46862800  1
  C  C19  1  0.72095500  0.56705400  0.53137200  1
  C  C20  1  0.72095500  0.56705400  0.96862800  1
  C  C21  1  0.72095500  0.93294600  0.03137200  1
  C  C22  1  0.27904500  0.06705400  0.53137200  1
  C  C23  1  0.27904500  0.43294600  0.46862800  1
  C  C24  1  0.05308700  0.74125300  0.12136300  1
  C  C25  1  0.05308700  0.74125300  0.37863700  1
  C  C26  1  0.94691300  0.24125300  0.37863700  1
  C  C27  1  0.94691300  0.25874700  0.62136300  1
  C  C28  1  0.94691300  0.25874700  0.87863700  1
  C  C29  1  0.94691300  0.24125300  0.12136300  1
  C  C30  1  0.05308700  0.75874700  0.62136300  1
  C  C31  1  0.05308700  0.75874700  0.87863700  1
