# generated using pymatgen
data_Cu8NiC6
_symmetry_space_group_name_H-M   'P 1'
_cell_length_a   5.35169200
_cell_length_b   6.99141000
_cell_length_c   10.65159900
_cell_angle_alpha   90.00000000
_cell_angle_beta   90.00000000
_cell_angle_gamma   90.00000000
_symmetry_Int_Tables_number   1
_chemical_formula_structural   Cu8NiC6
_chemical_formula_sum   'Cu16 Ni2 C12'
_cell_volume   398.53887507
_cell_formula_units_Z   2
loop_
 _symmetry_equiv_pos_site_id
 _symmetry_equiv_pos_as_xyz
  1  'x, y, z'
loop_
 _atom_site_type_symbol
 _atom_site_label
 _atom_site_symmetry_multiplicity
 _atom_site_fract_x
 _atom_site_fract_y
 _atom_site_fract_z
 _atom_site_occupancy
  Ni  Ni0  1  0.00000000  0.50000000  0.50000000  1
  Ni  Ni1  1  0.00000000  0.00000000  0.00000000  1
  Cu  Cu2  1  0.39587900  0.00000000  0.73895000  1
  Cu  Cu3  1  0.39587900  0.50000000  0.76105000  1
  Cu  Cu4  1  0.60412100  0.00000000  0.26105000  1
  Cu  Cu5  1  0.60412100  0.50000000  0.23895000  1
  Cu  Cu6  1  0.59621500  0.00000000  0.65304200  1
  Cu  Cu7  1  0.59621500  0.50000000  0.84695800  1
  Cu  Cu8  1  0.40378500  0.00000000  0.34695800  1
  Cu  Cu9  1  0.40378500  0.50000000  0.15304200  1
  Cu  Cu10  1  0.70390600  0.16941100  0.60874400  1
  Cu  Cu11  1  0.70390600  0.33058900  0.89125600  1
  Cu  Cu12  1  0.29609400  0.16941100  0.39125600  1
  Cu  Cu13  1  0.70390600  0.66941100  0.89125600  1
  Cu  Cu14  1  0.29609400  0.83058900  0.39125600  1
  Cu  Cu15  1  0.29609400  0.66941100  0.10874400  1
  Cu  Cu16  1  0.70390600  0.83058900  0.60874400  1
  Cu  Cu17  1  0.29609400  0.33058900  0.10874400  1
  C  C18  1  0.80038400  0.30473600  0.56620700  1
  C  C19  1  0.80038400  0.19526400  0.93379300  1
  C  C20  1  0.19961600  0.30473600  0.43379300  1
  C  C21  1  0.80038400  0.80473600  0.93379300  1
  C  C22  1  0.19961600  0.69526400  0.43379300  1
  C  C23  1  0.19961600  0.80473600  0.06620700  1
  C  C24  1  0.80038400  0.69526400  0.56620700  1
  C  C25  1  0.19961600  0.19526400  0.06620700  1
  C  C26  1  0.22779800  0.00000000  0.80945600  1
  C  C27  1  0.22779800  0.50000000  0.69054400  1
  C  C28  1  0.77220200  0.00000000  0.19054400  1
  C  C29  1  0.77220200  0.50000000  0.30945600  1
