# generated using pymatgen
data_Cu12Ni2C3
_symmetry_space_group_name_H-M   'P 1'
_cell_length_a   5.15949655
_cell_length_b   5.36177310
_cell_length_c   7.51050647
_cell_angle_alpha   89.97591080
_cell_angle_beta   90.38475065
_cell_angle_gamma   89.90366141
_symmetry_Int_Tables_number   1
_chemical_formula_structural   Cu12Ni2C3
_chemical_formula_sum   'Cu12 Ni2 C3'
_cell_volume   207.76602775
_cell_formula_units_Z   1
loop_
 _symmetry_equiv_pos_site_id
 _symmetry_equiv_pos_as_xyz
  1  'x, y, z'
loop_
 _atom_site_type_symbol
 _atom_site_label
 _atom_site_symmetry_multiplicity
 _atom_site_fract_x
 _atom_site_fract_y
 _atom_site_fract_z
 _atom_site_occupancy
  C  C0  1  0.02756500  0.93841000  0.25082100  1
  Ni  Ni1  1  0.99927000  0.49536500  0.98285700  1
  Ni  Ni2  1  0.50184300  0.00607300  0.52023600  1
  C  C3  1  0.99931700  0.49939400  0.49456600  1
  C  C4  1  0.50324700  0.00103600  0.00687200  1
  Cu  Cu5  1  0.09805000  0.47610700  0.74719300  1
  Cu  Cu6  1  0.18314000  0.19077000  0.06558700  1
  Cu  Cu7  1  0.18665500  0.19116200  0.43501300  1
  Cu  Cu8  1  0.28982200  0.71273200  0.05555900  1
  Cu  Cu9  1  0.28467600  0.72737100  0.43869200  1
  Cu  Cu10  1  0.40339500  0.99210300  0.75416000  1
  Cu  Cu11  1  0.63528100  0.01421300  0.25017000  1
  Cu  Cu12  1  0.70068800  0.29466800  0.54314100  1
  Cu  Cu13  1  0.70048000  0.29537400  0.95673000  1
  Cu  Cu14  1  0.79886400  0.79134100  0.95409700  1
  Cu  Cu15  1  0.79359000  0.79549400  0.54585400  1
  Cu  Cu16  1  0.90661900  0.54088600  0.24845100  1
