# generated using pymatgen
data_CuNi13C8
_symmetry_space_group_name_H-M   'P 1'
_cell_length_a   4.67487927
_cell_length_b   4.67487927
_cell_length_c   10.27122900
_cell_angle_alpha   90.00000000
_cell_angle_beta   90.00000000
_cell_angle_gamma   119.99998971
_symmetry_Int_Tables_number   1
_chemical_formula_structural   CuNi13C8
_chemical_formula_sum   'Cu1 Ni13 C8'
_cell_volume   194.39893819
_cell_formula_units_Z   1
loop_
 _symmetry_equiv_pos_site_id
 _symmetry_equiv_pos_as_xyz
  1  'x, y, z'
loop_
 _atom_site_type_symbol
 _atom_site_label
 _atom_site_symmetry_multiplicity
 _atom_site_fract_x
 _atom_site_fract_y
 _atom_site_fract_z
 _atom_site_occupancy
  C  C0  1  0.00000000  0.00000000  0.25000000  1
  C  C1  1  0.00000000  0.00000000  0.75000000  1
  C  C2  1  0.33333300  0.66666700  0.43379500  1
  C  C3  1  0.66666700  0.33333300  0.56620500  1
  C  C4  1  0.66666700  0.33333300  0.93379500  1
  C  C5  1  0.33333300  0.66666700  0.06620500  1
  C  C6  1  0.00000000  0.00000000  0.50000000  1
  C  C7  1  0.00000000  0.00000000  0.00000000  1
  Ni  Ni8  1  0.16305400  0.83694600  0.90693600  1
  Ni  Ni9  1  0.16305400  0.32610800  0.90693600  1
  Ni  Ni10  1  0.67389200  0.83694600  0.90693600  1
  Ni  Ni11  1  0.83694600  0.16305400  0.09306400  1
  Ni  Ni12  1  0.83694600  0.67389200  0.09306400  1
  Ni  Ni13  1  0.32610800  0.16305400  0.09306400  1
  Ni  Ni14  1  0.83694600  0.16305400  0.40693600  1
  Ni  Ni15  1  0.83694600  0.67389200  0.40693600  1
  Ni  Ni16  1  0.32610800  0.16305400  0.40693600  1
  Ni  Ni17  1  0.16305400  0.83694600  0.59306400  1
  Cu  Cu18  1  0.11608067  0.33704757  0.59915602  1
  Ni  Ni19  1  0.67389200  0.83694600  0.59306400  1
  Ni  Ni20  1  0.33333300  0.66666700  0.25000000  1
  Ni  Ni21  1  0.66666700  0.33333300  0.75000000  1
