# generated using pymatgen
data_Cu2Ni3C4
_symmetry_space_group_name_H-M   'P 1'
_cell_length_a   4.82827900
_cell_length_b   5.77194357
_cell_length_c   7.82556232
_cell_angle_alpha   84.56611367
_cell_angle_beta   89.61818211
_cell_angle_gamma   89.08402360
_symmetry_Int_Tables_number   1
_chemical_formula_structural   Cu2Ni3C4
_chemical_formula_sum   'Cu4 Ni6 C8'
_cell_volume   217.07640211
_cell_formula_units_Z   2
loop_
 _symmetry_equiv_pos_site_id
 _symmetry_equiv_pos_as_xyz
  1  'x, y, z'
loop_
 _atom_site_type_symbol
 _atom_site_label
 _atom_site_symmetry_multiplicity
 _atom_site_fract_x
 _atom_site_fract_y
 _atom_site_fract_z
 _atom_site_occupancy
  Ni  Ni0  1  0.56287600  0.82994100  0.65919300  1
  Ni  Ni1  1  0.49346500  0.50310300  0.00661700  1
  Ni  Ni2  1  0.48888500  0.16664600  0.33512000  1
  Ni  Ni3  1  0.95984300  0.33375600  0.68028200  1
  Ni  Ni4  1  0.00896000  0.66779600  0.33471500  1
  Ni  Ni5  1  0.99037800  0.99400300  0.98803000  1
  Cu  Cu6  1  0.80023700  0.04565200  0.76174700  1
  Cu  Cu7  1  0.69634800  0.53718900  0.77812000  1
  Cu  Cu8  1  0.67764600  0.88119400  0.42708600  1
  Cu  Cu9  1  0.31830700  0.45268200  0.22796600  1
  C  C10  1  0.79807300  0.36045600  0.44175600  1
  C  C11  1  0.79665200  0.69210000  0.09979400  1
  C  C12  1  0.69853500  0.20764300  0.10469200  1
  C  C13  1  0.28983900  0.13338500  0.56621900  1
  C  C14  1  0.31856100  0.79542800  0.89570000  1
  C  C15  1  0.20073800  0.97410300  0.22026100  1
  C  C16  1  0.19444700  0.61722800  0.57968600  1
  C  C17  1  0.20621100  0.30769500  0.89301500  1
