# generated using pymatgen
data_Cu5Ni7C5
_symmetry_space_group_name_H-M   'P 1'
_cell_length_a   8.33571300
_cell_length_b   8.33945135
_cell_length_c   8.65998755
_cell_angle_alpha   118.51889369
_cell_angle_beta   90.09517337
_cell_angle_gamma   119.93858602
_symmetry_Int_Tables_number   1
_chemical_formula_structural   Cu5Ni7C5
_chemical_formula_sum   'Cu10 Ni14 C10'
_cell_volume   435.01681886
_cell_formula_units_Z   2
loop_
 _symmetry_equiv_pos_site_id
 _symmetry_equiv_pos_as_xyz
  1  'x, y, z'
loop_
 _atom_site_type_symbol
 _atom_site_label
 _atom_site_symmetry_multiplicity
 _atom_site_fract_x
 _atom_site_fract_y
 _atom_site_fract_z
 _atom_site_occupancy
  C  C0  1  0.77378400  0.92125100  0.43420900  1
  C  C1  1  0.70715100  0.06299800  0.07714500  1
  C  C2  1  0.29284900  0.93700200  0.92285500  1
  C  C3  1  0.22621600  0.07874900  0.56579100  1
  C  C4  1  0.02815900  0.77583700  0.25227400  1
  C  C5  1  0.25975600  0.79014800  0.74642700  1
  C  C6  1  0.74024400  0.20985200  0.25357300  1
  C  C7  1  0.97184100  0.22416300  0.74772600  1
  C  C8  1  0.52920600  0.49755900  0.75212100  1
  C  C9  1  0.47079400  0.50244100  0.24787900  1
  Cu  Cu10  1  0.44854511  0.65511917  0.21142149  1
  Ni  Ni11  1  0.64684700  0.64639300  0.59522200  1
  Ni  Ni12  1  0.23469200  0.26212400  0.28607700  1
  Cu  Cu13  1  0.07006411  0.10964886  0.70331915  1
  Cu  Cu14  1  0.37111989  0.33815540  0.40388909  1
  Ni  Ni15  1  0.76530800  0.73787600  0.71392300  1
  Ni  Ni16  1  0.94395800  0.89278100  0.29449500  1
  Cu  Cu17  1  0.17053769  0.89744949  0.05722966  1
  Ni  Ni18  1  0.68854900  0.41935300  0.41429300  1
  Ni  Ni19  1  0.10928900  0.80971300  0.72303300  1
  Ni  Ni20  1  0.86385500  0.73734200  0.06167800  1
  Ni  Ni21  1  0.28163200  0.87149300  0.22242000  1
  Cu  Cu22  1  0.39242875  0.97751533  0.75034346  1
  Ni  Ni23  1  0.95627500  0.44719300  0.92318700  1
  Cu  Cu24  1  0.30908061  0.60694395  0.61753834  1
  Ni  Ni25  1  0.59861900  0.94449800  0.57593100  1
  Ni  Ni26  1  0.40138100  0.05550200  0.42406900  1
  Cu  Cu27  1  0.63372588  0.36336131  0.78570593  1
  Cu  Cu28  1  0.07692559  0.60067520  0.10273962  1
  Cu  Cu29  1  0.60631637  0.04662467  0.24376811  1
  Ni  Ni30  1  0.71836800  0.12850700  0.77758000  1
  Cu  Cu31  1  0.14364278  0.26405900  0.96013949  1
  Ni  Ni32  1  0.89071100  0.19028700  0.27696700  1
  Ni  Ni33  1  0.78668700  0.07429900  0.92540400  1
