# generated using pymatgen
data_Cu6NiC3
_symmetry_space_group_name_H-M   'P 1'
_cell_length_a   8.69060515
_cell_length_b   8.63274886
_cell_length_c   8.62422272
_cell_angle_alpha   90.00000000
_cell_angle_beta   90.00000000
_cell_angle_gamma   90.00000000
_symmetry_Int_Tables_number   1
_chemical_formula_structural   Cu6NiC3
_chemical_formula_sum   'Cu24 Ni4 C12'
_cell_volume   647.02206142
_cell_formula_units_Z   4
loop_
 _symmetry_equiv_pos_site_id
 _symmetry_equiv_pos_as_xyz
  1  'x, y, z'
loop_
 _atom_site_type_symbol
 _atom_site_label
 _atom_site_symmetry_multiplicity
 _atom_site_fract_x
 _atom_site_fract_y
 _atom_site_fract_z
 _atom_site_occupancy
  C  C0  1  -0.00000000  0.50000000  0.50000000  1
  C  C1  1  0.50000000  -0.00000000  0.50000000  1
  C  C2  1  0.50000000  -0.00000000  -0.00000000  1
  C  C3  1  -0.00000000  0.50000000  -0.00000000  1
  Ni  Ni4  1  0.50000000  0.50000000  -0.00000000  1
  Ni  Ni5  1  -0.00000000  -0.00000000  0.50000000  1
  Ni  Ni6  1  -0.00000000  -0.00000000  -0.00000000  1
  Ni  Ni7  1  0.50000000  0.50000000  0.50000000  1
  C  C8  1  0.25000000  0.25000000  0.25000000  1
  C  C9  1  0.75000000  0.75000000  0.25000000  1
  C  C10  1  0.75000000  0.25000000  0.75000000  1
  C  C11  1  0.25000000  0.75000000  0.75000000  1
  C  C12  1  0.75000000  0.75000000  0.75000000  1
  C  C13  1  0.25000000  0.25000000  0.75000000  1
  C  C14  1  0.25000000  0.75000000  0.25000000  1
  C  C15  1  0.75000000  0.25000000  0.25000000  1
  Cu  Cu16  1  0.99320522  0.20022314  0.29085506  1
  Cu  Cu17  1  0.00679478  0.79977686  0.29085506  1
  Cu  Cu18  1  0.00679478  0.20022314  0.70914494  1
  Cu  Cu19  1  0.99320522  0.79977686  0.70914494  1
  Cu  Cu20  1  0.28735635  0.99221276  0.20297351  1
  Cu  Cu21  1  0.28735635  0.00778724  0.79702649  1
  Cu  Cu22  1  0.71264365  0.00778724  0.20297351  1
  Cu  Cu23  1  0.71264365  0.99221276  0.79702649  1
  Cu  Cu24  1  0.20349053  0.28902630  0.99242497  1
  Cu  Cu25  1  0.79650947  0.28902630  0.00757503  1
  Cu  Cu26  1  0.20349053  0.71097370  0.00757503  1
  Cu  Cu27  1  0.79650947  0.71097370  0.99242497  1
  Cu  Cu28  1  0.50679478  0.29977686  0.20914494  1
  Cu  Cu29  1  0.49320522  0.70022314  0.20914494  1
  Cu  Cu30  1  0.49320522  0.29977686  0.79085506  1
  Cu  Cu31  1  0.50679478  0.70022314  0.79085506  1
  Cu  Cu32  1  0.21264365  0.50778724  0.29702649  1
  Cu  Cu33  1  0.21264365  0.49221276  0.70297351  1
  Cu  Cu34  1  0.78735635  0.49221276  0.29702649  1
  Cu  Cu35  1  0.78735635  0.50778724  0.70297351  1
  Cu  Cu36  1  0.29650947  0.21097370  0.50757503  1
  Cu  Cu37  1  0.70349053  0.21097370  0.49242497  1
  Cu  Cu38  1  0.29650947  0.78902630  0.49242497  1
  Cu  Cu39  1  0.70349053  0.78902630  0.50757503  1
