# generated using pymatgen
data_Cu23NiC16
_symmetry_space_group_name_H-M   'P 1'
_cell_length_a   8.72633700
_cell_length_b   8.68440100
_cell_length_c   14.91830423
_cell_angle_alpha   54.35733861
_cell_angle_beta   90.00000000
_cell_angle_gamma   90.00000000
_symmetry_Int_Tables_number   1
_chemical_formula_structural   Cu23NiC16
_chemical_formula_sum   'Cu46 Ni2 C32'
_cell_volume   918.76403398
_cell_formula_units_Z   2
loop_
 _symmetry_equiv_pos_site_id
 _symmetry_equiv_pos_as_xyz
  1  'x, y, z'
loop_
 _atom_site_type_symbol
 _atom_site_label
 _atom_site_symmetry_multiplicity
 _atom_site_fract_x
 _atom_site_fract_y
 _atom_site_fract_z
 _atom_site_occupancy
  C  C0  1  0.90790000  0.38864600  0.69670900  1
  C  C1  1  0.28978100  0.32857200  0.75269000  1
  C  C2  1  0.22843800  0.03401800  0.17734900  1
  C  C3  1  0.72843800  0.96598200  0.32265100  1
  C  C4  1  0.78978100  0.67142800  0.74731000  1
  C  C5  1  0.40790000  0.61135400  0.80329100  1
  C  C6  1  0.59210000  0.38864600  0.19670900  1
  C  C7  1  0.21021900  0.32857200  0.25269000  1
  C  C8  1  0.27156200  0.03401800  0.67734900  1
  C  C9  1  0.77156200  0.96598200  0.82265100  1
  C  C10  1  0.71021900  0.67142800  0.24731000  1
  C  C11  1  0.09210000  0.61135400  0.30329100  1
  C  C12  1  0.54280100  0.13465200  0.11315900  1
  C  C13  1  0.96385600  0.36317100  0.88793900  1
  C  C14  1  0.46385600  0.63682900  0.61206100  1
  C  C15  1  0.04280100  0.86534800  0.38684100  1
  C  C16  1  0.95719900  0.13465200  0.61315900  1
  C  C17  1  0.53614400  0.36317100  0.38793900  1
  C  C18  1  0.03614400  0.63682900  0.11206100  1
  C  C19  1  0.45719900  0.86534800  0.88684100  1
  C  C20  1  0.75071900  0.54309100  0.49435000  1
  C  C21  1  0.60949400  0.25137200  0.85212500  1
  C  C22  1  0.90016000  0.95654200  0.14799200  1
  C  C23  1  0.40016000  0.04345800  0.35200800  1
  C  C24  1  0.10949400  0.74862800  0.64787500  1
  C  C25  1  0.25071900  0.45690900  0.00565000  1
  C  C26  1  0.74928100  0.54309100  0.99435000  1
  C  C27  1  0.89050600  0.25137200  0.35212500  1
  C  C28  1  0.59984000  0.95654200  0.64799200  1
  C  C29  1  0.09984000  0.04345800  0.85200800  1
  C  C30  1  0.39050600  0.74862800  0.14787500  1
  C  C31  1  0.24928100  0.45690900  0.50565000  1
  Cu  Cu32  1  0.12901439  0.65733457  0.41990521  1
  Cu  Cu33  1  0.32711604  0.47047042  0.58539026  1
  Cu  Cu34  1  0.10374680  0.22387645  0.84381437  1
  Cu  Cu35  1  0.39046593  0.90110197  0.17592471  1
  Cu  Cu36  1  0.62626074  0.55620633  0.55856303  1
  Cu  Cu37  1  0.78279131  0.32350105  0.82375231  1
  Cu  Cu38  1  0.84024840  0.76813116  0.41599926  1
  Cu  Cu39  1  0.58674074  0.22180044  0.95135700  1
  Ni  Ni40  1  0.93778200  0.12354300  0.03263200  1
  Cu  Cu41  1  0.71887944  0.95060716  0.19027445  1
  Cu  Cu42  1  0.00731723  0.95765127  0.22636829  1
  Cu  Cu43  1  0.47795660  0.45221810  0.75640914  1
  Cu  Cu44  1  0.97961477  0.61452255  0.72724155  1
  Cu  Cu45  1  0.51891400  0.08371008  0.26765703  1
  Cu  Cu46  1  0.25969466  0.02843254  0.31864046  1
  Cu  Cu47  1  0.43959366  0.86472318  0.48416779  1
  Cu  Cu48  1  0.08070467  0.81239143  0.53458912  1
  Cu  Cu49  1  0.34541646  0.25137381  0.06736629  1
  Cu  Cu50  1  0.26401461  0.67021951  0.67011153  1
  Cu  Cu51  1  0.14613709  0.43746994  0.94230935  1
  Cu  Cu52  1  0.91101669  0.10045750  0.32309618  1
  Cu  Cu53  1  0.59257132  0.78602502  0.66623826  1
  Cu  Cu54  1  0.82249200  0.53856308  0.90478976  1
  Cu  Cu55  1  0.65478515  0.37491622  0.07404277  1
  Cu  Cu56  1  0.35313171  0.63790881  0.90589370  1
  Cu  Cu57  1  0.18224972  0.52053108  0.07366361  1
  Cu  Cu58  1  0.37740574  0.19451157  0.32485881  1
  Cu  Cu59  1  0.09469604  0.93935435  0.64169346  1
  Cu  Cu60  1  0.85831676  0.54906221  0.06308436  1
  Cu  Cu61  1  0.72043968  0.31862701  0.32476744  1
  Ni  Ni62  1  0.65935100  0.73229300  0.92618400  1
  Cu  Cu63  1  0.92679913  0.18961452  0.46141522  1
  Cu  Cu64  1  0.54956685  0.16286814  0.50940114  1
  Cu  Cu65  1  0.75955986  0.94053508  0.69346328  1
  Cu  Cu66  1  0.49509715  0.92245950  0.72591219  1
  Cu  Cu67  1  0.01858308  0.39788477  0.28283970  1
  Cu  Cu68  1  0.52025968  0.57889051  0.23472118  1
  Cu  Cu69  1  0.99678415  0.05764503  0.77548542  1
  Cu  Cu70  1  0.25986466  0.04029710  0.80823310  1
  Cu  Cu71  1  0.07896822  0.89267657  0.96087898  1
  Cu  Cu72  1  0.42080501  0.80548334  0.03042657  1
  Cu  Cu73  1  0.16315819  0.25606972  0.57795645  1
  Cu  Cu74  1  0.22157862  0.65764853  0.19956173  1
  Cu  Cu75  1  0.34091299  0.43726995  0.42920095  1
  Cu  Cu76  1  0.56380983  0.03934120  0.85545546  1
  Cu  Cu77  1  0.90409669  0.77794101  0.14576667  1
  Cu  Cu78  1  0.66677290  0.53518135  0.39108451  1
  Cu  Cu79  1  0.84402938  0.38330239  0.57793497  1
