# generated using pymatgen
data_CuNiC6
_symmetry_space_group_name_H-M   'P 1'
_cell_length_a   6.03094500
_cell_length_b   8.34084400
_cell_length_c   8.48465100
_cell_angle_alpha   90.00000000
_cell_angle_beta   90.00000000
_cell_angle_gamma   90.00000000
_symmetry_Int_Tables_number   1
_chemical_formula_structural   CuNiC6
_chemical_formula_sum   'Cu4 Ni4 C24'
_cell_volume   426.80485367
_cell_formula_units_Z   4
loop_
 _symmetry_equiv_pos_site_id
 _symmetry_equiv_pos_as_xyz
  1  'x, y, z'
loop_
 _atom_site_type_symbol
 _atom_site_label
 _atom_site_symmetry_multiplicity
 _atom_site_fract_x
 _atom_site_fract_y
 _atom_site_fract_z
 _atom_site_occupancy
  Ni  Ni0  1  0.33514800  0.50000000  0.75000000  1
  Ni  Ni1  1  0.66485200  0.00000000  0.25000000  1
  Ni  Ni2  1  0.66485200  0.50000000  0.25000000  1
  Ni  Ni3  1  0.33514800  0.00000000  0.75000000  1
  C  C4  1  0.75878300  0.35012600  0.87796400  1
  C  C5  1  0.24121700  0.85012600  0.12203600  1
  C  C6  1  0.75878300  0.64987400  0.62203600  1
  C  C7  1  0.24121700  0.14987400  0.37796400  1
  C  C8  1  0.24121700  0.64987400  0.12203600  1
  C  C9  1  0.75878300  0.14987400  0.87796400  1
  C  C10  1  0.24121700  0.35012600  0.37796400  1
  C  C11  1  0.75878300  0.85012600  0.62203600  1
  C  C12  1  0.82209800  0.25000000  0.63846800  1
  C  C13  1  0.17790200  0.75000000  0.36153200  1
  C  C14  1  0.82209800  0.75000000  0.86153200  1
  C  C15  1  0.17790200  0.25000000  0.13846800  1
  Cu  Cu16  1  0.70625500  0.25000000  0.81792100  1
  Cu  Cu17  1  0.29374500  0.75000000  0.18207900  1
  Cu  Cu18  1  0.70625500  0.75000000  0.68207900  1
  Cu  Cu19  1  0.29374500  0.25000000  0.31792100  1
  C  C20  1  0.06577500  0.25000000  0.65462100  1
  C  C21  1  0.93422500  0.75000000  0.34537900  1
  C  C22  1  0.06577500  0.75000000  0.84537900  1
  C  C23  1  0.93422500  0.25000000  0.15462100  1
  C  C24  1  0.73792200  0.10222800  0.56595900  1
  C  C25  1  0.26207800  0.60222800  0.43404100  1
  C  C26  1  0.73792200  0.89777200  0.93404100  1
  C  C27  1  0.26207800  0.39777200  0.06595900  1
  C  C28  1  0.26207800  0.89777200  0.43404100  1
  C  C29  1  0.73792200  0.39777200  0.56595900  1
  C  C30  1  0.26207800  0.10222800  0.06595900  1
  C  C31  1  0.73792200  0.60222800  0.93404100  1
