# generated using pymatgen
data_CuC4
_symmetry_space_group_name_H-M   'P 1'
_cell_length_a   5.68660170
_cell_length_b   5.68660170
_cell_length_c   5.68660124
_cell_angle_alpha   48.84993591
_cell_angle_beta   48.84993591
_cell_angle_gamma   48.84993889
_symmetry_Int_Tables_number   1
_chemical_formula_structural   CuC4
_chemical_formula_sum   'Cu2 C8'
_cell_volume   95.70124590
_cell_formula_units_Z   2
loop_
 _symmetry_equiv_pos_site_id
 _symmetry_equiv_pos_as_xyz
  1  'x, y, z'
loop_
 _atom_site_type_symbol
 _atom_site_label
 _atom_site_symmetry_multiplicity
 _atom_site_fract_x
 _atom_site_fract_y
 _atom_site_fract_z
 _atom_site_occupancy
  Cu  Cu0  1  0.51099949  0.50537417  0.47238281  1
  Cu  Cu1  1  0.03399290  0.00235360  0.99989368  1
  C  C2  1  0.75000000  0.75000000  0.75000000  1
  C  C3  1  0.25000000  0.25000000  0.25000000  1
  C  C4  1  0.04526800  0.45473200  0.75000000  1
  C  C5  1  0.45473200  0.75000000  0.04526800  1
  C  C6  1  0.25000000  0.95473200  0.54526800  1
  C  C7  1  0.95473200  0.54526800  0.25000000  1
  C  C8  1  0.54526800  0.25000000  0.95473200  1
  C  C9  1  0.75000000  0.04526800  0.45473200  1
