# generated using pymatgen
data_Cu3Ni5C9
_symmetry_space_group_name_H-M   'P 1'
_cell_length_a   5.11553081
_cell_length_b   6.04421968
_cell_length_c   5.74710658
_cell_angle_alpha   112.71521438
_cell_angle_beta   91.70744118
_cell_angle_gamma   92.82863658
_symmetry_Int_Tables_number   1
_chemical_formula_structural   Cu3Ni5C9
_chemical_formula_sum   'Cu3 Ni5 C9'
_cell_volume   163.48404781
_cell_formula_units_Z   1
loop_
 _symmetry_equiv_pos_site_id
 _symmetry_equiv_pos_as_xyz
  1  'x, y, z'
loop_
 _atom_site_type_symbol
 _atom_site_label
 _atom_site_symmetry_multiplicity
 _atom_site_fract_x
 _atom_site_fract_y
 _atom_site_fract_z
 _atom_site_occupancy
  C  C0  1  0.50000000  0.00000000  0.00000000  1
  C  C1  1  0.53396600  0.25842000  0.71130400  1
  C  C2  1  0.01181800  0.76597000  0.74831300  1
  C  C3  1  0.46603300  0.74158000  0.28869600  1
  C  C4  1  0.98818100  0.23402900  0.25168700  1
  C  C5  1  0.53710200  0.66255600  0.71371400  1
  C  C6  1  0.03908900  0.27784100  0.70878400  1
  C  C7  1  0.46289900  0.33744500  0.28628700  1
  C  C8  1  0.96091200  0.72215900  0.29121700  1
  Ni  Ni9  1  0.33920600  0.35819600  0.15982400  1
  Cu  Cu10  1  0.79694778  0.65874227  0.38880443  1
  Ni  Ni11  1  0.14402800  0.35209700  0.61120800  1
  Ni  Ni12  1  0.66079500  0.64180500  0.84017400  1
  Cu  Cu13  1  0.69131817  0.11952184  0.36743866  1
  Ni  Ni14  1  0.33500000  0.88535200  0.65097700  1
  Ni  Ni15  1  0.16963300  0.85745200  0.08959100  1
  Cu  Cu16  1  0.85738904  0.14505663  0.91442022  1
