# generated using pymatgen
data_Cu3C2
_symmetry_space_group_name_H-M   'P 1'
_cell_length_a   3.83048100
_cell_length_b   3.83048100
_cell_length_c   3.83048100
_cell_angle_alpha   90.00000000
_cell_angle_beta   90.00000000
_cell_angle_gamma   90.00000000
_symmetry_Int_Tables_number   1
_chemical_formula_structural   Cu3C2
_chemical_formula_sum   'Cu3 C2'
_cell_volume   56.20305688
_cell_formula_units_Z   1
loop_
 _symmetry_equiv_pos_site_id
 _symmetry_equiv_pos_as_xyz
  1  'x, y, z'
loop_
 _atom_site_type_symbol
 _atom_site_label
 _atom_site_symmetry_multiplicity
 _atom_site_fract_x
 _atom_site_fract_y
 _atom_site_fract_z
 _atom_site_occupancy
  C  C0  1  0.00000000  0.00000000  0.00000000  1
  C  C1  1  0.50000000  0.50000000  0.50000000  1
  Cu  Cu2  1  0.45548504  0.48223807  0.01310559  1
  Cu  Cu3  1  0.45799435  0.02158188  0.53027699  1
  Cu  Cu4  1  0.02168267  0.51887778  0.52228315  1
