# generated using pymatgen
data_Cu3Ni12C71
_symmetry_space_group_name_H-M   'P 1'
_cell_length_a   13.20120441
_cell_length_b   13.20120441
_cell_length_c   13.20120425
_cell_angle_alpha   80.84256197
_cell_angle_beta   80.84256197
_cell_angle_gamma   80.84256351
_symmetry_Int_Tables_number   1
_chemical_formula_structural   Cu3Ni12C71
_chemical_formula_sum   'Cu6 Ni24 C142'
_cell_volume   2221.09287866
_cell_formula_units_Z   2
loop_
 _symmetry_equiv_pos_site_id
 _symmetry_equiv_pos_as_xyz
  1  'x, y, z'
loop_
 _atom_site_type_symbol
 _atom_site_label
 _atom_site_symmetry_multiplicity
 _atom_site_fract_x
 _atom_site_fract_y
 _atom_site_fract_z
 _atom_site_occupancy
  C  C0  1  0.73411721  0.73411721  0.73411721  1
  C  C1  1  0.26588279  0.26588279  0.26588279  1
  C  C2  1  0.87228328  0.25583487  0.87222155  1
  C  C3  1  0.25583487  0.87222155  0.87228328  1
  C  C4  1  0.87222155  0.87228328  0.25583487  1
  C  C5  1  0.12771672  0.74416513  0.12777845  1
  C  C6  1  0.74416513  0.12777845  0.12771672  1
  C  C7  1  0.12777845  0.12771672  0.74416513  1
  C  C8  1  0.78651992  0.15938084  0.89163806  1
  C  C9  1  0.15938084  0.89163806  0.78651992  1
  C  C10  1  0.89163806  0.78651992  0.15938084  1
  C  C11  1  0.78649937  0.89163060  0.15935689  1
  C  C12  1  0.89163060  0.15935689  0.78649937  1
  C  C13  1  0.15935689  0.78649937  0.89163060  1
  C  C14  1  0.21348008  0.84061916  0.10836194  1
  C  C15  1  0.84061916  0.10836194  0.21348008  1
  C  C16  1  0.10836194  0.21348008  0.84061916  1
  C  C17  1  0.21350063  0.10836940  0.84064311  1
  C  C18  1  0.10836940  0.84064311  0.21350063  1
  C  C19  1  0.84064311  0.21350063  0.10836940  1
  C  C20  1  0.65841445  0.28430917  0.65845962  1
  C  C21  1  0.28430917  0.65845962  0.65841445  1
  C  C22  1  0.65845962  0.65841445  0.28430917  1
  C  C23  1  0.34158555  0.71569083  0.34154038  1
  C  C24  1  0.71569083  0.34154038  0.34158555  1
  C  C25  1  0.34154038  0.34158555  0.71569083  1
  C  C26  1  0.65533423  0.17700368  0.76039121  1
  C  C27  1  0.17700368  0.76039121  0.65533423  1
  C  C28  1  0.76039121  0.65533423  0.17700368  1
  C  C29  1  0.65530432  0.76038609  0.17703290  1
  C  C30  1  0.76038609  0.17703290  0.65530432  1
  C  C31  1  0.17703290  0.65530432  0.76038609  1
  C  C32  1  0.34466577  0.82299632  0.23960879  1
  C  C33  1  0.82299632  0.23960879  0.34466577  1
  C  C34  1  0.23960879  0.34466577  0.82299632  1
  C  C35  1  0.34469568  0.23961391  0.82296710  1
  C  C36  1  0.23961391  0.82296710  0.34469568  1
  C  C37  1  0.82296710  0.34469568  0.23961391  1
  C  C38  1  0.71260527  0.32573306  0.80925598  1
  C  C39  1  0.32573306  0.80925598  0.71260527  1
  C  C40  1  0.80925598  0.71260527  0.32573306  1
  C  C41  1  0.71259913  0.80925875  0.32573923  1
  C  C42  1  0.80925875  0.32573923  0.71259913  1
  C  C43  1  0.32573923  0.71259913  0.80925875  1
  C  C44  1  0.28739473  0.67426694  0.19074402  1
  C  C45  1  0.67426694  0.19074402  0.28739473  1
  C  C46  1  0.19074402  0.28739473  0.67426694  1
  C  C47  1  0.28740087  0.19074125  0.67426077  1
  C  C48  1  0.19074125  0.67426077  0.28740087  1
  C  C49  1  0.67426077  0.28740087  0.19074125  1
  Ni  Ni50  1  0.91699877  0.69755075  0.91700518  1
  Ni  Ni51  1  0.69755075  0.91700518  0.91699877  1
  Ni  Ni52  1  0.91700518  0.91699877  0.69755075  1
  Ni  Ni53  1  0.08300123  0.30244925  0.08299482  1
  Ni  Ni54  1  0.30244925  0.08299482  0.08300123  1
  Ni  Ni55  1  0.08299482  0.08300123  0.30244925  1
  Ni  Ni56  1  0.74112035  0.52105331  0.94630219  1
  Ni  Ni57  1  0.52105331  0.94630219  0.74112035  1
  Ni  Ni58  1  0.94630219  0.74112035  0.52105331  1
  Ni  Ni59  1  0.74113191  0.94629132  0.52105247  1
  Ni  Ni60  1  0.94629132  0.52105247  0.74113191  1
  Ni  Ni61  1  0.52105247  0.74113191  0.94629132  1
  Ni  Ni62  1  0.25887965  0.47894669  0.05369781  1
  Ni  Ni63  1  0.47894669  0.05369781  0.25887965  1
  Ni  Ni64  1  0.05369781  0.25887965  0.47894669  1
  Ni  Ni65  1  0.25886809  0.05370868  0.47894753  1
  Ni  Ni66  1  0.05370868  0.47894753  0.25886809  1
  Ni  Ni67  1  0.47894753  0.25886809  0.05370868  1
  Ni  Ni68  1  0.55092461  0.55093273  0.75533876  1
  Ni  Ni69  1  0.55093273  0.75533876  0.55092461  1
  Ni  Ni70  1  0.75533876  0.55092461  0.55093273  1
  Ni  Ni71  1  0.44907539  0.44906727  0.24466124  1
  Ni  Ni72  1  0.44906727  0.24466124  0.44907539  1
  Ni  Ni73  1  0.24466124  0.44907539  0.44906727  1
  C  C74  1  0.83386426  0.20768408  0.83384451  1
  C  C75  1  0.20768408  0.83384451  0.83386426  1
  C  C76  1  0.83384451  0.83386426  0.20768408  1
  C  C77  1  0.16613574  0.79231592  0.16615549  1
  C  C78  1  0.79231592  0.16615549  0.16613574  1
  C  C79  1  0.16615549  0.16613574  0.79231592  1
  C  C80  1  0.70551937  0.22488624  0.70551990  1
  C  C81  1  0.22488624  0.70551990  0.70551937  1
  C  C82  1  0.70551990  0.70551937  0.22488624  1
  C  C83  1  0.29448063  0.77511376  0.29448010  1
  C  C84  1  0.77511376  0.29448010  0.29448063  1
  C  C85  1  0.29448010  0.29448063  0.77511376  1
  Cu  Cu86  1  0.76473995  0.27798383  0.76473284  1
  Cu  Cu87  1  0.27798383  0.76473284  0.76473995  1
  Cu  Cu88  1  0.76473284  0.76473995  0.27798383  1
  Cu  Cu89  1  0.23526005  0.72201617  0.23526716  1
  Cu  Cu90  1  0.72201617  0.23526716  0.23526005  1
  Cu  Cu91  1  0.23526716  0.23526005  0.72201617  1
  C  C92  1  0.80286209  0.65527226  0.80286228  1
  C  C93  1  0.65527226  0.80286228  0.80286209  1
  C  C94  1  0.80286228  0.80286209  0.65527226  1
  C  C95  1  0.19713791  0.34472774  0.19713772  1
  C  C96  1  0.34472774  0.19713772  0.19713791  1
  C  C97  1  0.19713772  0.19713791  0.34472774  1
  C  C98  1  0.67521570  0.67521570  0.67521570  1
  C  C99  1  0.32478430  0.32478430  0.32478430  1
  C  C100  1  0.80008238  0.80008629  0.95446795  1
  C  C101  1  0.80008629  0.95446795  0.80008238  1
  C  C102  1  0.95446795  0.80008238  0.80008629  1
  C  C103  1  0.19991762  0.19991371  0.04553205  1
  C  C104  1  0.19991371  0.04553205  0.19991762  1
  C  C105  1  0.04553205  0.19991762  0.19991371  1
  C  C106  1  0.63217629  0.63218505  0.98131345  1
  C  C107  1  0.63218505  0.98131345  0.63217629  1
  C  C108  1  0.98131345  0.63217629  0.63218505  1
  C  C109  1  0.36782371  0.36781495  0.01868655  1
  C  C110  1  0.36781495  0.01868655  0.36782371  1
  C  C111  1  0.01868655  0.36782371  0.36781495  1
  C  C112  1  0.65338655  0.49750339  0.84859493  1
  C  C113  1  0.49750339  0.84859493  0.65338655  1
  C  C114  1  0.84859493  0.65338655  0.49750339  1
  C  C115  1  0.65340904  0.84857862  0.49749275  1
  C  C116  1  0.84857862  0.49749275  0.65340904  1
  C  C117  1  0.49749275  0.65340904  0.84857862  1
  C  C118  1  0.34661345  0.50249661  0.15140507  1
  C  C119  1  0.50249661  0.15140507  0.34661345  1
  C  C120  1  0.15140507  0.34661345  0.50249661  1
  C  C121  1  0.34659096  0.15142138  0.50250725  1
  C  C122  1  0.15142138  0.50250725  0.34659096  1
  C  C123  1  0.50250725  0.34659096  0.15142138  1
  C  C124  1  0.83889989  0.59046008  0.99605218  1
  C  C125  1  0.59046008  0.99605218  0.83889989  1
  C  C126  1  0.99605218  0.83889989  0.59046008  1
  C  C127  1  0.83891393  0.99604249  0.59045414  1
  C  C128  1  0.99604249  0.59045414  0.83891393  1
  C  C129  1  0.59045414  0.83891393  0.99604249  1
  C  C130  1  0.16110011  0.40953992  0.00394782  1
  C  C131  1  0.40953992  0.00394782  0.16110011  1
  C  C132  1  0.00394782  0.16110011  0.40953992  1
  C  C133  1  0.16108607  0.00395751  0.40954586  1
  C  C134  1  0.00395751  0.40954586  0.16108607  1
  C  C135  1  0.40954586  0.16108607  0.00395751  1
  C  C136  1  0.85848239  0.45580721  0.85849544  1
  C  C137  1  0.45580721  0.85849544  0.85848239  1
  C  C138  1  0.85849544  0.85848239  0.45580721  1
  C  C139  1  0.14151761  0.54419279  0.14150456  1
  C  C140  1  0.54419279  0.14150456  0.14151761  1
  C  C141  1  0.14150456  0.14151761  0.54419279  1
  C  C142  1  0.64613446  0.48831237  0.64614114  1
  C  C143  1  0.48831237  0.64614114  0.64613446  1
  C  C144  1  0.64614114  0.64613446  0.48831237  1
  C  C145  1  0.35386554  0.51168763  0.35385886  1
  C  C146  1  0.51168763  0.35385886  0.35386554  1
  C  C147  1  0.35385886  0.35386554  0.51168763  1
  C  C148  1  0.00149837  0.70976122  0.00150065  1
  C  C149  1  0.70976122  0.00150065  0.00149837  1
  C  C150  1  0.00150065  0.00149837  0.70976122  1
  C  C151  1  0.99850163  0.29023878  0.99849935  1
  C  C152  1  0.29023878  0.99849935  0.99850163  1
  C  C153  1  0.99849935  0.99850163  0.29023878  1
  C  C154  1  0.72168761  0.42093961  0.04717895  1
  C  C155  1  0.42093961  0.04717895  0.72168761  1
  C  C156  1  0.04717895  0.72168761  0.42093961  1
  C  C157  1  0.72169702  0.04716656  0.42093941  1
  C  C158  1  0.04716656  0.42093941  0.72169702  1
  C  C159  1  0.42093941  0.72169702  0.04716656  1
  C  C160  1  0.27831239  0.57906039  0.95282105  1
  C  C161  1  0.57906039  0.95282105  0.27831239  1
  C  C162  1  0.95282105  0.27831239  0.57906039  1
  C  C163  1  0.27830298  0.95283344  0.57906059  1
  C  C164  1  0.95283344  0.57906059  0.27830298  1
  C  C165  1  0.57906059  0.27830298  0.95283344  1
  C  C166  1  0.46292562  0.46293895  0.78859740  1
  C  C167  1  0.46293895  0.78859740  0.46292562  1
  C  C168  1  0.78859740  0.46292562  0.46293895  1
  C  C169  1  0.53707438  0.53706105  0.21140260  1
  C  C170  1  0.53706105  0.21140260  0.53707438  1
  C  C171  1  0.21140260  0.53707438  0.53706105  1
