# generated using pymatgen
data_Cu39NiC32
_symmetry_space_group_name_H-M   'P 1'
_cell_length_a   15.08941700
_cell_length_b   7.14452300
_cell_length_c   7.15182160
_cell_angle_alpha   89.14321778
_cell_angle_beta   90.00000000
_cell_angle_gamma   90.00000000
_symmetry_Int_Tables_number   1
_chemical_formula_structural   Cu39NiC32
_chemical_formula_sum   'Cu39 Ni1 C32'
_cell_volume   770.92798915
_cell_formula_units_Z   1
loop_
 _symmetry_equiv_pos_site_id
 _symmetry_equiv_pos_as_xyz
  1  'x, y, z'
loop_
 _atom_site_type_symbol
 _atom_site_label
 _atom_site_symmetry_multiplicity
 _atom_site_fract_x
 _atom_site_fract_y
 _atom_site_fract_z
 _atom_site_occupancy
  C  C0  1  0.17207200  0.89669800  0.99695800  1
  C  C1  1  0.42921200  0.30195600  0.91465400  1
  C  C2  1  0.32792800  0.89669800  0.49695800  1
  C  C3  1  0.57078800  0.69804400  0.08534600  1
  C  C4  1  0.67207200  0.10330200  0.50304200  1
  C  C5  1  0.82792800  0.10330200  0.00304200  1
  C  C6  1  0.92921200  0.69804400  0.58534600  1
  C  C7  1  0.07078800  0.30195600  0.41465400  1
  C  C8  1  0.37575600  0.84940200  0.03715500  1
  C  C9  1  0.62424400  0.15059800  0.96284500  1
  C  C10  1  0.12424400  0.84940200  0.53715500  1
  C  C11  1  0.87575600  0.15059800  0.46284500  1
  C  C12  1  0.99939100  0.24262700  0.76628800  1
  C  C13  1  0.47209100  0.79718900  0.40072300  1
  C  C14  1  0.12018300  0.31975200  0.99182000  1
  C  C15  1  0.75301500  0.45762000  0.99969300  1
  C  C16  1  0.74698500  0.45762000  0.49969300  1
  C  C17  1  0.00060900  0.75737300  0.23371200  1
  C  C18  1  0.25301500  0.54238000  0.50030700  1
  C  C19  1  0.37981700  0.31975200  0.49182000  1
  C  C20  1  0.27889500  0.20931100  0.98093900  1
  C  C21  1  0.49939100  0.75737300  0.73371200  1
  C  C22  1  0.50060900  0.24262700  0.26628800  1
  C  C23  1  0.02790900  0.79718900  0.90072300  1
  C  C24  1  0.22110500  0.20931100  0.48093900  1
  C  C25  1  0.62018300  0.68024800  0.50818000  1
  C  C26  1  0.77889500  0.79068900  0.51906100  1
  C  C27  1  0.52790900  0.20281100  0.59927700  1
  C  C28  1  0.87981700  0.68024800  0.00818000  1
  C  C29  1  0.97209100  0.20281100  0.09927700  1
  C  C30  1  0.24698500  0.54238000  0.00030700  1
  C  C31  1  0.72110500  0.79068900  0.01906100  1
  Cu  Cu32  1  0.80820791  0.59793602  0.51553135  1
  Cu  Cu33  1  0.65007372  0.89728564  0.01920715  1
  Cu  Cu34  1  0.56505827  0.15894994  0.38579860  1
  Cu  Cu35  1  0.84165535  0.53066692  0.00460784  1
  Cu  Cu36  1  0.52578962  0.23447748  0.08736101  1
  Cu  Cu37  1  0.91363885  0.18462020  0.23584279  1
  Cu  Cu38  1  0.48078125  0.74204942  0.90757912  1
  Cu  Cu39  1  0.95670995  0.71165453  0.87535709  1
  Cu  Cu40  1  0.30622381  0.40035204  0.95770032  1
  Cu  Cu41  1  0.41753762  0.34046761  0.30719910  1
  Cu  Cu42  1  0.16025819  0.08775068  0.45600177  1
  Cu  Cu43  1  0.19498120  0.41702736  0.48411569  1
  Cu  Cu44  1  0.44563044  0.26301447  0.64132920  1
  Cu  Cu45  1  0.79108660  0.82905316  0.02411546  1
  Cu  Cu46  1  0.42152849  0.82628115  0.30308557  1
  Cu  Cu47  1  0.06146374  0.82277760  0.07576393  1
  Cu  Cu48  1  0.08953116  0.30180625  0.82933481  1
  Cu  Cu49  1  0.34067338  0.08899371  0.97947386  1
  Cu  Cu50  1  0.60393382  0.13212829  0.73163980  1
  Cu  Cu51  1  0.32764205  0.16983538  0.46894319  1
  Cu  Cu52  1  0.58304478  0.68312085  0.71169647  1
  Cu  Cu53  1  0.78476088  0.29524422  0.48280026  1
  Cu  Cu54  1  0.91665844  0.64981784  0.20273759  1
  Cu  Cu55  1  0.84011525  0.90321252  0.52149807  1
  Ni  Ni56  1  0.65978700  0.49797200  0.47562800  1
  Cu  Cu57  1  0.19371933  0.16601638  0.02479236  1
  Cu  Cu58  1  0.21512747  0.75793423  0.49223629  1
  Cu  Cu59  1  0.02954316  0.76453019  0.40158935  1
  Cu  Cu60  1  0.45393868  0.82761959  0.59358842  1
  Cu  Cu61  1  0.94590546  0.13547350  0.90780654  1
  Cu  Cu62  1  0.16404486  0.50834946  0.03053690  1
  Cu  Cu63  1  0.34102117  0.49327609  0.54779644  1
  Cu  Cu64  1  0.27577103  0.72893814  0.02914579  1
  Cu  Cu65  1  0.69134085  0.82820967  0.46575891  1
  Cu  Cu66  1  0.71469088  0.29167041  0.97644683  1
  Cu  Cu67  1  0.55604114  0.71364294  0.36174959  1
  Cu  Cu68  1  0.69369762  0.58962219  0.03782113  1
  Cu  Cu69  1  0.97473019  0.22972230  0.57293745  1
  Cu  Cu70  1  0.04232555  0.28795897  0.13752442  1
  Cu  Cu71  1  0.08731700  0.85239181  0.79362031  1
