# generated using pymatgen
data_Cu7NiC8
_symmetry_space_group_name_H-M   'P 1'
_cell_length_a   6.01055500
_cell_length_b   6.97083931
_cell_length_c   8.67770599
_cell_angle_alpha   91.70999675
_cell_angle_beta   104.65502192
_cell_angle_gamma   91.04044627
_symmetry_Int_Tables_number   1
_chemical_formula_structural   Cu7NiC8
_chemical_formula_sum   'Cu14 Ni2 C16'
_cell_volume   351.47433802
_cell_formula_units_Z   2
loop_
 _symmetry_equiv_pos_site_id
 _symmetry_equiv_pos_as_xyz
  1  'x, y, z'
loop_
 _atom_site_type_symbol
 _atom_site_label
 _atom_site_symmetry_multiplicity
 _atom_site_fract_x
 _atom_site_fract_y
 _atom_site_fract_z
 _atom_site_occupancy
  Ni  Ni0  1  0.31454500  0.05538800  0.40453700  1
  Ni  Ni1  1  0.68545500  0.94461200  0.59546300  1
  C  C2  1  0.00000000  0.50000000  0.50000000  1
  C  C3  1  0.00000000  0.00000000  0.00000000  1
  C  C4  1  0.12277500  0.70523900  0.74671700  1
  C  C5  1  0.09084100  0.24421700  0.70197600  1
  C  C6  1  0.20549100  0.32090800  0.99730000  1
  C  C7  1  0.25798200  0.48160000  0.30904200  1
  C  C8  1  0.49254500  0.53713200  0.81758200  1
  C  C9  1  0.56685100  0.03828500  0.90865600  1
  C  C10  1  0.33842400  0.62810500  0.10512400  1
  C  C11  1  0.66157600  0.37189500  0.89487600  1
  C  C12  1  0.43314900  0.96171500  0.09134400  1
  C  C13  1  0.50745500  0.46286800  0.18241800  1
  C  C14  1  0.74201800  0.51840000  0.69095800  1
  C  C15  1  0.79450900  0.67909200  0.00270000  1
  C  C16  1  0.90915900  0.75578300  0.29802400  1
  C  C17  1  0.87722500  0.29476100  0.25328300  1
  Cu  Cu18  1  0.14540300  0.21448700  0.91469100  1
  Cu  Cu19  1  0.03561100  0.23820700  0.58327800  1
  Cu  Cu20  1  0.20689900  0.60326700  0.69981700  1
  Cu  Cu21  1  0.04094500  0.13303400  0.19987700  1
  Cu  Cu22  1  0.26952900  0.45089000  0.42337000  1
  Cu  Cu23  1  0.30384700  0.87019400  0.07195900  1
  Cu  Cu24  1  0.34366900  0.49115700  0.13542400  1
  Cu  Cu25  1  0.65633100  0.50884300  0.86457600  1
  Cu  Cu26  1  0.69615300  0.12980600  0.92804100  1
  Cu  Cu27  1  0.73047100  0.54911000  0.57663000  1
  Cu  Cu28  1  0.95905500  0.86696600  0.80012300  1
  Cu  Cu29  1  0.79310100  0.39673300  0.30018300  1
  Cu  Cu30  1  0.96438900  0.76179300  0.41672200  1
  Cu  Cu31  1  0.85459700  0.78551300  0.08530900  1
