# generated using pymatgen
data_Cu3C7
_symmetry_space_group_name_H-M   'P 1'
_cell_length_a   7.67490796
_cell_length_b   7.67490796
_cell_length_c   5.34718132
_cell_angle_alpha   71.29667907
_cell_angle_beta   71.29667907
_cell_angle_gamma   93.94394037
_symmetry_Int_Tables_number   1
_chemical_formula_structural   Cu3C7
_chemical_formula_sum   'Cu6 C14'
_cell_volume   277.36605416
_cell_formula_units_Z   2
loop_
 _symmetry_equiv_pos_site_id
 _symmetry_equiv_pos_as_xyz
  1  'x, y, z'
loop_
 _atom_site_type_symbol
 _atom_site_label
 _atom_site_symmetry_multiplicity
 _atom_site_fract_x
 _atom_site_fract_y
 _atom_site_fract_z
 _atom_site_occupancy
  C  C0  1  0.87119700  0.59378600  0.76478800  1
  C  C1  1  0.40621400  0.12880300  0.73521200  1
  C  C2  1  0.12880300  0.40621400  0.23521200  1
  C  C3  1  0.59378600  0.87119700  0.26478800  1
  Cu  Cu4  1  0.24771791  0.53871237  0.64685147  1
  Cu  Cu5  1  0.46507793  0.69273965  0.91212701  1
  Cu  Cu6  1  0.73935896  0.46886694  0.34874200  1
  Cu  Cu7  1  0.53758239  0.25947700  0.12236732  1
  Cu  Cu8  1  0.03173967  0.03812319  0.72684635  1
  Cu  Cu9  1  0.01363676  0.98974261  0.27790362  1
  C  C10  1  0.07225000  0.26547700  0.83007300  1
  C  C11  1  0.73452300  0.92775000  0.66992700  1
  C  C12  1  0.92775000  0.73452300  0.16992700  1
  C  C13  1  0.26547700  0.07225000  0.33007300  1
  C  C14  1  0.21056400  0.78943600  0.75000000  1
  C  C15  1  0.78943600  0.21056400  0.25000000  1
  C  C16  1  0.51326300  0.48673700  0.75000000  1
  C  C17  1  0.48673700  0.51326300  0.25000000  1
  C  C18  1  0.77276400  0.22723600  0.75000000  1
  C  C19  1  0.22723600  0.77276400  0.25000000  1
