# generated using pymatgen
data_Cu2Ni2C3
_symmetry_space_group_name_H-M   'P 1'
_cell_length_a   5.38874000
_cell_length_b   10.46881100
_cell_length_c   22.28793400
_cell_angle_alpha   90.00000000
_cell_angle_beta   90.00000000
_cell_angle_gamma   90.00000000
_symmetry_Int_Tables_number   1
_chemical_formula_structural   Cu2Ni2C3
_chemical_formula_sum   'Cu16 Ni16 C24'
_cell_volume   1257.34483540
_cell_formula_units_Z   8
loop_
 _symmetry_equiv_pos_site_id
 _symmetry_equiv_pos_as_xyz
  1  'x, y, z'
loop_
 _atom_site_type_symbol
 _atom_site_label
 _atom_site_symmetry_multiplicity
 _atom_site_fract_x
 _atom_site_fract_y
 _atom_site_fract_z
 _atom_site_occupancy
  C  C0  1  0.70471800  0.25000000  0.54770700  1
  C  C1  1  0.20471800  0.25000000  0.95229300  1
  C  C2  1  0.29528200  0.75000000  0.45229300  1
  C  C3  1  0.79528200  0.75000000  0.04770700  1
  C  C4  1  0.79328100  0.09150200  0.31759800  1
  C  C5  1  0.29328100  0.40849800  0.18240200  1
  C  C6  1  0.20671900  0.59150200  0.68240200  1
  C  C7  1  0.70671900  0.90849800  0.81759800  1
  C  C8  1  0.20671900  0.90849800  0.68240200  1
  C  C9  1  0.70671900  0.59150200  0.81759800  1
  C  C10  1  0.79328100  0.40849800  0.31759800  1
  C  C11  1  0.29328100  0.09150200  0.18240200  1
  C  C12  1  0.01130100  0.25000000  0.32340400  1
  C  C13  1  0.51130100  0.25000000  0.17659600  1
  C  C14  1  0.98869900  0.75000000  0.67659600  1
  C  C15  1  0.48869900  0.75000000  0.82340400  1
  C  C16  1  0.81235600  0.01067000  0.40795300  1
  C  C17  1  0.31235600  0.48933000  0.09204700  1
  C  C18  1  0.18764400  0.51067000  0.59204700  1
  C  C19  1  0.68764400  0.98933000  0.90795300  1
  C  C20  1  0.18764400  0.98933000  0.59204700  1
  C  C21  1  0.68764400  0.51067000  0.90795300  1
  C  C22  1  0.81235600  0.48933000  0.40795300  1
  C  C23  1  0.31235600  0.01067000  0.09204700  1
  Cu  Cu24  1  0.07595031  0.99661716  0.42771369  1
  Ni  Ni25  1  0.57509100  0.50530200  0.07804300  1
  Cu  Cu26  1  0.88804213  0.50540703  0.58149201  1
  Ni  Ni27  1  0.42490900  0.00530200  0.92195700  1
  Cu  Cu28  1  0.91211729  0.00202510  0.59614925  1
  Ni  Ni29  1  0.42490900  0.49469800  0.92195700  1
  Cu  Cu30  1  0.04856120  0.49788822  0.41425732  1
  Ni  Ni31  1  0.57509100  0.99469800  0.07804300  1
  Ni  Ni32  1  0.68151700  0.88951800  0.39588300  1
  Cu  Cu33  1  0.16930873  0.62849109  0.10910177  1
  Cu  Cu34  1  0.28828668  0.39489703  0.61042071  1
  Cu  Cu35  1  0.82361157  0.09896551  0.89803270  1
  Cu  Cu36  1  0.30719987  0.10980974  0.60121408  1
  Ni  Ni37  1  0.81848300  0.38951800  0.89588300  1
  Ni  Ni38  1  0.68151700  0.61048200  0.39588300  1
  Ni  Ni39  1  0.18151700  0.88951800  0.10411700  1
  Cu  Cu40  1  0.64743438  0.10752264  0.44616705  1
  Ni  Ni41  1  0.17733200  0.40198300  0.05277100  1
  Cu  Cu42  1  0.33236483  0.60060948  0.55861596  1
  Ni  Ni43  1  0.82266800  0.90198300  0.94722900  1
  Ni  Ni44  1  0.32266800  0.90198300  0.55277100  1
  Cu  Cu45  1  0.84735680  0.59426496  0.94503353  1
  Cu  Cu46  1  0.68527282  0.39403161  0.45413166  1
  Ni  Ni47  1  0.17733200  0.09801700  0.05277100  1
  Cu  Cu48  1  0.18500660  0.25901637  0.50939781  1
  Ni  Ni49  1  0.70956500  0.25000000  0.99242100  1
  Cu  Cu50  1  0.79842480  0.76139912  0.48789212  1
  Ni  Ni51  1  0.29043500  0.75000000  0.00757900  1
  Ni  Ni52  1  0.86567700  0.25000000  0.67432300  1
  Cu  Cu53  1  0.39821933  0.23653813  0.82027533  1
  Ni  Ni54  1  0.13432300  0.75000000  0.32567700  1
  Cu  Cu55  1  0.62528704  0.75154122  0.17610223  1
