# generated using pymatgen
data_Cu2C
_symmetry_space_group_name_H-M   'P 1'
_cell_length_a   7.04896300
_cell_length_b   8.61973492
_cell_length_c   9.87723836
_cell_angle_alpha   97.32880490
_cell_angle_beta   106.37528906
_cell_angle_gamma   101.57590944
_symmetry_Int_Tables_number   1
_chemical_formula_structural   Cu2C
_chemical_formula_sum   'Cu24 C12'
_cell_volume   553.15604318
_cell_formula_units_Z   12
loop_
 _symmetry_equiv_pos_site_id
 _symmetry_equiv_pos_as_xyz
  1  'x, y, z'
loop_
 _atom_site_type_symbol
 _atom_site_label
 _atom_site_symmetry_multiplicity
 _atom_site_fract_x
 _atom_site_fract_y
 _atom_site_fract_z
 _atom_site_occupancy
  C  C0  1  0.53254900  0.61367500  0.78380100  1
  C  C1  1  0.46745100  0.38632500  0.21619900  1
  C  C2  1  0.03807500  0.19369500  0.98971300  1
  C  C3  1  0.96192500  0.80630500  0.01028700  1
  C  C4  1  0.24877500  0.80374400  0.58852700  1
  C  C5  1  0.75122500  0.19625600  0.41147300  1
  C  C6  1  0.79655600  0.90284100  0.65933300  1
  C  C7  1  0.20344400  0.09715900  0.34066700  1
  C  C8  1  0.99299700  0.50422600  0.74428200  1
  C  C9  1  0.00700300  0.49577400  0.25571800  1
  C  C10  1  0.47945800  0.20676000  0.87712900  1
  C  C11  1  0.52054200  0.79324000  0.12287100  1
  Cu  Cu12  1  0.91175230  0.80306801  0.56518589  1
  Cu  Cu13  1  0.09105035  0.20744667  0.44450484  1
  Cu  Cu14  1  0.16541085  0.38289210  0.20326389  1
  Cu  Cu15  1  0.84275657  0.63433624  0.80167735  1
  Cu  Cu16  1  0.73500329  0.19504796  0.95087440  1
  Cu  Cu17  1  0.26941898  0.76707350  0.05432122  1
  Cu  Cu18  1  0.90871321  0.61676486  0.11586645  1
  Cu  Cu19  1  0.02000142  0.35426562  0.83006606  1
  Cu  Cu20  1  0.22879794  0.94576155  0.40742296  1
  Cu  Cu21  1  0.75874489  0.07957230  0.59141699  1
  Cu  Cu22  1  0.74363706  0.36219015  0.24151607  1
  Cu  Cu23  1  0.23549822  0.58210490  0.73283958  1
  Cu  Cu24  1  0.94652498  0.97863654  0.86028830  1
  Cu  Cu25  1  0.05973551  0.01012892  0.16499993  1
  Cu  Cu26  1  0.47254928  0.62622449  0.18439446  1
  Cu  Cu27  1  0.49337410  0.38641231  0.78005009  1
  Cu  Cu28  1  0.66903201  0.92677613  0.23999163  1
  Cu  Cu29  1  0.34761340  0.03105429  0.77278585  1
  Cu  Cu30  1  0.17905577  0.59842786  0.44767136  1
  Cu  Cu31  1  0.81455844  0.42208879  0.59134960  1
  Cu  Cu32  1  0.34823666  0.20797552  0.01006641  1
  Cu  Cu33  1  0.61941056  0.74074709  0.98768623  1
  Cu  Cu34  1  0.55573729  0.76399617  0.63143625  1
  Cu  Cu35  1  0.40641846  0.22740671  0.36323034  1
