# generated using pymatgen
data_CuC3
_symmetry_space_group_name_H-M   'P 1'
_cell_length_a   7.61976088
_cell_length_b   7.61976088
_cell_length_c   7.61976088
_cell_angle_alpha   130.18212981
_cell_angle_beta   130.18212981
_cell_angle_gamma   73.11576786
_symmetry_Int_Tables_number   1
_chemical_formula_structural   CuC3
_chemical_formula_sum   'Cu2 C6'
_cell_volume   252.15498964
_cell_formula_units_Z   2
loop_
 _symmetry_equiv_pos_site_id
 _symmetry_equiv_pos_as_xyz
  1  'x, y, z'
loop_
 _atom_site_type_symbol
 _atom_site_label
 _atom_site_symmetry_multiplicity
 _atom_site_fract_x
 _atom_site_fract_y
 _atom_site_fract_z
 _atom_site_occupancy
  Cu  Cu0  1  0.50677966  0.51513489  0.01670144  1
  Cu  Cu1  1  0.20675109  0.76379275  0.48726786  1
  C  C2  1  0.00000000  0.00000000  0.00000000  1
  C  C3  1  0.75000000  0.25000000  0.50000000  1
  C  C4  1  0.14589000  0.12500000  0.52089000  1
  C  C5  1  0.87500000  0.39589000  0.02089000  1
  C  C6  1  0.37500000  0.85411000  0.97911000  1
  C  C7  1  0.60411000  0.62500000  0.47911000  1
