# generated using pymatgen
data_Cu3C2
_symmetry_space_group_name_H-M   'P 1'
_cell_length_a   5.11102819
_cell_length_b   9.48763838
_cell_length_c   8.85196425
_cell_angle_alpha   108.09820047
_cell_angle_beta   90.02881010
_cell_angle_gamma   89.97116815
_symmetry_Int_Tables_number   1
_chemical_formula_structural   Cu3C2
_chemical_formula_sum   'Cu24 C16'
_cell_volume   408.00899156
_cell_formula_units_Z   8
loop_
 _symmetry_equiv_pos_site_id
 _symmetry_equiv_pos_as_xyz
  1  'x, y, z'
loop_
 _atom_site_type_symbol
 _atom_site_label
 _atom_site_symmetry_multiplicity
 _atom_site_fract_x
 _atom_site_fract_y
 _atom_site_fract_z
 _atom_site_occupancy
  C  C0  1  0.00097500  0.43010800  0.14066900  1
  C  C1  1  0.00098000  0.93013800  0.64070000  1
  C  C2  1  0.49936900  0.93292300  0.14736700  1
  C  C3  1  0.49937200  0.43291200  0.64738200  1
  C  C4  1  0.99995700  0.17362400  0.39298200  1
  C  C5  1  0.99995400  0.67362100  0.89298500  1
  C  C6  1  0.50022700  0.67946700  0.39127700  1
  C  C7  1  0.50020200  0.17949500  0.89124300  1
  C  C8  1  0.00253000  0.01432000  0.00520700  1
  C  C9  1  0.00250100  0.51430800  0.50519300  1
  C  C10  1  0.49870500  0.50054400  0.00008900  1
  C  C11  1  0.49882800  0.00050900  0.50008200  1
  C  C12  1  0.00110700  0.75207200  0.24703000  1
  C  C13  1  0.00109100  0.25206000  0.74702100  1
  C  C14  1  0.49894800  0.75582400  0.75605400  1
  C  C15  1  0.49897400  0.25582200  0.25602900  1
  Cu  Cu16  1  0.28345985  0.60865356  0.16492983  1
  Cu  Cu17  1  0.26313401  0.14342331  0.68969907  1
  Cu  Cu18  1  0.12602534  0.87094581  0.13622280  1
  Cu  Cu19  1  0.12964746  0.34649089  0.59376275  1
  Cu  Cu20  1  0.35200372  0.10240791  0.03208280  1
  Cu  Cu21  1  0.33934302  0.61698141  0.56047002  1
  Cu  Cu22  1  0.19666473  0.86776079  0.44749827  1
  Cu  Cu23  1  0.18930984  0.37081387  0.92216695  1
  Cu  Cu24  1  0.78205704  0.14140386  0.20082786  1
  Cu  Cu25  1  0.80787925  0.64158803  0.68538025  1
  Cu  Cu26  1  0.36530946  0.10831382  0.34925292  1
  Cu  Cu27  1  0.43161646  0.61742840  0.86333568  1
  Cu  Cu28  1  0.65647477  0.34561812  0.10525937  1
  Cu  Cu29  1  0.64138453  0.86035744  0.61219598  1
  Cu  Cu30  1  0.21298203  0.37525085  0.31599574  1
  Cu  Cu31  1  0.17917197  0.88497292  0.84394673  1
  Cu  Cu32  1  0.81024152  0.61405934  0.07301071  1
  Cu  Cu33  1  0.86769288  0.10733179  0.55127826  1
  Cu  Cu34  1  0.72468148  0.36886059  0.44016238  1
  Cu  Cu35  1  0.67344843  0.86225827  0.94424346  1
  Cu  Cu36  1  0.87741991  0.62109960  0.39641355  1
  Cu  Cu37  1  0.91937938  0.12119246  0.89709039  1
  Cu  Cu38  1  0.69514585  0.85666786  0.30579655  1
  Cu  Cu39  1  0.67998881  0.34698844  0.79898637  1
