# generated using pymatgen
data_CuC5
_symmetry_space_group_name_H-M   'P 1'
_cell_length_a   8.34544509
_cell_length_b   8.34544509
_cell_length_c   8.34544489
_cell_angle_alpha   61.95934290
_cell_angle_beta   61.95934290
_cell_angle_gamma   61.95934831
_symmetry_Int_Tables_number   1
_chemical_formula_structural   CuC5
_chemical_formula_sum   'Cu6 C30'
_cell_volume   429.00947989
_cell_formula_units_Z   6
loop_
 _symmetry_equiv_pos_site_id
 _symmetry_equiv_pos_as_xyz
  1  'x, y, z'
loop_
 _atom_site_type_symbol
 _atom_site_label
 _atom_site_symmetry_multiplicity
 _atom_site_fract_x
 _atom_site_fract_y
 _atom_site_fract_z
 _atom_site_occupancy
  C  C0  1  0.00055100  0.00055100  0.00055100  1
  C  C1  1  0.50027400  0.50027400  0.50027400  1
  C  C2  1  0.86028400  0.86028400  0.86028400  1
  C  C3  1  0.35774900  0.35774900  0.35774900  1
  C  C4  1  0.14198300  0.14198300  0.14198300  1
  C  C5  1  0.64181600  0.64181600  0.64181600  1
  Cu  Cu6  1  0.48515449  0.73189669  0.06505895  1
  Cu  Cu7  1  0.73868242  0.02971284  0.47057106  1
  Cu  Cu8  1  0.03607070  0.45720037  0.75865451  1
  Cu  Cu9  1  0.94465020  0.49038259  0.28777568  1
  Cu  Cu10  1  0.26868138  0.94220898  0.54000361  1
  Cu  Cu11  1  0.53626546  0.27289846  0.94421728  1
  C  C12  1  0.66688500  0.89782300  0.49842100  1
  C  C13  1  0.89782300  0.49842100  0.66688500  1
  C  C14  1  0.49842100  0.66688500  0.89782300  1
  C  C15  1  0.25373900  0.90440900  0.05451000  1
  C  C16  1  0.61586100  0.82467300  0.00233900  1
  C  C17  1  0.43963900  0.60269700  0.25208200  1
  C  C18  1  0.90440900  0.05451000  0.25373900  1
  C  C19  1  0.60269700  0.25208200  0.43963900  1
  C  C20  1  0.99083100  0.39607100  0.17143900  1
  C  C21  1  0.25208200  0.43963900  0.60269700  1
  C  C22  1  0.93720400  0.75475000  0.08734900  1
  C  C23  1  0.17143900  0.99083100  0.39607100  1
  C  C24  1  0.82467300  0.00233900  0.61586100  1
  C  C25  1  0.05451000  0.25373900  0.90440900  1
  C  C26  1  0.74450700  0.56786100  0.39771200  1
  C  C27  1  0.00233900  0.61586100  0.82467300  1
  C  C28  1  0.39771200  0.74450700  0.56786100  1
  C  C29  1  0.08734900  0.93720400  0.75475000  1
  C  C30  1  0.56786100  0.39771200  0.74450700  1
  C  C31  1  0.39607100  0.17143900  0.99083100  1
  C  C32  1  0.75475000  0.08734900  0.93720400  1
  C  C33  1  0.51379600  0.32201600  0.10132000  1
  C  C34  1  0.10132000  0.51379600  0.32201600  1
  C  C35  1  0.32201600  0.10132000  0.51379600  1
