# generated using pymatgen
data_Cu4(NiC)11
_symmetry_space_group_name_H-M   'P 1'
_cell_length_a   8.64252444
_cell_length_b   8.64252483
_cell_length_c   8.64252432
_cell_angle_alpha   80.65567228
_cell_angle_beta   80.65567549
_cell_angle_gamma   80.65567069
_symmetry_Int_Tables_number   1
_chemical_formula_structural   Cu4(NiC)11
_chemical_formula_sum   'Cu8 Ni22 C22'
_cell_volume   622.35750795
_cell_formula_units_Z   2
loop_
 _symmetry_equiv_pos_site_id
 _symmetry_equiv_pos_as_xyz
  1  'x, y, z'
loop_
 _atom_site_type_symbol
 _atom_site_label
 _atom_site_symmetry_multiplicity
 _atom_site_fract_x
 _atom_site_fract_y
 _atom_site_fract_z
 _atom_site_occupancy
  C  C0  1  0.49796200  0.49796200  0.49796200  1
  C  C1  1  0.99796200  0.99796200  0.99796200  1
  C  C2  1  0.24639400  0.24639400  0.24639400  1
  C  C3  1  0.74639400  0.74639400  0.74639400  1
  C  C4  1  0.74318200  0.60622700  0.08082900  1
  C  C5  1  0.25012400  0.68028600  0.81921600  1
  C  C6  1  0.75012400  0.31921600  0.18028600  1
  C  C7  1  0.31921600  0.18028600  0.75012400  1
  C  C8  1  0.10622700  0.24318200  0.58082900  1
  C  C9  1  0.24318200  0.58082900  0.10622700  1
  C  C10  1  0.58082900  0.10622700  0.24318200  1
  C  C11  1  0.81921600  0.25012400  0.68028600  1
  C  C12  1  0.08082900  0.74318200  0.60622700  1
  C  C13  1  0.60622700  0.08082900  0.74318200  1
  C  C14  1  0.91873400  0.25651900  0.39359800  1
  C  C15  1  0.25651900  0.39359800  0.91873400  1
  C  C16  1  0.39359800  0.91873400  0.25651900  1
  C  C17  1  0.89359800  0.75651900  0.41873400  1
  C  C18  1  0.75651900  0.41873400  0.89359800  1
  C  C19  1  0.41873400  0.89359800  0.75651900  1
  C  C20  1  0.68028600  0.81921600  0.25012400  1
  C  C21  1  0.18028600  0.75012400  0.31921600  1
  Ni  Ni22  1  0.75676500  0.75563200  0.10220100  1
  Ni  Ni23  1  0.75563200  0.10220100  0.75676500  1
  Ni  Ni24  1  0.48737600  0.20330400  0.72160800  1
  Ni  Ni25  1  0.72160800  0.48737600  0.20330400  1
  Ni  Ni26  1  0.10220100  0.75676500  0.75563200  1
  Ni  Ni27  1  0.70330400  0.98737600  0.22160800  1
  Ni  Ni28  1  0.22160800  0.70330400  0.98737600  1
  Ni  Ni29  1  0.98737600  0.22160800  0.70330400  1
  Cu  Cu30  1  0.24890501  0.23002547  0.90113029  1
  Ni  Ni31  1  0.89791900  0.24296000  0.24401800  1
  Ni  Ni32  1  0.24401800  0.89791900  0.24296000  1
  Ni  Ni33  1  0.74401800  0.74296000  0.39791900  1
  Ni  Ni34  1  0.39791900  0.74401800  0.74296000  1
  Cu  Cu35  1  0.73919783  0.39861317  0.75268326  1
  Cu  Cu36  1  0.60707425  0.24379291  0.26343450  1
  Ni  Ni37  1  0.25563200  0.25676500  0.60220100  1
  Ni  Ni38  1  0.79613000  0.27845800  0.51221300  1
  Cu  Cu39  1  0.27688725  0.50887786  0.78997563  1
  Ni  Ni40  1  0.51221300  0.79613000  0.27845800  1
  Cu  Cu41  1  0.00746181  0.79094092  0.28831971  1
  Ni  Ni42  1  0.77845800  0.29613000  0.01221300  1
  Ni  Ni43  1  0.29613000  0.01221300  0.77845800  1
  Ni  Ni44  1  0.07596000  0.24961700  0.42376700  1
  Cu  Cu45  1  0.25598884  0.43788250  0.07928465  1
  Cu  Cu46  1  0.40008416  0.06704732  0.25803621  1
  Ni  Ni47  1  0.92376700  0.74961700  0.57596000  1
  Ni  Ni48  1  0.74961700  0.57596000  0.92376700  1
  Cu  Cu49  1  0.55673237  0.91919216  0.75346766  1
  Ni  Ni50  1  0.20330400  0.72160800  0.48737600  1
  Ni  Ni51  1  0.25676500  0.60220100  0.25563200  1
