# generated using pymatgen
data_CuNiC3
_symmetry_space_group_name_H-M   'P 1'
_cell_length_a   3.36588200
_cell_length_b   3.36588200
_cell_length_c   6.28566600
_cell_angle_alpha   90.00000000
_cell_angle_beta   90.00000000
_cell_angle_gamma   90.00000000
_symmetry_Int_Tables_number   1
_chemical_formula_structural   CuNiC3
_chemical_formula_sum   'Cu1 Ni1 C3'
_cell_volume   71.21132612
_cell_formula_units_Z   1
loop_
 _symmetry_equiv_pos_site_id
 _symmetry_equiv_pos_as_xyz
  1  'x, y, z'
loop_
 _atom_site_type_symbol
 _atom_site_label
 _atom_site_symmetry_multiplicity
 _atom_site_fract_x
 _atom_site_fract_y
 _atom_site_fract_z
 _atom_site_occupancy
  Ni  Ni0  1  0.50000000  0.00000000  0.25563200  1
  Cu  Cu1  1  0.97221368  0.48228406  0.66841416  1
  C  C2  1  0.00000000  0.00000000  0.00000000  1
  C  C3  1  0.50000000  0.00000000  0.63174600  1
  C  C4  1  0.00000000  0.50000000  0.36825400  1
