# generated using pymatgen
data_Cu2Ni3C25
_symmetry_space_group_name_H-M   'P 1'
_cell_length_a   4.85058900
_cell_length_b   5.81328469
_cell_length_c   13.68611776
_cell_angle_alpha   78.50804397
_cell_angle_beta   88.76880177
_cell_angle_gamma   88.44977622
_symmetry_Int_Tables_number   1
_chemical_formula_structural   Cu2Ni3C25
_chemical_formula_sum   'Cu2 Ni3 C25'
_cell_volume   377.99305810
_cell_formula_units_Z   1
loop_
 _symmetry_equiv_pos_site_id
 _symmetry_equiv_pos_as_xyz
  1  'x, y, z'
loop_
 _atom_site_type_symbol
 _atom_site_label
 _atom_site_symmetry_multiplicity
 _atom_site_fract_x
 _atom_site_fract_y
 _atom_site_fract_z
 _atom_site_occupancy
  C  C0  1  0.47261000  0.49874500  0.01255700  1
  C  C1  1  0.50272200  0.69948200  0.40037400  1
  C  C2  1  0.49964500  0.30650600  0.59917800  1
  C  C3  1  0.49578200  0.09413200  0.20079200  1
  C  C4  1  0.54577400  0.91261700  0.79263700  1
  C  C5  1  0.99470200  0.60201200  0.20187400  1
  C  C6  1  0.99879000  0.19808900  0.39998900  1
  C  C7  1  0.98188800  0.38803600  0.80232100  1
  C  C8  1  0.01624800  0.79990700  0.60156000  1
  C  C9  1  0.98750300  0.99724000  0.98947500  1
  Ni  Ni10  1  0.80467700  0.07820900  0.85670300  1
  Cu  Cu11  1  0.68715622  0.79079514  0.26536865  1
  Ni  Ni12  1  0.69358200  0.00522200  0.65790500  1
  Cu  Cu13  1  0.32177263  0.38511490  0.14714605  1
  Ni  Ni14  1  0.31806600  0.60780200  0.53595700  1
  C  C15  1  0.79496300  0.28293700  0.26091700  1
  C  C16  1  0.79722100  0.49199700  0.65985700  1
  C  C17  1  0.80425300  0.67485000  0.05942300  1
  C  C18  1  0.80233300  0.87654500  0.46091800  1
  C  C19  1  0.69737100  0.17254100  0.06328100  1
  C  C20  1  0.69482500  0.37676000  0.46052200  1
  C  C21  1  0.68921900  0.56704200  0.87170100  1
  C  C22  1  0.30382000  0.02057200  0.33869700  1
  C  C23  1  0.32043400  0.83073400  0.93075400  1
  C  C24  1  0.29603500  0.23288900  0.73477900  1
  C  C25  1  0.20686600  0.11814000  0.53847000  1
  C  C26  1  0.19613700  0.52381600  0.34073900  1
  C  C27  1  0.19591800  0.91678100  0.13100800  1
  C  C28  1  0.19701200  0.32158500  0.94140000  1
  C  C29  1  0.20549000  0.71347200  0.74687400  1
