# generated using pymatgen
data_Cu11C5
_symmetry_space_group_name_H-M   'P 1'
_cell_length_a   9.81485754
_cell_length_b   8.40622600
_cell_length_c   11.52614471
_cell_angle_alpha   90.00000000
_cell_angle_beta   101.24791489
_cell_angle_gamma   90.00000000
_symmetry_Int_Tables_number   1
_chemical_formula_structural   Cu11C5
_chemical_formula_sum   'Cu44 C20'
_cell_volume   932.70909771
_cell_formula_units_Z   4
loop_
 _symmetry_equiv_pos_site_id
 _symmetry_equiv_pos_as_xyz
  1  'x, y, z'
loop_
 _atom_site_type_symbol
 _atom_site_label
 _atom_site_symmetry_multiplicity
 _atom_site_fract_x
 _atom_site_fract_y
 _atom_site_fract_z
 _atom_site_occupancy
  C  C0  1  0.03761400  0.01537300  0.78355500  1
  C  C1  1  0.46238600  0.51537300  0.71644500  1
  C  C2  1  0.53761400  0.48462700  0.28355500  1
  C  C3  1  0.96238600  0.98462700  0.21644500  1
  C  C4  1  0.18178200  0.39566200  0.82844600  1
  C  C5  1  0.06343500  0.38850900  0.24135900  1
  C  C6  1  0.31821800  0.89566200  0.67155400  1
  C  C7  1  0.26035300  0.00452700  0.42619600  1
  C  C8  1  0.28400700  0.36952100  0.45216000  1
  C  C9  1  0.21599300  0.86952100  0.04784000  1
  C  C10  1  0.23964700  0.50452700  0.07380400  1
  C  C11  1  0.43656500  0.88850900  0.25864100  1
  C  C12  1  0.56343500  0.11149100  0.74135900  1
  C  C13  1  0.76035300  0.49547300  0.92619600  1
  C  C14  1  0.78400700  0.13047900  0.95216000  1
  C  C15  1  0.71599300  0.63047900  0.54784000  1
  C  C16  1  0.73964700  0.99547300  0.57380400  1
  C  C17  1  0.68178200  0.10433800  0.32844600  1
  C  C18  1  0.93656500  0.61149100  0.75864100  1
  C  C19  1  0.81821800  0.60433800  0.17155400  1
  Cu  Cu20  1  0.06777911  0.53011701  0.75534125  1
  Cu  Cu21  1  0.15435067  0.40439973  0.98090959  1
  Cu  Cu22  1  0.10869790  0.23676620  0.76945275  1
  Cu  Cu23  1  0.20743190  0.96653216  0.91211192  1
  Cu  Cu24  1  0.20353716  0.93290740  0.66211645  1
  Cu  Cu25  1  0.06293778  0.23214216  0.20322040  1
  Cu  Cu26  1  0.09573543  0.95944551  0.36134726  1
  Cu  Cu27  1  0.14369974  0.41588287  0.37152471  1
  Cu  Cu28  1  0.12071466  0.93642106  0.12066169  1
  Cu  Cu29  1  0.11796796  0.49819843  0.17486117  1
  Cu  Cu30  1  0.26569060  0.19403243  0.47662215  1
  Cu  Cu31  1  0.30963358  0.46057640  0.81290000  1
  Cu  Cu32  1  0.28134223  0.46198560  0.55773757  1
  Cu  Cu33  1  0.38890717  0.77857528  0.70109927  1
  Cu  Cu34  1  0.33957185  0.93974690  0.54156015  1
  Cu  Cu35  1  0.42149582  0.05011929  0.74106756  1
  Cu  Cu36  1  0.26043502  0.68651784  0.04042190  1
  Cu  Cu37  1  0.34996924  0.03415160  0.32983478  1
  Cu  Cu38  1  0.38453259  0.35957584  0.38288276  1
  Cu  Cu39  1  0.37134388  0.92306547  0.11872763  1
  Cu  Cu40  1  0.36806480  0.41733823  0.12357184  1
  Cu  Cu41  1  0.39877475  0.73396814  0.27085775  1
  Cu  Cu42  1  0.56688339  0.27164455  0.69977176  1
  Cu  Cu43  1  0.61141594  0.55454065  0.86945835  1
  Cu  Cu44  1  0.62641012  0.07453526  0.86618762  1
  Cu  Cu45  1  0.63686499  0.64003669  0.61826671  1
  Cu  Cu46  1  0.63558538  0.99105349  0.64848180  1
  Cu  Cu47  1  0.75226322  0.31945850  0.98797779  1
  Cu  Cu48  1  0.55616000  0.96321320  0.27611107  1
  Cu  Cu49  1  0.64968519  0.10036567  0.46107546  1
  Cu  Cu50  1  0.64752603  0.26370347  0.29247246  1
  Cu  Cu51  1  0.71021255  0.54234822  0.44632773  1
  Cu  Cu52  1  0.66755457  0.55991374  0.16596662  1
  Cu  Cu53  1  0.75508686  0.78651803  0.53075533  1
  Cu  Cu54  1  0.86457083  0.46623047  0.85222113  1
  Cu  Cu55  1  0.90092020  0.13932118  0.86145401  1
  Cu  Cu56  1  0.84964758  0.56698502  0.63070724  1
  Cu  Cu57  1  0.87063365  0.04341554  0.63811044  1
  Cu  Cu58  1  0.93012861  0.76347723  0.78703202  1
  Cu  Cu59  1  0.83820970  0.09453946  0.32298340  1
  Cu  Cu60  1  0.79886048  0.03517875  0.05667056  1
  Cu  Cu61  1  0.92840368  0.74483206  0.24071201  1
  Cu  Cu62  1  0.83320723  0.59167758  0.02492174  1
  Cu  Cu63  1  0.90928266  0.46418096  0.22752286  1
