# generated using pymatgen
data_Cu3Ni4C
_symmetry_space_group_name_H-M   'P 1'
_cell_length_a   6.64772858
_cell_length_b   6.64772858
_cell_length_c   5.25756300
_cell_angle_alpha   90.00000000
_cell_angle_beta   90.00000000
_cell_angle_gamma   120.00000581
_symmetry_Int_Tables_number   1
_chemical_formula_structural   Cu3Ni4C
_chemical_formula_sum   'Cu3 Ni4 C1'
_cell_volume   201.21560134
_cell_formula_units_Z   1
loop_
 _symmetry_equiv_pos_site_id
 _symmetry_equiv_pos_as_xyz
  1  'x, y, z'
loop_
 _atom_site_type_symbol
 _atom_site_label
 _atom_site_symmetry_multiplicity
 _atom_site_fract_x
 _atom_site_fract_y
 _atom_site_fract_z
 _atom_site_occupancy
  C  C0  1  0.00000000  0.00000000  0.50000000  1
  Cu  Cu1  1  0.99920929  0.49322598  0.49556129  1
  Ni  Ni2  1  0.49768600  0.50231400  0.50000000  1
  Cu  Cu3  1  0.48808066  0.00323664  0.48908679  1
  Ni  Ni4  1  0.17019800  0.34039600  0.00000000  1
  Ni  Ni5  1  0.17019800  0.82980200  0.00000000  1
  Cu  Cu6  1  0.62367270  0.81652707  0.98074832  1
  Ni  Ni7  1  0.66666700  0.33333300  0.00000000  1
