# generated using pymatgen
data_Cu2C19
_symmetry_space_group_name_H-M   'P 1'
_cell_length_a   9.01960414
_cell_length_b   9.01960384
_cell_length_c   21.90698030
_cell_angle_alpha   91.19743956
_cell_angle_beta   88.80256039
_cell_angle_gamma   120.32203020
_symmetry_Int_Tables_number   1
_chemical_formula_structural   Cu2C19
_chemical_formula_sum   'Cu12 C114'
_cell_volume   1537.95479930
_cell_formula_units_Z   6
loop_
 _symmetry_equiv_pos_site_id
 _symmetry_equiv_pos_as_xyz
  1  'x, y, z'
loop_
 _atom_site_type_symbol
 _atom_site_label
 _atom_site_symmetry_multiplicity
 _atom_site_fract_x
 _atom_site_fract_y
 _atom_site_fract_z
 _atom_site_occupancy
  C  C0  1  0.63785082  0.00507264  0.25083827  1
  C  C1  1  0.36922864  0.36680832  0.24698317  1
  C  C2  1  0.99256878  0.62676055  0.25059580  1
  C  C3  1  0.63319168  0.63077136  0.74698317  1
  C  C4  1  0.99492736  0.36214918  0.75083827  1
  C  C5  1  0.37323945  0.00743122  0.75059580  1
  C  C6  1  0.30451782  0.33840564  0.58417127  1
  C  C7  1  0.03589564  0.70014132  0.58031617  1
  C  C8  1  0.65923578  0.96009355  0.58392880  1
  C  C9  1  0.29985868  0.96410436  0.08031617  1
  C  C10  1  0.66159436  0.69548218  0.08417127  1
  C  C11  1  0.03990645  0.34076422  0.08392880  1
  C  C12  1  0.97118382  0.67173964  0.91750527  1
  C  C13  1  0.70256164  0.03347532  0.91365017  1
  C  C14  1  0.32590178  0.29342755  0.91726280  1
  C  C15  1  0.96652468  0.29743836  0.41365017  1
  C  C16  1  0.32826036  0.02881618  0.41750527  1
  C  C17  1  0.70657245  0.67409822  0.41726280  1
  C  C18  1  0.99620426  0.99475743  0.49927830  1
  C  C19  1  0.00524257  0.00379574  0.99927830  1
  C  C20  1  0.66287126  0.32809043  0.83261130  1
  C  C21  1  0.67190957  0.33712874  0.33261130  1
  C  C22  1  0.32953726  0.66142443  0.16594530  1
  C  C23  1  0.33857557  0.67046274  0.66594530  1
  C  C24  1  0.99400428  0.99668968  0.35229473  1
  C  C25  1  0.00331032  0.00599572  0.85229473  1
  C  C26  1  0.66067128  0.33002268  0.68562773  1
  C  C27  1  0.66997732  0.33932872  0.18562773  1
  C  C28  1  0.32733728  0.66335668  0.01896173  1
  C  C29  1  0.33664332  0.67266272  0.51896173  1
  Cu  Cu30  1  0.67211555  0.69729566  0.24669888  1
  Cu  Cu31  1  0.02179594  0.32779971  0.24081004  1
  Cu  Cu32  1  0.29495010  0.30398865  0.74902532  1
  Cu  Cu33  1  0.67734523  0.98809370  0.74990198  1
  Cu  Cu34  1  0.34088741  0.01567950  0.59747215  1
  Cu  Cu35  1  0.64796901  0.60744674  0.58956847  1
  Cu  Cu36  1  0.97556501  0.64987236  0.07930787  1
  Cu  Cu37  1  0.32085862  0.32303482  0.08197082  1
  Cu  Cu38  1  0.03924864  0.39197896  0.91707470  1
  Cu  Cu39  1  0.32025068  0.94651022  0.91840248  1
  Cu  Cu40  1  0.67103886  0.01103386  0.42570743  1
  Cu  Cu41  1  0.04536912  0.66134495  0.42436870  1
  C  C42  1  0.99872880  0.99680484  0.64878808  1
  C  C43  1  0.00319516  0.00127120  0.14878808  1
  C  C44  1  0.66539580  0.33013784  0.98212108  1
  C  C45  1  0.66986216  0.33460420  0.48212108  1
  C  C46  1  0.33206180  0.66347184  0.31545508  1
  C  C47  1  0.33652816  0.66793820  0.81545508  1
  C  C48  1  0.28782942  0.99188344  0.24926965  1
  C  C49  1  0.00811656  0.71217058  0.74926965  1
  C  C50  1  0.95449642  0.32521644  0.58260265  1
  C  C51  1  0.67478356  0.04550358  0.08260265  1
  C  C52  1  0.62116242  0.65855044  0.91593665  1
  C  C53  1  0.34144956  0.37883758  0.41593665  1
  C  C54  1  0.21078522  0.02606574  0.30678206  1
  C  C55  1  0.82170535  0.78964335  0.30978636  1
  C  C56  1  0.97533997  0.18107895  0.31057048  1
  C  C57  1  0.21035665  0.17829465  0.80978636  1
  C  C58  1  0.97393426  0.78921478  0.80678206  1
  C  C59  1  0.81892105  0.02466003  0.81057048  1
  C  C60  1  0.79704724  0.95692011  0.68958662  1
  C  C61  1  0.15929279  0.20341513  0.69032328  1
  C  C62  1  0.03817430  0.82814081  0.69196733  1
  C  C63  1  0.79658487  0.84070721  0.19032328  1
  C  C64  1  0.04307989  0.20295276  0.18958662  1
  C  C65  1  0.17185919  0.96182570  0.19196733  1
  C  C66  1  0.87745222  0.35939874  0.64011506  1
  C  C67  1  0.48837235  0.12297635  0.64311936  1
  C  C68  1  0.64200697  0.51441195  0.64390348  1
  C  C69  1  0.87702365  0.51162765  0.14311936  1
  C  C70  1  0.64060126  0.12254778  0.14011506  1
  C  C71  1  0.48558805  0.35799303  0.14390348  1
  C  C72  1  0.46371424  0.29025311  0.02291962  1
  C  C73  1  0.82595979  0.53674813  0.02365628  1
  C  C74  1  0.70484130  0.16147381  0.02530033  1
  C  C75  1  0.46325187  0.17404021  0.52365628  1
  C  C76  1  0.70974689  0.53628576  0.52291962  1
  C  C77  1  0.83852619  0.29515870  0.52530033  1
  C  C78  1  0.54411822  0.69273274  0.97344906  1
  C  C79  1  0.15503835  0.45631035  0.97645336  1
  C  C80  1  0.30867297  0.84774595  0.97723748  1
  C  C81  1  0.54368965  0.84496165  0.47645336  1
  C  C82  1  0.30726726  0.45588178  0.47344906  1
  C  C83  1  0.15225405  0.69132703  0.47723748  1
  C  C84  1  0.13038024  0.62358711  0.35625362  1
  C  C85  1  0.49262579  0.87008213  0.35699028  1
  C  C86  1  0.37150730  0.49480781  0.35863433  1
  C  C87  1  0.12991787  0.50737421  0.85699028  1
  C  C88  1  0.37641289  0.86961976  0.85625362  1
  C  C89  1  0.50519219  0.62849270  0.85863433  1
  C  C90  1  0.01817051  0.82884521  0.41289565  1
  C  C91  1  0.81457887  0.99270341  0.41266824  1
  C  C92  1  0.18440703  0.19694726  0.41026108  1
  C  C93  1  0.00729659  0.18542113  0.91266824  1
  C  C94  1  0.17115479  0.98182949  0.91289565  1
  C  C95  1  0.80305274  0.81559297  0.91026108  1
  C  C96  1  0.96579840  0.15929565  0.58594134  1
  C  C97  1  0.17920383  0.03291193  0.59037604  1
  C  C98  1  0.85210555  0.82116528  0.58913115  1
  C  C99  1  0.96708807  0.82079617  0.09037604  1
  C  C100  1  0.84070435  0.03420160  0.08594134  1
  C  C101  1  0.17883472  0.14789445  0.08913115  1
  C  C102  1  0.68483751  0.16217821  0.74622865  1
  C  C103  1  0.48124587  0.32603641  0.74600124  1
  C  C104  1  0.85107403  0.53028026  0.74359408  1
  C  C105  1  0.67396359  0.51875413  0.24600124  1
  C  C106  1  0.83782179  0.31516249  0.24622865  1
  C  C107  1  0.46971974  0.14892597  0.24359408  1
  C  C108  1  0.63246540  0.49262865  0.91927434  1
  C  C109  1  0.84587083  0.36624493  0.92370904  1
  C  C110  1  0.51877255  0.15449828  0.92246415  1
  C  C111  1  0.63375507  0.15412917  0.42370904  1
  C  C112  1  0.50737135  0.36753460  0.41927434  1
  C  C113  1  0.84550172  0.48122745  0.42246415  1
  C  C114  1  0.35150351  0.49551221  0.07956265  1
  C  C115  1  0.14791187  0.65937041  0.07933524  1
  C  C116  1  0.51774003  0.86361426  0.07692808  1
  C  C117  1  0.34062959  0.85208813  0.57933524  1
  C  C118  1  0.50448779  0.64849649  0.57956265  1
  C  C119  1  0.13638574  0.48225997  0.57692808  1
  C  C120  1  0.29913140  0.82596265  0.25260834  1
  C  C121  1  0.51253683  0.69957893  0.25704304  1
  C  C122  1  0.18543855  0.48783228  0.25579815  1
  C  C123  1  0.30042107  0.48746317  0.75704304  1
  C  C124  1  0.17403735  0.70086860  0.75260834  1
  C  C125  1  0.51216772  0.81456145  0.75579815  1
