# generated using pymatgen
data_Cu17Ni3C16
_symmetry_space_group_name_H-M   'P 1'
_cell_length_a   5.11225700
_cell_length_b   4.68554500
_cell_length_c   17.70227542
_cell_angle_alpha   75.38891963
_cell_angle_beta   90.00000000
_cell_angle_gamma   90.00000000
_symmetry_Int_Tables_number   1
_chemical_formula_structural   Cu17Ni3C16
_chemical_formula_sum   'Cu17 Ni3 C16'
_cell_volume   410.32204983
_cell_formula_units_Z   1
loop_
 _symmetry_equiv_pos_site_id
 _symmetry_equiv_pos_as_xyz
  1  'x, y, z'
loop_
 _atom_site_type_symbol
 _atom_site_label
 _atom_site_symmetry_multiplicity
 _atom_site_fract_x
 _atom_site_fract_y
 _atom_site_fract_z
 _atom_site_occupancy
  C  C0  1  0.50422000  0.60954600  0.38317800  1
  C  C1  1  0.01445300  0.38128100  0.61371500  1
  C  C2  1  0.49578000  0.60954600  0.88317800  1
  C  C3  1  0.98554700  0.38128100  0.11371500  1
  C  C4  1  0.02649400  0.69505700  0.28109200  1
  C  C5  1  0.50670100  0.96353800  0.06093500  1
  C  C6  1  0.50160100  0.27707400  0.71802600  1
  C  C7  1  0.00064500  0.04829100  0.94858400  1
  C  C8  1  0.49329900  0.96353800  0.56093500  1
  C  C9  1  0.97350600  0.69505700  0.78109200  1
  C  C10  1  0.49839900  0.27707400  0.21802600  1
  C  C11  1  0.99935500  0.04829100  0.44858400  1
  C  C12  1  0.32711000  0.47059200  0.28831500  1
  C  C13  1  0.35544200  0.14502000  0.63124100  1
  C  C14  1  0.67289000  0.47059200  0.78831500  1
  C  C15  1  0.64455800  0.14502000  0.13124100  1
  Cu  Cu16  1  0.85156726  0.07687825  0.71516300  1
  Cu  Cu17  1  0.84872667  0.40656473  0.37458638  1
  Cu  Cu18  1  0.80923435  0.75112694  0.03295865  1
  Cu  Cu19  1  0.32121758  0.83376541  0.96452540  1
  Cu  Cu20  1  0.33731244  0.27142845  0.46099246  1
  Cu  Cu21  1  0.88290034  0.19325006  0.54206506  1
  Cu  Cu22  1  0.81969928  0.88979429  0.86728773  1
  Cu  Cu23  1  0.34859664  0.59122207  0.11916323  1
  Cu  Cu24  1  0.84310416  0.54440347  0.20808968  1
  Cu  Cu25  1  0.29943463  0.91396363  0.79692786  1
  Cu  Cu26  1  0.16466692  0.06773746  0.20288639  1
  Cu  Cu27  1  0.14996965  0.40829013  0.87774024  1
  Ni  Ni28  1  0.67737000  0.82043500  0.46239900  1
  Cu  Cu29  1  0.17901889  0.73230873  0.53832658  1
  Cu  Cu30  1  0.18798509  0.23401178  0.03998176  1
  Cu  Cu31  1  0.67709031  0.26570022  0.96734607  1
  Ni  Ni32  1  0.67092600  0.61214700  0.62477700  1
  Ni  Ni33  1  0.15796600  0.85873800  0.37386900  1
  Cu  Cu34  1  0.68922023  0.96866257  0.29496198  1
  Cu  Cu35  1  0.19822696  0.49967546  0.71044176  1
