# generated using pymatgen
data_Cu8NiC4
_symmetry_space_group_name_H-M   'P 1'
_cell_length_a   5.15093500
_cell_length_b   6.72711237
_cell_length_c   6.72711237
_cell_angle_alpha   81.57160877
_cell_angle_beta   67.48974315
_cell_angle_gamma   67.48974315
_symmetry_Int_Tables_number   1
_chemical_formula_structural   Cu8NiC4
_chemical_formula_sum   'Cu8 Ni1 C4'
_cell_volume   198.93431497
_cell_formula_units_Z   1
loop_
 _symmetry_equiv_pos_site_id
 _symmetry_equiv_pos_as_xyz
  1  'x, y, z'
loop_
 _atom_site_type_symbol
 _atom_site_label
 _atom_site_symmetry_multiplicity
 _atom_site_fract_x
 _atom_site_fract_y
 _atom_site_fract_z
 _atom_site_occupancy
  Ni  Ni0  1  0.00000000  0.00000000  0.00000000  1
  C  C1  1  0.00000000  0.00000000  0.50000000  1
  C  C2  1  0.50000000  0.00000000  0.50000000  1
  C  C3  1  0.50000000  0.50000000  0.00000000  1
  C  C4  1  0.00000000  0.50000000  0.00000000  1
  Cu  Cu5  1  0.00000000  0.33666400  0.66333600  1
  Cu  Cu6  1  0.00000000  0.66333600  0.33666400  1
  Cu  Cu7  1  0.66333600  0.33666400  0.33666400  1
  Cu  Cu8  1  0.33666400  0.66333600  0.66333600  1
  Cu  Cu9  1  0.50000000  0.77474600  0.22525400  1
  Cu  Cu10  1  0.50000000  0.22525400  0.77474600  1
  Cu  Cu11  1  0.72525400  0.77474600  0.77474600  1
  Cu  Cu12  1  0.27474600  0.22525400  0.22525400  1
