# generated using pymatgen
data_Cu4C35
_symmetry_space_group_name_H-M   'P 1'
_cell_length_a   18.08387900
_cell_length_b   9.20715200
_cell_length_c   10.22627701
_cell_angle_alpha   58.44550992
_cell_angle_beta   90.00000000
_cell_angle_gamma   90.00000000
_symmetry_Int_Tables_number   1
_chemical_formula_structural   Cu4C35
_chemical_formula_sum   'Cu8 C70'
_cell_volume   1450.93137059
_cell_formula_units_Z   2
loop_
 _symmetry_equiv_pos_site_id
 _symmetry_equiv_pos_as_xyz
  1  'x, y, z'
loop_
 _atom_site_type_symbol
 _atom_site_label
 _atom_site_symmetry_multiplicity
 _atom_site_fract_x
 _atom_site_fract_y
 _atom_site_fract_z
 _atom_site_occupancy
  C  C0  1  0.60948800  0.43703000  0.52267100  1
  C  C1  1  0.89051200  0.43703000  0.02267100  1
  C  C2  1  0.39051200  0.56297000  0.47732900  1
  C  C3  1  0.10948800  0.56297000  0.97732900  1
  Cu  Cu4  1  0.55057041  0.68445880  0.14104413  1
  Cu  Cu5  1  0.94467025  0.64750643  0.64613861  1
  Cu  Cu6  1  0.44608709  0.31422915  0.86898120  1
  Cu  Cu7  1  0.05811499  0.33099279  0.40498882  1
  Cu  Cu8  1  0.75800872  0.16298966  0.77054036  1
  Cu  Cu9  1  0.74644539  0.15147255  0.25198831  1
  Cu  Cu10  1  0.25064882  0.84956733  0.22178045  1
  Cu  Cu11  1  0.24147127  0.84427972  0.74381709  1
  C  C12  1  0.50000000  0.00000000  0.50000000  1
  C  C13  1  0.00000000  0.00000000  0.00000000  1
  C  C14  1  0.68709200  0.65579700  0.76320400  1
  C  C15  1  0.81290800  0.65579700  0.26320400  1
  C  C16  1  0.31290800  0.34420300  0.23679600  1
  C  C17  1  0.18709200  0.34420300  0.73679600  1
  C  C18  1  0.53176900  0.56060200  0.34889300  1
  C  C19  1  0.96823100  0.56060200  0.84889300  1
  C  C20  1  0.46823100  0.43939800  0.65110700  1
  C  C21  1  0.03176900  0.43939800  0.15110700  1
  C  C22  1  0.67888500  0.32646300  0.71062000  1
  C  C23  1  0.82111500  0.32646300  0.21062000  1
  C  C24  1  0.32111500  0.67353700  0.28938000  1
  C  C25  1  0.17888500  0.67353700  0.78938000  1
  C  C26  1  0.55743000  0.88326700  0.11100900  1
  C  C27  1  0.94257000  0.88326700  0.61100900  1
  C  C28  1  0.44257000  0.11673300  0.88899100  1
  C  C29  1  0.05743000  0.11673300  0.38899100  1
  C  C30  1  0.54498900  0.46056400  0.13926900  1
  C  C31  1  0.95501100  0.46056400  0.63926900  1
  C  C32  1  0.45501100  0.53943600  0.86073100  1
  C  C33  1  0.04498900  0.53943600  0.36073100  1
  C  C34  1  0.56505300  0.77448400  0.92320200  1
  C  C35  1  0.93494700  0.77448400  0.42320200  1
  C  C36  1  0.43494700  0.22551600  0.07679800  1
  C  C37  1  0.06505300  0.22551600  0.57679800  1
  C  C38  1  0.65358500  0.64049800  0.15755400  1
  C  C39  1  0.84641500  0.64049800  0.65755400  1
  C  C40  1  0.34641500  0.35950200  0.84244600  1
  C  C41  1  0.15358500  0.35950200  0.34244600  1
  C  C42  1  0.44814000  0.69897300  0.09489600  1
  C  C43  1  0.05186000  0.69897300  0.59489600  1
  C  C44  1  0.55186000  0.30102700  0.90510400  1
  C  C45  1  0.94814000  0.30102700  0.40510400  1
  C  C46  1  0.82946600  0.00058500  0.82617000  1
  C  C47  1  0.67053400  0.00058500  0.32617000  1
  C  C48  1  0.17053400  0.99941500  0.17383000  1
  C  C49  1  0.32946600  0.99941500  0.67383000  1
  C  C50  1  0.81135800  0.26627000  0.84654700  1
  C  C51  1  0.68864200  0.26627000  0.34654700  1
  C  C52  1  0.18864200  0.73373000  0.15345300  1
  C  C53  1  0.31135800  0.73373000  0.65345300  1
  C  C54  1  0.71276800  0.01779700  0.96145800  1
  C  C55  1  0.78723200  0.01779700  0.46145800  1
  C  C56  1  0.28723200  0.98220300  0.03854200  1
  C  C57  1  0.21276800  0.98220300  0.53854200  1
  C  C58  1  0.80377200  0.28477200  0.57674400  1
  C  C59  1  0.69622800  0.28477200  0.07674400  1
  C  C60  1  0.19622800  0.71522800  0.42325600  1
  C  C61  1  0.30377200  0.71522800  0.92325600  1
  C  C62  1  0.70125300  0.03752500  0.69452900  1
  C  C63  1  0.79874700  0.03752500  0.19452900  1
  C  C64  1  0.29874700  0.96247500  0.30547100  1
  C  C65  1  0.20125300  0.96247500  0.80547100  1
  C  C66  1  0.53543500  0.14523900  0.57215100  1
  C  C67  1  0.96456500  0.14523900  0.07215100  1
  C  C68  1  0.46456500  0.85476100  0.42784900  1
  C  C69  1  0.03543500  0.85476100  0.92784900  1
  C  C70  1  0.76301600  0.64559900  0.90049400  1
  C  C71  1  0.73698400  0.64559900  0.40049400  1
  C  C72  1  0.23698400  0.35440100  0.09950600  1
  C  C73  1  0.26301600  0.35440100  0.59950600  1
  C  C74  1  0.61001000  0.66781900  0.62554600  1
  C  C75  1  0.88999000  0.66781900  0.12554600  1
  C  C76  1  0.38999000  0.33218100  0.37445400  1
  C  C77  1  0.11001000  0.33218100  0.87445400  1
