# generated using pymatgen
data_Cu2NiC2
_symmetry_space_group_name_H-M   'P 1'
_cell_length_a   6.76827077
_cell_length_b   6.88598715
_cell_length_c   6.61505307
_cell_angle_alpha   92.27471469
_cell_angle_beta   91.59270961
_cell_angle_gamma   90.08387856
_symmetry_Int_Tables_number   1
_chemical_formula_structural   Cu2NiC2
_chemical_formula_sum   'Cu8 Ni4 C8'
_cell_volume   307.93968250
_cell_formula_units_Z   4
loop_
 _symmetry_equiv_pos_site_id
 _symmetry_equiv_pos_as_xyz
  1  'x, y, z'
loop_
 _atom_site_type_symbol
 _atom_site_label
 _atom_site_symmetry_multiplicity
 _atom_site_fract_x
 _atom_site_fract_y
 _atom_site_fract_z
 _atom_site_occupancy
  C  C0  1  0.07141289  0.62686117  0.76470203  1
  C  C1  1  0.50532293  0.87902723  0.72589015  1
  C  C2  1  0.33090109  0.64922099  0.19444429  1
  C  C3  1  0.10010607  0.22422807  0.54278312  1
  C  C4  1  0.84045498  0.61418510  0.31849008  1
  C  C5  1  0.60452445  0.37021505  0.82314405  1
  C  C6  1  0.57866406  0.11516042  0.27388676  1
  C  C7  1  0.02326515  0.03375024  0.00775077  1
  Ni  Ni8  1  0.05895542  0.92809769  0.73494978  1
  Ni  Ni9  1  0.28533657  0.99013109  0.11556565  1
  Cu  Cu10  1  0.16033797  0.56695246  0.45889669  1
  Ni  Ni11  1  0.58257828  0.80728681  0.39023535  1
  Ni  Ni12  1  0.07452712  0.28271544  0.93609928  1
  Cu  Cu13  1  0.35706170  0.62521617  0.84181844  1
  Cu  Cu14  1  0.57366647  0.44228336  0.14371810  1
  Cu  Cu15  1  0.97228197  0.73656271  0.05015673  1
  Cu  Cu16  1  0.40225534  0.18366301  0.58862468  1
  Cu  Cu17  1  0.83206248  0.47265879  0.61667761  1
  Cu  Cu18  1  0.69934664  0.05604548  0.93941823  1
  Cu  Cu19  1  0.92078685  0.08399031  0.25806125  1
