# generated using pymatgen
data_Cu19NiC16
_symmetry_space_group_name_H-M   'P 1'
_cell_length_a   6.78185675
_cell_length_b   6.78185675
_cell_length_c   13.43239400
_cell_angle_alpha   90.00000000
_cell_angle_beta   90.00000000
_cell_angle_gamma   116.23200237
_symmetry_Int_Tables_number   1
_chemical_formula_structural   Cu19NiC16
_chemical_formula_sum   'Cu19 Ni1 C16'
_cell_volume   554.17728254
_cell_formula_units_Z   1
loop_
 _symmetry_equiv_pos_site_id
 _symmetry_equiv_pos_as_xyz
  1  'x, y, z'
loop_
 _atom_site_type_symbol
 _atom_site_label
 _atom_site_symmetry_multiplicity
 _atom_site_fract_x
 _atom_site_fract_y
 _atom_site_fract_z
 _atom_site_occupancy
  C  C0  1  0.94886100  0.75372700  0.37415800  1
  C  C1  1  0.75372700  0.94886100  0.62584200  1
  C  C2  1  0.05113900  0.24627300  0.87415800  1
  C  C3  1  0.24627300  0.05113900  0.12584200  1
  C  C4  1  0.68233600  0.14592300  0.39137800  1
  C  C5  1  0.14592300  0.68233600  0.60862200  1
  C  C6  1  0.31766400  0.85407700  0.89137800  1
  C  C7  1  0.85407700  0.31766400  0.10862200  1
  C  C8  1  0.26822700  0.37314400  0.35363900  1
  C  C9  1  0.37314400  0.26822700  0.64636100  1
  C  C10  1  0.73177300  0.62685600  0.85363900  1
  C  C11  1  0.62685600  0.73177300  0.14636100  1
  Cu  Cu12  1  0.02178868  0.09011863  0.36395098  1
  Cu  Cu13  1  0.10149514  0.99735930  0.61711563  1
  Cu  Cu14  1  0.98614608  0.94446365  0.85557237  1
  Cu  Cu15  1  0.89032578  0.00513033  0.13399433  1
  Cu  Cu16  1  0.28523995  0.33656831  0.20948765  1
  Ni  Ni17  1  0.33380400  0.29711300  0.78466100  1
  Cu  Cu18  1  0.74839404  0.69362005  0.69610821  1
  Cu  Cu19  1  0.62705478  0.68519183  0.28242355  1
  Cu  Cu20  1  0.42423873  0.85541168  0.67932487  1
  Cu  Cu21  1  0.87656514  0.42235009  0.32845577  1
  Cu  Cu22  1  0.59167816  0.11141845  0.16201408  1
  Cu  Cu23  1  0.08605933  0.55081316  0.84383310  1
  Cu  Cu24  1  0.44579470  0.24317283  0.42490150  1
  Cu  Cu25  1  0.25756173  0.45980354  0.57474335  1
  Cu  Cu26  1  0.52202624  0.73853842  0.92663037  1
  Cu  Cu27  1  0.74930446  0.53220058  0.09466529  1
  Cu  Cu28  1  0.17045810  0.77011797  0.46120614  1
  Cu  Cu29  1  0.76347967  0.18317743  0.53118272  1
  Cu  Cu30  1  0.79660720  0.22332479  0.98461832  1
  Cu  Cu31  1  0.23373662  0.78254031  0.03455921  1
  C  C32  1  0.17494700  0.82505300  0.25000000  1
  C  C33  1  0.82505300  0.17494700  0.75000000  1
  C  C34  1  0.73366100  0.73366100  0.50000000  1
  C  C35  1  0.26633900  0.26633900  0.00000000  1
