# generated using pymatgen
data_Cu4NiC19
_symmetry_space_group_name_H-M   'P 1'
_cell_length_a   7.39154300
_cell_length_b   9.42046534
_cell_length_c   9.94798749
_cell_angle_alpha   81.13778708
_cell_angle_beta   77.75685920
_cell_angle_gamma   70.45298253
_symmetry_Int_Tables_number   1
_chemical_formula_structural   Cu4NiC19
_chemical_formula_sum   'Cu8 Ni2 C38'
_cell_volume   635.32481847
_cell_formula_units_Z   2
loop_
 _symmetry_equiv_pos_site_id
 _symmetry_equiv_pos_as_xyz
  1  'x, y, z'
loop_
 _atom_site_type_symbol
 _atom_site_label
 _atom_site_symmetry_multiplicity
 _atom_site_fract_x
 _atom_site_fract_y
 _atom_site_fract_z
 _atom_site_occupancy
  Ni  Ni0  1  0.06283000  0.48669400  0.15871200  1
  Cu  Cu1  1  0.56179799  0.54728870  0.67708040  1
  Cu  Cu2  1  0.26476394  0.74390898  0.88917606  1
  Cu  Cu3  1  0.66208481  0.81706130  0.72479547  1
  Cu  Cu4  1  0.75472939  0.27225779  0.11309539  1
  Ni  Ni5  1  0.34522800  0.15163000  0.26867400  1
  Cu  Cu6  1  0.72454298  0.76341747  0.38688514  1
  Cu  Cu7  1  0.43535422  0.49165700  0.33293315  1
  Cu  Cu8  1  0.26970584  0.25976339  0.63667301  1
  Cu  Cu9  1  0.95791500  0.50609940  0.85086364  1
  C  C10  1  0.87038300  0.12598700  0.76885200  1
  C  C11  1  0.12961700  0.87401300  0.23114800  1
  C  C12  1  0.41153400  0.33987200  0.94696700  1
  C  C13  1  0.90214400  0.34724500  0.45469100  1
  C  C14  1  0.82016100  0.86423700  0.03207500  1
  C  C15  1  0.17983900  0.13576300  0.96792500  1
  C  C16  1  0.58846600  0.66012800  0.05303300  1
  C  C17  1  0.28104500  0.88981000  0.54881100  1
  C  C18  1  0.71895500  0.11019000  0.45118900  1
  C  C19  1  0.09785600  0.65275500  0.54530900  1
  C  C20  1  0.96356200  0.76301300  0.13028400  1
  C  C21  1  0.57455800  0.67279000  0.90101800  1
  C  C22  1  0.89838500  0.64700800  0.61872100  1
  C  C23  1  0.03643800  0.23698700  0.86971600  1
  C  C24  1  0.88993900  0.32273400  0.61531900  1
  C  C25  1  0.11006100  0.67726600  0.38468100  1
  C  C26  1  0.60784100  0.33108200  0.84847900  1
  C  C27  1  0.89706400  0.82560500  0.88204500  1
  C  C28  1  0.75621500  0.52401300  0.09294300  1
  C  C29  1  0.42544200  0.32721000  0.09898200  1
  C  C30  1  0.32177800  0.91478300  0.38907700  1
  C  C31  1  0.10293600  0.17439500  0.11795500  1
  C  C32  1  0.46058700  0.78558600  0.60570500  1
  C  C33  1  0.24378500  0.47598700  0.90705700  1
  C  C34  1  0.67822200  0.08521700  0.61092300  1
  C  C35  1  0.81269000  0.96234700  0.38040400  1
  C  C36  1  0.88826900  0.19169300  0.40850700  1
  C  C37  1  0.18731000  0.03765300  0.61959600  1
  C  C38  1  0.23078000  0.96816200  0.95241500  1
  C  C39  1  0.39215900  0.66891800  0.15152100  1
  C  C40  1  0.53941300  0.21441400  0.39429500  1
  C  C41  1  0.27215100  0.52106400  0.58141200  1
  C  C42  1  0.11173100  0.80830700  0.59149300  1
  C  C43  1  0.37642400  0.18410200  0.91365500  1
  C  C44  1  0.76922000  0.03183800  0.04758500  1
  C  C45  1  0.62357600  0.81589800  0.08634500  1
  C  C46  1  0.10161500  0.35299200  0.38127900  1
  C  C47  1  0.72784900  0.47893600  0.41858800  1
