# generated using pymatgen
data_CuC4
_symmetry_space_group_name_H-M   'P 1'
_cell_length_a   3.82482800
_cell_length_b   6.47318937
_cell_length_c   6.47318937
_cell_angle_alpha   70.91721415
_cell_angle_beta   72.81630868
_cell_angle_gamma   72.81630868
_symmetry_Int_Tables_number   1
_chemical_formula_structural   CuC4
_chemical_formula_sum   'Cu1 C4'
_cell_volume   141.14748517
_cell_formula_units_Z   1
loop_
 _symmetry_equiv_pos_site_id
 _symmetry_equiv_pos_as_xyz
  1  'x, y, z'
loop_
 _atom_site_type_symbol
 _atom_site_label
 _atom_site_symmetry_multiplicity
 _atom_site_fract_x
 _atom_site_fract_y
 _atom_site_fract_z
 _atom_site_occupancy
  C  C0  1  0.80537300  0.69462700  0.69462700  1
  C  C1  1  0.19462700  0.30537300  0.30537300  1
  Cu  Cu2  1  0.99848726  0.00289403  0.00157247  1
  C  C3  1  0.50000000  0.21708900  0.78291100  1
  C  C4  1  0.50000000  0.78291100  0.21708900  1
