# generated using pymatgen
data_Cu4NiC2
_symmetry_space_group_name_H-M   'P 1'
_cell_length_a   4.03334600
_cell_length_b   4.03334600
_cell_length_c   7.16883700
_cell_angle_alpha   90.00000000
_cell_angle_beta   90.00000000
_cell_angle_gamma   90.00000000
_symmetry_Int_Tables_number   1
_chemical_formula_structural   Cu4NiC2
_chemical_formula_sum   'Cu4 Ni1 C2'
_cell_volume   116.62177974
_cell_formula_units_Z   1
loop_
 _symmetry_equiv_pos_site_id
 _symmetry_equiv_pos_as_xyz
  1  'x, y, z'
loop_
 _atom_site_type_symbol
 _atom_site_label
 _atom_site_symmetry_multiplicity
 _atom_site_fract_x
 _atom_site_fract_y
 _atom_site_fract_z
 _atom_site_occupancy
  C  C0  1  0.50000000  0.50000000  0.00000000  1
  C  C1  1  0.00000000  0.00000000  0.50000000  1
  Cu  Cu2  1  0.97324044  0.01324566  0.99116101  1
  Cu  Cu3  1  0.51864831  0.98823598  0.69449626  1
  Cu  Cu4  1  0.96289442  0.49228335  0.71977746  1
  Cu  Cu5  1  0.49470875  0.00675534  0.28325043  1
  Ni  Ni6  1  0.00000000  0.50000000  0.29046300  1
