# generated using pymatgen
data_Cu2C17
_symmetry_space_group_name_H-M   'P 1'
_cell_length_a   6.11396400
_cell_length_b   13.76150600
_cell_length_c   14.08787500
_cell_angle_alpha   90.00000000
_cell_angle_beta   90.00000000
_cell_angle_gamma   90.00000000
_symmetry_Int_Tables_number   1
_chemical_formula_structural   Cu2C17
_chemical_formula_sum   'Cu8 C68'
_cell_volume   1185.31650161
_cell_formula_units_Z   4
loop_
 _symmetry_equiv_pos_site_id
 _symmetry_equiv_pos_as_xyz
  1  'x, y, z'
loop_
 _atom_site_type_symbol
 _atom_site_label
 _atom_site_symmetry_multiplicity
 _atom_site_fract_x
 _atom_site_fract_y
 _atom_site_fract_z
 _atom_site_occupancy
  C  C0  1  0.41952800  0.63127600  0.25000000  1
  C  C1  1  0.08047200  0.13127600  0.25000000  1
  C  C2  1  0.58047200  0.36872400  0.75000000  1
  C  C3  1  0.91952800  0.86872400  0.75000000  1
  C  C4  1  0.08974700  0.63521000  0.01520200  1
  C  C5  1  0.41025300  0.13521000  0.48479800  1
  C  C6  1  0.91025300  0.36479000  0.51520200  1
  C  C7  1  0.58974700  0.86479000  0.98479800  1
  C  C8  1  0.91025300  0.36479000  0.98479800  1
  C  C9  1  0.58974700  0.86479000  0.51520200  1
  C  C10  1  0.08974700  0.63521000  0.48479800  1
  C  C11  1  0.41025300  0.13521000  0.01520200  1
  C  C12  1  0.58955100  0.95911900  0.25000000  1
  C  C13  1  0.91044900  0.45911900  0.25000000  1
  C  C14  1  0.41044900  0.04088100  0.75000000  1
  C  C15  1  0.08955100  0.54088100  0.75000000  1
  C  C16  1  0.91269300  0.74451500  0.25000000  1
  C  C17  1  0.58730700  0.24451500  0.25000000  1
  C  C18  1  0.08730700  0.25548500  0.75000000  1
  C  C19  1  0.41269300  0.75548500  0.75000000  1
  C  C20  1  0.09117600  0.90112800  0.10351200  1
  C  C21  1  0.40882400  0.40112800  0.39648800  1
  C  C22  1  0.90882400  0.09887200  0.60351200  1
  C  C23  1  0.59117600  0.59887200  0.89648800  1
  C  C24  1  0.90882400  0.09887200  0.89648800  1
  C  C25  1  0.59117600  0.59887200  0.60351200  1
  C  C26  1  0.09117600  0.90112800  0.39648800  1
  C  C27  1  0.40882400  0.40112800  0.10351200  1
  Cu  Cu28  1  0.11603268  0.93901654  0.94733503  1
  Cu  Cu29  1  0.38247367  0.43218689  0.56491802  1
  Cu  Cu30  1  0.86537928  0.07983368  0.44407391  1
  Cu  Cu31  1  0.56559480  0.57022174  0.05682783  1
  Cu  Cu32  1  0.85156941  0.07988928  0.04426758  1
  Cu  Cu33  1  0.66039198  0.58080576  0.45158549  1
  Cu  Cu34  1  0.16582276  0.92858274  0.56153478  1
  Cu  Cu35  1  0.37262949  0.42533346  0.93281708  1
  C  C36  1  0.65634600  0.79743700  0.25000000  1
  C  C37  1  0.84365400  0.29743700  0.25000000  1
  C  C38  1  0.34365400  0.20256300  0.75000000  1
  C  C39  1  0.15634600  0.70256300  0.75000000  1
  C  C40  1  0.92363000  0.61929200  0.25000000  1
  C  C41  1  0.57637000  0.11929200  0.25000000  1
  C  C42  1  0.07637000  0.38070800  0.75000000  1
  C  C43  1  0.42363000  0.88070800  0.75000000  1
  C  C44  1  0.08681600  0.86618800  0.97877500  1
  C  C45  1  0.41318400  0.36618800  0.52122500  1
  C  C46  1  0.91318400  0.13381200  0.47877500  1
  C  C47  1  0.58681600  0.63381200  0.02122500  1
  C  C48  1  0.91318400  0.13381200  0.02122500  1
  C  C49  1  0.58681600  0.63381200  0.47877500  1
  C  C50  1  0.08681600  0.86618800  0.52122500  1
  C  C51  1  0.41318400  0.36618800  0.97877500  1
  C  C52  1  0.33841200  0.95786200  0.12997100  1
  C  C53  1  0.16158800  0.45786300  0.37002900  1
  C  C54  1  0.66158800  0.04213800  0.62997100  1
  C  C55  1  0.83841200  0.54213800  0.87002900  1
  C  C56  1  0.66158800  0.04213800  0.87002900  1
  C  C57  1  0.83841200  0.54213800  0.62997100  1
  C  C58  1  0.33841200  0.95786200  0.37002900  1
  C  C59  1  0.16158800  0.45786300  0.12997100  1
  C  C60  1  0.07880800  0.77896500  0.14898300  1
  C  C61  1  0.42119200  0.27896500  0.35101700  1
  C  C62  1  0.92119200  0.22103500  0.64898300  1
  C  C63  1  0.57880800  0.72103500  0.85101700  1
  C  C64  1  0.92119200  0.22103500  0.85101700  1
  C  C65  1  0.57880800  0.72103500  0.64898300  1
  C  C66  1  0.07880800  0.77896500  0.35101700  1
  C  C67  1  0.42119200  0.27896500  0.14898300  1
  C  C68  1  0.86025100  0.97125200  0.13157600  1
  C  C69  1  0.63974900  0.47125200  0.36842400  1
  C  C70  1  0.13974900  0.02874800  0.63157600  1
  C  C71  1  0.36025100  0.52874800  0.86842400  1
  C  C72  1  0.13974900  0.02874800  0.86842400  1
  C  C73  1  0.36025100  0.52874800  0.63157600  1
  C  C74  1  0.86025100  0.97125200  0.36842400  1
  C  C75  1  0.63974900  0.47125200  0.13157600  1
