# generated using pymatgen
data_Cu13Ni3C35
_symmetry_space_group_name_H-M   'P 1'
_cell_length_a   12.32920223
_cell_length_b   12.88130155
_cell_length_c   10.44930275
_cell_angle_alpha   52.14920927
_cell_angle_beta   42.72518367
_cell_angle_gamma   33.06153854
_symmetry_Int_Tables_number   1
_chemical_formula_structural   Cu13Ni3C35
_chemical_formula_sum   'Cu13 Ni3 C35'
_cell_volume   614.24299673
_cell_formula_units_Z   1
loop_
 _symmetry_equiv_pos_site_id
 _symmetry_equiv_pos_as_xyz
  1  'x, y, z'
loop_
 _atom_site_type_symbol
 _atom_site_label
 _atom_site_symmetry_multiplicity
 _atom_site_fract_x
 _atom_site_fract_y
 _atom_site_fract_z
 _atom_site_occupancy
  Cu  Cu0  1  0.99748486  0.19643354  0.51831604  1
  Cu  Cu1  1  0.06791228  0.48919293  0.19315899  1
  Cu  Cu2  1  0.26570347  0.18623638  0.52251859  1
  Cu  Cu3  1  0.33491067  0.47461288  0.17745541  1
  Cu  Cu4  1  0.53165798  0.17109222  0.52185945  1
  Cu  Cu5  1  0.13217762  0.52840954  0.84722422  1
  Cu  Cu6  1  0.60842048  0.48005809  0.16392241  1
  Ni  Ni7  1  0.23822700  0.81017500  0.48332800  1
  Ni  Ni8  1  0.76546100  0.18569900  0.51248900  1
  Cu  Cu9  1  0.40469329  0.52660268  0.80766298  1
  Cu  Cu10  1  0.87189764  0.45588368  0.16339038  1
  Cu  Cu11  1  0.51547411  0.79057243  0.47264160  1
  Cu  Cu12  1  0.61102496  0.53525068  0.85350695  1
  Cu  Cu13  1  0.75559068  0.79840548  0.47637776  1
  Cu  Cu14  1  0.89818595  0.54353866  0.81932678  1
  Ni  Ni15  1  0.98597800  0.81116100  0.48052700  1
  C  C16  1  0.27705200  0.98362500  0.01775100  1
  C  C17  1  0.73883800  0.01474200  0.97940900  1
  C  C18  1  0.99373600  0.00771900  0.00259300  1
  C  C19  1  0.16127100  0.36256300  0.03752800  1
  C  C20  1  0.17549600  0.04509800  0.65806500  1
  C  C21  1  0.12532900  0.29513800  0.38745000  1
  C  C22  1  0.01165800  0.62803500  0.29696900  1
  C  C23  1  0.42597700  0.34491600  0.03493600  1
  C  C24  1  0.43545300  0.03959400  0.64940700  1
  C  C25  1  0.38207600  0.28775900  0.38377000  1
  C  C26  1  0.24067500  0.36993600  0.70222300  1
  C  C27  1  0.26491000  0.62492400  0.29699900  1
  C  C28  1  0.67630800  0.33895400  0.04158400  1
  C  C29  1  0.11609800  0.70221800  0.62492600  1
  C  C30  1  0.08348200  0.95185400  0.33379400  1
  C  C31  1  0.69873200  0.03370400  0.63080200  1
  C  C32  1  0.63365200  0.28782200  0.37848600  1
  C  C33  1  0.07741900  0.66057800  0.95139600  1
  C  C34  1  0.47004300  0.38520300  0.70802200  1
  C  C35  1  0.53204900  0.61514500  0.29247400  1
  C  C36  1  0.92731100  0.33755500  0.04535200  1
  C  C37  1  0.36979600  0.70444700  0.62999200  1
  C  C38  1  0.29894100  0.96172200  0.37282500  1
  C  C39  1  0.91748500  0.04707600  0.66184100  1
  C  C40  1  0.89127900  0.29694500  0.36972300  1
  C  C41  1  0.32846900  0.65333100  0.95499800  1
  C  C42  1  0.72674300  0.37345300  0.70472900  1
  C  C43  1  0.75504000  0.63269300  0.29853100  1
  C  C44  1  0.61423000  0.71234100  0.61772200  1
  C  C45  1  0.55763400  0.96203000  0.35554500  1
  C  C46  1  0.56784700  0.66437400  0.96027000  1
  C  C47  1  0.97976900  0.37328500  0.70744300  1
  C  C48  1  0.87080100  0.70617000  0.61398800  1
  C  C49  1  0.81969200  0.95615600  0.34300600  1
  C  C50  1  0.84111900  0.63778600  0.95960200  1
