# generated using pymatgen
data_Cu6Ni7C
_symmetry_space_group_name_H-M   'P 1'
_cell_length_a   10.18192900
_cell_length_b   10.18192900
_cell_length_c   10.18192900
_cell_angle_alpha   90.00000000
_cell_angle_beta   90.00000000
_cell_angle_gamma   90.00000000
_symmetry_Int_Tables_number   1
_chemical_formula_structural   Cu6Ni7C
_chemical_formula_sum   'Cu24 Ni28 C4'
_cell_volume   1055.57766635
_cell_formula_units_Z   4
loop_
 _symmetry_equiv_pos_site_id
 _symmetry_equiv_pos_as_xyz
  1  'x, y, z'
loop_
 _atom_site_type_symbol
 _atom_site_label
 _atom_site_symmetry_multiplicity
 _atom_site_fract_x
 _atom_site_fract_y
 _atom_site_fract_z
 _atom_site_occupancy
  Ni  Ni0  1  0.02169900  0.83517200  0.67752500  1
  Ni  Ni1  1  0.01027300  0.28106200  0.19030400  1
  Ni  Ni2  1  0.11589700  0.61589700  0.88410300  1
  Ni  Ni3  1  0.16482800  0.17752500  0.47830100  1
  Ni  Ni4  1  0.17752500  0.47830100  0.16482800  1
  Ni  Ni5  1  0.19030400  0.01027300  0.28106200  1
  Ni  Ni6  1  0.21893800  0.80969600  0.51027300  1
  Ni  Ni7  1  0.28106200  0.19030400  0.01027300  1
  Ni  Ni8  1  0.30969600  0.98972700  0.78106200  1
  Ni  Ni9  1  0.32247500  0.52169900  0.66482800  1
  Ni  Ni10  1  0.33517200  0.82247500  0.97830100  1
  Ni  Ni11  1  0.38410300  0.38410300  0.38410300  1
  Ni  Ni12  1  0.48972700  0.71893800  0.69030400  1
  Ni  Ni13  1  0.47830100  0.16482800  0.17752500  1
  Ni  Ni14  1  0.52169900  0.66482800  0.32247500  1
  Ni  Ni15  1  0.51027300  0.21893800  0.80969600  1
  Ni  Ni16  1  0.61589700  0.88410300  0.11589700  1
  Ni  Ni17  1  0.66482800  0.32247500  0.52169900  1
  Ni  Ni18  1  0.67752500  0.02169900  0.83517200  1
  Ni  Ni19  1  0.69030400  0.48972700  0.71893800  1
  Ni  Ni20  1  0.71893800  0.69030400  0.48972700  1
  Ni  Ni21  1  0.78106200  0.30969600  0.98972700  1
  Ni  Ni22  1  0.80969600  0.51027300  0.21893800  1
  Ni  Ni23  1  0.82247500  0.97830100  0.33517200  1
  Ni  Ni24  1  0.83517200  0.67752500  0.02169900  1
  Ni  Ni25  1  0.88410300  0.11589700  0.61589700  1
  Ni  Ni26  1  0.98972700  0.78106200  0.30969600  1
  Ni  Ni27  1  0.97830100  0.33517200  0.82247500  1
  C  C28  1  0.00861300  0.49138700  0.50861300  1
  C  C29  1  0.49138700  0.50861300  0.00861300  1
  C  C30  1  0.50861300  0.00861300  0.49138700  1
  C  C31  1  0.99138700  0.99138700  0.99138700  1
  Cu  Cu32  1  0.02634900  0.97365100  0.47365100  1
  Cu  Cu33  1  0.11146500  0.12228900  0.85395800  1
  Cu  Cu34  1  0.12228900  0.85395800  0.11146500  1
  Cu  Cu35  1  0.13760500  0.36239500  0.63760500  1
  Cu  Cu36  1  0.14604200  0.61146500  0.37771100  1
  Cu  Cu37  1  0.25548600  0.75548600  0.74451400  1
  Cu  Cu38  1  0.24451400  0.24451400  0.24451400  1
  Cu  Cu39  1  0.35395800  0.38853500  0.87771100  1
  Cu  Cu40  1  0.36239500  0.63760500  0.13760500  1
  Cu  Cu41  1  0.37771100  0.14604200  0.61146500  1
  Cu  Cu42  1  0.38853500  0.87771100  0.35395800  1
  Cu  Cu43  1  0.47365100  0.02634900  0.97365100  1
  Cu  Cu44  1  0.52634900  0.52634900  0.52634900  1
  Cu  Cu45  1  0.61146500  0.37771100  0.14604200  1
  Cu  Cu46  1  0.62228900  0.64604200  0.88853500  1
  Cu  Cu47  1  0.63760500  0.13760500  0.36239500  1
  Cu  Cu48  1  0.64604200  0.88853500  0.62228900  1
  Cu  Cu49  1  0.75548600  0.74451400  0.25548600  1
  Cu  Cu50  1  0.74451400  0.25548600  0.75548600  1
  Cu  Cu51  1  0.85395800  0.11146500  0.12228900  1
  Cu  Cu52  1  0.86239500  0.86239500  0.86239500  1
  Cu  Cu53  1  0.87771100  0.35395800  0.38853500  1
  Cu  Cu54  1  0.88853500  0.62228900  0.64604200  1
  Cu  Cu55  1  0.97365100  0.47365100  0.02634900  1
