# generated using pymatgen
data_Cu12Ni13C25
_symmetry_space_group_name_H-M   'P 1'
_cell_length_a   13.93645273
_cell_length_b   13.03355895
_cell_length_c   13.19920060
_cell_angle_alpha   85.28834023
_cell_angle_beta   85.97948432
_cell_angle_gamma   93.31239479
_symmetry_Int_Tables_number   1
_chemical_formula_structural   Cu12Ni13C25
_chemical_formula_sum   'Cu24 Ni26 C50'
_cell_volume   2378.66825854
_cell_formula_units_Z   2
loop_
 _symmetry_equiv_pos_site_id
 _symmetry_equiv_pos_as_xyz
  1  'x, y, z'
loop_
 _atom_site_type_symbol
 _atom_site_label
 _atom_site_symmetry_multiplicity
 _atom_site_fract_x
 _atom_site_fract_y
 _atom_site_fract_z
 _atom_site_occupancy
  C  C0  1  0.35062015  0.39241417  0.11547848  1
  C  C1  1  0.51478132  0.34278263  0.52460048  1
  C  C2  1  0.63628014  0.31524289  0.36805607  1
  C  C3  1  0.93153865  0.96766739  0.96648260  1
  C  C4  1  0.54671473  0.16298462  0.49260571  1
  C  C5  1  0.57535312  0.55276618  0.17484857  1
  C  C6  1  0.74273458  0.89642267  0.07867987  1
  C  C7  1  0.86140625  0.32555757  0.42649129  1
  C  C8  1  0.88300511  0.92654092  0.72960539  1
  C  C9  1  0.15655500  0.80190445  0.07941236  1
  C  C10  1  0.36455827  0.07651216  0.15294374  1
  C  C11  1  0.03571810  0.31450650  0.94647336  1
  C  C12  1  0.22825971  0.54052605  0.62684051  1
  C  C13  1  0.90344966  0.75635526  0.13786664  1
  C  C14  1  0.68962466  0.50977287  0.62452443  1
  C  C15  1  0.59706548  0.37969100  0.01607020  1
  C  C16  1  0.48926436  0.80402632  0.15842224  1
  C  C17  1  0.00775756  0.07108432  0.76401643  1
  C  C18  1  0.03015951  0.32076876  0.23092684  1
  C  C19  1  0.34021591  0.65034583  0.84580717  1
  C  C20  1  0.15423916  0.98679409  0.29433062  1
  C  C21  1  0.21066359  0.77098190  0.81974967  1
  C  C22  1  0.74973239  0.47705155  0.84957784  1
  C  C23  1  0.02630495  0.10852806  0.46543986  1
  C  C24  1  0.72835347  0.55397848  0.39082284  1
  C  C25  1  0.02866859  0.66370060  0.21454847  1
  C  C26  1  0.81815816  0.08957217  0.78077798  1
  C  C27  1  0.14865317  0.43134963  0.29148263  1
  C  C28  1  0.43879278  0.49947495  0.56211526  1
  C  C29  1  0.45220647  0.21208636  0.91591759  1
  C  C30  1  0.85796077  0.88131979  0.36085145  1
  C  C31  1  0.37447733  0.30223575  0.68725770  1
  C  C32  1  0.78168802  0.11930837  0.35964058  1
  C  C33  1  0.19010938  0.07840747  0.98363920  1
  C  C34  1  0.63775552  0.76404439  0.84973166  1
  C  C35  1  0.49441281  0.94325406  0.90778587  1
  C  C36  1  0.76494719  0.73697706  0.57845531  1
  C  C37  1  0.17144488  0.69518355  0.43886691  1
  C  C38  1  0.23531734  0.41228275  0.89673281  1
  C  C39  1  0.27665850  0.19094806  0.25780898  1
  C  C40  1  0.98069946  0.68015165  0.68853334  1
  C  C41  1  0.36048693  0.90257116  0.38701060  1
  C  C42  1  0.97895141  0.29249961  0.66605114  1
  C  C43  1  0.14694747  0.92968333  0.60383765  1
  C  C44  1  0.41999174  0.89460672  0.69311084  1
  C  C45  1  0.81723478  0.37510311  0.12274095  1
  C  C46  1  0.94031158  0.50389875  0.53862865  1
  C  C47  1  0.19840087  0.65283453  0.99874180  1
  C  C48  1  0.29491307  0.13811648  0.64120656  1
  C  C49  1  0.33438602  0.56047097  0.32464065  1
  Cu  Cu50  1  0.36157543  0.06199671  0.95863481  1
  Ni  Ni51  1  0.62834756  0.14428252  0.33361216  1
  Ni  Ni52  1  0.69023894  0.46050327  0.24729296  1
  Ni  Ni53  1  0.25991171  0.92670379  0.72514995  1
  Cu  Cu54  1  0.32195429  0.38631596  0.28892851  1
  Ni  Ni55  1  0.80911031  0.06676018  0.03969894  1
  Ni  Ni56  1  0.39575524  0.06964175  0.49886139  1
  Ni  Ni57  1  0.19695915  0.87702689  0.43236379  1
  Cu  Cu58  1  0.71816187  0.09348189  0.92896618  1
  Ni  Ni59  1  0.72906995  0.39027920  0.49925189  1
  Cu  Cu60  1  0.08300258  0.47113297  0.83865582  1
  Cu  Cu61  1  0.84717559  0.54682808  0.68996563  1
  Ni  Ni62  1  0.04354796  0.71930861  0.83971290  1
  Ni  Ni63  1  0.32707514  0.47102360  0.73921536  1
  Ni  Ni64  1  0.08712803  0.59816875  0.57651485  1
  Ni  Ni65  1  0.98013739  0.40247147  0.08025659  1
  Cu  Cu66  1  0.12315966  0.96840825  0.12834475  1
  Cu  Cu67  1  0.48433460  0.28942000  0.05951535  1
  Cu  Cu68  1  0.59990386  0.84798390  0.01253966  1
  Ni  Ni69  1  0.73050435  0.17103802  0.65461172  1
  Cu  Cu70  1  0.64402567  0.63835992  0.52019085  1
  Cu  Cu71  1  0.94796106  0.24133981  0.83100398  1
  Cu  Cu72  1  0.09280607  0.15053025  0.30669241  1
  Ni  Ni73  1  0.11151891  0.10921915  0.60965315  1
  Ni  Ni74  1  0.18639685  0.25642475  0.99247796  1
  Ni  Ni75  1  0.00332946  0.34394854  0.50385571  1
  Cu  Cu76  1  0.48412055  0.65132282  0.25424353  1
  Ni  Ni77  1  0.73962701  0.83395281  0.71079806  1
  Cu  Cu78  1  0.31072933  0.52303809  0.00261410  1
  Ni  Ni79  1  0.33415562  0.61811209  0.49129687  1
  Ni  Ni80  1  0.89565139  0.60341709  0.39033768  1
  Ni  Ni81  1  0.85470539  0.80570455  0.98022320  1
  Ni  Ni82  1  0.47298292  0.77459065  0.81341363  1
  Cu  Cu83  1  0.07461655  0.98102770  0.88636247  1
  Cu  Cu84  1  0.91465677  0.74167161  0.47330850  1
  Cu  Cu85  1  0.88102982  0.03630205  0.46242388  1
  Cu  Cu86  1  0.98260952  0.86211822  0.63333028  1
  Ni  Ni87  1  0.77517408  0.81472204  0.24076073  1
  Ni  Ni88  1  0.17409208  0.62053207  0.28576476  1
  Ni  Ni89  1  0.58891680  0.44859963  0.77253408  1
  Cu  Cu90  1  0.55476031  0.55560922  0.99877556  1
  Cu  Cu91  1  0.44879149  0.92953090  0.51713839  1
  Cu  Cu92  1  0.62699039  0.05574882  0.64109343  1
  Cu  Cu93  1  0.04870407  0.58074444  0.93571516  1
  Ni  Ni94  1  0.69687306  0.61957500  0.93814492  1
  Cu  Cu95  1  0.44304445  0.95100254  0.25091241  1
  Cu  Cu96  1  0.50594676  0.05598634  0.75435038  1
  Ni  Ni97  1  0.74680497  0.34086078  0.97435384  1
  Ni  Ni98  1  0.53353832  0.29426973  0.76242852  1
  Cu  Cu99  1  0.87078038  0.27526295  0.27416659  1
