# generated using pymatgen
data_Cu5Ni2
_symmetry_space_group_name_H-M   'P 1'
_cell_length_a   12.13643592
_cell_length_b   13.03396156
_cell_length_c   12.19790796
_cell_angle_alpha   94.44518266
_cell_angle_beta   86.77790521
_cell_angle_gamma   88.85756098
_symmetry_Int_Tables_number   1
_chemical_formula_structural   Cu5Ni2
_chemical_formula_sum   'Cu75 Ni30'
_cell_volume   1920.11891963
_cell_formula_units_Z   15
loop_
 _symmetry_equiv_pos_site_id
 _symmetry_equiv_pos_as_xyz
  1  'x, y, z'
loop_
 _atom_site_type_symbol
 _atom_site_label
 _atom_site_symmetry_multiplicity
 _atom_site_fract_x
 _atom_site_fract_y
 _atom_site_fract_z
 _atom_site_occupancy
  Ni  Ni0  1  0.09475271  0.79222842  0.14898318  1
  Ni  Ni1  1  0.97951712  0.87238352  0.65389961  1
  Ni  Ni2  1  0.02080730  0.10705329  0.14390907  1
  Ni  Ni3  1  0.82945571  0.15644900  0.34546906  1
  Ni  Ni4  1  0.93819533  0.92578790  0.96823364  1
  Ni  Ni5  1  0.14062289  0.81844003  0.82315781  1
  Ni  Ni6  1  0.00796091  0.58817797  0.88082469  1
  Ni  Ni7  1  0.46298092  0.60958070  0.26212661  1
  Ni  Ni8  1  0.69013044  0.49660890  0.61479890  1
  Ni  Ni9  1  0.06775025  0.52317667  0.16010717  1
  Ni  Ni10  1  0.56514544  0.14163190  0.41517290  1
  Ni  Ni11  1  0.39981981  0.95307464  0.47938391  1
  Ni  Ni12  1  0.32998099  0.83247774  0.94582951  1
  Ni  Ni13  1  0.56723915  0.21710352  0.79582035  1
  Ni  Ni14  1  0.86822155  0.66255918  0.50571762  1
  Ni  Ni15  1  0.13351128  0.18503194  0.51332178  1
  Ni  Ni16  1  0.12474256  0.93312229  0.40750879  1
  Ni  Ni17  1  0.28931406  0.07405272  0.07507865  1
  Ni  Ni18  1  0.41039069  0.53107291  0.51810004  1
  Ni  Ni19  1  0.73118562  0.35104061  0.83498809  1
  Ni  Ni20  1  0.26107121  0.47680659  0.77501648  1
  Ni  Ni21  1  0.48430145  0.96934969  0.74689180  1
  Ni  Ni22  1  0.50526786  0.31157141  0.55743924  1
  Ni  Ni23  1  0.81345434  0.39653040  0.23097718  1
  Ni  Ni24  1  0.71429561  0.61429580  0.87236093  1
  Ni  Ni25  1  0.21475554  0.40721640  0.37387154  1
  Ni  Ni26  1  0.72665289  0.64255947  0.28713565  1
  Ni  Ni27  1  0.58247651  0.76483818  0.98659083  1
  Ni  Ni28  1  0.34399706  0.49598783  0.03705710  1
  Ni  Ni29  1  0.40273336  0.29381315  0.16437425  1
  Cu  Cu30  1  0.14747004  0.30977177  0.43757850  1
  Cu  Cu31  1  0.16290866  0.06760264  0.15991546  1
  Cu  Cu32  1  0.81350384  0.67119147  0.19018026  1
  Cu  Cu33  1  0.05772917  0.70958529  0.88603088  1
  Cu  Cu34  1  0.80416033  0.53649649  0.53597496  1
  Cu  Cu35  1  0.67300061  0.49189870  0.88440907  1
  Cu  Cu36  1  0.38682029  0.15766628  0.14490151  1
  Cu  Cu37  1  0.98220026  0.63201930  0.43438461  1
  Cu  Cu38  1  0.58778022  0.68148711  0.25600976  1
  Cu  Cu39  1  0.97960691  0.05518228  0.01282240  1
  Cu  Cu40  1  0.86038001  0.60606630  0.84821285  1
  Cu  Cu41  1  0.34429048  0.94709887  0.04516459  1
  Cu  Cu42  1  0.22094977  0.53822321  0.09377722  1
  Cu  Cu43  1  0.35280192  0.36143648  0.05065561  1
  Cu  Cu44  1  0.70150088  0.21168307  0.75139396  1
  Cu  Cu45  1  0.50141615  0.29978821  0.70420894  1
  Cu  Cu46  1  0.46691594  0.52282111  0.36710638  1
  Cu  Cu47  1  0.63494953  0.73992836  0.84891535  1
  Cu  Cu48  1  0.44620962  0.55029617  0.11927544  1
  Cu  Cu49  1  0.06184239  0.67277072  0.18902991  1
  Cu  Cu50  1  0.05951716  0.33795640  0.96752368  1
  Cu  Cu51  1  0.26119163  0.12532830  0.96361560  1
  Cu  Cu52  1  0.09705277  0.06374866  0.42085140  1
  Cu  Cu53  1  0.13381882  0.46820482  0.28909563  1
  Cu  Cu54  1  0.11063385  0.37022272  0.04757538  1
  Cu  Cu55  1  0.21301601  0.78696760  0.06830622  1
  Cu  Cu56  1  0.25807333  0.35342134  0.76801836  1
  Cu  Cu57  1  0.82551651  0.28990128  0.32223642  1
  Cu  Cu58  1  0.89324927  0.75138309  0.61581520  1
  Cu  Cu59  1  0.11262995  0.51928467  0.79394732  1
  Cu  Cu60  1  0.85162373  0.34638331  0.88332737  1
  Cu  Cu61  1  0.26534824  0.74223809  0.84768476  1
  Cu  Cu62  1  0.43013241  0.75011070  0.99681079  1
  Cu  Cu63  1  0.27209924  0.50360049  0.46177796  1
  Cu  Cu64  1  0.04380453  0.87313045  0.49780257  1
  Cu  Cu65  1  0.57207096  0.16548989  0.55443673  1
  Cu  Cu66  1  0.45461859  0.05588257  0.39735417  1
  Cu  Cu67  1  0.76099186  0.35203690  0.11905312  1
  Cu  Cu68  1  0.72791953  0.50559205  0.29477315  1
  Cu  Cu69  1  0.66655398  0.59320070  0.71294761  1
  Cu  Cu70  1  0.67596955  0.66013746  0.01517356  1
  Cu  Cu71  1  0.73535826  0.39678019  0.68201060  1
  Cu  Cu72  1  0.93668717  0.45602214  0.19731440  1
  Cu  Cu73  1  0.04542416  0.20783609  0.61811762  1
  Cu  Cu74  1  0.80612100  0.92776240  0.97323693  1
  Cu  Cu75  1  0.36029604  0.68913574  0.29101402  1
  Cu  Cu76  1  0.92383825  0.07588438  0.25312879  1
  Cu  Cu77  1  0.32397404  0.34580677  0.28605729  1
  Cu  Cu78  1  0.90991770  0.97923336  0.65849741  1
  Cu  Cu79  1  0.98758381  0.84659307  0.07386645  1
  Cu  Cu80  1  0.43348358  0.65093889  0.54341800  1
  Cu  Cu81  1  0.37575153  0.32676695  0.53935685  1
  Cu  Cu82  1  0.26509455  0.91513936  0.43950381  1
  Cu  Cu83  1  0.48215131  0.85647151  0.44569760  1
  Cu  Cu84  1  0.10796156  0.87851173  0.27007334  1
  Cu  Cu85  1  0.50230398  0.09572941  0.81459969  1
  Cu  Cu86  1  0.98452499  0.87651484  0.83077431  1
  Cu  Cu87  1  0.76682246  0.70642652  0.41512032  1
  Cu  Cu88  1  0.86468457  0.14799000  0.46933541  1
  Cu  Cu89  1  0.53069456  0.31887279  0.17625316  1
  Cu  Cu90  1  0.41829809  0.88664033  0.84181614  1
  Cu  Cu91  1  0.53694087  0.26931584  0.39827460  1
  Cu  Cu92  1  0.33984600  0.51378481  0.66041733  1
  Cu  Cu93  1  0.25229729  0.14692269  0.55748495  1
  Cu  Cu94  1  0.58537886  0.30014957  0.90773187  1
  Cu  Cu95  1  0.01622301  0.23091958  0.15023855  1
  Cu  Cu96  1  0.19005181  0.91817704  0.90321092  1
  Cu  Cu97  1  0.69041360  0.10356423  0.34064879  1
  Cu  Cu98  1  0.40683867  0.97997198  0.62562110  1
  Cu  Cu99  1  0.55205006  0.45146014  0.55346653  1
  Cu  Cu100  1  0.60420154  0.92157283  0.70743534  1
  Cu  Cu101  1  0.61057335  0.87639557  0.04308830  1
  Cu  Cu102  1  0.00963424  0.55096500  0.00843098  1
  Cu  Cu103  1  0.34261337  0.51483887  0.89507770  1
  Cu  Cu104  1  0.14019525  0.83907622  0.68711590  1
