# generated using pymatgen
data_CuNi4C7
_symmetry_space_group_name_H-M   'P 1'
_cell_length_a   6.48867712
_cell_length_b   6.48867712
_cell_length_c   11.38308508
_cell_angle_alpha   76.15822612
_cell_angle_beta   76.15822612
_cell_angle_gamma   33.96058223
_symmetry_Int_Tables_number   1
_chemical_formula_structural   CuNi4C7
_chemical_formula_sum   'Cu1 Ni4 C7'
_cell_volume   259.21452642
_cell_formula_units_Z   1
loop_
 _symmetry_equiv_pos_site_id
 _symmetry_equiv_pos_as_xyz
  1  'x, y, z'
loop_
 _atom_site_type_symbol
 _atom_site_label
 _atom_site_symmetry_multiplicity
 _atom_site_fract_x
 _atom_site_fract_y
 _atom_site_fract_z
 _atom_site_occupancy
  Ni  Ni0  1  0.69345800  0.69345800  0.20827200  1
  Ni  Ni1  1  0.30653800  0.30653800  0.80030300  1
  Ni  Ni2  1  0.99935100  0.99935100  0.00713900  1
  Ni  Ni3  1  0.11185700  0.11185700  0.56267200  1
  Cu  Cu4  1  0.88896100  0.88896100  0.42494100  1
  C  C5  1  0.74612700  0.74612700  0.63590500  1
  C  C6  1  0.27172400  0.27172400  0.35403300  1
  C  C7  1  0.33754000  0.33754000  0.05204100  1
  C  C8  1  0.65990200  0.65990200  0.94849600  1
  C  C9  1  0.03080300  0.03080300  0.23012600  1
  C  C10  1  0.96462300  0.96462300  0.78347800  1
  C  C11  1  0.48911500  0.48911500  0.49259400  1
