# generated using pymatgen
data_Cu8Ni2C3
_symmetry_space_group_name_H-M   'P 1'
_cell_length_a   5.24505759
_cell_length_b   5.24505759
_cell_length_c   9.13025600
_cell_angle_alpha   90.00000000
_cell_angle_beta   90.00000000
_cell_angle_gamma   119.99999484
_symmetry_Int_Tables_number   1
_chemical_formula_structural   Cu8Ni2C3
_chemical_formula_sum   'Cu8 Ni2 C3'
_cell_volume   217.52748129
_cell_formula_units_Z   1
loop_
 _symmetry_equiv_pos_site_id
 _symmetry_equiv_pos_as_xyz
  1  'x, y, z'
loop_
 _atom_site_type_symbol
 _atom_site_label
 _atom_site_symmetry_multiplicity
 _atom_site_fract_x
 _atom_site_fract_y
 _atom_site_fract_z
 _atom_site_occupancy
  Ni  Ni0  1  0.33333300  0.66666700  0.65037200  1
  Ni  Ni1  1  0.66666700  0.33333300  0.34962800  1
  C  C2  1  0.00000000  0.00000000  0.00000000  1
  C  C3  1  0.33333300  0.66666700  0.19431100  1
  C  C4  1  0.66666700  0.33333300  0.80568900  1
  Cu  Cu5  1  0.33333300  0.66666700  0.36131900  1
  Cu  Cu6  1  0.66666700  0.33333300  0.63868100  1
  Cu  Cu7  1  0.27082100  0.90932100  0.13534600  1
  Cu  Cu8  1  0.09067900  0.36149900  0.13534600  1
  Cu  Cu9  1  0.63850100  0.72917900  0.13534600  1
  Cu  Cu10  1  0.72917900  0.09067900  0.86465400  1
  Cu  Cu11  1  0.90932100  0.63850100  0.86465400  1
  Cu  Cu12  1  0.36149900  0.27082100  0.86465400  1
