# generated using pymatgen
data_Cu4NiC5
_symmetry_space_group_name_H-M   'P 1'
_cell_length_a   10.67279246
_cell_length_b   10.67279246
_cell_length_c   10.67279246
_cell_angle_alpha   99.13243832
_cell_angle_beta   99.13243832
_cell_angle_gamma   133.04447499
_symmetry_Int_Tables_number   1
_chemical_formula_structural   Cu4NiC5
_chemical_formula_sum   'Cu16 Ni4 C20'
_cell_volume   814.92583432
_cell_formula_units_Z   4
loop_
 _symmetry_equiv_pos_site_id
 _symmetry_equiv_pos_as_xyz
  1  'x, y, z'
loop_
 _atom_site_type_symbol
 _atom_site_label
 _atom_site_symmetry_multiplicity
 _atom_site_fract_x
 _atom_site_fract_y
 _atom_site_fract_z
 _atom_site_occupancy
  C  C0  1  0.84996800  0.54891900  0.90163100  1
  C  C1  1  0.64728800  0.94833700  0.09836900  1
  C  C2  1  0.79891900  0.39728800  0.19895100  1
  C  C3  1  0.19833700  0.59996800  0.80104900  1
  C  C4  1  0.60271200  0.80166300  0.40163100  1
  C  C5  1  0.40003200  0.20108100  0.59836900  1
  C  C6  1  0.05166300  0.15003200  0.69895100  1
  C  C7  1  0.45108100  0.35271200  0.30104900  1
  C  C8  1  0.00000000  0.00000000  0.00000000  1
  C  C9  1  0.25000000  0.75000000  0.50000000  1
  C  C10  1  0.75000000  0.25000000  0.50000000  1
  C  C11  1  0.50000000  0.50000000  0.00000000  1
  C  C12  1  0.70149500  0.10078600  0.80042100  1
  C  C13  1  0.30036500  0.90107400  0.19957900  1
  C  C14  1  0.35078600  0.05036500  0.89929100  1
  C  C15  1  0.15107400  0.45149500  0.10070900  1
  C  C16  1  0.89921400  0.69963500  0.60070900  1
  C  C17  1  0.09892600  0.29850500  0.39929100  1
  C  C18  1  0.94963500  0.84892600  0.30042100  1
  C  C19  1  0.54850500  0.64921400  0.69957900  1
  Cu  Cu20  1  0.72701588  0.17283588  0.66433731  1
  Ni  Ni21  1  0.52519700  0.07792400  0.34910000  1
  Cu  Cu22  1  0.42741714  0.26882629  0.94590824  1
  Cu  Cu23  1  0.32237006  0.47926853  0.04658832  1
  Cu  Cu24  1  0.75159020  0.67833308  0.15777244  1
  Ni  Ni25  1  0.52117600  0.57390300  0.84910000  1
  Cu  Cu26  1  0.96274992  0.30804214  0.42437553  1
  Cu  Cu27  1  0.82297471  0.47603067  0.54767212  1
  Cu  Cu28  1  0.89793447  0.25476549  0.94150241  1
  Cu  Cu29  1  0.32975081  0.98707047  0.05021674  1
  Ni  Ni30  1  0.53026100  0.07790000  0.85538600  1
  Cu  Cu31  1  0.23892407  0.69386751  0.15536755  1
  Cu  Cu32  1  0.94161008  0.78100752  0.45041472  1
  Cu  Cu33  1  0.30500973  0.46978857  0.52632250  1
  Cu  Cu34  1  0.01378214  0.07346988  0.35040340  1
  Ni  Ni35  1  0.71973900  0.67210000  0.64461400  1
  Cu  Cu36  1  0.11863663  0.85770848  0.75831799  1
  Cu  Cu37  1  0.13519333  0.38650773  0.25823171  1
  Cu  Cu38  1  0.10181939  0.85476265  0.22682345  1
  Cu  Cu39  1  0.59087027  0.84663779  0.74029389  1
