# generated using pymatgen
data_Cu2NiC17
_symmetry_space_group_name_H-M   'P 1'
_cell_length_a   6.26243200
_cell_length_b   7.55079600
_cell_length_c   10.46773329
_cell_angle_alpha   80.82522630
_cell_angle_beta   90.00000000
_cell_angle_gamma   90.00000000
_symmetry_Int_Tables_number   1
_chemical_formula_structural   Cu2NiC17
_chemical_formula_sum   'Cu4 Ni2 C34'
_cell_volume   488.64835671
_cell_formula_units_Z   2
loop_
 _symmetry_equiv_pos_site_id
 _symmetry_equiv_pos_as_xyz
  1  'x, y, z'
loop_
 _atom_site_type_symbol
 _atom_site_label
 _atom_site_symmetry_multiplicity
 _atom_site_fract_x
 _atom_site_fract_y
 _atom_site_fract_z
 _atom_site_occupancy
  C  C0  1  0.75000000  0.32747700  0.20098500  1
  C  C1  1  0.25000000  0.67252300  0.79901500  1
  C  C2  1  0.25000000  0.63873700  0.19837100  1
  C  C3  1  0.75000000  0.36126300  0.80162900  1
  C  C4  1  0.25000000  0.23483600  0.44444500  1
  C  C5  1  0.50000000  0.00000000  0.00000000  1
  C  C6  1  0.75000000  0.76516400  0.55555500  1
  C  C7  1  0.00000000  0.00000000  0.00000000  1
  Cu  Cu8  1  0.26083449  0.80200931  0.47332445  1
  Cu  Cu9  1  0.72897556  0.18466453  0.54923195  1
  Cu  Cu10  1  0.24524118  0.29180610  0.73660905  1
  Ni  Ni11  1  0.75000000  0.74019400  0.23427700  1
  Ni  Ni12  1  0.75000000  0.68885200  0.88319300  1
  Cu  Cu13  1  0.24988179  0.28947063  0.12320416  1
  C  C14  1  0.75000000  0.64525100  0.74098600  1
  C  C15  1  0.55692600  0.25721200  0.43020200  1
  C  C16  1  0.25000000  0.20592700  0.63175600  1
  C  C17  1  0.54622600  0.79188400  0.90786000  1
  C  C18  1  0.75000000  0.34694700  0.62174200  1
  C  C19  1  0.75000000  0.12522500  0.90397100  1
  C  C20  1  0.25000000  0.65305300  0.37825800  1
  C  C21  1  0.04622600  0.20811600  0.09214000  1
  C  C22  1  0.25000000  0.97986000  0.40357500  1
  C  C23  1  0.75000000  0.02014000  0.59642500  1
  C  C24  1  0.05814900  0.37741100  0.79395300  1
  C  C25  1  0.25000000  0.87477500  0.09602900  1
  C  C26  1  0.55814900  0.62258900  0.20604700  1
  C  C27  1  0.75000000  0.49090900  0.95464500  1
  C  C28  1  0.75000000  0.79407300  0.36824400  1
  C  C29  1  0.45377400  0.20811600  0.09214000  1
  C  C30  1  0.94307400  0.25721200  0.43020200  1
  C  C31  1  0.44307400  0.74278800  0.56979800  1
  C  C32  1  0.44185100  0.37741100  0.79395300  1
  C  C33  1  0.25000000  0.35474900  0.25901400  1
  C  C34  1  0.75000000  0.91632000  0.13195600  1
  C  C35  1  0.25000000  0.08368000  0.86804400  1
  C  C36  1  0.94185100  0.62258900  0.20604700  1
  C  C37  1  0.95377400  0.79188400  0.90786000  1
  C  C38  1  0.05692600  0.74278800  0.56979800  1
  C  C39  1  0.25000000  0.50909100  0.04535500  1
