# generated using pymatgen
data_Cu3Ni
_symmetry_space_group_name_H-M   'P 1'
_cell_length_a   3.57127053
_cell_length_b   3.57127053
_cell_length_c   3.57127053
_cell_angle_alpha   109.47122063
_cell_angle_beta   109.47122063
_cell_angle_gamma   109.47122063
_symmetry_Int_Tables_number   1
_chemical_formula_structural   Cu3Ni
_chemical_formula_sum   'Cu3 Ni1'
_cell_volume   35.06278092
_cell_formula_units_Z   1
loop_
 _symmetry_equiv_pos_site_id
 _symmetry_equiv_pos_as_xyz
  1  'x, y, z'
loop_
 _atom_site_type_symbol
 _atom_site_label
 _atom_site_symmetry_multiplicity
 _atom_site_fract_x
 _atom_site_fract_y
 _atom_site_fract_z
 _atom_site_occupancy
  Cu  Cu0  1  0.46034357  0.94705172  0.20746523  1
  Ni  Ni1  1  0.25000000  0.50000000  0.00000000  1
  Cu  Cu2  1  0.99553842  0.29198552  0.50246772  1
  Cu  Cu3  1  0.23462127  0.19397477  0.24027030  1
