# generated using pymatgen
data_Cu2C5
_symmetry_space_group_name_H-M   'P 1'
_cell_length_a   7.99214793
_cell_length_b   7.99214793
_cell_length_c   7.99214793
_cell_angle_alpha   60.00000000
_cell_angle_beta   60.00000000
_cell_angle_gamma   60.00000000
_symmetry_Int_Tables_number   1
_chemical_formula_structural   Cu2C5
_chemical_formula_sum   'Cu4 C10'
_cell_volume   360.97368604
_cell_formula_units_Z   2
loop_
 _symmetry_equiv_pos_site_id
 _symmetry_equiv_pos_as_xyz
  1  'x, y, z'
loop_
 _atom_site_type_symbol
 _atom_site_label
 _atom_site_symmetry_multiplicity
 _atom_site_fract_x
 _atom_site_fract_y
 _atom_site_fract_z
 _atom_site_occupancy
  Cu  Cu0  1  0.08513587  0.64896895  0.64419862  1
  Cu  Cu1  1  0.63773641  0.62634813  0.63327701  1
  Cu  Cu2  1  0.60174391  0.09652612  0.64384515  1
  Cu  Cu3  1  0.60827236  0.62511779  0.12379627  1
  C  C4  1  0.00000000  0.00000000  0.00000000  1
  C  C5  1  0.25000000  0.25000000  0.25000000  1
  C  C6  1  0.86757600  0.86757600  0.86757600  1
  C  C7  1  0.85272800  0.38242400  0.38242400  1
  C  C8  1  0.38242400  0.38242400  0.85272800  1
  C  C9  1  0.38242400  0.85272800  0.38242400  1
  C  C10  1  0.86757600  0.86757600  0.39727200  1
  C  C11  1  0.86757600  0.39727200  0.86757600  1
  C  C12  1  0.38242400  0.38242400  0.38242400  1
  C  C13  1  0.39727200  0.86757600  0.86757600  1
