# generated using pymatgen
data_Cu8C5
_symmetry_space_group_name_H-M   'P 1'
_cell_length_a   18.04228323
_cell_length_b   9.02808126
_cell_length_c   22.72797392
_cell_angle_alpha   89.98968539
_cell_angle_beta   89.98033964
_cell_angle_gamma   120.04949200
_symmetry_Int_Tables_number   1
_chemical_formula_structural   Cu8C5
_chemical_formula_sum   'Cu144 C90'
_cell_volume   3204.50861405
_cell_formula_units_Z   18
loop_
 _symmetry_equiv_pos_site_id
 _symmetry_equiv_pos_as_xyz
  1  'x, y, z'
loop_
 _atom_site_type_symbol
 _atom_site_label
 _atom_site_symmetry_multiplicity
 _atom_site_fract_x
 _atom_site_fract_y
 _atom_site_fract_z
 _atom_site_occupancy
  C  C0  1  0.32128218  0.01292557  0.24798479  1
  C  C1  1  0.68651977  0.35838556  0.24782168  1
  C  C2  1  0.31784237  0.62421566  0.74749867  1
  C  C3  1  0.81769267  0.62373171  0.74750760  1
  C  C4  1  0.15484640  0.35102046  0.57828447  1
  C  C5  1  0.65462435  0.34956255  0.57738247  1
  C  C6  1  0.01970486  0.69029326  0.57866550  1
  C  C7  1  0.51995899  0.69138751  0.57848625  1
  C  C8  1  0.32517814  0.95879832  0.57852675  1
  C  C9  1  0.82491233  0.96065179  0.57838059  1
  C  C10  1  0.15465885  0.95956480  0.07840928  1
  C  C11  1  0.65523241  0.96107143  0.07878176  1
  C  C12  1  0.32496354  0.68951179  0.07875377  1
  C  C13  1  0.82519622  0.69046567  0.07835953  1
  C  C14  1  0.01945325  0.34958745  0.07851456  1
  C  C15  1  0.51953224  0.34889595  0.07928522  1
  C  C16  1  0.65922653  0.02772151  0.41074158  1
  C  C17  1  0.35413350  0.67960712  0.40987560  1
  C  C18  1  0.00011893  0.99926962  0.49346529  1
  C  C19  1  0.49934625  0.01512474  0.48762728  1
  C  C20  1  0.99991922  0.99953045  0.99495698  1
  C  C21  1  0.49988346  0.99948097  0.99533521  1
  C  C22  1  0.33370963  0.31940411  0.82729577  1
  C  C23  1  0.83360173  0.31953513  0.82727488  1
  C  C24  1  0.33547481  0.33950310  0.32254754  1
  C  C25  1  0.84384454  0.34122071  0.32343471  1
  C  C26  1  0.16196002  0.65381477  0.16355687  1
  C  C27  1  0.66566657  0.67846382  0.16364324  1
  C  C28  1  0.16114585  0.66732567  0.66449748  1
  C  C29  1  0.66121875  0.66781376  0.66449569  1
  C  C30  1  0.00010693  0.99960562  0.35151056  1
  C  C31  1  0.00093072  0.00266902  0.85336066  1
  C  C32  1  0.50094047  0.00283223  0.85327639  1
  C  C33  1  0.00160280  0.00373393  0.65048392  1
  C  C34  1  0.50172435  0.00258814  0.64971747  1
  C  C35  1  0.99984007  0.99938772  0.15060094  1
  C  C36  1  0.50010635  0.99705323  0.15128430  1
  C  C37  1  0.33310451  0.33407314  0.97888542  1
  C  C38  1  0.83333325  0.33462541  0.97892451  1
  C  C39  1  0.33282523  0.32469799  0.47945610  1
  C  C40  1  0.83581297  0.34032195  0.47932903  1
  C  C41  1  0.16405473  0.66116892  0.31411937  1
  C  C42  1  0.66455374  0.66752947  0.31523767  1
  C  C43  1  0.16395096  0.66758001  0.81610080  1
  C  C44  1  0.66381373  0.66727253  0.81613967  1
  C  C45  1  0.49922531  0.00686362  0.34729274  1
  C  C46  1  0.33373557  0.32428033  0.68464461  1
  C  C47  1  0.83363201  0.32357209  0.68441983  1
  C  C48  1  0.33468398  0.34651787  0.18375630  1
  C  C49  1  0.83699810  0.32898425  0.18392571  1
  C  C50  1  0.16671191  0.66706884  0.00932047  1
  C  C51  1  0.66661281  0.66692071  0.00930800  1
  C  C52  1  0.16514215  0.66641538  0.50899281  1
  C  C53  1  0.66682476  0.66283767  0.50842240  1
  C  C54  1  0.15022219  0.00327093  0.24974616  1
  C  C55  1  0.65000846  0.00397798  0.25269206  1
  C  C56  1  0.35241838  0.70022505  0.25366258  1
  C  C57  1  0.85122303  0.69951561  0.25007426  1
  C  C58  1  0.99741963  0.29431494  0.24969741  1
  C  C59  1  0.49822290  0.29442755  0.25060951  1
  C  C60  1  0.15050591  0.29817433  0.75008163  1
  C  C61  1  0.65034166  0.29781192  0.74992664  1
  C  C62  1  0.99867312  0.70169919  0.74939574  1
  C  C63  1  0.49866174  0.70169027  0.74941472  1
  C  C64  1  0.35213051  0.00280104  0.75001170  1
  C  C65  1  0.85188828  0.00266985  0.75018222  1
  C  C66  1  0.48048962  0.33675211  0.58574493  1
  C  C67  1  0.98022736  0.33665243  0.58528014  1
  C  C68  1  0.18739503  0.03888975  0.58548375  1
  C  C69  1  0.68776142  0.03965278  0.58380569  1
  C  C70  1  0.33240426  0.62578241  0.58538400  1
  C  C71  1  0.83242147  0.62711795  0.58729482  1
  C  C72  1  0.48034025  0.62413826  0.08470155  1
  C  C73  1  0.97994519  0.62420126  0.08525733  1
  C  C74  1  0.33210849  0.03886445  0.08659676  1
  C  C75  1  0.83211876  0.03965780  0.08471081  1
  C  C76  1  0.18739386  0.33523531  0.08489738  1
  C  C77  1  0.68726936  0.33576980  0.08659288  1
  C  C78  1  0.31344659  0.66743861  0.91809499  1
  C  C79  1  0.81338708  0.66739966  0.91808933  1
  C  C80  1  0.01999550  0.37277879  0.92017917  1
  C  C81  1  0.52005056  0.37269196  0.92024712  1
  C  C82  1  0.16616061  0.95999050  0.92004296  1
  C  C83  1  0.66614147  0.96015420  0.92003837  1
  C  C84  1  0.31474259  0.95757686  0.41774115  1
  C  C85  1  0.81371825  0.95926863  0.42030422  1
  C  C86  1  0.16569008  0.37241430  0.42045778  1
  C  C87  1  0.66418628  0.36750197  0.41849849  1
  C  C88  1  0.02100573  0.67027616  0.41965304  1
  C  C89  1  0.51936972  0.66979895  0.42023586  1
  Cu  Cu90  1  0.08559621  0.00302496  0.30151920  1
  Cu  Cu91  1  0.60354019  0.99250563  0.30048884  1
  Cu  Cu92  1  0.39242350  0.74205525  0.31860776  1
  Cu  Cu93  1  0.90632157  0.79311671  0.30074388  1
  Cu  Cu94  1  0.48938188  0.19621146  0.31545826  1
  Cu  Cu95  1  0.98276736  0.16743341  0.30352522  1
  Cu  Cu96  1  0.11432435  0.23685059  0.80211091  1
  Cu  Cu97  1  0.60667554  0.20071606  0.79703002  1
  Cu  Cu98  1  0.49430993  0.81512170  0.80190937  1
  Cu  Cu99  1  0.98731239  0.80595775  0.80817267  1
  Cu  Cu100  1  0.40510589  0.00367905  0.80130024  1
  Cu  Cu101  1  0.92067822  0.01137740  0.80706100  1
  Cu  Cu102  1  0.40089016  0.97988749  0.69547380  1
  Cu  Cu103  1  0.89883082  0.98307843  0.69449835  1
  Cu  Cu104  1  0.09997587  0.21401048  0.69053106  1
  Cu  Cu105  1  0.59701789  0.18704886  0.69273461  1
  Cu  Cu106  1  0.01357616  0.80223553  0.69219784  1
  Cu  Cu107  1  0.51077677  0.81032097  0.69342287  1
  Cu  Cu108  1  0.40835367  0.82666734  0.19850799  1
  Cu  Cu109  1  0.90698385  0.81553339  0.19204771  1
  Cu  Cu110  1  0.00231726  0.17828771  0.18963108  1
  Cu  Cu111  1  0.52177541  0.22546563  0.19606008  1
  Cu  Cu112  1  0.09728413  0.96006285  0.19342870  1
  Cu  Cu113  1  0.60093346  0.96896407  0.18901311  1
  Cu  Cu114  1  0.43378754  0.36982598  0.64223243  1
  Cu  Cu115  1  0.95173906  0.38795384  0.64513115  1
  Cu  Cu116  1  0.25058750  0.15313599  0.62829900  1
  Cu  Cu117  1  0.74924286  0.11602891  0.62791056  1
  Cu  Cu118  1  0.31947239  0.49768603  0.64402290  1
  Cu  Cu119  1  0.81355138  0.49897165  0.65083885  1
  Cu  Cu120  1  0.44800029  0.54771912  0.14464894  1
  Cu  Cu121  1  0.95416470  0.49583013  0.14276758  1
  Cu  Cu122  1  0.30624528  0.08973003  0.13651065  1
  Cu  Cu123  1  0.81491085  0.09625197  0.13201394  1
  Cu  Cu124  1  0.22537075  0.37004027  0.12528632  1
  Cu  Cu125  1  0.74250966  0.37102503  0.14299999  1
  Cu  Cu126  1  0.21703394  0.30219585  0.03284515  1
  Cu  Cu127  1  0.73378037  0.30224973  0.03275254  1
  Cu  Cu128  1  0.42260622  0.54733144  0.03587694  1
  Cu  Cu129  1  0.92854990  0.55936148  0.03471390  1
  Cu  Cu130  1  0.34574990  0.15450114  0.02742672  1
  Cu  Cu131  1  0.84755499  0.16597021  0.02651545  1
  Cu  Cu132  1  0.23701002  0.16562022  0.52364689  1
  Cu  Cu133  1  0.72481090  0.14534355  0.52929782  1
  Cu  Cu134  1  0.33015916  0.56619902  0.54411666  1
  Cu  Cu135  1  0.84926050  0.53248249  0.53680652  1
  Cu  Cu136  1  0.42756286  0.31801749  0.54160272  1
  Cu  Cu137  1  0.93629016  0.32756935  0.53307031  1
  Cu  Cu138  1  0.27507561  0.69226802  0.97330131  1
  Cu  Cu139  1  0.76045260  0.64006886  0.97324979  1
  Cu  Cu140  1  0.06481889  0.45936611  0.98625125  1
  Cu  Cu141  1  0.55752216  0.45388940  0.98183684  1
  Cu  Cu142  1  0.13124757  0.83143488  0.97931979  1
  Cu  Cu143  1  0.66563679  0.86501662  0.97413702  1
  Cu  Cu144  1  0.28778256  0.85656787  0.47956375  1
  Cu  Cu145  1  0.78188176  0.86448234  0.46988802  1
  Cu  Cu146  1  0.15804792  0.46827828  0.47799619  1
  Cu  Cu147  1  0.65108749  0.42801549  0.49203973  1
  Cu  Cu148  1  0.08283375  0.70961803  0.48066586  1
  Cu  Cu149  1  0.57669227  0.71965532  0.47944001  1
  Cu  Cu150  1  0.06202629  0.63212050  0.37116057  1
  Cu  Cu151  1  0.56701570  0.64003712  0.37522845  1
  Cu  Cu152  1  0.26318183  0.88005186  0.36004726  1
  Cu  Cu153  1  0.75528265  0.84651041  0.36513891  1
  Cu  Cu154  1  0.18253016  0.49743034  0.36159970  1
  Cu  Cu155  1  0.66713689  0.47902985  0.36354164  1
  Cu  Cu156  1  0.05381646  0.47874663  0.87518969  1
  Cu  Cu157  1  0.56592621  0.50242590  0.86759378  1
  Cu  Cu158  1  0.18367362  0.83177357  0.86798777  1
  Cu  Cu159  1  0.66164509  0.85643625  0.86111200  1
  Cu  Cu160  1  0.25889341  0.66486307  0.87104480  1
  Cu  Cu161  1  0.75916643  0.63008399  0.86564464  1
  Cu  Cu162  1  0.02400005  0.82951809  0.41053118  1
  Cu  Cu163  1  0.50555429  0.83505213  0.41786761  1
  Cu  Cu164  1  0.41733670  0.97292622  0.41841893  1
  Cu  Cu165  1  0.89062979  0.98907698  0.41229948  1
  Cu  Cu166  1  0.09134629  0.18997004  0.40127308  1
  Cu  Cu167  1  0.58256107  0.15881101  0.40978751  1
  Cu  Cu168  1  0.01359288  0.22312638  0.91496109  1
  Cu  Cu169  1  0.50680401  0.17550400  0.91072962  1
  Cu  Cu170  1  0.08011007  0.97908469  0.91578204  1
  Cu  Cu171  1  0.58222610  0.98065061  0.90529530  1
  Cu  Cu172  1  0.40142375  0.80301140  0.90092280  1
  Cu  Cu173  1  0.90954410  0.85931392  0.90638887  1
  Cu  Cu174  1  0.48901171  0.17660052  0.58333264  1
  Cu  Cu175  1  0.99723293  0.18089553  0.58674271  1
  Cu  Cu176  1  0.10394011  0.03693208  0.59080560  1
  Cu  Cu177  1  0.59325175  0.00897018  0.59398611  1
  Cu  Cu178  1  0.41267389  0.82153111  0.59617481  1
  Cu  Cu179  1  0.92031320  0.82412123  0.58314749  1
  Cu  Cu180  1  0.48352961  0.80226048  0.10429523  1
  Cu  Cu181  1  0.97671400  0.79136071  0.09907095  1
  Cu  Cu182  1  0.42115280  0.02499124  0.08854679  1
  Cu  Cu183  1  0.92297739  0.04683053  0.07899274  1
  Cu  Cu184  1  0.10026222  0.14852243  0.09127437  1
  Cu  Cu185  1  0.59197637  0.16107752  0.07792931  1
  Cu  Cu186  1  0.34143411  0.15618435  0.75361600  1
  Cu  Cu187  1  0.83432607  0.16802073  0.74076946  1
  Cu  Cu188  1  0.23794109  0.32000201  0.74882504  1
  Cu  Cu189  1  0.73544180  0.30035278  0.74204088  1
  Cu  Cu190  1  0.40798626  0.52333753  0.74116771  1
  Cu  Cu191  1  0.91186675  0.52132537  0.75585985  1
  Cu  Cu192  1  0.33998580  0.50964444  0.23548524  1
  Cu  Cu193  1  0.82677638  0.52102303  0.24178408  1
  Cu  Cu194  1  0.41237102  0.30692425  0.23448189  1
  Cu  Cu195  1  0.91375608  0.30058721  0.24583996  1
  Cu  Cu196  1  0.23574684  0.15176140  0.24778668  1
  Cu  Cu197  1  0.73293368  0.17151392  0.25146433  1
  Cu  Cu198  1  0.32501485  0.51819372  0.92219925  1
  Cu  Cu199  1  0.81920513  0.48463393  0.91913342  1
  Cu  Cu200  1  0.43805943  0.35688142  0.91810973  1
  Cu  Cu201  1  0.93146961  0.36798820  0.92169070  1
  Cu  Cu202  1  0.25404097  0.14371393  0.92444844  1
  Cu  Cu203  1  0.74484763  0.14456777  0.92028524  1
  Cu  Cu204  1  0.31921534  0.12726106  0.41400061  1
  Cu  Cu205  1  0.80790463  0.13746711  0.42445713  1
  Cu  Cu206  1  0.25681957  0.35399105  0.42299539  1
  Cu  Cu207  1  0.76131961  0.36359746  0.43137090  1
  Cu  Cu208  1  0.43063773  0.49924344  0.41459973  1
  Cu  Cu209  1  0.93835057  0.51267162  0.42916696  1
  Cu  Cu210  1  0.15609822  0.46804668  0.08454713  1
  Cu  Cu211  1  0.68334798  0.52085242  0.06531843  1
  Cu  Cu212  1  0.07193566  0.64872649  0.07985938  1
  Cu  Cu213  1  0.56601330  0.67666125  0.06234269  1
  Cu  Cu214  1  0.24597407  0.85304448  0.08373357  1
  Cu  Cu215  1  0.73819278  0.84925752  0.06716043  1
  Cu  Cu216  1  0.17301558  0.86465294  0.57783907  1
  Cu  Cu217  1  0.67422650  0.87133510  0.57220736  1
  Cu  Cu218  1  0.24616145  0.65270439  0.58175288  1
  Cu  Cu219  1  0.75860282  0.65891213  0.57859025  1
  Cu  Cu220  1  0.07608787  0.50169876  0.56714112  1
  Cu  Cu221  1  0.58005739  0.47179161  0.57190471  1
  Cu  Cu222  1  0.16055395  0.84527449  0.25625671  1
  Cu  Cu223  1  0.65064788  0.85226977  0.25408860  1
  Cu  Cu224  1  0.26841644  0.70846195  0.26226041  1
  Cu  Cu225  1  0.74900449  0.67393763  0.24914400  1
  Cu  Cu226  1  0.09614496  0.49462807  0.28075063  1
  Cu  Cu227  1  0.56890031  0.44080476  0.25769337  1
  Cu  Cu228  1  0.15350053  0.47910776  0.75834230  1
  Cu  Cu229  1  0.65842014  0.44378377  0.74861237  1
  Cu  Cu230  1  0.09273811  0.70276043  0.75276492  1
  Cu  Cu231  1  0.57952569  0.67630546  0.75222852  1
  Cu  Cu232  1  0.26714955  0.82665911  0.75721934  1
  Cu  Cu233  1  0.75416735  0.82654309  0.75339600  1
