# generated using pymatgen
data_Cu9Ni5
_symmetry_space_group_name_H-M   'P 1'
_cell_length_a   8.36703500
_cell_length_b   8.36703500
_cell_length_c   4.55547600
_cell_angle_alpha   90.00000000
_cell_angle_beta   90.00000000
_cell_angle_gamma   90.00000000
_symmetry_Int_Tables_number   1
_chemical_formula_structural   Cu9Ni5
_chemical_formula_sum   'Cu18 Ni10'
_cell_volume   318.91645968
_cell_formula_units_Z   2
loop_
 _symmetry_equiv_pos_site_id
 _symmetry_equiv_pos_as_xyz
  1  'x, y, z'
loop_
 _atom_site_type_symbol
 _atom_site_label
 _atom_site_symmetry_multiplicity
 _atom_site_fract_x
 _atom_site_fract_y
 _atom_site_fract_z
 _atom_site_occupancy
  Cu  Cu0  1  0.92772579  0.08032921  0.50776830  1
  Cu  Cu1  1  0.08247768  0.90086372  0.49623975  1
  Cu  Cu2  1  0.40008593  0.40791640  0.99490694  1
  Cu  Cu3  1  0.60130915  0.60121162  0.98150871  1
  Ni  Ni4  1  0.97327000  0.36196600  0.50000000  1
  Cu  Cu5  1  0.03228327  0.63384650  0.49022580  1
  Ni  Ni6  1  0.47327000  0.13803400  0.00000000  1
  Cu  Cu7  1  0.51534292  0.86170749  0.04927983  1
  Cu  Cu8  1  0.35952708  0.98360753  0.48806788  1
  Cu  Cu9  1  0.63958351  0.04277501  0.50238304  1
  Cu  Cu10  1  0.14917776  0.46301441  0.00459450  1
  Ni  Ni11  1  0.86196600  0.52673000  0.00000000  1
  Cu  Cu12  1  0.26432107  0.42637363  0.47560607  1
  Ni  Ni13  1  0.74826100  0.55559100  0.50000000  1
  Cu  Cu14  1  0.77129539  0.05240362  0.95427334  1
  Cu  Cu15  1  0.24471975  0.96192595  0.01959164  1
  Ni  Ni16  1  0.44440900  0.25173900  0.50000000  1
  Cu  Cu17  1  0.53096930  0.75164634  0.53337453  1
  Cu  Cu18  1  0.05598909  0.74801710  0.02630698  1
  Cu  Cu19  1  0.96785797  0.23631658  0.00299441  1
  Ni  Ni20  1  0.68634800  0.31365200  0.24956600  1
  Ni  Ni21  1  0.31365200  0.68634800  0.24956600  1
  Cu  Cu22  1  0.18705383  0.17386714  0.73745240  1
  Ni  Ni23  1  0.81365200  0.81365200  0.74956600  1
  Ni  Ni24  1  0.31365200  0.68634800  0.75043400  1
  Ni  Ni25  1  0.68634800  0.31365200  0.75043400  1
  Cu  Cu26  1  0.81936070  0.80956415  0.26710142  1
  Cu  Cu27  1  0.20901282  0.19147585  0.26576235  1
