# generated using pymatgen
data_Cu3C
_symmetry_space_group_name_H-M   'P 1'
_cell_length_a   6.45091005
_cell_length_b   6.45091005
_cell_length_c   7.71553300
_cell_angle_alpha   90.00000000
_cell_angle_beta   90.00000000
_cell_angle_gamma   120.00000055
_symmetry_Int_Tables_number   1
_chemical_formula_structural   Cu3C
_chemical_formula_sum   'Cu6 C2'
_cell_volume   278.06001087
_cell_formula_units_Z   2
loop_
 _symmetry_equiv_pos_site_id
 _symmetry_equiv_pos_as_xyz
  1  'x, y, z'
loop_
 _atom_site_type_symbol
 _atom_site_label
 _atom_site_symmetry_multiplicity
 _atom_site_fract_x
 _atom_site_fract_y
 _atom_site_fract_z
 _atom_site_occupancy
  C  C0  1  0.66666700  0.33333300  0.25000000  1
  C  C1  1  0.33333300  0.66666700  0.75000000  1
  Cu  Cu2  1  0.80981376  0.15864485  0.74541358  1
  Cu  Cu3  1  0.31552121  0.16050328  0.76714076  1
  Cu  Cu4  1  0.82077250  0.63116992  0.75635872  1
  Cu  Cu5  1  0.20314824  0.82998758  0.28213531  1
  Cu  Cu6  1  0.66667709  0.83333526  0.25137901  1
  Cu  Cu7  1  0.16194837  0.33110353  0.25914969  1
