# generated using pymatgen
data_CuC10
_symmetry_space_group_name_H-M   'P 1'
_cell_length_a   6.26125489
_cell_length_b   6.25667336
_cell_length_c   6.26154571
_cell_angle_alpha   56.75997529
_cell_angle_beta   56.82113512
_cell_angle_gamma   56.84713319
_symmetry_Int_Tables_number   1
_chemical_formula_structural   CuC10
_chemical_formula_sum   'Cu1 C10'
_cell_volume   160.67648340
_cell_formula_units_Z   1
loop_
 _symmetry_equiv_pos_site_id
 _symmetry_equiv_pos_as_xyz
  1  'x, y, z'
loop_
 _atom_site_type_symbol
 _atom_site_label
 _atom_site_symmetry_multiplicity
 _atom_site_fract_x
 _atom_site_fract_y
 _atom_site_fract_z
 _atom_site_occupancy
  C  C0  1  0.71684237  0.71671520  0.71623844  1
  C  C1  1  0.25909046  0.25856638  0.25882400  1
  C  C2  1  0.93135664  0.93107235  0.93110819  1
  C  C3  1  0.08090762  0.08202606  0.08190120  1
  Cu  Cu4  1  0.48557162  0.45175017  0.48438188  1
  C  C5  1  0.25559778  0.25531454  0.71158449  1
  C  C6  1  0.71474045  0.24958023  0.71713913  1
  C  C7  1  0.71271254  0.25565279  0.25704406  1
  C  C8  1  0.71574793  0.71605444  0.25039522  1
  C  C9  1  0.25688160  0.71175985  0.25484489  1
  C  C10  1  0.24830508  0.71576022  0.71573266  1
