# generated using pymatgen
data_Cu2Ni5C18
_symmetry_space_group_name_H-M   'P 1'
_cell_length_a   10.22861279
_cell_length_b   10.22861279
_cell_length_c   10.22861279
_cell_angle_alpha   99.44672160
_cell_angle_beta   99.44672160
_cell_angle_gamma   132.20143879
_symmetry_Int_Tables_number   1
_chemical_formula_structural   Cu2Ni5C18
_chemical_formula_sum   'Cu4 Ni10 C36'
_cell_volume   724.79177944
_cell_formula_units_Z   2
loop_
 _symmetry_equiv_pos_site_id
 _symmetry_equiv_pos_as_xyz
  1  'x, y, z'
loop_
 _atom_site_type_symbol
 _atom_site_label
 _atom_site_symmetry_multiplicity
 _atom_site_fract_x
 _atom_site_fract_y
 _atom_site_fract_z
 _atom_site_occupancy
  Ni  Ni0  1  0.75000000  0.25000000  0.50000000  1
  Ni  Ni1  1  0.54312300  0.64555300  0.69276900  1
  Ni  Ni2  1  0.95278500  0.85035400  0.30723100  1
  Ni  Ni3  1  0.14964600  0.45687700  0.10243000  1
  Ni  Ni4  1  0.35444700  0.04721500  0.89757000  1
  Ni  Ni5  1  0.85035400  0.54312300  0.89757000  1
  Ni  Ni6  1  0.64555300  0.95278500  0.10243000  1
  Ni  Ni7  1  0.04721500  0.14964600  0.69276900  1
  Ni  Ni8  1  0.25000000  0.75000000  0.50000000  1
  Ni  Ni9  1  0.45687700  0.35444700  0.30723100  1
  Cu  Cu10  1  0.40140500  0.19883200  0.60023800  1
  Cu  Cu11  1  0.80116800  0.40140500  0.20257300  1
  Cu  Cu12  1  0.19883200  0.59859500  0.79742700  1
  Cu  Cu13  1  0.59859500  0.80116800  0.39976200  1
  C  C14  1  0.30789800  0.89832800  0.20622600  1
  C  C15  1  0.10167200  0.30789800  0.40957000  1
  C  C16  1  0.50000000  0.50000000  0.00000000  1
  C  C17  1  0.69210200  0.10167200  0.79377400  1
  C  C18  1  0.89832800  0.69210200  0.59043000  1
  C  C19  1  0.00000000  0.00000000  0.00000000  1
  C  C20  1  0.52721600  0.13327500  0.19724200  1
  C  C21  1  0.32997400  0.52721600  0.39394100  1
  C  C22  1  0.75691100  0.75691100  0.00000000  1
  C  C23  1  0.93603200  0.32997400  0.80275800  1
  C  C24  1  0.13327500  0.93603200  0.60605900  1
  C  C25  1  0.25028600  0.76354600  0.01383100  1
  C  C26  1  0.04637700  0.13888100  0.18525700  1
  C  C27  1  0.45343200  0.36288000  0.81631200  1
  C  C28  1  0.65798400  0.95987000  0.61785400  1
  C  C29  1  0.85291000  0.55524800  0.40815800  1
  C  C30  1  0.13888100  0.95362300  0.09250400  1
  C  C31  1  0.95987000  0.34201600  0.30188500  1
  C  C32  1  0.36288000  0.54656800  0.90944800  1
  C  C33  1  0.55524800  0.14709000  0.70233800  1
  C  C34  1  0.76354600  0.74971400  0.51326000  1
  C  C35  1  0.06396800  0.67002600  0.19724200  1
  C  C36  1  0.86672500  0.06396800  0.39394100  1
  C  C37  1  0.24308900  0.24308900  0.00000000  1
  C  C38  1  0.47278400  0.86672500  0.80275800  1
  C  C39  1  0.67002600  0.47278400  0.60605900  1
  C  C40  1  0.34201600  0.04013000  0.38214600  1
  C  C41  1  0.14709000  0.44475200  0.59184200  1
  C  C42  1  0.54656800  0.63712000  0.18368800  1
  C  C43  1  0.74971400  0.23645400  0.98616900  1
  C  C44  1  0.95362300  0.86111900  0.81474300  1
  C  C45  1  0.44475200  0.85291000  0.29766200  1
  C  C46  1  0.23645400  0.25028600  0.48674000  1
  C  C47  1  0.63712000  0.45343200  0.09055200  1
  C  C48  1  0.86111900  0.04637700  0.90749600  1
  C  C49  1  0.04013000  0.65798400  0.69811500  1
