# generated using pymatgen
data_Cu8NiC12
_symmetry_space_group_name_H-M   'P 1'
_cell_length_a   5.18369373
_cell_length_b   5.23480570
_cell_length_c   8.70480293
_cell_angle_alpha   98.68341080
_cell_angle_beta   86.45092701
_cell_angle_gamma   102.32557491
_symmetry_Int_Tables_number   1
_chemical_formula_structural   Cu8NiC12
_chemical_formula_sum   'Cu8 Ni1 C12'
_cell_volume   228.01291011
_cell_formula_units_Z   1
loop_
 _symmetry_equiv_pos_site_id
 _symmetry_equiv_pos_as_xyz
  1  'x, y, z'
loop_
 _atom_site_type_symbol
 _atom_site_label
 _atom_site_symmetry_multiplicity
 _atom_site_fract_x
 _atom_site_fract_y
 _atom_site_fract_z
 _atom_site_occupancy
  Ni  Ni0  1  0.45905700  0.43025300  0.68209300  1
  Cu  Cu1  1  0.27865000  0.53507700  0.08550700  1
  Cu  Cu2  1  0.29437600  0.02333000  0.39517700  1
  Cu  Cu3  1  0.03253900  0.50635500  0.51028000  1
  Cu  Cu4  1  0.21791400  0.91501600  0.86616700  1
  Cu  Cu5  1  0.76774600  0.45283600  0.92827800  1
  Cu  Cu6  1  0.76738700  0.97823200  0.61480900  1
  Cu  Cu7  1  0.59002900  0.54422400  0.34027200  1
  Cu  Cu8  1  0.85019700  0.07137400  0.15659100  1
  C  C9  1  0.43351700  0.64836900  0.89104600  1
  C  C10  1  0.11495800  0.21719900  0.60548800  1
  C  C11  1  0.13299700  0.32390600  0.28835200  1
  C  C12  1  0.50717900  0.82333600  0.22673900  1
  C  C13  1  0.61382900  0.32400000  0.14040900  1
  C  C14  1  0.91721800  0.78345300  0.41113100  1
  C  C15  1  0.92535400  0.71497400  0.72092100  1
  C  C16  1  0.55327700  0.14058300  0.78466700  1
  C  C17  1  0.01711900  0.76229800  0.05703300  1
  C  C18  1  0.65617900  0.28028500  0.48309800  1
  C  C19  1  0.05239200  0.21535300  0.97050900  1
  C  C20  1  0.41808400  0.70954600  0.53786200  1
