# generated using pymatgen
data_CuNiC9
_symmetry_space_group_name_H-M   'P 1'
_cell_length_a   5.62311061
_cell_length_b   10.30467321
_cell_length_c   9.15107356
_cell_angle_alpha   81.49708998
_cell_angle_beta   100.09611345
_cell_angle_gamma   76.90871503
_symmetry_Int_Tables_number   1
_chemical_formula_structural   CuNiC9
_chemical_formula_sum   'Cu4 Ni4 C36'
_cell_volume   498.65240765
_cell_formula_units_Z   4
loop_
 _symmetry_equiv_pos_site_id
 _symmetry_equiv_pos_as_xyz
  1  'x, y, z'
loop_
 _atom_site_type_symbol
 _atom_site_label
 _atom_site_symmetry_multiplicity
 _atom_site_fract_x
 _atom_site_fract_y
 _atom_site_fract_z
 _atom_site_occupancy
  Ni  Ni0  1  0.33387000  0.65750300  0.99978600  1
  Ni  Ni1  1  0.33359700  0.15752400  0.49975900  1
  Ni  Ni2  1  0.66605100  0.34248700  0.00015500  1
  Ni  Ni3  1  0.66624400  0.84251100  0.50022000  1
  Cu  Cu4  1  0.25026500  0.68597900  0.52464500  1
  Cu  Cu5  1  0.75050300  0.31391600  0.47575400  1
  Cu  Cu6  1  0.25000800  0.18593800  0.02454200  1
  Cu  Cu7  1  0.75029700  0.81392700  0.97577600  1
  C  C8  1  0.18690700  0.38985200  0.70593900  1
  C  C9  1  0.18719200  0.88989100  0.20601400  1
  C  C10  1  0.81301200  0.61009100  0.29404900  1
  C  C11  1  0.81283100  0.11016700  0.79397000  1
  C  C12  1  0.22836200  0.40636800  0.20634500  1
  C  C13  1  0.22839800  0.90628600  0.70642700  1
  C  C14  1  0.77156300  0.59369000  0.79366600  1
  C  C15  1  0.77164700  0.09365900  0.29357500  1
  C  C16  1  0.11166500  0.79505200  0.10277500  1
  C  C17  1  0.11104300  0.29509100  0.60261200  1
  C  C18  1  0.88854200  0.20493000  0.89736000  1
  C  C19  1  0.88864800  0.70496000  0.39721000  1
  C  C20  1  0.29663500  0.49744700  0.63264300  1
  C  C21  1  0.29682000  0.99752600  0.13262700  1
  C  C22  1  0.70348800  0.50243000  0.36732100  1
  C  C23  1  0.70334300  0.00244200  0.86724600  1
  C  C24  1  0.35235300  0.30771800  0.86033800  1
  C  C25  1  0.35251600  0.80774900  0.36041800  1
  C  C26  1  0.64755700  0.69227700  0.13959800  1
  C  C27  1  0.64713700  0.19216000  0.63954500  1
  C  C28  1  0.61357400  0.53791400  0.89479800  1
  C  C29  1  0.61374500  0.03793100  0.39485800  1
  C  C30  1  0.38640400  0.46210100  0.10517600  1
  C  C31  1  0.38629500  0.96212800  0.60515900  1
  C  C32  1  0.05058800  0.33476000  0.11908500  1
  C  C33  1  0.05062000  0.83469800  0.61913000  1
  C  C34  1  0.94937900  0.66532800  0.88089900  1
  C  C35  1  0.94917800  0.16537200  0.38078000  1
  C  C36  1  0.07167100  0.53794900  0.25199600  1
  C  C37  1  0.07162600  0.03783500  0.75212200  1
  C  C38  1  0.92826900  0.46218500  0.74787700  1
  C  C39  1  0.92837100  0.96217000  0.24776900  1
  C  C40  1  0.61711900  0.18527400  0.14449300  1
  C  C41  1  0.61713800  0.68525700  0.64446300  1
  C  C42  1  0.38297600  0.81476900  0.85558100  1
  C  C43  1  0.38256200  0.31475400  0.35549800  1
