# generated using pymatgen
data_CuNi
_symmetry_space_group_name_H-M   'P 1'
_cell_length_a   12.96934715
_cell_length_b   13.63101490
_cell_length_c   13.18272457
_cell_angle_alpha   87.61451738
_cell_angle_beta   88.34906229
_cell_angle_gamma   89.35110935
_symmetry_Int_Tables_number   1
_chemical_formula_structural   CuNi
_chemical_formula_sum   'Cu50 Ni50'
_cell_volume   2327.40696357
_cell_formula_units_Z   50
loop_
 _symmetry_equiv_pos_site_id
 _symmetry_equiv_pos_as_xyz
  1  'x, y, z'
loop_
 _atom_site_type_symbol
 _atom_site_label
 _atom_site_symmetry_multiplicity
 _atom_site_fract_x
 _atom_site_fract_y
 _atom_site_fract_z
 _atom_site_occupancy
  Ni  Ni0  1  0.51664554  0.45544856  0.93827361  1
  Ni  Ni1  1  0.29919319  0.62125282  0.10041775  1
  Ni  Ni2  1  0.63660864  0.40790337  0.21921948  1
  Ni  Ni3  1  0.05081116  0.87106004  0.91871206  1
  Ni  Ni4  1  0.80110256  0.71747013  0.04990895  1
  Ni  Ni5  1  0.13153869  0.37263698  0.66882411  1
  Ni  Ni6  1  0.58189142  0.26098294  0.40503486  1
  Ni  Ni7  1  0.02719478  0.64495125  0.80520950  1
  Ni  Ni8  1  0.90866498  0.04236174  0.65704396  1
  Ni  Ni9  1  0.97731034  0.62615393  -0.00030147  1
  Ni  Ni10  1  0.02135160  0.30704585  0.03805874  1
  Ni  Ni11  1  0.09902029  0.50241507  0.08491657  1
  Ni  Ni12  1  0.44172820  0.25092502  0.55852813  1
  Ni  Ni13  1  0.91887167  0.13193011  0.05839012  1
  Ni  Ni14  1  0.65760039  0.76021369  0.59946822  1
  Ni  Ni15  1  0.81337006  0.11432320  0.81941524  1
  Ni  Ni16  1  0.89127862  0.41215739  0.39706543  1
  Ni  Ni17  1  0.23137787  0.05796303  0.42088315  1
  Ni  Ni18  1  0.48920139  0.51991987  0.74652505  1
  Ni  Ni19  1  0.24655237  0.27477794  0.49570635  1
  Ni  Ni20  1  0.76871288  0.02760858  0.99515001  1
  Ni  Ni21  1  0.92734413  0.53752263  0.68217264  1
  Ni  Ni22  1  0.38715940  0.12605614  0.72601034  1
  Ni  Ni23  1  0.22996766  0.47571150  0.52792379  1
  Ni  Ni24  1  0.47482658  0.44368649  0.49042014  1
  Ni  Ni25  1  0.25193572  0.25701482  0.16539553  1
  Ni  Ni26  1  0.00427776  0.18142728  0.86540893  1
  Ni  Ni27  1  0.98258608  0.80657023  0.12994927  1
  Ni  Ni28  1  0.03401682  0.07599996  0.38924078  1
  Ni  Ni29  1  0.65794113  0.92112250  0.33071163  1
  Ni  Ni30  1  0.78052267  0.79291880  0.43172002  1
  Ni  Ni31  1  0.64482738  0.41051839  0.59500356  1
  Ni  Ni32  1  0.80548997  0.70038684  0.25579493  1
  Ni  Ni33  1  0.53342442  0.67220232  0.47310013  1
  Ni  Ni34  1  0.78090796  0.91146624  0.16249211  1
  Ni  Ni35  1  0.27639452  0.75992240  0.34328366  1
  Ni  Ni36  1  0.56114087  0.33280703  0.77235540  1
  Ni  Ni37  1  0.80419151  0.61612987  0.85573232  1
  Ni  Ni38  1  0.83703734  0.47709891  0.05413333  1
  Ni  Ni39  1  0.23942303  0.47812520  0.33502408  1
  Ni  Ni40  1  0.51097481  0.67253694  0.11256430  1
  Ni  Ni41  1  0.42244396  0.99974949  0.54593020  1
  Ni  Ni42  1  0.58740052  0.12633800  0.77983125  1
  Ni  Ni43  1  0.42306446  0.65162903  0.91539996  1
  Ni  Ni44  1  0.65862237  0.94579297  0.84799792  1
  Ni  Ni45  1  0.79767406  0.03678280  0.41347231  1
  Ni  Ni46  1  0.12771285  0.00993993  0.09512117  1
  Ni  Ni47  1  0.07889030  0.93806924  0.69160647  1
  Ni  Ni48  1  0.36956637  0.80403626  0.52733804  1
  Ni  Ni49  1  0.63607842  0.76101386  0.93540987  1
  Cu  Cu50  1  0.13047469  0.02467481  0.85857615  1
  Cu  Cu51  1  0.47122843  0.88368572  0.29980520  1
  Cu  Cu52  1  0.35317503  0.29719590  0.79761359  1
  Cu  Cu53  1  0.82439841  0.29333704  0.12863748  1
  Cu  Cu54  1  0.06261008  0.19922392  0.65534668  1
  Cu  Cu55  1  0.27018447  0.89334454  0.15301608  1
  Cu  Cu56  1  0.91061365  0.41989898  0.86166518  1
  Cu  Cu57  1  0.44919608  0.65298556  0.30104139  1
  Cu  Cu58  1  0.74539244  0.19585576  0.31004396  1
  Cu  Cu59  1  0.37526729  0.05130689  0.12963436  1
  Cu  Cu60  1  0.76294069  0.29951955  0.82454844  1
  Cu  Cu61  1  0.16285911  0.73194101  0.97575931  1
  Cu  Cu62  1  0.74219346  0.91272782  0.66917367  1
  Cu  Cu63  1  0.57358048  0.85478830  0.13267465  1
  Cu  Cu64  1  0.22360231  0.10173618  0.61534042  1
  Cu  Cu65  1  0.05185969  0.24851700  0.46913412  1
  Cu  Cu66  1  0.11434796  0.37131153  0.22749716  1
  Cu  Cu67  1  0.62794019  0.99916479  0.54114955  1
  Cu  Cu68  1  0.62486574  0.08759441  0.22442626  1
  Cu  Cu69  1  0.94841109  0.27403560  0.27453412  1
  Cu  Cu70  1  0.79877748  0.51376915  0.25830980  1
  Cu  Cu71  1  0.06243048  0.85990974  0.34584146  1
  Cu  Cu72  1  0.38376861  0.57743055  0.59423741  1
  Cu  Cu73  1  0.86130260  0.86567662  0.92453580  1
  Cu  Cu74  1  0.83535564  0.19304393  0.54709897  1
  Cu  Cu75  1  0.22778339  0.67551912  0.80616313  1
  Cu  Cu76  1  0.68732727  0.53604978  0.44351080  1
  Cu  Cu77  1  0.33405429  0.20764918  0.33291576  1
  Cu  Cu78  1  0.24774848  0.83196283  0.70045482  1
  Cu  Cu79  1  0.97671436  0.00351116  0.21963432  1
  Cu  Cu80  1  0.47004222  0.07311289  0.35073938  1
  Cu  Cu81  1  0.94139206  0.91625082  0.48546303  1
  Cu  Cu82  1  0.44016414  0.46991629  0.30265768  1
  Cu  Cu83  1  0.93437218  0.80751959  0.75419638  1
  Cu  Cu84  1  0.24305413  0.14349927  0.02451875  1
  Cu  Cu85  1  0.25187698  0.47646840  0.95666706  1
  Cu  Cu86  1  0.64722642  0.17150191  0.59179634  1
  Cu  Cu87  1  0.49372580  0.96933138  0.00251861  1
  Cu  Cu88  1  0.36805469  0.38899814  0.07567013  1
  Cu  Cu89  1  0.63513355  0.52923402  0.05787419  1
  Cu  Cu90  1  0.34461410  0.84363135  0.98192363  1
  Cu  Cu91  1  0.12759881  0.34947800  0.86538216  1
  Cu  Cu92  1  0.74452886  0.58649597  0.61622134  1
  Cu  Cu93  1  0.01977705  0.47538023  0.52713705  1
  Cu  Cu94  1  0.61458947  0.66257928  0.76923204  1
  Cu  Cu95  1  0.30779696  0.95609784  0.82483613  1
  Cu  Cu96  1  0.82091062  0.34693972  0.64893096  1
  Cu  Cu97  1  0.45817694  0.27036483  0.95176034  1
  Cu  Cu98  1  0.16223875  0.63103393  0.24762006  1
  Cu  Cu99  1  0.98938572  0.69528513  0.32834183  1
