# generated using pymatgen
data_CuNiC2
_symmetry_space_group_name_H-M   'P 1'
_cell_length_a   3.92249400
_cell_length_b   5.86219700
_cell_length_c   8.20340300
_cell_angle_alpha   90.00000000
_cell_angle_beta   90.00000000
_cell_angle_gamma   90.00000000
_symmetry_Int_Tables_number   1
_chemical_formula_structural   CuNiC2
_chemical_formula_sum   'Cu2 Ni2 C4'
_cell_volume   188.63259704
_cell_formula_units_Z   2
loop_
 _symmetry_equiv_pos_site_id
 _symmetry_equiv_pos_as_xyz
  1  'x, y, z'
loop_
 _atom_site_type_symbol
 _atom_site_label
 _atom_site_symmetry_multiplicity
 _atom_site_fract_x
 _atom_site_fract_y
 _atom_site_fract_z
 _atom_site_occupancy
  Ni  Ni0  1  0.00000000  0.13617900  0.68028400  1
  Ni  Ni1  1  0.00000000  0.86382100  0.18028400  1
  Cu  Cu2  1  0.50000000  0.36304600  0.32000500  1
  Cu  Cu3  1  0.50000000  0.63695400  0.82000500  1
  C  C4  1  0.00000000  0.62771400  0.53488900  1
  C  C5  1  0.00000000  0.37228600  0.03488900  1
  C  C6  1  0.50000000  0.87427100  0.46482200  1
  C  C7  1  0.50000000  0.12572900  0.96482200  1
