# generated using pymatgen
data_CuNiC9
_symmetry_space_group_name_H-M   'P 1'
_cell_length_a   8.43961600
_cell_length_b   7.07073600
_cell_length_c   9.39055099
_cell_angle_alpha   69.83281086
_cell_angle_beta   90.00000000
_cell_angle_gamma   90.00000000
_symmetry_Int_Tables_number   1
_chemical_formula_structural   CuNiC9
_chemical_formula_sum   'Cu4 Ni4 C36'
_cell_volume   526.01830319
_cell_formula_units_Z   4
loop_
 _symmetry_equiv_pos_site_id
 _symmetry_equiv_pos_as_xyz
  1  'x, y, z'
loop_
 _atom_site_type_symbol
 _atom_site_label
 _atom_site_symmetry_multiplicity
 _atom_site_fract_x
 _atom_site_fract_y
 _atom_site_fract_z
 _atom_site_occupancy
  Ni  Ni0  1  0.93717500  0.30869300  0.81511300  1
  Ni  Ni1  1  0.43717500  0.69130700  0.68488700  1
  Ni  Ni2  1  0.56282500  0.30869300  0.31511300  1
  Ni  Ni3  1  0.06282500  0.69130700  0.18488700  1
  Cu  Cu4  1  0.06788500  0.76148500  0.60991600  1
  Cu  Cu5  1  0.93211500  0.23851500  0.39008400  1
  Cu  Cu6  1  0.56788500  0.23851500  0.89008400  1
  Cu  Cu7  1  0.43211500  0.76148500  0.10991600  1
  C  C8  1  0.73741700  0.93010700  0.24842100  1
  C  C9  1  0.22815900  0.46266300  0.97194100  1
  C  C10  1  0.76258300  0.93010700  0.74842100  1
  C  C11  1  0.27184100  0.46266300  0.47194100  1
  C  C12  1  0.23741700  0.06989300  0.25157900  1
  C  C13  1  0.72815900  0.53733700  0.52805900  1
  C  C14  1  0.77184100  0.53733700  0.02805900  1
  C  C15  1  0.26258300  0.06989300  0.75157900  1
  C  C16  1  0.18795400  0.24995900  0.09711000  1
  C  C17  1  0.60580400  0.87837400  0.69458900  1
  C  C18  1  0.89419600  0.87837400  0.19458900  1
  C  C19  1  0.38904600  0.45592600  0.89434500  1
  C  C20  1  0.81204600  0.75004100  0.90289000  1
  C  C21  1  0.10154100  0.04879700  0.36398600  1
  C  C22  1  0.61095400  0.54407400  0.10565500  1
  C  C23  1  0.09088000  0.49919100  0.86121500  1
  C  C24  1  0.26311100  0.61817800  0.55395900  1
  C  C25  1  0.89845900  0.95120300  0.63601400  1
  C  C26  1  0.39845900  0.04879700  0.86398600  1
  C  C27  1  0.75804100  0.11650100  0.79855400  1
  C  C28  1  0.25804100  0.88349900  0.70144600  1
  C  C29  1  0.31204600  0.24995900  0.59711000  1
  C  C30  1  0.60154100  0.95120300  0.13601400  1
  C  C31  1  0.10580400  0.12162600  0.80541100  1
  C  C32  1  0.24195900  0.88349900  0.20144600  1
  C  C33  1  0.90912000  0.50080900  0.13878500  1
  C  C34  1  0.23688900  0.61817800  0.05395900  1
  C  C35  1  0.76311100  0.38182200  0.94604100  1
  C  C36  1  0.88904600  0.54407400  0.60565500  1
  C  C37  1  0.40912000  0.49919100  0.36121500  1
  C  C38  1  0.59088000  0.50080900  0.63878500  1
  C  C39  1  0.39419600  0.12162600  0.30541100  1
  C  C40  1  0.74195900  0.11650100  0.29855400  1
  C  C41  1  0.11095400  0.45592600  0.39434500  1
  C  C42  1  0.73688900  0.38182200  0.44604100  1
  C  C43  1  0.68795400  0.75004100  0.40289000  1
