# generated using pymatgen
data_Cu2Ni3C4
_symmetry_space_group_name_H-M   'P 1'
_cell_length_a   6.18917452
_cell_length_b   7.27069786
_cell_length_c   5.49035008
_cell_angle_alpha   90.00000091
_cell_angle_beta   89.74500471
_cell_angle_gamma   125.97074549
_symmetry_Int_Tables_number   1
_chemical_formula_structural   Cu2Ni3C4
_chemical_formula_sum   'Cu4 Ni6 C8'
_cell_volume   199.94979472
_cell_formula_units_Z   2
loop_
 _symmetry_equiv_pos_site_id
 _symmetry_equiv_pos_as_xyz
  1  'x, y, z'
loop_
 _atom_site_type_symbol
 _atom_site_label
 _atom_site_symmetry_multiplicity
 _atom_site_fract_x
 _atom_site_fract_y
 _atom_site_fract_z
 _atom_site_occupancy
  Ni  Ni0  1  0.22471100  0.98765500  0.96874100  1
  Ni  Ni1  1  0.77528900  0.76294400  0.53125900  1
  Ni  Ni2  1  0.77528900  0.01234500  0.03125900  1
  Ni  Ni3  1  0.22471100  0.23705600  0.46874100  1
  Ni  Ni4  1  0.00000000  0.59793400  0.75000000  1
  Ni  Ni5  1  0.00000000  0.40206600  0.25000000  1
  Cu  Cu6  1  0.62035000  0.18623100  0.60664300  1
  Cu  Cu7  1  0.37965000  0.56588100  0.89335700  1
  Cu  Cu8  1  0.37965000  0.81376900  0.39335700  1
  Cu  Cu9  1  0.62035000  0.43411900  0.10664300  1
  C  C10  1  0.24065500  0.95707100  0.56616000  1
  C  C11  1  0.75934500  0.71641600  0.93384000  1
  C  C12  1  0.75934500  0.04292900  0.43384000  1
  C  C13  1  0.24065500  0.28358400  0.06616000  1
  C  C14  1  0.71722800  0.26735400  0.93305500  1
  C  C15  1  0.28277200  0.55012600  0.56694500  1
  C  C16  1  0.28277200  0.73264600  0.06694500  1
  C  C17  1  0.71722800  0.44987400  0.43305500  1
