# generated using pymatgen
data_CuNiC
_symmetry_space_group_name_H-M   'P 1'
_cell_length_a   5.80747399
_cell_length_b   5.80747399
_cell_length_c   12.10403800
_cell_angle_alpha   90.00000000
_cell_angle_beta   90.00000000
_cell_angle_gamma   119.99999984
_symmetry_Int_Tables_number   1
_chemical_formula_structural   CuNiC
_chemical_formula_sum   'Cu6 Ni6 C6'
_cell_volume   353.53747603
_cell_formula_units_Z   6
loop_
 _symmetry_equiv_pos_site_id
 _symmetry_equiv_pos_as_xyz
  1  'x, y, z'
loop_
 _atom_site_type_symbol
 _atom_site_label
 _atom_site_symmetry_multiplicity
 _atom_site_fract_x
 _atom_site_fract_y
 _atom_site_fract_z
 _atom_site_occupancy
  C  C0  1  0.89388100  0.89388100  0.00000000  1
  C  C1  1  0.00000000  0.10611900  0.66666700  1
  C  C2  1  0.10611900  0.00000000  0.33333300  1
  C  C3  1  0.42230000  0.00000000  0.83333300  1
  C  C4  1  0.57770000  0.57770000  0.50000000  1
  C  C5  1  0.00000000  0.42230000  0.16666700  1
  Ni  Ni6  1  0.75220300  0.11205700  0.80500200  1
  Ni  Ni7  1  0.35985300  0.24779700  0.47166900  1
  Ni  Ni8  1  0.88794300  0.64014700  0.13833600  1
  Ni  Ni9  1  0.24779700  0.35985300  0.52833100  1
  Ni  Ni10  1  0.11205700  0.75220300  0.19499800  1
  Ni  Ni11  1  0.64014700  0.88794300  0.86166400  1
  Cu  Cu12  1  0.74835800  0.64557800  0.60076900  1
  Cu  Cu13  1  0.89722000  0.25164200  0.26743500  1
  Cu  Cu14  1  0.35442200  0.10278000  0.93410200  1
  Cu  Cu15  1  0.25164200  0.89722000  0.73256500  1
  Cu  Cu16  1  0.64557800  0.74835800  0.39923100  1
  Cu  Cu17  1  0.10278000  0.35442200  0.06589800  1
