# generated using pymatgen
data_Cu2NiC6
_symmetry_space_group_name_H-M   'P 1'
_cell_length_a   8.36021500
_cell_length_b   8.05396200
_cell_length_c   15.58289200
_cell_angle_alpha   90.00000000
_cell_angle_beta   90.00000000
_cell_angle_gamma   90.00000000
_symmetry_Int_Tables_number   1
_chemical_formula_structural   Cu2NiC6
_chemical_formula_sum   'Cu8 Ni4 C24'
_cell_volume   1049.24059072
_cell_formula_units_Z   4
loop_
 _symmetry_equiv_pos_site_id
 _symmetry_equiv_pos_as_xyz
  1  'x, y, z'
loop_
 _atom_site_type_symbol
 _atom_site_label
 _atom_site_symmetry_multiplicity
 _atom_site_fract_x
 _atom_site_fract_y
 _atom_site_fract_z
 _atom_site_occupancy
  C  C0  1  0.75953700  0.75000000  0.90787400  1
  C  C1  1  0.24046300  0.25000000  0.09212600  1
  C  C2  1  0.25953700  0.25000000  0.59212600  1
  C  C3  1  0.74046300  0.75000000  0.40787400  1
  Ni  Ni4  1  0.59283500  0.75000000  0.94305800  1
  Ni  Ni5  1  0.40716500  0.25000000  0.05694200  1
  Ni  Ni6  1  0.09283500  0.25000000  0.55694200  1
  Ni  Ni7  1  0.90716500  0.75000000  0.44305800  1
  Cu  Cu8  1  0.72213200  0.07380400  0.64557500  1
  Cu  Cu9  1  0.27786800  0.92619500  0.35442500  1
  Cu  Cu10  1  0.22213200  0.92619500  0.85442500  1
  Cu  Cu11  1  0.27786800  0.57380500  0.35442500  1
  Cu  Cu12  1  0.77786800  0.07380400  0.14557500  1
  Cu  Cu13  1  0.72213200  0.42619600  0.64557500  1
  Cu  Cu14  1  0.77786800  0.42619600  0.14557500  1
  Cu  Cu15  1  0.22213200  0.57380500  0.85442500  1
  C  C16  1  0.88240700  0.75000000  0.02518500  1
  C  C17  1  0.11759300  0.25000000  0.97481500  1
  C  C18  1  0.38240700  0.25000000  0.47481500  1
  C  C19  1  0.61759300  0.75000000  0.52518500  1
  C  C20  1  0.67534000  0.00413600  0.90858000  1
  C  C21  1  0.32466000  0.99586400  0.09142000  1
  C  C22  1  0.17534000  0.99586400  0.59142000  1
  C  C23  1  0.32466000  0.50413600  0.09142000  1
  C  C24  1  0.82466000  0.00413600  0.40858000  1
  C  C25  1  0.67534000  0.49586400  0.90858000  1
  C  C26  1  0.82466000  0.49586400  0.40858000  1
  C  C27  1  0.17534000  0.50413600  0.59142000  1
  C  C28  1  0.27135700  0.75000000  0.87041200  1
  C  C29  1  0.72864300  0.25000000  0.12958800  1
  C  C30  1  0.77135700  0.25000000  0.62958800  1
  C  C31  1  0.22864300  0.75000000  0.37041200  1
  C  C32  1  0.83254600  0.75000000  0.77683700  1
  C  C33  1  0.16745400  0.25000000  0.22316300  1
  C  C34  1  0.33254600  0.25000000  0.72316300  1
  C  C35  1  0.66745400  0.75000000  0.27683700  1
