# generated using pymatgen
data_Cu6Ni6C
_symmetry_space_group_name_H-M   'P 1'
_cell_length_a   14.11395445
_cell_length_b   14.11395445
_cell_length_c   14.11395445
_cell_angle_alpha   159.05035841
_cell_angle_beta   146.61632791
_cell_angle_gamma   39.74481048
_symmetry_Int_Tables_number   1
_chemical_formula_structural   Cu6Ni6C
_chemical_formula_sum   'Cu18 Ni18 C3'
_cell_volume   552.28791351
_cell_formula_units_Z   3
loop_
 _symmetry_equiv_pos_site_id
 _symmetry_equiv_pos_as_xyz
  1  'x, y, z'
loop_
 _atom_site_type_symbol
 _atom_site_label
 _atom_site_symmetry_multiplicity
 _atom_site_fract_x
 _atom_site_fract_y
 _atom_site_fract_z
 _atom_site_occupancy
  C  C0  1  0.16776100  0.66776100  0.50000000  1
  C  C1  1  0.83223900  0.33223900  0.50000000  1
  C  C2  1  0.00000000  0.00000000  0.00000000  1
  Ni  Ni3  1  0.24983000  0.50000000  0.74983000  1
  Ni  Ni4  1  0.75017000  0.50000000  0.25017000  1
  Ni  Ni5  1  0.50000000  0.00000000  0.00000000  1
  Ni  Ni6  1  0.00000000  0.00000000  0.50000000  1
  Ni  Ni7  1  0.00000000  0.50000000  0.00000000  1
  Ni  Ni8  1  0.50000000  0.50000000  0.50000000  1
  Ni  Ni9  1  0.58355000  0.83346700  0.75008300  1
  Ni  Ni10  1  0.91661600  0.16653300  0.75008300  1
  Ni  Ni11  1  0.08338400  0.83346700  0.24991700  1
  Ni  Ni12  1  0.41645000  0.16653300  0.24991700  1
  Ni  Ni13  1  0.33313400  0.83348100  0.99991500  1
  Ni  Ni14  1  0.16643400  0.16651900  0.49965300  1
  Ni  Ni15  1  0.83356600  0.33321900  0.00008500  1
  Ni  Ni16  1  0.66686600  0.66678100  0.50034700  1
  Ni  Ni17  1  0.66686600  0.16651900  0.00008500  1
  Ni  Ni18  1  0.83356600  0.83348100  0.50034700  1
  Ni  Ni19  1  0.16643400  0.66678100  0.99991500  1
  Ni  Ni20  1  0.33313400  0.33321900  0.49965300  1
  Cu  Cu21  1  0.05544200  0.55544200  0.50000000  1
  Cu  Cu22  1  0.94455800  0.44455800  0.50000000  1
  Cu  Cu23  1  0.55530100  0.55530100  0.00000000  1
  Cu  Cu24  1  0.44469900  0.44469900  0.00000000  1
  Cu  Cu25  1  0.11224100  0.11224100  0.00000000  1
  Cu  Cu26  1  0.88775900  0.88775900  0.00000000  1
  Cu  Cu27  1  0.61045100  0.11045100  0.50000000  1
  Cu  Cu28  1  0.38954900  0.88954900  0.50000000  1
  Cu  Cu29  1  0.22318600  0.22318600  0.00000000  1
  Cu  Cu30  1  0.77681400  0.77681400  0.00000000  1
  Cu  Cu31  1  0.72042700  0.22042700  0.50000000  1
  Cu  Cu32  1  0.27957300  0.77957300  0.50000000  1
  Cu  Cu33  1  0.34568700  0.00000000  0.34568700  1
  Cu  Cu34  1  0.65431300  0.00000000  0.65431300  1
  Cu  Cu35  1  0.51283000  0.66636900  0.84646100  1
  Cu  Cu36  1  0.18009100  0.33363100  0.84646100  1
  Cu  Cu37  1  0.81990900  0.66636900  0.15353900  1
  Cu  Cu38  1  0.48717000  0.33363100  0.15353900  1
