# generated using pymatgen
data_CuNiC4
_symmetry_space_group_name_H-M   'P 1'
_cell_length_a   3.40415190
_cell_length_b   3.40415190
_cell_length_c   37.68940700
_cell_angle_alpha   90.00000000
_cell_angle_beta   90.00000000
_cell_angle_gamma   119.99999814
_symmetry_Int_Tables_number   1
_chemical_formula_structural   CuNiC4
_chemical_formula_sum   'Cu2 Ni2 C8'
_cell_volume   378.24030684
_cell_formula_units_Z   2
loop_
 _symmetry_equiv_pos_site_id
 _symmetry_equiv_pos_as_xyz
  1  'x, y, z'
loop_
 _atom_site_type_symbol
 _atom_site_label
 _atom_site_symmetry_multiplicity
 _atom_site_fract_x
 _atom_site_fract_y
 _atom_site_fract_z
 _atom_site_occupancy
  C  C0  1  0.33333300  0.66666700  0.33178600  1
  C  C1  1  0.33333300  0.66666700  0.70751700  1
  C  C2  1  0.33333300  0.66666700  0.23187700  1
  C  C3  1  0.33333300  0.66666700  0.60754900  1
  Ni  Ni4  1  0.33333300  0.66666700  0.09386700  1
  Ni  Ni5  1  0.33333300  0.66666700  0.46966600  1
  Cu  Cu6  1  0.66666700  0.33333300  0.28182800  1
  Cu  Cu7  1  0.66666700  0.33333300  0.65755300  1
  C  C8  1  0.66666700  0.33333300  0.05023800  1
  C  C9  1  0.66666700  0.33333300  0.13753800  1
  C  C10  1  0.66666700  0.33333300  0.42978600  1
  C  C11  1  0.66666700  0.33333300  0.50954300  1
