# generated using pymatgen
data_Cu2Ni
_symmetry_space_group_name_H-M   'P 1'
_cell_length_a   5.80127221
_cell_length_b   5.80127221
_cell_length_c   5.80127221
_cell_angle_alpha   115.67903057
_cell_angle_beta   115.67903057
_cell_angle_gamma   97.66272497
_symmetry_Int_Tables_number   1
_chemical_formula_structural   Cu2Ni
_chemical_formula_sum   'Cu4 Ni2'
_cell_volume   145.65973662
_cell_formula_units_Z   2
loop_
 _symmetry_equiv_pos_site_id
 _symmetry_equiv_pos_as_xyz
  1  'x, y, z'
loop_
 _atom_site_type_symbol
 _atom_site_label
 _atom_site_symmetry_multiplicity
 _atom_site_fract_x
 _atom_site_fract_y
 _atom_site_fract_z
 _atom_site_occupancy
  Ni  Ni0  1  0.75000000  0.75000000  0.00000000  1
  Ni  Ni1  1  0.25000000  0.25000000  0.00000000  1
  Cu  Cu2  1  0.11936200  0.61936200  0.73872300  1
  Cu  Cu3  1  0.88063800  0.38063800  0.26127700  1
  Cu  Cu4  1  0.61936200  0.88063800  0.50000000  1
  Cu  Cu5  1  0.38063800  0.11936200  0.50000000  1
