# generated using pymatgen
data_Cu8Ni2C21
_symmetry_space_group_name_H-M   'P 1'
_cell_length_a   7.18983800
_cell_length_b   9.13243500
_cell_length_c   11.94568300
_cell_angle_alpha   90.00000000
_cell_angle_beta   90.00000000
_cell_angle_gamma   90.00000000
_symmetry_Int_Tables_number   1
_chemical_formula_structural   Cu8Ni2C21
_chemical_formula_sum   'Cu16 Ni4 C42'
_cell_volume   784.36224457
_cell_formula_units_Z   2
loop_
 _symmetry_equiv_pos_site_id
 _symmetry_equiv_pos_as_xyz
  1  'x, y, z'
loop_
 _atom_site_type_symbol
 _atom_site_label
 _atom_site_symmetry_multiplicity
 _atom_site_fract_x
 _atom_site_fract_y
 _atom_site_fract_z
 _atom_site_occupancy
  C  C0  1  0.99601800  0.18097400  0.70396200  1
  C  C1  1  0.50299700  0.31812100  0.20162800  1
  C  C2  1  0.50299700  0.68187900  0.79837200  1
  C  C3  1  0.99601800  0.81902600  0.29603800  1
  C  C4  1  0.00299700  0.81812100  0.79837200  1
  C  C5  1  0.49601800  0.68097400  0.29603800  1
  C  C6  1  0.49601800  0.31902600  0.70396200  1
  C  C7  1  0.00299700  0.18187900  0.20162800  1
  Ni  Ni8  1  0.99205200  0.41304500  0.50758200  1
  Ni  Ni9  1  0.99205200  0.58695500  0.49241800  1
  Ni  Ni10  1  0.49205200  0.91304500  0.49241800  1
  Ni  Ni11  1  0.49205200  0.08695500  0.50758200  1
  Cu  Cu12  1  0.89355900  0.50260600  0.74333400  1
  Cu  Cu13  1  0.60761800  0.99699600  0.24363900  1
  Cu  Cu14  1  0.60761800  0.00300400  0.75636100  1
  Cu  Cu15  1  0.89355900  0.49739400  0.25666600  1
  Cu  Cu16  1  0.10761800  0.49699600  0.75636100  1
  Cu  Cu17  1  0.39355900  0.00260600  0.25666600  1
  Cu  Cu18  1  0.39355900  0.99739400  0.74333400  1
  Cu  Cu19  1  0.10761800  0.50300400  0.24363900  1
  Cu  Cu20  1  0.01108400  0.07331400  0.96644600  1
  Cu  Cu21  1  0.48677200  0.42695500  0.46635800  1
  Cu  Cu22  1  0.48677200  0.57304500  0.53364200  1
  Cu  Cu23  1  0.01108400  0.92668600  0.03355400  1
  Cu  Cu24  1  0.98677200  0.92695500  0.53364200  1
  Cu  Cu25  1  0.51108400  0.57331400  0.03355400  1
  Cu  Cu26  1  0.51108400  0.42668600  0.96644600  1
  Cu  Cu27  1  0.98677200  0.07304500  0.46635800  1
  C  C28  1  0.81604500  0.62303600  0.76774000  1
  C  C29  1  0.68450300  0.87549100  0.26531800  1
  C  C30  1  0.68450300  0.12450900  0.73468200  1
  C  C31  1  0.81604500  0.37696400  0.23226000  1
  C  C32  1  0.18450300  0.37549100  0.73468200  1
  C  C33  1  0.31604500  0.12303600  0.23226000  1
  C  C34  1  0.31604500  0.87696400  0.76774000  1
  C  C35  1  0.18450300  0.62450900  0.26531800  1
  C  C36  1  0.01392300  0.05790600  0.86041800  1
  C  C37  1  0.48751700  0.44112300  0.36055900  1
  C  C38  1  0.48751700  0.55887700  0.63944100  1
  C  C39  1  0.01392300  0.94209400  0.13958200  1
  C  C40  1  0.98751700  0.94112300  0.63944100  1
  C  C41  1  0.51392300  0.55790600  0.13958200  1
  C  C42  1  0.51392300  0.44209400  0.86041800  1
  C  C43  1  0.98751700  0.05887700  0.36055900  1
  C  C44  1  0.81487800  0.38640800  0.71047700  1
  C  C45  1  0.68534400  0.11352700  0.21095000  1
  C  C46  1  0.68534400  0.88647300  0.78905000  1
  C  C47  1  0.81487800  0.61359200  0.28952300  1
  C  C48  1  0.18534400  0.61352700  0.78905000  1
  C  C49  1  0.31487800  0.88640800  0.28952300  1
  C  C50  1  0.31487800  0.11359200  0.71047700  1
  C  C51  1  0.18534400  0.38647300  0.21095000  1
  C  C52  1  0.00856200  0.19206400  0.01917600  1
  C  C53  1  0.48939100  0.30854400  0.52038000  1
  C  C54  1  0.48939100  0.69145600  0.47962000  1
  C  C55  1  0.00856200  0.80793600  0.98082400  1
  C  C56  1  0.98939100  0.80854400  0.47962000  1
  C  C57  1  0.50856200  0.69206400  0.98082400  1
  C  C58  1  0.50856200  0.30793600  0.01917600  1
  C  C59  1  0.98939100  0.19145600  0.52038000  1
  C  C60  1  0.07017400  0.50000000  0.50000000  1
  C  C61  1  0.57017400  0.00000000  0.50000000  1
