# generated using pymatgen
data_Cu5NiC5
_symmetry_space_group_name_H-M   'P 1'
_cell_length_a   11.25045219
_cell_length_b   11.25045219
_cell_length_c   11.25045263
_cell_angle_alpha   115.02496498
_cell_angle_beta   115.02496498
_cell_angle_gamma   115.02496781
_symmetry_Int_Tables_number   1
_chemical_formula_structural   Cu5NiC5
_chemical_formula_sum   'Cu15 Ni3 C15'
_cell_volume   795.13739534
_cell_formula_units_Z   3
loop_
 _symmetry_equiv_pos_site_id
 _symmetry_equiv_pos_as_xyz
  1  'x, y, z'
loop_
 _atom_site_type_symbol
 _atom_site_label
 _atom_site_symmetry_multiplicity
 _atom_site_fract_x
 _atom_site_fract_y
 _atom_site_fract_z
 _atom_site_occupancy
  Ni  Ni0  1  0.09984700  0.09984700  0.79768100  1
  Ni  Ni1  1  0.79768100  0.09984700  0.09984700  1
  Ni  Ni2  1  0.09984700  0.79768100  0.09984700  1
  C  C3  1  0.28226800  0.28226800  0.64731900  1
  C  C4  1  0.64731900  0.28226800  0.28226800  1
  C  C5  1  0.28226800  0.64731900  0.28226800  1
  Cu  Cu6  1  0.26515200  0.76855500  0.43095100  1
  Cu  Cu7  1  0.43095100  0.26515200  0.76855500  1
  Cu  Cu8  1  0.76855500  0.26515200  0.43095100  1
  Cu  Cu9  1  0.76855500  0.43095100  0.26515200  1
  Cu  Cu10  1  0.26515200  0.43095100  0.76855500  1
  Cu  Cu11  1  0.43095100  0.76855500  0.26515200  1
  Cu  Cu12  1  0.06899500  0.06899500  0.59689000  1
  Cu  Cu13  1  0.59689000  0.06899500  0.06899500  1
  Cu  Cu14  1  0.06899500  0.59689000  0.06899500  1
  Cu  Cu15  1  0.63119000  0.63119000  0.13915500  1
  Cu  Cu16  1  0.13915500  0.63119000  0.63119000  1
  Cu  Cu17  1  0.63119000  0.13915500  0.63119000  1
  Cu  Cu18  1  0.09169600  0.09169600  0.38476600  1
  Cu  Cu19  1  0.38476600  0.09169600  0.09169600  1
  Cu  Cu20  1  0.09169600  0.38476600  0.09169600  1
  C  C21  1  0.60590800  0.60590800  0.25816400  1
  C  C22  1  0.25816400  0.60590800  0.60590800  1
  C  C23  1  0.60590800  0.25816400  0.60590800  1
  C  C24  1  0.51665600  0.51665600  0.70313900  1
  C  C25  1  0.70313900  0.51665600  0.51665600  1
  C  C26  1  0.51665600  0.70313900  0.51665600  1
  C  C27  1  0.18229800  0.03621100  0.73872600  1
  C  C28  1  0.73872600  0.18229800  0.03621100  1
  C  C29  1  0.03621100  0.18229800  0.73872600  1
  C  C30  1  0.03621100  0.73872600  0.18229800  1
  C  C31  1  0.18229800  0.73872600  0.03621100  1
  C  C32  1  0.73872600  0.03621100  0.18229800  1
