# generated using pymatgen
data_Cu(NiC2)2
_symmetry_space_group_name_H-M   'P 1'
_cell_length_a   5.83562420
_cell_length_b   5.83562420
_cell_length_c   7.10643991
_cell_angle_alpha   55.04968560
_cell_angle_beta   55.04968560
_cell_angle_gamma   40.28300677
_symmetry_Int_Tables_number   1
_chemical_formula_structural   Cu(NiC2)2
_chemical_formula_sum   'Cu1 Ni2 C4'
_cell_volume   123.96714213
_cell_formula_units_Z   1
loop_
 _symmetry_equiv_pos_site_id
 _symmetry_equiv_pos_as_xyz
  1  'x, y, z'
loop_
 _atom_site_type_symbol
 _atom_site_label
 _atom_site_symmetry_multiplicity
 _atom_site_fract_x
 _atom_site_fract_y
 _atom_site_fract_z
 _atom_site_occupancy
  C  C0  1  0.44350000  0.44350000  0.30263500  1
  C  C1  1  0.55650000  0.55650000  0.69736500  1
  C  C2  1  0.80914100  0.80914100  0.08182000  1
  C  C3  1  0.19085900  0.19085900  0.91818000  1
  Ni  Ni4  1  0.81251000  0.81251000  0.75525600  1
  Ni  Ni5  1  0.18749000  0.18749000  0.24474400  1
  Cu  Cu6  1  0.00000000  0.00000000  0.00000000  1
