# generated using pymatgen
data_Cu3Ni4C
_symmetry_space_group_name_H-M   'P 1'
_cell_length_a   4.56596228
_cell_length_b   4.56596228
_cell_length_c   12.47615507
_cell_angle_alpha   79.45617391
_cell_angle_beta   79.45617391
_cell_angle_gamma   59.99999600
_symmetry_Int_Tables_number   1
_chemical_formula_structural   Cu3Ni4C
_chemical_formula_sum   'Cu3 Ni4 C1'
_cell_volume   220.17002636
_cell_formula_units_Z   1
loop_
 _symmetry_equiv_pos_site_id
 _symmetry_equiv_pos_as_xyz
  1  'x, y, z'
loop_
 _atom_site_type_symbol
 _atom_site_label
 _atom_site_symmetry_multiplicity
 _atom_site_fract_x
 _atom_site_fract_y
 _atom_site_fract_z
 _atom_site_occupancy
  C  C0  1  0.50000000  0.50000000  0.50000000  1
  Ni  Ni1  1  0.91104900  0.91104900  0.26685300  1
  Ni  Ni2  1  0.08895100  0.08895100  0.73314700  1
  Ni  Ni3  1  0.69841400  0.69841400  0.90475800  1
  Ni  Ni4  1  0.30158600  0.30158600  0.09524200  1
  Cu  Cu5  1  0.77244200  0.77244200  0.68267400  1
  Cu  Cu6  1  0.22755800  0.22755800  0.31732600  1
  Cu  Cu7  1  0.00000000  0.00000000  0.00000000  1
