# generated using pymatgen
data_Cu7(Ni4C15)2
_symmetry_space_group_name_H-M   'P 1'
_cell_length_a   7.42472900
_cell_length_b   7.43844261
_cell_length_c   18.23281769
_cell_angle_alpha   89.65937439
_cell_angle_beta   89.67620302
_cell_angle_gamma   60.06402077
_symmetry_Int_Tables_number   1
_chemical_formula_structural   Cu7(Ni4C15)2
_chemical_formula_sum   'Cu7 Ni8 C30'
_cell_volume   872.60378940
_cell_formula_units_Z   1
loop_
 _symmetry_equiv_pos_site_id
 _symmetry_equiv_pos_as_xyz
  1  'x, y, z'
loop_
 _atom_site_type_symbol
 _atom_site_label
 _atom_site_symmetry_multiplicity
 _atom_site_fract_x
 _atom_site_fract_y
 _atom_site_fract_z
 _atom_site_occupancy
  Ni  Ni0  1  0.87284700  0.25634500  0.46416100  1
  Ni  Ni1  1  0.20652500  0.58869100  0.80403900  1
  Ni  Ni2  1  0.66175100  0.68514700  0.25534100  1
  Ni  Ni3  1  0.00028000  0.00074000  0.59477300  1
  Ni  Ni4  1  0.33977900  0.31993700  0.93215000  1
  Ni  Ni5  1  0.54143700  0.54143700  0.13351600  1
  Ni  Ni6  1  0.87325800  0.87262800  0.46769600  1
  Ni  Ni7  1  0.20719200  0.20581700  0.80224000  1
  Cu  Cu8  1  0.66393800  0.66809100  0.66742400  1
  Cu  Cu9  1  0.99751700  0.99990600  0.00067900  1
  Cu  Cu10  1  0.33129600  0.33376200  0.33326700  1
  Cu  Cu11  1  0.97996600  0.50347800  0.12886100  1
  Cu  Cu12  1  0.29654700  0.85227000  0.46255300  1
  Cu  Cu13  1  0.62857600  0.18556300  0.79686500  1
  Cu  Cu14  1  0.50673900  0.97334300  0.13098900  1
  C  C15  1  0.82832700  0.34061700  0.95759200  1
  C  C16  1  0.16263900  0.67544400  0.29081200  1
  C  C17  1  0.49492600  0.00901800  0.62420200  1
  C  C18  1  0.82583100  0.82915900  0.96029300  1
  C  C19  1  0.16349800  0.16135900  0.28898900  1
  C  C20  1  0.49513000  0.49580600  0.62422100  1
  C  C21  1  0.66568000  0.66830300  0.79588500  1
  C  C22  1  0.99770500  0.99631900  0.12784800  1
  C  C23  1  0.33297100  0.33399900  0.46136100  1
  C  C24  1  0.34087400  0.82992900  0.96039100  1
  C  C25  1  0.67170900  0.16354400  0.28830300  1
  C  C26  1  0.00634200  0.49650300  0.62467500  1
  C  C27  1  0.98002700  0.50720800  0.00271200  1
  C  C28  1  0.31341500  0.84394500  0.33551200  1
  C  C29  1  0.64623100  0.17626900  0.66959700  1
  C  C30  1  0.81070600  0.84501000  0.83851000  1
  C  C31  1  0.16280700  0.15852400  0.16751500  1
  C  C32  1  0.47982700  0.51037600  0.50251100  1
  C  C33  1  0.81241300  0.34390900  0.83619700  1
  C  C34  1  0.14737700  0.67422300  0.16977800  1
  C  C35  1  0.47924200  0.01075800  0.50281800  1
  C  C36  1  0.34845800  0.82729200  0.83990100  1
  C  C37  1  0.67330800  0.14696400  0.16786000  1
  C  C38  1  0.01439700  0.49263400  0.50414400  1
  C  C39  1  0.50924300  0.97737100  0.00609600  1
  C  C40  1  0.83721900  0.32334800  0.32449200  1
  C  C41  1  0.17297800  0.65191300  0.66380900  1
  C  C42  1  0.50617200  0.50565900  0.99642400  1
  C  C43  1  0.83991200  0.84326800  0.32939500  1
  C  C44  1  0.17298700  0.17417400  0.66360100  1
