# generated using pymatgen
data_CuNiC7
_symmetry_space_group_name_H-M   'P 1'
_cell_length_a   3.69254600
_cell_length_b   3.81708500
_cell_length_c   8.07729500
_cell_angle_alpha   90.00000000
_cell_angle_beta   90.00000000
_cell_angle_gamma   90.00000000
_symmetry_Int_Tables_number   1
_chemical_formula_structural   CuNiC7
_chemical_formula_sum   'Cu1 Ni1 C7'
_cell_volume   113.84755021
_cell_formula_units_Z   1
loop_
 _symmetry_equiv_pos_site_id
 _symmetry_equiv_pos_as_xyz
  1  'x, y, z'
loop_
 _atom_site_type_symbol
 _atom_site_label
 _atom_site_symmetry_multiplicity
 _atom_site_fract_x
 _atom_site_fract_y
 _atom_site_fract_z
 _atom_site_occupancy
  C  C0  1  0.50000000  0.00000000  0.96952800  1
  Ni  Ni1  1  0.50000000  0.00000000  0.53479900  1
  C  C2  1  0.00000000  0.50000000  0.31204400  1
  Cu  Cu3  1  0.00000000  0.50000000  0.71457600  1
  C  C4  1  0.00000000  0.00000000  0.39560900  1
  C  C5  1  0.50000000  0.50000000  0.39664600  1
  C  C6  1  0.00000000  0.00000000  0.70337800  1
  C  C7  1  0.50000000  0.50000000  0.70228600  1
  C  C8  1  0.00000000  0.50000000  0.08321900  1
