# generated using pymatgen
data_Cu2NiC18
_symmetry_space_group_name_H-M   'P 1'
_cell_length_a   5.97312300
_cell_length_b   13.95825621
_cell_length_c   11.27390017
_cell_angle_alpha   67.58292514
_cell_angle_beta   90.00000000
_cell_angle_gamma   90.00000000
_symmetry_Int_Tables_number   1
_chemical_formula_structural   Cu2NiC18
_chemical_formula_sum   'Cu8 Ni4 C72'
_cell_volume   868.92437613
_cell_formula_units_Z   4
loop_
 _symmetry_equiv_pos_site_id
 _symmetry_equiv_pos_as_xyz
  1  'x, y, z'
loop_
 _atom_site_type_symbol
 _atom_site_label
 _atom_site_symmetry_multiplicity
 _atom_site_fract_x
 _atom_site_fract_y
 _atom_site_fract_z
 _atom_site_occupancy
  C  C0  1  0.99973500  0.66671500  0.83364700  1
  C  C1  1  0.99983800  0.99969500  0.50028000  1
  C  C2  1  0.99937900  0.33354600  0.16661300  1
  C  C3  1  0.50034000  0.66649300  0.33278500  1
  C  C4  1  0.50019700  0.99988500  0.99955200  1
  C  C5  1  0.50043700  0.33357200  0.66609600  1
  C  C6  1  0.50026500  0.66671500  0.83364700  1
  C  C7  1  0.50016200  0.99969500  0.50028000  1
  C  C8  1  0.50062100  0.33354600  0.16661300  1
  C  C9  1  0.99966000  0.66649300  0.33278500  1
  C  C10  1  0.99980300  0.99988500  0.99955200  1
  C  C11  1  0.99956300  0.33357200  0.66609600  1
  Ni  Ni12  1  0.75000000  0.91574400  0.30619500  1
  Ni  Ni13  1  0.75000000  0.24924700  0.97275900  1
  Ni  Ni14  1  0.75000000  0.58239600  0.63963200  1
  Ni  Ni15  1  0.75000000  0.23225400  0.48939500  1
  Cu  Cu16  1  0.75000000  0.56897900  0.15473700  1
  Cu  Cu17  1  0.75000000  0.90227100  0.82136100  1
  Cu  Cu18  1  0.25000000  0.08578000  0.68963100  1
  Cu  Cu19  1  0.25000000  0.42045400  0.35525800  1
  Cu  Cu20  1  0.25000000  0.75274100  0.02225200  1
  Cu  Cu21  1  0.25000000  0.76424500  0.51269400  1
  Cu  Cu22  1  0.25000000  0.09756000  0.17882700  1
  Cu  Cu23  1  0.25000000  0.43110300  0.84593400  1
  C  C24  1  0.75000000  0.49654600  0.91087600  1
  C  C25  1  0.75000000  0.82983100  0.57765200  1
  C  C26  1  0.75000000  0.16311400  0.24290200  1
  C  C27  1  0.75000000  0.77356500  0.13058200  1
  C  C28  1  0.75000000  0.10686900  0.79848600  1
  C  C29  1  0.75000000  0.44097000  0.46384700  1
  C  C30  1  0.25000000  0.83735000  0.75679800  1
  C  C31  1  0.25000000  0.17032900  0.42295000  1
  C  C32  1  0.25000000  0.50400900  0.09010900  1
  C  C33  1  0.25000000  0.55850900  0.53481300  1
  C  C34  1  0.25000000  0.89172100  0.20154800  1
  C  C35  1  0.25000000  0.22528200  0.86793600  1
  C  C36  1  0.75000000  0.72102700  0.68351100  1
  C  C37  1  0.75000000  0.05457200  0.35010800  1
  C  C38  1  0.75000000  0.38761100  0.01668300  1
  C  C39  1  0.75000000  0.88068000  0.01977200  1
  C  C40  1  0.75000000  0.21420200  0.68986900  1
  C  C41  1  0.75000000  0.54814100  0.35278900  1
  C  C42  1  0.25000000  0.61392500  0.98545300  1
  C  C43  1  0.25000000  0.94725600  0.65216800  1
  C  C44  1  0.25000000  0.28028400  0.31906600  1
  C  C45  1  0.25000000  0.45264600  0.64696900  1
  C  C46  1  0.25000000  0.78590300  0.31364300  1
  C  C47  1  0.25000000  0.11913600  0.98020300  1
  C  C48  1  0.75000000  0.44676100  0.59875900  1
  C  C49  1  0.75000000  0.78002400  0.26502700  1
  C  C50  1  0.75000000  0.11231000  0.93353800  1
  C  C51  1  0.75000000  0.58414300  0.96480400  1
  C  C52  1  0.75000000  0.91759500  0.63139500  1
  C  C53  1  0.75000000  0.25147400  0.29468600  1
  C  C54  1  0.25000000  0.88407800  0.06754600  1
  C  C55  1  0.25000000  0.21735100  0.73418700  1
  C  C56  1  0.25000000  0.55121400  0.40068400  1
  C  C57  1  0.25000000  0.75049800  0.70205900  1
  C  C58  1  0.25000000  0.08344100  0.36851000  1
  C  C59  1  0.25000000  0.41709200  0.03541900  1
  C  C60  1  0.95758200  0.51816000  0.81825500  1
  C  C61  1  0.95757100  0.85157900  0.48492000  1
  C  C62  1  0.95827800  0.18423600  0.15095200  1
  C  C63  1  0.54297600  0.70386500  0.12962300  1
  C  C64  1  0.54317300  0.03714000  0.79648700  1
  C  C65  1  0.54152900  0.37250700  0.46271400  1
  C  C66  1  0.45621200  0.81449600  0.85106900  1
  C  C67  1  0.45400000  0.14736400  0.51818300  1
  C  C68  1  0.45621200  0.48111500  0.18434300  1
  C  C69  1  0.04597200  0.62957600  0.53584900  1
  C  C70  1  0.04595300  0.96278100  0.20251200  1
  C  C71  1  0.04603200  0.29615900  0.86910600  1
  C  C72  1  0.04378800  0.81449600  0.85106900  1
  C  C73  1  0.04600000  0.14736400  0.51818300  1
  C  C74  1  0.04378800  0.48111500  0.18434300  1
  C  C75  1  0.45402800  0.62957600  0.53584900  1
  C  C76  1  0.45404700  0.96278100  0.20251200  1
  C  C77  1  0.45396800  0.29615900  0.86910600  1
  C  C78  1  0.54241800  0.51816000  0.81825500  1
  C  C79  1  0.54242900  0.85157900  0.48492000  1
  C  C80  1  0.54172200  0.18423600  0.15095200  1
  C  C81  1  0.95702400  0.70386500  0.12962300  1
  C  C82  1  0.95682700  0.03714000  0.79648700  1
  C  C83  1  0.95847100  0.37250700  0.46271400  1
