# generated using pymatgen
data_Cu2Ni4C
_symmetry_space_group_name_H-M   'P 1'
_cell_length_a   5.37236500
_cell_length_b   6.32970300
_cell_length_c   11.43245300
_cell_angle_alpha   90.00000000
_cell_angle_beta   90.00000000
_cell_angle_gamma   90.00000000
_symmetry_Int_Tables_number   1
_chemical_formula_structural   Cu2Ni4C
_chemical_formula_sum   'Cu8 Ni16 C4'
_cell_volume   388.76599305
_cell_formula_units_Z   4
loop_
 _symmetry_equiv_pos_site_id
 _symmetry_equiv_pos_as_xyz
  1  'x, y, z'
loop_
 _atom_site_type_symbol
 _atom_site_label
 _atom_site_symmetry_multiplicity
 _atom_site_fract_x
 _atom_site_fract_y
 _atom_site_fract_z
 _atom_site_occupancy
  C  C0  1  0.30139900  0.20247300  0.12464100  1
  C  C1  1  0.69860100  0.70247300  0.87535900  1
  C  C2  1  0.69860100  0.20247300  0.62464100  1
  C  C3  1  0.30139900  0.70247300  0.37535900  1
  Ni  Ni4  1  0.07331700  0.92007600  0.15012200  1
  Ni  Ni5  1  0.92668300  0.42007600  0.84987800  1
  Ni  Ni6  1  0.92668300  0.92007600  0.65012200  1
  Ni  Ni7  1  0.07331700  0.42007600  0.34987800  1
  Ni  Ni8  1  0.59199000  0.45940900  0.10879100  1
  Ni  Ni9  1  0.40801000  0.95940900  0.89120900  1
  Ni  Ni10  1  0.40801000  0.45940900  0.60879100  1
  Ni  Ni11  1  0.59199000  0.95940900  0.39120900  1
  Ni  Ni12  1  0.61066500  0.13338100  0.43935400  1
  Ni  Ni13  1  0.38933500  0.63338100  0.56064600  1
  Ni  Ni14  1  0.38933500  0.13338100  0.93935400  1
  Ni  Ni15  1  0.61066500  0.63338100  0.06064600  1
  Ni  Ni16  1  0.18519300  0.26115600  0.31518000  1
  Ni  Ni17  1  0.81480700  0.76115600  0.68482000  1
  Ni  Ni18  1  0.81480700  0.26115600  0.81518000  1
  Ni  Ni19  1  0.18519300  0.76115600  0.18482000  1
  Cu  Cu20  1  0.56116700  0.03176700  0.16572800  1
  Cu  Cu21  1  0.43883300  0.53176700  0.83427200  1
  Cu  Cu22  1  0.43883300  0.03176700  0.66572800  1
  Cu  Cu23  1  0.56116700  0.53176700  0.33427200  1
  Cu  Cu24  1  0.04715600  0.37873800  0.08813200  1
  Cu  Cu25  1  0.95284400  0.87873800  0.91186800  1
  Cu  Cu26  1  0.95284400  0.37873800  0.58813200  1
  Cu  Cu27  1  0.04715600  0.87873800  0.41186800  1
