# generated using pymatgen
data_CuNiC5
_symmetry_space_group_name_H-M   'P 1'
_cell_length_a   9.90859200
_cell_length_b   5.81705000
_cell_length_c   6.26308661
_cell_angle_alpha   62.39870132
_cell_angle_beta   90.00000000
_cell_angle_gamma   90.00000000
_symmetry_Int_Tables_number   1
_chemical_formula_structural   CuNiC5
_chemical_formula_sum   'Cu4 Ni4 C20'
_cell_volume   319.91272396
_cell_formula_units_Z   4
loop_
 _symmetry_equiv_pos_site_id
 _symmetry_equiv_pos_as_xyz
  1  'x, y, z'
loop_
 _atom_site_type_symbol
 _atom_site_label
 _atom_site_symmetry_multiplicity
 _atom_site_fract_x
 _atom_site_fract_y
 _atom_site_fract_z
 _atom_site_occupancy
  C  C0  1  0.80098900  0.63988000  0.72452500  1
  C  C1  1  0.30098900  0.36012000  0.27547500  1
  C  C2  1  0.23082100  0.98879400  0.00500700  1
  C  C3  1  0.73082100  0.01120600  0.99499300  1
  Ni  Ni4  1  0.50090200  0.83867900  0.82073100  1
  Ni  Ni5  1  0.49959600  0.34193700  0.82024500  1
  Ni  Ni6  1  0.00090200  0.16132100  0.17926900  1
  Ni  Ni7  1  0.99959600  0.65806300  0.17975500  1
  Cu  Cu8  1  0.23152700  0.68866000  0.61871400  1
  Cu  Cu9  1  0.73152700  0.31134000  0.38128600  1
  Cu  Cu10  1  0.50420900  0.83240500  0.33621300  1
  Cu  Cu11  1  0.00420900  0.16759500  0.66378700  1
  C  C12  1  0.12220700  0.84210000  0.31132100  1
  C  C13  1  0.62220700  0.15790000  0.68867900  1
  C  C14  1  0.42201900  0.99685100  0.00692900  1
  C  C15  1  0.92201900  0.00314900  0.99307100  1
  C  C16  1  0.13105100  0.86018100  0.78776900  1
  C  C17  1  0.13303200  0.34665000  0.78956900  1
  C  C18  1  0.63105100  0.13981900  0.21223100  1
  C  C19  1  0.63303200  0.65335000  0.21043100  1
  C  C20  1  0.35966900  0.54674000  0.90764500  1
  C  C21  1  0.85966900  0.45326000  0.09235500  1
  C  C22  1  0.59657800  0.67138900  0.65751600  1
  C  C23  1  0.09657800  0.32861100  0.34248400  1
  C  C24  1  0.36370700  0.54641600  0.45365900  1
  C  C25  1  0.36269100  0.99688100  0.45549000  1
  C  C26  1  0.86370700  0.45358400  0.54634100  1
  C  C27  1  0.86269100  0.00311900  0.54451000  1
