# generated using pymatgen
data_CuNiC8
_symmetry_space_group_name_H-M   'P 1'
_cell_length_a   5.70820660
_cell_length_b   5.78459424
_cell_length_c   8.10883523
_cell_angle_alpha   90.00000000
_cell_angle_beta   90.00000000
_cell_angle_gamma   90.00000000
_symmetry_Int_Tables_number   1
_chemical_formula_structural   CuNiC8
_chemical_formula_sum   'Cu2 Ni2 C16'
_cell_volume   267.75097434
_cell_formula_units_Z   2
loop_
 _symmetry_equiv_pos_site_id
 _symmetry_equiv_pos_as_xyz
  1  'x, y, z'
loop_
 _atom_site_type_symbol
 _atom_site_label
 _atom_site_symmetry_multiplicity
 _atom_site_fract_x
 _atom_site_fract_y
 _atom_site_fract_z
 _atom_site_occupancy
  Ni  Ni0  1  0.50244686  0.73012791  0.50000000  1
  Ni  Ni1  1  0.00244686  0.26987209  -0.00000000  1
  Cu  Cu2  1  0.49051174  0.79122193  -0.00000000  1
  Cu  Cu3  1  0.99051174  0.20877807  0.50000000  1
  C  C4  1  0.99860419  0.74721583  0.24829429  1
  C  C5  1  0.49860419  0.25278417  0.25170571  1
  C  C6  1  0.99860419  0.74721583  0.75170571  1
  C  C7  1  0.49860419  0.25278417  0.74829429  1
  C  C8  1  0.44456668  0.25257244  0.50000000  1
  C  C9  1  0.94456668  0.74742756  -0.00000000  1
  C  C10  1  0.53318502  0.24145202  -0.00000000  1
  C  C11  1  0.03318502  0.75854798  0.50000000  1
  C  C12  1  0.23192658  0.01840436  0.23148674  1
  C  C13  1  0.73192658  0.98159564  0.26851326  1
  C  C14  1  0.78411408  0.46675588  0.72063916  1
  C  C15  1  0.28411408  0.53324412  0.77936084  1
  C  C16  1  0.78411408  0.46675588  0.27936084  1
  C  C17  1  0.28411408  0.53324412  0.22063916  1
  C  C18  1  0.23192658  0.01840436  0.76851326  1
  C  C19  1  0.73192658  0.98159564  0.73148674  1
