# generated using pymatgen
data_Cu12Ni3C4
_symmetry_space_group_name_H-M   'P 1'
_cell_length_a   11.34512489
_cell_length_b   11.34512489
_cell_length_c   11.34512481
_cell_angle_alpha   114.77909020
_cell_angle_beta   114.77909020
_cell_angle_gamma   114.77908736
_symmetry_Int_Tables_number   1
_chemical_formula_structural   Cu12Ni3C4
_chemical_formula_sum   'Cu24 Ni6 C8'
_cell_volume   833.45228935
_cell_formula_units_Z   2
loop_
 _symmetry_equiv_pos_site_id
 _symmetry_equiv_pos_as_xyz
  1  'x, y, z'
loop_
 _atom_site_type_symbol
 _atom_site_label
 _atom_site_symmetry_multiplicity
 _atom_site_fract_x
 _atom_site_fract_y
 _atom_site_fract_z
 _atom_site_occupancy
  C  C0  1  0.50172400  0.50172400  0.50172400  1
  C  C1  1  0.00172400  0.00172400  0.00172400  1
  C  C2  1  0.06875600  0.29318500  0.52831500  1
  C  C3  1  0.29318500  0.52831500  0.06875600  1
  C  C4  1  0.52831500  0.06875600  0.29318500  1
  C  C5  1  0.56875600  0.02831500  0.79318500  1
  C  C6  1  0.02831500  0.79318500  0.56875600  1
  C  C7  1  0.79318500  0.56875600  0.02831500  1
  Ni  Ni8  1  0.35963400  0.14696600  0.53288400  1
  Ni  Ni9  1  0.14696600  0.53288400  0.35963400  1
  Ni  Ni10  1  0.53288400  0.35963400  0.14696600  1
  Ni  Ni11  1  0.85963400  0.03288400  0.64696600  1
  Ni  Ni12  1  0.03288400  0.64696600  0.85963400  1
  Ni  Ni13  1  0.64696600  0.85963400  0.03288400  1
  Cu  Cu14  1  0.10975800  0.18458700  0.71646400  1
  Cu  Cu15  1  0.18458700  0.71646400  0.10975800  1
  Cu  Cu16  1  0.71646400  0.10975800  0.18458700  1
  Cu  Cu17  1  0.60975800  0.21646400  0.68458700  1
  Cu  Cu18  1  0.21646400  0.68458700  0.60975800  1
  Cu  Cu19  1  0.68458700  0.60975800  0.21646400  1
  Cu  Cu20  1  0.31388600  0.12788300  0.31658700  1
  Cu  Cu21  1  0.12788300  0.31658700  0.31388600  1
  Cu  Cu22  1  0.31658700  0.31388600  0.12788300  1
  Cu  Cu23  1  0.81388600  0.81658700  0.62788300  1
  Cu  Cu24  1  0.81658700  0.62788300  0.81388600  1
  Cu  Cu25  1  0.62788300  0.81388600  0.81658700  1
  Cu  Cu26  1  0.41355300  0.38090500  0.70015500  1
  Cu  Cu27  1  0.38090500  0.70015500  0.41355300  1
  Cu  Cu28  1  0.70015500  0.41355300  0.38090500  1
  Cu  Cu29  1  0.91355300  0.20015500  0.88090500  1
  Cu  Cu30  1  0.20015500  0.88090500  0.91355300  1
  Cu  Cu31  1  0.88090500  0.91355300  0.20015500  1
  Cu  Cu32  1  0.64950300  0.91994000  0.38231600  1
  Cu  Cu33  1  0.91994000  0.38231600  0.64950300  1
  Cu  Cu34  1  0.38231600  0.64950300  0.91994000  1
  Cu  Cu35  1  0.14950300  0.88231600  0.41994000  1
  Cu  Cu36  1  0.88231600  0.41994000  0.14950300  1
  Cu  Cu37  1  0.41994000  0.14950300  0.88231600  1
