# generated using pymatgen
data_CuNiC5
_symmetry_space_group_name_H-M   'P 1'
_cell_length_a   6.79997550
_cell_length_b   6.79997550
_cell_length_c   6.04093276
_cell_angle_alpha   64.45019037
_cell_angle_beta   64.45019037
_cell_angle_gamma   30.48751468
_symmetry_Int_Tables_number   1
_chemical_formula_structural   CuNiC5
_chemical_formula_sum   'Cu1 Ni1 C5'
_cell_volume   126.77042779
_cell_formula_units_Z   1
loop_
 _symmetry_equiv_pos_site_id
 _symmetry_equiv_pos_as_xyz
  1  'x, y, z'
loop_
 _atom_site_type_symbol
 _atom_site_label
 _atom_site_symmetry_multiplicity
 _atom_site_fract_x
 _atom_site_fract_y
 _atom_site_fract_z
 _atom_site_occupancy
  C  C0  1  0.24386200  0.24386200  0.74447900  1
  Ni  Ni1  1  0.75631600  0.75631600  0.25734300  1
  Cu  Cu2  1  0.49950800  0.49950800  0.48418800  1
  C  C3  1  0.37551900  0.37551900  0.28778400  1
  C  C4  1  0.62034000  0.62034000  0.69921400  1
  C  C5  1  0.86879700  0.86879700  0.80876000  1
  C  C6  1  0.13565800  0.13565800  0.21823200  1
