# generated using pymatgen
data_CuNiC24
_symmetry_space_group_name_H-M   'P 1'
_cell_length_a   9.42961513
_cell_length_b   9.42961513
_cell_length_c   17.58142800
_cell_angle_alpha   90.00000000
_cell_angle_beta   90.00000000
_cell_angle_gamma   119.99999390
_symmetry_Int_Tables_number   1
_chemical_formula_structural   CuNiC24
_chemical_formula_sum   'Cu2 Ni2 C48'
_cell_volume   1353.85682805
_cell_formula_units_Z   2
loop_
 _symmetry_equiv_pos_site_id
 _symmetry_equiv_pos_as_xyz
  1  'x, y, z'
loop_
 _atom_site_type_symbol
 _atom_site_label
 _atom_site_symmetry_multiplicity
 _atom_site_fract_x
 _atom_site_fract_y
 _atom_site_fract_z
 _atom_site_occupancy
  Ni  Ni0  1  0.33333300  0.66666700  0.75000000  1
  Ni  Ni1  1  0.66666700  0.33333300  0.25000000  1
  Cu  Cu2  1  0.66666700  0.33333300  0.75000000  1
  Cu  Cu3  1  0.33333300  0.66666700  0.25000000  1
  C  C4  1  0.84196800  0.03786100  0.56834700  1
  C  C5  1  0.15803200  0.96213900  0.43165300  1
  C  C6  1  0.96213900  0.80410600  0.56834700  1
  C  C7  1  0.84196800  0.80410600  0.93165300  1
  C  C8  1  0.03786100  0.19589400  0.43165300  1
  C  C9  1  0.15803200  0.19589400  0.06834700  1
  C  C10  1  0.19589400  0.15803200  0.56834700  1
  C  C11  1  0.96213900  0.15803200  0.93165300  1
  C  C12  1  0.80410600  0.84196800  0.43165300  1
  C  C13  1  0.03786100  0.84196800  0.06834700  1
  C  C14  1  0.19589400  0.03786100  0.93165300  1
  C  C15  1  0.80410600  0.96213900  0.06834700  1
  C  C16  1  0.64114400  0.07820000  0.65671500  1
  C  C17  1  0.35885600  0.92180000  0.34328500  1
  C  C18  1  0.92180000  0.56294400  0.65671500  1
  C  C19  1  0.64114400  0.56294400  0.84328500  1
  C  C20  1  0.07820000  0.43705600  0.34328500  1
  C  C21  1  0.35885600  0.43705600  0.15671500  1
  C  C22  1  0.43705600  0.35885600  0.65671500  1
  C  C23  1  0.92180000  0.35885600  0.84328500  1
  C  C24  1  0.56294400  0.64114400  0.34328500  1
  C  C25  1  0.07820000  0.64114400  0.15671500  1
  C  C26  1  0.43705600  0.07820000  0.84328500  1
  C  C27  1  0.56294400  0.92180000  0.15671500  1
  C  C28  1  0.04370500  0.22959800  0.65900900  1
  C  C29  1  0.95629500  0.77040200  0.34099100  1
  C  C30  1  0.77040200  0.81410700  0.65900900  1
  C  C31  1  0.04370500  0.81410700  0.84099100  1
  C  C32  1  0.22959800  0.18589300  0.34099100  1
  C  C33  1  0.95629500  0.18589300  0.15900900  1
  C  C34  1  0.18589300  0.95629500  0.65900900  1
  C  C35  1  0.77040200  0.95629500  0.84099100  1
  C  C36  1  0.81410700  0.04370500  0.34099100  1
  C  C37  1  0.22959800  0.04370500  0.15900900  1
  C  C38  1  0.18589300  0.22959800  0.84099100  1
  C  C39  1  0.81410700  0.77040200  0.15900900  1
  C  C40  1  0.27320000  0.41335500  0.50001000  1
  C  C41  1  0.72680000  0.58664500  0.49999000  1
  C  C42  1  0.58664500  0.85984600  0.50001000  1
  C  C43  1  0.27320000  0.85984600  0.99999000  1
  C  C44  1  0.41335500  0.14015400  0.49999000  1
  C  C45  1  0.72680000  0.14015400  0.00001000  1
  C  C46  1  0.14015400  0.72680000  0.50001000  1
  C  C47  1  0.58664500  0.72680000  0.99999000  1
  C  C48  1  0.85984600  0.27320000  0.49999000  1
  C  C49  1  0.41335500  0.27320000  0.00001000  1
  C  C50  1  0.14015400  0.41335500  0.99999000  1
  C  C51  1  0.85984600  0.58664500  0.00001000  1
