# generated using pymatgen
data_CuNi6C
_symmetry_space_group_name_H-M   'P 1'
_cell_length_a   5.17649597
_cell_length_b   5.17649597
_cell_length_c   4.14880500
_cell_angle_alpha   90.00000000
_cell_angle_beta   90.00000000
_cell_angle_gamma   119.99999957
_symmetry_Int_Tables_number   1
_chemical_formula_structural   CuNi6C
_chemical_formula_sum   'Cu1 Ni6 C1'
_cell_volume   96.27763561
_cell_formula_units_Z   1
loop_
 _symmetry_equiv_pos_site_id
 _symmetry_equiv_pos_as_xyz
  1  'x, y, z'
loop_
 _atom_site_type_symbol
 _atom_site_label
 _atom_site_symmetry_multiplicity
 _atom_site_fract_x
 _atom_site_fract_y
 _atom_site_fract_z
 _atom_site_occupancy
  C  C0  1  0.66666700  0.33333300  0.50000000  1
  Ni  Ni1  1  0.84163700  0.15836300  0.00000000  1
  Ni  Ni2  1  0.84163700  0.68327400  0.00000000  1
  Ni  Ni3  1  0.31672600  0.15836300  0.00000000  1
  Ni  Ni4  1  0.16225800  0.83774200  0.50000000  1
  Ni  Ni5  1  0.16225800  0.32451500  0.50000000  1
  Ni  Ni6  1  0.67548500  0.83774200  0.50000000  1
  Cu  Cu7  1  0.33333300  0.66666700  0.00000000  1
