# generated using pymatgen
data_Cu2Ni2C7
_symmetry_space_group_name_H-M   'P 1'
_cell_length_a   7.37657219
_cell_length_b   7.37657219
_cell_length_c   7.37657219
_cell_angle_alpha   120.31796268
_cell_angle_beta   118.86012154
_cell_angle_gamma   90.71786533
_symmetry_Int_Tables_number   1
_chemical_formula_structural   Cu2Ni2C7
_chemical_formula_sum   'Cu4 Ni4 C14'
_cell_volume   285.50563425
_cell_formula_units_Z   2
loop_
 _symmetry_equiv_pos_site_id
 _symmetry_equiv_pos_as_xyz
  1  'x, y, z'
loop_
 _atom_site_type_symbol
 _atom_site_label
 _atom_site_symmetry_multiplicity
 _atom_site_fract_x
 _atom_site_fract_y
 _atom_site_fract_z
 _atom_site_occupancy
  Ni  Ni0  1  0.00000000  0.00000000  0.50000000  1
  Ni  Ni1  1  0.00000000  0.50000000  0.00000000  1
  Ni  Ni2  1  0.00000000  0.00000000  0.00000000  1
  Ni  Ni3  1  0.50000000  0.50000000  0.00000000  1
  Cu  Cu4  1  0.50000000  0.00000000  0.00000000  1
  Cu  Cu5  1  0.50000000  0.50000000  0.50000000  1
  Cu  Cu6  1  0.50000000  0.00000000  0.50000000  1
  Cu  Cu7  1  0.00000000  0.50000000  0.50000000  1
  C  C8  1  0.44517500  0.09011800  0.77051300  1
  C  C9  1  0.55482500  0.32533800  0.64494200  1
  C  C10  1  0.18039600  0.40988200  0.35505800  1
  C  C11  1  0.81960400  0.17466200  0.22948700  1
  C  C12  1  0.55482500  0.90988200  0.22948700  1
  C  C13  1  0.44517500  0.67466200  0.35505800  1
  C  C14  1  0.81960400  0.59011800  0.64494200  1
  C  C15  1  0.18039600  0.82533800  0.77051300  1
  C  C16  1  0.59765800  0.75000000  0.84765800  1
  C  C17  1  0.40234200  0.25000000  0.15234200  1
  C  C18  1  0.16676100  0.90293100  0.26383000  1
  C  C19  1  0.83323900  0.09706900  0.73617000  1
  C  C20  1  0.86089900  0.59706900  0.26383000  1
  C  C21  1  0.13910100  0.40293100  0.73617000  1
