# generated using pymatgen
data_Cu12Ni3C4
_symmetry_space_group_name_H-M   'P 1'
_cell_length_a   7.25642552
_cell_length_b   7.25642552
_cell_length_c   39.67041600
_cell_angle_alpha   90.00000000
_cell_angle_beta   90.00000000
_cell_angle_gamma   91.98614082
_symmetry_Int_Tables_number   1
_chemical_formula_structural   Cu12Ni3C4
_chemical_formula_sum   'Cu48 Ni12 C16'
_cell_volume   2087.61906121
_cell_formula_units_Z   4
loop_
 _symmetry_equiv_pos_site_id
 _symmetry_equiv_pos_as_xyz
  1  'x, y, z'
loop_
 _atom_site_type_symbol
 _atom_site_label
 _atom_site_symmetry_multiplicity
 _atom_site_fract_x
 _atom_site_fract_y
 _atom_site_fract_z
 _atom_site_occupancy
  C  C0  1  0.00000000  0.50000000  0.41332800  1
  C  C1  1  0.00000000  0.50000000  0.73350100  1
  C  C2  1  0.00000000  0.50000000  0.48859400  1
  C  C3  1  0.00000000  0.50000000  0.15711900  1
  C  C4  1  0.00000000  0.50000000  0.91332800  1
  C  C5  1  0.00000000  0.50000000  0.23350100  1
  C  C6  1  0.50000000  0.00000000  0.01140600  1
  C  C7  1  0.50000000  0.00000000  0.34288100  1
  C  C8  1  0.50000000  0.00000000  0.58667200  1
  C  C9  1  0.50000000  0.00000000  0.26649900  1
  C  C10  1  0.50000000  0.00000000  0.76649900  1
  C  C11  1  0.50000000  0.00000000  0.08667200  1
  C  C12  1  0.00000000  0.50000000  0.65711900  1
  C  C13  1  0.00000000  0.50000000  0.98859400  1
  C  C14  1  0.50000000  0.00000000  0.51140600  1
  C  C15  1  0.50000000  0.00000000  0.84288100  1
  Ni  Ni16  1  0.50000000  0.50000000  0.70944800  1
  Ni  Ni17  1  0.50000000  0.50000000  0.04096800  1
  Ni  Ni18  1  0.50000000  0.50000000  0.36948700  1
  Ni  Ni19  1  0.00000000  0.00000000  0.45903200  1
  Ni  Ni20  1  0.00000000  0.00000000  0.79055200  1
  Ni  Ni21  1  0.00000000  0.00000000  0.13051300  1
  Ni  Ni22  1  0.50000000  0.50000000  0.63051300  1
  Ni  Ni23  1  0.50000000  0.50000000  0.95903200  1
  Ni  Ni24  1  0.50000000  0.50000000  0.29055200  1
  Ni  Ni25  1  0.00000000  0.00000000  0.54096800  1
  Ni  Ni26  1  0.00000000  0.00000000  0.86948700  1
  Ni  Ni27  1  0.00000000  0.00000000  0.20944800  1
  Cu  Cu28  1  0.82285700  0.33306800  0.45306500  1
  Cu  Cu29  1  0.80764200  0.32995100  0.76989500  1
  Cu  Cu30  1  0.80575800  0.30490800  0.13165900  1
  Cu  Cu31  1  0.68759400  0.79501800  0.61015300  1
  Cu  Cu32  1  0.70550000  0.83113800  0.97914400  1
  Cu  Cu33  1  0.67637400  0.84370800  0.30158500  1
  Cu  Cu34  1  0.33306800  0.82285700  0.54693500  1
  Cu  Cu35  1  0.30490800  0.80575800  0.86834100  1
  Cu  Cu36  1  0.32995100  0.80764200  0.23010500  1
  Cu  Cu37  1  0.84370800  0.67637400  0.69841500  1
  Cu  Cu38  1  0.83113800  0.70550000  0.02085600  1
  Cu  Cu39  1  0.79501800  0.68759400  0.38984700  1
  Cu  Cu40  1  0.31240600  0.20498200  0.61015300  1
  Cu  Cu41  1  0.29450000  0.16886200  0.97914400  1
  Cu  Cu42  1  0.32362600  0.15629200  0.30158500  1
  Cu  Cu43  1  0.17714300  0.66693200  0.45306500  1
  Cu  Cu44  1  0.19235800  0.67004900  0.76989500  1
  Cu  Cu45  1  0.19424200  0.69509200  0.13165900  1
  Cu  Cu46  1  0.80490800  0.30575800  0.63165900  1
  Cu  Cu47  1  0.83306800  0.32285700  0.95306500  1
  Cu  Cu48  1  0.82995100  0.30764200  0.26989500  1
  Cu  Cu49  1  0.66693200  0.17714300  0.54693500  1
  Cu  Cu50  1  0.69509200  0.19424200  0.86834100  1
  Cu  Cu51  1  0.67004900  0.19235800  0.23010500  1
  Cu  Cu52  1  0.69235800  0.17004900  0.73010500  1
  Cu  Cu53  1  0.67714300  0.16693200  0.04693500  1
  Cu  Cu54  1  0.69424200  0.19509200  0.36834100  1
  Cu  Cu55  1  0.15629200  0.32362600  0.69841500  1
  Cu  Cu56  1  0.16886200  0.29450000  0.02085600  1
  Cu  Cu57  1  0.20498200  0.31240600  0.38984700  1
  Cu  Cu58  1  0.66886200  0.79450000  0.47914400  1
  Cu  Cu59  1  0.65629200  0.82362600  0.80158500  1
  Cu  Cu60  1  0.70498200  0.81240600  0.11015300  1
  Cu  Cu61  1  0.33113800  0.20550000  0.47914400  1
  Cu  Cu62  1  0.34370800  0.17637400  0.80158500  1
  Cu  Cu63  1  0.29501800  0.18759400  0.11015300  1
  Cu  Cu64  1  0.19509200  0.69424200  0.63165900  1
  Cu  Cu65  1  0.16693200  0.67714300  0.95306500  1
  Cu  Cu66  1  0.17004900  0.69235800  0.26989500  1
  Cu  Cu67  1  0.20550000  0.33113800  0.52085600  1
  Cu  Cu68  1  0.18759400  0.29501800  0.88984700  1
  Cu  Cu69  1  0.17637400  0.34370800  0.19841500  1
  Cu  Cu70  1  0.79450000  0.66886200  0.52085600  1
  Cu  Cu71  1  0.81240600  0.70498200  0.88984700  1
  Cu  Cu72  1  0.82362600  0.65629200  0.19841500  1
  Cu  Cu73  1  0.30764200  0.82995100  0.73010500  1
  Cu  Cu74  1  0.32285700  0.83306800  0.04693500  1
  Cu  Cu75  1  0.30575800  0.80490800  0.36834100  1
