# generated using pymatgen
data_CuNi9C4
_symmetry_space_group_name_H-M   'P 1'
_cell_length_a   8.42665100
_cell_length_b   8.66901569
_cell_length_c   8.66901569
_cell_angle_alpha   120.04062473
_cell_angle_beta   90.00000000
_cell_angle_gamma   90.00000000
_symmetry_Int_Tables_number   1
_chemical_formula_structural   CuNi9C4
_chemical_formula_sum   'Cu2 Ni18 C8'
_cell_volume   548.21042233
_cell_formula_units_Z   2
loop_
 _symmetry_equiv_pos_site_id
 _symmetry_equiv_pos_as_xyz
  1  'x, y, z'
loop_
 _atom_site_type_symbol
 _atom_site_label
 _atom_site_symmetry_multiplicity
 _atom_site_fract_x
 _atom_site_fract_y
 _atom_site_fract_z
 _atom_site_occupancy
  Ni  Ni0  1  0.55720000  0.79796600  0.59607900  1
  Ni  Ni1  1  0.55727300  0.79802300  0.20197700  1
  Ni  Ni2  1  0.55720000  0.40392100  0.20203400  1
  Ni  Ni3  1  0.44280000  0.20203400  0.40392100  1
  Ni  Ni4  1  0.44272700  0.20197700  0.79802300  1
  Ni  Ni5  1  0.44280000  0.59607900  0.79796600  1
  Ni  Ni6  1  0.05720000  0.20203400  0.40392100  1
  Ni  Ni7  1  0.05727300  0.20197700  0.79802300  1
  Ni  Ni8  1  0.05720000  0.59607900  0.79796600  1
  Ni  Ni9  1  0.94280000  0.79796600  0.59607900  1
  Ni  Ni10  1  0.94272700  0.79802300  0.20197700  1
  Ni  Ni11  1  0.94280000  0.40392100  0.20203400  1
  Ni  Ni12  1  0.75000000  0.45969700  0.91939500  1
  Ni  Ni13  1  0.75000000  0.45972100  0.54027900  1
  Ni  Ni14  1  0.75000000  0.08060500  0.54030300  1
  Ni  Ni15  1  0.25000000  0.54030300  0.08060500  1
  Ni  Ni16  1  0.25000000  0.54027900  0.45972100  1
  Ni  Ni17  1  0.25000000  0.91939500  0.45969700  1
  Cu  Cu18  1  0.75000000  0.66658400  0.33341600  1
  Cu  Cu19  1  0.25000000  0.33341600  0.66658400  1
  C  C20  1  0.75000000  0.11277300  0.22541900  1
  C  C21  1  0.75000000  0.11264600  0.88735400  1
  C  C22  1  0.75000000  0.77458100  0.88722700  1
  C  C23  1  0.25000000  0.88722700  0.77458100  1
  C  C24  1  0.25000000  0.88735400  0.11264600  1
  C  C25  1  0.25000000  0.22541900  0.11277300  1
  C  C26  1  0.50000000  0.00000000  0.00000000  1
  C  C27  1  0.00000000  0.00000000  0.00000000  1
