# generated using pymatgen
data_Cu3NiC2
_symmetry_space_group_name_H-M   'P 1'
_cell_length_a   7.58779200
_cell_length_b   8.28820807
_cell_length_c   9.56970452
_cell_angle_alpha   73.01033844
_cell_angle_beta   66.64364953
_cell_angle_gamma   62.75822879
_symmetry_Int_Tables_number   1
_chemical_formula_structural   Cu3NiC2
_chemical_formula_sum   'Cu6 Ni2 C4'
_cell_volume   486.69083136
_cell_formula_units_Z   2
loop_
 _symmetry_equiv_pos_site_id
 _symmetry_equiv_pos_as_xyz
  1  'x, y, z'
loop_
 _atom_site_type_symbol
 _atom_site_label
 _atom_site_symmetry_multiplicity
 _atom_site_fract_x
 _atom_site_fract_y
 _atom_site_fract_z
 _atom_site_occupancy
  C  C0  1  0.58443100  0.69570400  0.13543400  1
  C  C1  1  0.41556900  0.30429600  0.86456600  1
  C  C2  1  0.80443700  0.07156300  0.31956300  1
  C  C3  1  0.19556300  0.92843700  0.68043700  1
  Ni  Ni4  1  0.11618300  0.44909900  0.31853500  1
  Ni  Ni5  1  0.88381700  0.55090100  0.68146500  1
  Cu  Cu6  1  0.10944100  0.67568800  0.10543000  1
  Cu  Cu7  1  0.89055900  0.32431200  0.89457000  1
  Cu  Cu8  1  0.29155500  0.14340400  0.27348600  1
  Cu  Cu9  1  0.70844500  0.85659600  0.72651400  1
  Cu  Cu10  1  0.76157900  0.50000000  0.50000000  1
  Cu  Cu11  1  0.23842100  0.50000000  0.50000000  1
