# generated using pymatgen
data_CuNiC
_symmetry_space_group_name_H-M   'P 1'
_cell_length_a   4.21464800
_cell_length_b   6.92495400
_cell_length_c   8.53950400
_cell_angle_alpha   90.00000000
_cell_angle_beta   90.00000000
_cell_angle_gamma   90.00000000
_symmetry_Int_Tables_number   1
_chemical_formula_structural   CuNiC
_chemical_formula_sum   'Cu4 Ni4 C4'
_cell_volume   249.23604334
_cell_formula_units_Z   4
loop_
 _symmetry_equiv_pos_site_id
 _symmetry_equiv_pos_as_xyz
  1  'x, y, z'
loop_
 _atom_site_type_symbol
 _atom_site_label
 _atom_site_symmetry_multiplicity
 _atom_site_fract_x
 _atom_site_fract_y
 _atom_site_fract_z
 _atom_site_occupancy
  C  C0  1  0.25000000  0.03779000  0.17558400  1
  C  C1  1  0.75000000  0.96221000  0.82441600  1
  C  C2  1  0.25000000  0.53779000  0.32441600  1
  C  C3  1  0.75000000  0.46221000  0.67558400  1
  Ni  Ni4  1  0.75000000  0.35608300  0.05922100  1
  Ni  Ni5  1  0.25000000  0.64391700  0.94077900  1
  Ni  Ni6  1  0.75000000  0.85608300  0.44077900  1
  Ni  Ni7  1  0.25000000  0.14391700  0.55922100  1
  Cu  Cu8  1  0.25000000  0.74185300  0.63194100  1
  Cu  Cu9  1  0.75000000  0.25814700  0.36805900  1
  Cu  Cu10  1  0.25000000  0.24185300  0.86805900  1
  Cu  Cu11  1  0.75000000  0.75814700  0.13194100  1
