# generated using pymatgen
data_Cu4Ni2C
_symmetry_space_group_name_H-M   'P 1'
_cell_length_a   7.59988000
_cell_length_b   7.67817300
_cell_length_c   18.24775000
_cell_angle_alpha   90.00000000
_cell_angle_beta   90.00000000
_cell_angle_gamma   90.00000000
_symmetry_Int_Tables_number   1
_chemical_formula_structural   Cu4Ni2C
_chemical_formula_sum   'Cu32 Ni16 C8'
_cell_volume   1064.81448522
_cell_formula_units_Z   8
loop_
 _symmetry_equiv_pos_site_id
 _symmetry_equiv_pos_as_xyz
  1  'x, y, z'
loop_
 _atom_site_type_symbol
 _atom_site_label
 _atom_site_symmetry_multiplicity
 _atom_site_fract_x
 _atom_site_fract_y
 _atom_site_fract_z
 _atom_site_occupancy
  C  C0  1  0.79643200  0.51176500  0.14585500  1
  C  C1  1  0.70356800  0.01176500  0.35414500  1
  C  C2  1  0.70356800  0.48823500  0.64585500  1
  C  C3  1  0.79643200  0.98823500  0.85414500  1
  C  C4  1  0.20356800  0.48823500  0.85414500  1
  C  C5  1  0.29643200  0.98823500  0.64585500  1
  C  C6  1  0.29643200  0.51176500  0.35414500  1
  C  C7  1  0.20356800  0.01176500  0.14585500  1
  Ni  Ni8  1  0.35383500  0.58590600  0.04805000  1
  Ni  Ni9  1  0.14616500  0.08590600  0.45195000  1
  Ni  Ni10  1  0.14616500  0.41409400  0.54805000  1
  Ni  Ni11  1  0.35383500  0.91409400  0.95195000  1
  Ni  Ni12  1  0.64616500  0.41409400  0.95195000  1
  Ni  Ni13  1  0.85383500  0.91409400  0.54805000  1
  Ni  Ni14  1  0.85383500  0.58590600  0.45195000  1
  Ni  Ni15  1  0.64616500  0.08590600  0.04805000  1
  Ni  Ni16  1  0.27621300  0.51516000  0.15621700  1
  Ni  Ni17  1  0.22378700  0.01516000  0.34378300  1
  Ni  Ni18  1  0.22378700  0.48484000  0.65621700  1
  Ni  Ni19  1  0.27621300  0.98484000  0.84378300  1
  Ni  Ni20  1  0.72378700  0.48484000  0.84378300  1
  Ni  Ni21  1  0.77621300  0.98484000  0.65621700  1
  Ni  Ni22  1  0.77621300  0.51516000  0.34378300  1
  Ni  Ni23  1  0.72378700  0.01516000  0.15621700  1
  Cu  Cu24  1  0.19374500  0.66661800  0.19491600  1
  Cu  Cu25  1  0.30625500  0.16661800  0.30508400  1
  Cu  Cu26  1  0.30625500  0.33338200  0.69491600  1
  Cu  Cu27  1  0.19374500  0.83338200  0.80508400  1
  Cu  Cu28  1  0.80625500  0.33338200  0.80508400  1
  Cu  Cu29  1  0.69374500  0.83338200  0.69491600  1
  Cu  Cu30  1  0.69374500  0.66661800  0.30508400  1
  Cu  Cu31  1  0.80625500  0.16661800  0.19491600  1
  Cu  Cu32  1  0.14479300  0.37160800  0.15055100  1
  Cu  Cu33  1  0.35520700  0.87160800  0.34944900  1
  Cu  Cu34  1  0.35520700  0.62839200  0.65055100  1
  Cu  Cu35  1  0.14479300  0.12839200  0.84944900  1
  Cu  Cu36  1  0.85520700  0.62839200  0.84944900  1
  Cu  Cu37  1  0.64479300  0.12839200  0.65055100  1
  Cu  Cu38  1  0.64479300  0.37160800  0.34944900  1
  Cu  Cu39  1  0.85520700  0.87160800  0.15055100  1
  Cu  Cu40  1  0.43850400  0.46140500  0.19560700  1
  Cu  Cu41  1  0.06149600  0.96140500  0.30439300  1
  Cu  Cu42  1  0.06149600  0.53859500  0.69560700  1
  Cu  Cu43  1  0.43850400  0.03859500  0.80439300  1
  Cu  Cu44  1  0.56149600  0.53859500  0.80439300  1
  Cu  Cu45  1  0.93850400  0.03859500  0.69560700  1
  Cu  Cu46  1  0.93850400  0.46140500  0.30439300  1
  Cu  Cu47  1  0.56149600  0.96140500  0.19560700  1
  Cu  Cu48  1  0.77626600  0.50834000  0.00438100  1
  Cu  Cu49  1  0.72373400  0.00834000  0.49561900  1
  Cu  Cu50  1  0.72373400  0.49166000  0.50438100  1
  Cu  Cu51  1  0.77626600  0.99166000  0.99561900  1
  Cu  Cu52  1  0.22373400  0.49166000  0.99561900  1
  Cu  Cu53  1  0.27626600  0.99166000  0.50438100  1
  Cu  Cu54  1  0.27626600  0.50834000  0.49561900  1
  Cu  Cu55  1  0.22373400  0.00834000  0.00438100  1
