# generated using pymatgen
data_Cu14NiC17
_symmetry_space_group_name_H-M   'P 1'
_cell_length_a   8.86768088
_cell_length_b   8.86768088
_cell_length_c   4.40303822
_cell_angle_alpha   90.00000000
_cell_angle_beta   90.00000000
_cell_angle_gamma   90.00000000
_symmetry_Int_Tables_number   1
_chemical_formula_structural   Cu14NiC17
_chemical_formula_sum   'Cu14 Ni1 C17'
_cell_volume   346.23627519
_cell_formula_units_Z   1
loop_
 _symmetry_equiv_pos_site_id
 _symmetry_equiv_pos_as_xyz
  1  'x, y, z'
loop_
 _atom_site_type_symbol
 _atom_site_label
 _atom_site_symmetry_multiplicity
 _atom_site_fract_x
 _atom_site_fract_y
 _atom_site_fract_z
 _atom_site_occupancy
  C  C0  1  0.00000000  -0.00000000  -0.00000000  1
  Ni  Ni1  1  0.50000000  0.50000000  -0.00000000  1
  Cu  Cu2  1  0.00000000  0.50000000  -0.00000000  1
  Cu  Cu3  1  0.50000000  -0.00000000  -0.00000000  1
  Cu  Cu4  1  0.00000000  0.26609877  0.50000000  1
  Cu  Cu5  1  0.00000000  0.73390123  0.50000000  1
  Cu  Cu6  1  0.50000000  0.24483253  0.50000000  1
  Cu  Cu7  1  0.50000000  0.75516747  0.50000000  1
  Cu  Cu8  1  0.26609877  -0.00000000  0.50000000  1
  Cu  Cu9  1  0.24483253  0.50000000  0.50000000  1
  Cu  Cu10  1  0.73390123  -0.00000000  0.50000000  1
  Cu  Cu11  1  0.75516747  0.50000000  0.50000000  1
  Cu  Cu12  1  0.25716982  0.25716982  -0.00000000  1
  Cu  Cu13  1  0.25716982  0.74283018  -0.00000000  1
  Cu  Cu14  1  0.74283018  0.25716982  0.00000000  1
  Cu  Cu15  1  0.74283018  0.74283018  -0.00000000  1
  C  C16  1  0.26610054  -0.00000000  -0.00000000  1
  C  C17  1  0.23992818  0.50000000  -0.00000000  1
  C  C18  1  0.73389946  -0.00000000  0.00000000  1
  C  C19  1  0.76007182  0.50000000  0.00000000  1
  C  C20  1  0.24893088  0.24893088  0.50000000  1
  C  C21  1  0.24893088  0.75106912  0.50000000  1
  C  C22  1  0.75106912  0.24893088  0.50000000  1
  C  C23  1  0.75106912  0.75106912  0.50000000  1
  C  C24  1  0.00000000  -0.00000000  0.50000000  1
  C  C25  1  0.00000000  0.50000000  0.50000000  1
  C  C26  1  0.50000000  -0.00000000  0.50000000  1
  C  C27  1  0.50000000  0.50000000  0.50000000  1
  C  C28  1  0.00000000  0.26610054  -0.00000000  1
  C  C29  1  0.00000000  0.73389946  0.00000000  1
  C  C30  1  0.50000000  0.23992818  -0.00000000  1
  C  C31  1  0.50000000  0.76007182  0.00000000  1
