# generated using pymatgen
data_Cu3Ni5C12
_symmetry_space_group_name_H-M   'P 1'
_cell_length_a   8.31093400
_cell_length_b   9.17590646
_cell_length_c   12.56339978
_cell_angle_alpha   78.42345887
_cell_angle_beta   85.24718842
_cell_angle_gamma   70.25022024
_symmetry_Int_Tables_number   1
_chemical_formula_structural   Cu3Ni5C12
_chemical_formula_sum   'Cu6 Ni10 C24'
_cell_volume   883.27080913
_cell_formula_units_Z   2
loop_
 _symmetry_equiv_pos_site_id
 _symmetry_equiv_pos_as_xyz
  1  'x, y, z'
loop_
 _atom_site_type_symbol
 _atom_site_label
 _atom_site_symmetry_multiplicity
 _atom_site_fract_x
 _atom_site_fract_y
 _atom_site_fract_z
 _atom_site_occupancy
  C  C0  1  0.70848600  0.98871500  0.35317800  1
  C  C1  1  0.29151400  0.01128500  0.64682200  1
  C  C2  1  0.02350000  0.96762300  0.12876700  1
  C  C3  1  0.97650000  0.03237700  0.87123300  1
  C  C4  1  0.61049100  0.09079400  0.06827900  1
  C  C5  1  0.38950900  0.90920600  0.93172100  1
  Ni  Ni6  1  0.88154300  0.18154300  0.49979700  1
  Ni  Ni7  1  0.11845700  0.81845700  0.50020300  1
  Ni  Ni8  1  0.24521800  0.15618400  0.25669900  1
  Ni  Ni9  1  0.75478200  0.84381600  0.74330100  1
  Ni  Ni10  1  0.52758700  0.21108300  0.75806000  1
  Ni  Ni11  1  0.47241300  0.78891700  0.24194000  1
  Ni  Ni12  1  0.18620300  0.26687200  0.98255500  1
  Ni  Ni13  1  0.81379700  0.73312800  0.01744500  1
  Ni  Ni14  1  0.79315700  0.31970300  0.20298900  1
  Ni  Ni15  1  0.20684300  0.68029700  0.79701100  1
  Cu  Cu16  1  0.71646900  0.35844000  0.92518000  1
  Cu  Cu17  1  0.28353100  0.64156000  0.07482000  1
  Cu  Cu18  1  0.90458900  0.67594900  0.31343100  1
  Cu  Cu19  1  0.09541100  0.32405100  0.68656900  1
  Cu  Cu20  1  0.49086800  0.29488700  0.42423600  1
  Cu  Cu21  1  0.50913200  0.70511300  0.57576400  1
  C  C22  1  0.14696400  0.06277700  0.98154500  1
  C  C23  1  0.85303600  0.93722300  0.01845500  1
  C  C24  1  0.86270600  0.97008400  0.48283400  1
  C  C25  1  0.13729400  0.02991600  0.51716600  1
  C  C26  1  0.77619100  0.10905400  0.19684000  1
  C  C27  1  0.22380900  0.89094600  0.80316000  1
  C  C28  1  0.43612600  0.14383800  0.90763600  1
  C  C29  1  0.56387400  0.85616200  0.09236400  1
  C  C30  1  0.77743200  0.05392600  0.76795600  1
  C  C31  1  0.22256800  0.94607400  0.23204400  1
  C  C32  1  0.50357000  0.02463400  0.70898500  1
  C  C33  1  0.49643000  0.97536600  0.29101500  1
  C  C34  1  0.03099100  0.25525100  0.13713100  1
  C  C35  1  0.96900900  0.74474900  0.86286900  1
  C  C36  1  0.07334600  0.76436300  0.65799000  1
  C  C37  1  0.92665400  0.23563700  0.34201000  1
  C  C38  1  0.64650100  0.79930100  0.89348100  1
  C  C39  1  0.35349900  0.20069900  0.10651900  1
