# generated using pymatgen
data_Cu2Ni3C23
_symmetry_space_group_name_H-M   'P 1'
_cell_length_a   6.29159306
_cell_length_b   6.29159306
_cell_length_c   9.95406416
_cell_angle_alpha   88.98681144
_cell_angle_beta   88.98681144
_cell_angle_gamma   59.56833182
_symmetry_Int_Tables_number   1
_chemical_formula_structural   Cu2Ni3C23
_chemical_formula_sum   'Cu2 Ni3 C23'
_cell_volume   339.66953466
_cell_formula_units_Z   1
loop_
 _symmetry_equiv_pos_site_id
 _symmetry_equiv_pos_as_xyz
  1  'x, y, z'
loop_
 _atom_site_type_symbol
 _atom_site_label
 _atom_site_symmetry_multiplicity
 _atom_site_fract_x
 _atom_site_fract_y
 _atom_site_fract_z
 _atom_site_occupancy
  C  C0  1  0.66198200  0.66198200  0.10165600  1
  C  C1  1  0.99271400  0.99271400  0.01979900  1
  C  C2  1  0.99396700  0.99396700  0.50541700  1
  C  C3  1  0.32654900  0.32654900  0.59131700  1
  C  C4  1  0.83061500  0.83061500  0.78768700  1
  C  C5  1  0.17383200  0.66180500  0.29041200  1
  C  C6  1  0.66180500  0.17383200  0.29041200  1
  Ni  Ni7  1  0.33975200  0.83182500  0.78696000  1
  Ni  Ni8  1  0.83182500  0.33975200  0.78696000  1
  Ni  Ni9  1  0.17333400  0.17333400  0.28620600  1
  Cu  Cu10  1  0.67260600  0.67260600  0.50908500  1
  Cu  Cu11  1  0.34293800  0.34293800  0.01938500  1
  C  C12  1  0.34602200  0.83363800  0.41055900  1
  C  C13  1  0.51899900  0.51899900  0.65373600  1
  C  C14  1  0.65885800  0.65885800  0.89787700  1
  C  C15  1  0.00555600  0.00555600  0.69174900  1
  C  C16  1  0.00888000  0.00888000  0.20137800  1
  C  C17  1  0.83363800  0.34602200  0.41055900  1
  C  C18  1  0.51151100  0.95605300  0.65079600  1
  C  C19  1  0.95605300  0.51151100  0.65079600  1
  C  C20  1  0.16731800  0.16731800  0.90122500  1
  C  C21  1  0.83177400  0.83177400  0.41414800  1
  C  C22  1  0.03920800  0.47424500  0.14144900  1
  C  C23  1  0.47424500  0.03920800  0.14144900  1
  C  C24  1  0.32567500  0.32567500  0.39652200  1
  C  C25  1  0.17477600  0.66441700  0.90514200  1
  C  C26  1  0.48094600  0.48094600  0.14430300  1
  C  C27  1  0.66441700  0.17477600  0.90514200  1
