# generated using pymatgen
data_Cu2NiC7
_symmetry_space_group_name_H-M   'P 1'
_cell_length_a   5.24370500
_cell_length_b   5.48621600
_cell_length_c   7.61290800
_cell_angle_alpha   90.00000000
_cell_angle_beta   90.00000000
_cell_angle_gamma   90.00000000
_symmetry_Int_Tables_number   1
_chemical_formula_structural   Cu2NiC7
_chemical_formula_sum   'Cu4 Ni2 C14'
_cell_volume   219.00888547
_cell_formula_units_Z   2
loop_
 _symmetry_equiv_pos_site_id
 _symmetry_equiv_pos_as_xyz
  1  'x, y, z'
loop_
 _atom_site_type_symbol
 _atom_site_label
 _atom_site_symmetry_multiplicity
 _atom_site_fract_x
 _atom_site_fract_y
 _atom_site_fract_z
 _atom_site_occupancy
  C  C0  1  0.01590800  0.68137700  0.00000000  1
  C  C1  1  0.51590800  0.31862300  0.50000000  1
  Ni  Ni2  1  0.48822200  0.20020900  0.00000000  1
  Ni  Ni3  1  0.98822200  0.79979100  0.50000000  1
  Cu  Cu4  1  0.00120400  0.24159200  0.75029200  1
  Cu  Cu5  1  0.00120400  0.24159200  0.24970800  1
  Cu  Cu6  1  0.50120400  0.75840800  0.25029200  1
  Cu  Cu7  1  0.50120400  0.75840800  0.74970800  1
  C  C8  1  0.10758800  0.19517600  0.50000000  1
  C  C9  1  0.19256000  0.94782900  0.81068300  1
  C  C10  1  0.19256000  0.94782900  0.18931700  1
  C  C11  1  0.31435900  0.44102700  0.81175200  1
  C  C12  1  0.31435900  0.44102700  0.18824800  1
  C  C13  1  0.37174300  0.71168000  0.50000000  1
  C  C14  1  0.60758800  0.80482400  0.00000000  1
  C  C15  1  0.69256000  0.05217100  0.31068300  1
  C  C16  1  0.69256000  0.05217100  0.68931700  1
  C  C17  1  0.81435900  0.55897300  0.68824800  1
  C  C18  1  0.81435900  0.55897300  0.31175200  1
  C  C19  1  0.87174300  0.28832000  0.00000000  1
