# generated using pymatgen
data_Cu3Ni8C3
_symmetry_space_group_name_H-M   'P 1'
_cell_length_a   8.32322954
_cell_length_b   8.32322954
_cell_length_c   8.32322954
_cell_angle_alpha   149.61386303
_cell_angle_beta   109.41777333
_cell_angle_gamma   78.75003119
_symmetry_Int_Tables_number   1
_chemical_formula_structural   Cu3Ni8C3
_chemical_formula_sum   'Cu3 Ni8 C3'
_cell_volume   269.94041452
_cell_formula_units_Z   1
loop_
 _symmetry_equiv_pos_site_id
 _symmetry_equiv_pos_as_xyz
  1  'x, y, z'
loop_
 _atom_site_type_symbol
 _atom_site_label
 _atom_site_symmetry_multiplicity
 _atom_site_fract_x
 _atom_site_fract_y
 _atom_site_fract_z
 _atom_site_occupancy
  C  C0  1  0.50000000  0.50000000  0.00000000  1
  C  C1  1  0.19681600  0.19681600  0.00000000  1
  C  C2  1  0.80318400  0.80318400  0.00000000  1
  Ni  Ni3  1  0.07576000  0.35736600  0.71839400  1
  Ni  Ni4  1  0.92424000  0.64263400  0.28160600  1
  Ni  Ni5  1  0.63897200  0.35736600  0.28160600  1
  Ni  Ni6  1  0.36102800  0.64263400  0.71839400  1
  Ni  Ni7  1  0.78884600  0.15951400  0.62933200  1
  Ni  Ni8  1  0.21115400  0.84048600  0.37066800  1
  Ni  Ni9  1  0.53018200  0.15951400  0.37066800  1
  Ni  Ni10  1  0.46981800  0.84048600  0.62933200  1
  Cu  Cu11  1  0.00000000  0.50000000  0.50000000  1
  Cu  Cu12  1  0.79865100  0.00000000  0.79865100  1
  Cu  Cu13  1  0.20134900  0.00000000  0.20134900  1
