# generated using pymatgen
data_Cu2NiC10
_symmetry_space_group_name_H-M   'P 1'
_cell_length_a   5.16964322
_cell_length_b   5.45090558
_cell_length_c   6.58099744
_cell_angle_alpha   110.55904814
_cell_angle_beta   109.05860330
_cell_angle_gamma   99.22383329
_symmetry_Int_Tables_number   1
_chemical_formula_structural   Cu2NiC10
_chemical_formula_sum   'Cu2 Ni1 C10'
_cell_volume   155.99627027
_cell_formula_units_Z   1
loop_
 _symmetry_equiv_pos_site_id
 _symmetry_equiv_pos_as_xyz
  1  'x, y, z'
loop_
 _atom_site_type_symbol
 _atom_site_label
 _atom_site_symmetry_multiplicity
 _atom_site_fract_x
 _atom_site_fract_y
 _atom_site_fract_z
 _atom_site_occupancy
  Ni  Ni0  1  0.62055700  0.87053500  0.74151600  1
  Cu  Cu1  1  0.37458300  0.62457500  0.24955800  1
  Cu  Cu2  1  0.61385300  0.36381400  0.72804000  1
  C  C3  1  0.85579500  0.10586800  0.21207400  1
  C  C4  1  0.16540300  0.91537900  0.83108100  1
  C  C5  1  0.02622600  0.79425300  0.06325600  1
  C  C6  1  0.53670200  0.26875400  0.06326200  1
  C  C7  1  0.96576900  0.20126500  0.93175700  1
  C  C8  1  0.46554500  0.73004300  0.93176800  1
  C  C9  1  0.22934000  0.35933800  0.42510000  1
  C  C10  1  0.69535300  0.06531700  0.42509200  1
  C  C11  1  0.79290900  0.65453300  0.58873500  1
  C  C12  1  0.29546300  0.93382800  0.58876000  1
