# generated using pymatgen
data_Cu2NiC5
_symmetry_space_group_name_H-M   'P 1'
_cell_length_a   7.32585790
_cell_length_b   7.32585790
_cell_length_c   7.25152366
_cell_angle_alpha   64.48176570
_cell_angle_beta   64.48176570
_cell_angle_gamma   64.13738719
_symmetry_Int_Tables_number   1
_chemical_formula_structural   Cu2NiC5
_chemical_formula_sum   'Cu4 Ni2 C10'
_cell_volume   301.56861710
_cell_formula_units_Z   2
loop_
 _symmetry_equiv_pos_site_id
 _symmetry_equiv_pos_as_xyz
  1  'x, y, z'
loop_
 _atom_site_type_symbol
 _atom_site_label
 _atom_site_symmetry_multiplicity
 _atom_site_fract_x
 _atom_site_fract_y
 _atom_site_fract_z
 _atom_site_occupancy
  Ni  Ni0  1  0.25003100  0.17950800  0.57043200  1
  Ni  Ni1  1  0.82049200  0.74996900  0.42956800  1
  Cu  Cu2  1  0.68312200  0.31687800  0.00000000  1
  Cu  Cu3  1  0.18330200  0.24961600  0.06711200  1
  Cu  Cu4  1  0.31682500  0.68317500  0.50000000  1
  Cu  Cu5  1  0.75038400  0.81669800  0.93288800  1
  C  C6  1  0.24867700  0.75132300  0.00000000  1
  C  C7  1  0.74980000  0.25020000  0.50000000  1
  C  C8  1  0.24796200  0.58318100  0.16813700  1
  C  C9  1  0.41681900  0.75203800  0.83186300  1
  C  C10  1  0.08048400  0.91951600  0.00000000  1
  C  C11  1  0.58033200  0.24849700  0.66665100  1
  C  C12  1  0.91781900  0.08218100  0.50000000  1
  C  C13  1  0.75150300  0.41966700  0.33334900  1
  C  C14  1  0.50179900  0.99935200  0.26075500  1
  C  C15  1  0.00064800  0.49820100  0.73924500  1
