# generated using pymatgen
data_Cu31(Ni3C2)4
_symmetry_space_group_name_H-M   'P 1'
_cell_length_a   8.36574504
_cell_length_b   14.61652196
_cell_length_c   15.16946466
_cell_angle_alpha   117.14155100
_cell_angle_beta   97.68379998
_cell_angle_gamma   94.14404541
_symmetry_Int_Tables_number   1
_chemical_formula_structural   Cu31(Ni3C2)4
_chemical_formula_sum   'Cu62 Ni24 C16'
_cell_volume   1617.03225633
_cell_formula_units_Z   2
loop_
 _symmetry_equiv_pos_site_id
 _symmetry_equiv_pos_as_xyz
  1  'x, y, z'
loop_
 _atom_site_type_symbol
 _atom_site_label
 _atom_site_symmetry_multiplicity
 _atom_site_fract_x
 _atom_site_fract_y
 _atom_site_fract_z
 _atom_site_occupancy
  C  C0  1  0.37120547  0.06045645  0.09625690  1
  C  C1  1  0.62879453  0.93954355  0.90374310  1
  C  C2  1  0.51708403  0.50738428  0.35697211  1
  C  C3  1  0.48291597  0.49261572  0.64302789  1
  C  C4  1  0.81045013  0.35635631  0.43767965  1
  C  C5  1  0.18954987  0.64364369  0.56232035  1
  C  C6  1  0.59224027  0.80831807  0.13409951  1
  C  C7  1  0.40775973  0.19168193  0.86590049  1
  C  C8  1  0.07410084  0.73203014  0.05957090  1
  C  C9  1  0.92589916  0.26796986  0.94042910  1
  C  C10  1  0.32214784  0.78604834  0.38484624  1
  C  C11  1  0.67785216  0.21395166  0.61515376  1
  C  C12  1  0.81097956  0.44139377  0.17124038  1
  C  C13  1  0.18902044  0.55860623  0.82875962  1
  C  C14  1  0.13666768  0.12309132  0.30024532  1
  C  C15  1  0.86333232  0.87690868  0.69975468  1
  Ni  Ni16  1  0.62310526  0.57788408  0.15591356  1
  Ni  Ni17  1  0.37689474  0.42211592  0.84408644  1
  Ni  Ni18  1  0.76499879  0.57531268  0.09726598  1
  Ni  Ni19  1  0.23500121  0.42468732  0.90273402  1
  Ni  Ni20  1  0.10310181  0.52995498  0.29348137  1
  Ni  Ni21  1  0.89689819  0.47004502  0.70651863  1
  Ni  Ni22  1  0.12585795  0.41999350  0.21326055  1
  Ni  Ni23  1  0.87414205  0.58000650  0.78673945  1
  Ni  Ni24  1  0.67615888  0.28321443  0.19504831  1
  Ni  Ni25  1  0.32384112  0.71678557  0.80495169  1
  Ni  Ni26  1  0.63459707  0.25033616  0.08113589  1
  Ni  Ni27  1  0.36540293  0.74966384  0.91886411  1
  Ni  Ni28  1  0.19041710  0.33170541  0.41941804  1
  Ni  Ni29  1  0.80958290  0.66829459  0.58058196  1
  Ni  Ni30  1  0.35912761  0.29843309  0.39595589  1
  Ni  Ni31  1  0.64087239  0.70156691  0.60404411  1
  Ni  Ni32  1  0.24179675  0.01433740  0.39306580  1
  Ni  Ni33  1  0.75820325  0.98566260  0.60693420  1
  Ni  Ni34  1  0.26046252  0.95191668  0.28134664  1
  Ni  Ni35  1  0.73953748  0.04808332  0.71865336  1
  Ni  Ni36  1  0.84711981  0.04138348  0.17239508  1
  Ni  Ni37  1  0.15288019  0.95861652  0.82760492  1
  Ni  Ni38  1  0.95405242  0.09609144  0.12749540  1
  Ni  Ni39  1  0.04594758  0.90390856  0.87250460  1
  Cu  Cu40  1  0.62981393  0.51761905  0.19705970  1
  Cu  Cu41  1  0.37018607  0.48238095  0.80294030  1
  Cu  Cu42  1  0.85524802  0.50452769  0.08938711  1
  Cu  Cu43  1  0.14475198  0.49547231  0.91061289  1
  Cu  Cu44  1  0.95652559  0.55101751  0.28512867  1
  Cu  Cu45  1  0.04347441  0.44898249  0.71487133  1
  Cu  Cu46  1  0.99401615  0.36954606  0.14642861  1
  Cu  Cu47  1  0.00598385  0.63045394  0.85357139  1
  Cu  Cu48  1  0.75158087  0.37841300  0.25115709  1
  Cu  Cu49  1  0.24841913  0.62158700  0.74884291  1
  Cu  Cu50  1  0.68022094  0.32205277  0.05759425  1
  Cu  Cu51  1  0.31977906  0.67794723  0.94240575  1
  Cu  Cu52  1  0.52033101  0.63675951  0.16165319  1
  Cu  Cu53  1  0.47966899  0.36324049  0.83834681  1
  Cu  Cu54  1  0.78518336  0.63919121  0.06575702  1
  Cu  Cu55  1  0.21481664  0.36080879  0.93424298  1
  Cu  Cu56  1  0.22011752  0.59090751  0.36080390  1
  Cu  Cu57  1  0.77988248  0.40909249  0.63919610  1
  Cu  Cu58  1  0.25682425  0.38669069  0.21627522  1
  Cu  Cu59  1  0.74317575  0.61330931  0.78372478  1
  Cu  Cu60  1  0.63690266  0.22323041  0.22793178  1
  Cu  Cu61  1  0.36309734  0.77676959  0.77206822  1
  Cu  Cu62  1  0.56087626  0.16272972  0.01915596  1
  Cu  Cu63  1  0.43912374  0.83727028  0.98084404  1
  Cu  Cu64  1  0.07083139  0.25545821  0.37901891  1
  Cu  Cu65  1  0.92916861  0.74454179  0.62098109  1
  Cu  Cu66  1  0.35307728  0.19991140  0.33961337  1
  Cu  Cu67  1  0.64692272  0.80008860  0.66038663  1
  Cu  Cu68  1  0.17721030  0.09787439  0.41335872  1
  Cu  Cu69  1  0.82278970  0.90212561  0.58664128  1
  Cu  Cu70  1  0.21487552  0.99459105  0.22572337  1
  Cu  Cu71  1  0.78512448  0.00540895  0.77427663  1
  Cu  Cu72  1  0.91849234  0.05279747  0.25892150  1
  Cu  Cu73  1  0.08150766  0.94720253  0.74107850  1
  Cu  Cu74  1  0.09686068  0.13972171  0.18254606  1
  Cu  Cu75  1  0.90313932  0.86027829  0.81745394  1
  Cu  Cu76  1  0.17917356  0.42423696  0.47495194  1
  Cu  Cu77  1  0.82082644  0.57576304  0.52504806  1
  Cu  Cu78  1  0.48418421  0.36462733  0.43338765  1
  Cu  Cu79  1  0.51581579  0.63537267  0.56661235  1
  Cu  Cu80  1  0.28500042  0.98236743  0.45432516  1
  Cu  Cu81  1  0.71499958  0.01763257  0.54567484  1
  Cu  Cu82  1  0.31083140  0.86614701  0.24918052  1
  Cu  Cu83  1  0.68916860  0.13385299  0.75081948  1
  Cu  Cu84  1  0.71035078  0.99079382  0.12666687  1
  Cu  Cu85  1  0.28964922  0.00920618  0.87333313  1
  Cu  Cu86  1  0.90270906  0.09476706  0.04617577  1
  Cu  Cu87  1  0.09729094  0.90523294  0.95382423  1
  Cu  Cu88  1  0.20323242  0.60486465  0.15811209  1
  Cu  Cu89  1  0.79676758  0.39513535  0.84188791  1
  Cu  Cu90  1  0.89530636  0.83962327  0.32236598  1
  Cu  Cu91  1  0.10469364  0.16037673  0.67763402  1
  Cu  Cu92  1  0.91719348  0.77179530  0.34774971  1
  Cu  Cu93  1  0.08280652  0.22820470  0.65225029  1
  Cu  Cu94  1  0.68163902  0.77374251  0.38465161  1
  Cu  Cu95  1  0.31836098  0.22625749  0.61534839  1
  Cu  Cu96  1  0.61853083  0.14265868  0.38308149  1
  Cu  Cu97  1  0.38146917  0.85734132  0.61691851  1
  Cu  Cu98  1  0.15728227  0.17968564  0.02332602  1
  Cu  Cu99  1  0.84271773  0.82031436  0.97667398  1
  Cu  Cu100  1  0.66006468  0.84377529  0.36226785  1
  Cu  Cu101  1  0.33993532  0.15622471  0.63773215  1
