# generated using pymatgen
data_Cu3NiC
_symmetry_space_group_name_H-M   'P 1'
_cell_length_a   6.84645700
_cell_length_b   7.61958400
_cell_length_c   7.89259200
_cell_angle_alpha   90.00000000
_cell_angle_beta   90.00000000
_cell_angle_gamma   90.00000000
_symmetry_Int_Tables_number   1
_chemical_formula_structural   Cu3NiC
_chemical_formula_sum   'Cu12 Ni4 C4'
_cell_volume   411.73406401
_cell_formula_units_Z   4
loop_
 _symmetry_equiv_pos_site_id
 _symmetry_equiv_pos_as_xyz
  1  'x, y, z'
loop_
 _atom_site_type_symbol
 _atom_site_label
 _atom_site_symmetry_multiplicity
 _atom_site_fract_x
 _atom_site_fract_y
 _atom_site_fract_z
 _atom_site_occupancy
  C  C0  1  0.25000000  0.00181300  0.16875600  1
  C  C1  1  0.75000000  0.99818700  0.83124400  1
  C  C2  1  0.75000000  0.50181300  0.33124400  1
  C  C3  1  0.25000000  0.49818700  0.66875600  1
  Ni  Ni4  1  0.25000000  0.62676000  0.53742100  1
  Ni  Ni5  1  0.75000000  0.37324000  0.46257900  1
  Ni  Ni6  1  0.75000000  0.12676000  0.96257900  1
  Ni  Ni7  1  0.25000000  0.87324000  0.03742100  1
  Cu  Cu8  1  0.08081600  0.01564900  0.30523200  1
  Cu  Cu9  1  0.91918400  0.98435100  0.69476800  1
  Cu  Cu10  1  0.91918400  0.51564900  0.19476800  1
  Cu  Cu11  1  0.58081600  0.98435100  0.69476800  1
  Cu  Cu12  1  0.08081600  0.48435100  0.80523200  1
  Cu  Cu13  1  0.41918400  0.01564900  0.30523200  1
  Cu  Cu14  1  0.41918400  0.48435100  0.80523200  1
  Cu  Cu15  1  0.58081600  0.51564900  0.19476800  1
  Cu  Cu16  1  0.25000000  0.20696500  0.13005400  1
  Cu  Cu17  1  0.75000000  0.79303500  0.86994600  1
  Cu  Cu18  1  0.75000000  0.70696500  0.36994600  1
  Cu  Cu19  1  0.25000000  0.29303500  0.63005400  1
