# generated using pymatgen
data_Cu4Ni11C12
_symmetry_space_group_name_H-M   'P 1'
_cell_length_a   11.15569308
_cell_length_b   11.15569308
_cell_length_c   11.15569308
_cell_angle_alpha   90.00000000
_cell_angle_beta   90.00000000
_cell_angle_gamma   90.00000000
_symmetry_Int_Tables_number   1
_chemical_formula_structural   Cu4Ni11C12
_chemical_formula_sum   'Cu8 Ni22 C24'
_cell_volume   1388.32029315
_cell_formula_units_Z   2
loop_
 _symmetry_equiv_pos_site_id
 _symmetry_equiv_pos_as_xyz
  1  'x, y, z'
loop_
 _atom_site_type_symbol
 _atom_site_label
 _atom_site_symmetry_multiplicity
 _atom_site_fract_x
 _atom_site_fract_y
 _atom_site_fract_z
 _atom_site_occupancy
  C  C0  1  -0.00000000  0.11840854  0.31039739  1
  C  C1  1  -0.00000000  0.88159146  0.68960261  1
  C  C2  1  -0.00000000  0.88159146  0.31039739  1
  C  C3  1  -0.00000000  0.11840854  0.68960261  1
  C  C4  1  0.31039739  0.00000000  0.11840854  1
  C  C5  1  0.61840854  0.50000000  0.18960261  1
  C  C6  1  0.68960261  -0.00000000  0.88159146  1
  C  C7  1  0.38159146  0.50000000  0.81039739  1
  C  C8  1  0.31039739  0.00000000  0.88159146  1
  C  C9  1  0.38159146  0.50000000  0.18960261  1
  C  C10  1  0.68960261  -0.00000000  0.11840854  1
  C  C11  1  0.61840854  0.50000000  0.81039739  1
  C  C12  1  0.11840854  0.31039739  0.00000000  1
  C  C13  1  0.50000000  0.81039739  0.38159146  1
  C  C14  1  0.88159146  0.68960261  0.00000000  1
  C  C15  1  0.50000000  0.18960261  0.61840854  1
  C  C16  1  0.11840854  0.68960261  0.00000000  1
  C  C17  1  0.50000000  0.18960261  0.38159146  1
  C  C18  1  0.88159146  0.31039739  0.00000000  1
  C  C19  1  0.50000000  0.81039739  0.61840854  1
  C  C20  1  0.18960261  0.61840854  0.50000000  1
  C  C21  1  0.81039739  0.38159146  0.50000000  1
  C  C22  1  0.18960261  0.38159146  0.50000000  1
  C  C23  1  0.81039739  0.61840854  0.50000000  1
  Ni  Ni24  1  0.18558222  0.18558222  0.18558222  1
  Ni  Ni25  1  0.81441778  0.81441778  0.81441778  1
  Ni  Ni26  1  0.81441778  0.81441778  0.18558222  1
  Ni  Ni27  1  0.81441778  0.18558222  0.81441778  1
  Ni  Ni28  1  0.68558222  0.68558222  0.31441778  1
  Ni  Ni29  1  0.18558222  0.18558222  0.81441778  1
  Ni  Ni30  1  0.18558222  0.81441778  0.18558222  1
  Ni  Ni31  1  0.31441778  0.31441778  0.68558222  1
  Ni  Ni32  1  0.18558222  0.81441778  0.81441778  1
  Ni  Ni33  1  0.31441778  0.31441778  0.31441778  1
  Ni  Ni34  1  0.81441778  0.18558222  0.18558222  1
  Ni  Ni35  1  0.68558222  0.68558222  0.68558222  1
  Ni  Ni36  1  0.68558222  0.31441778  0.68558222  1
  Ni  Ni37  1  0.31441778  0.68558222  0.31441778  1
  Ni  Ni38  1  0.31441778  0.68558222  0.68558222  1
  Ni  Ni39  1  0.68558222  0.31441778  0.31441778  1
  Ni  Ni40  1  0.25000000  0.50000000  0.00000000  1
  Ni  Ni41  1  0.75000000  0.50000000  0.00000000  1
  Ni  Ni42  1  -0.00000000  0.25000000  0.50000000  1
  Ni  Ni43  1  -0.00000000  0.75000000  0.50000000  1
  Ni  Ni44  1  0.50000000  -0.00000000  0.25000000  1
  Ni  Ni45  1  0.50000000  -0.00000000  0.75000000  1
  Cu  Cu46  1  0.25000000  -0.00000000  0.50000000  1
  Cu  Cu47  1  0.75000000  -0.00000000  0.50000000  1
  Cu  Cu48  1  0.50000000  0.25000000  0.00000000  1
  Cu  Cu49  1  0.50000000  0.75000000  0.00000000  1
  Cu  Cu50  1  -0.00000000  0.50000000  0.25000000  1
  Cu  Cu51  1  -0.00000000  0.50000000  0.75000000  1
  Cu  Cu52  1  -0.00000000  -0.00000000  0.00000000  1
  Cu  Cu53  1  0.50000000  0.50000000  0.50000000  1
