# generated using pymatgen
data_CuNiC8
_symmetry_space_group_name_H-M   'P 1'
_cell_length_a   5.56844900
_cell_length_b   5.59880700
_cell_length_c   7.88302900
_cell_angle_alpha   90.00000000
_cell_angle_beta   90.00000000
_cell_angle_gamma   90.00000000
_symmetry_Int_Tables_number   1
_chemical_formula_structural   CuNiC8
_chemical_formula_sum   'Cu2 Ni2 C16'
_cell_volume   245.76660351
_cell_formula_units_Z   2
loop_
 _symmetry_equiv_pos_site_id
 _symmetry_equiv_pos_as_xyz
  1  'x, y, z'
loop_
 _atom_site_type_symbol
 _atom_site_label
 _atom_site_symmetry_multiplicity
 _atom_site_fract_x
 _atom_site_fract_y
 _atom_site_fract_z
 _atom_site_occupancy
  Ni  Ni0  1  0.24221100  0.46703100  0.50000000  1
  Ni  Ni1  1  0.75778900  0.96703100  0.50000000  1
  Cu  Cu2  1  0.25987500  0.54010800  0.00000000  1
  Cu  Cu3  1  0.74012500  0.04010800  0.00000000  1
  C  C4  1  0.75045300  0.50034000  0.75099400  1
  C  C5  1  0.24954700  0.00034000  0.24900600  1
  C  C6  1  0.75045300  0.50034000  0.24900600  1
  C  C7  1  0.24954700  0.00034000  0.75099400  1
  C  C8  1  0.16559300  0.97957000  0.00000000  1
  C  C9  1  0.83440700  0.47957000  0.00000000  1
  C  C10  1  0.33050700  0.01721600  0.50000000  1
  C  C11  1  0.66949300  0.51721600  0.50000000  1
  C  C12  1  0.03729400  0.71281600  0.29255800  1
  C  C13  1  0.96270600  0.21281600  0.70744200  1
  C  C14  1  0.46509700  0.28488000  0.79645100  1
  C  C15  1  0.53490300  0.78488000  0.20354900  1
  C  C16  1  0.46509700  0.28488000  0.20354900  1
  C  C17  1  0.53490300  0.78488000  0.79645100  1
  C  C18  1  0.03729400  0.71281600  0.70744200  1
  C  C19  1  0.96270600  0.21281600  0.29255800  1
