# generated using pymatgen
data_CuNiC2
_symmetry_space_group_name_H-M   'P 1'
_cell_length_a   2.50956700
_cell_length_b   2.55155100
_cell_length_c   7.90989900
_cell_angle_alpha   90.00000000
_cell_angle_beta   90.00000000
_cell_angle_gamma   90.00000000
_symmetry_Int_Tables_number   1
_chemical_formula_structural   CuNiC2
_chemical_formula_sum   'Cu2 Ni2 C4'
_cell_volume   50.64936284
_cell_formula_units_Z   2
loop_
 _symmetry_equiv_pos_site_id
 _symmetry_equiv_pos_as_xyz
  1  'x, y, z'
loop_
 _atom_site_type_symbol
 _atom_site_label
 _atom_site_symmetry_multiplicity
 _atom_site_fract_x
 _atom_site_fract_y
 _atom_site_fract_z
 _atom_site_occupancy
  C  C0  1  0.25000000  0.00000000  0.68866300  1
  C  C1  1  0.75000000  0.00000000  0.31133700  1
  C  C2  1  0.25000000  0.50000000  0.08453400  1
  C  C3  1  0.75000000  0.50000000  0.91546600  1
  Ni  Ni4  1  0.25000000  0.50000000  0.55163300  1
  Ni  Ni5  1  0.75000000  0.50000000  0.44836700  1
  Cu  Cu6  1  0.25000000  0.00000000  0.19469000  1
  Cu  Cu7  1  0.75000000  0.00000000  0.80531000  1
