# generated using pymatgen
data_CuNi14C
_symmetry_space_group_name_H-M   'P 1'
_cell_length_a   6.31438520
_cell_length_b   6.31438470
_cell_length_c   10.23151550
_cell_angle_alpha   90.00000000
_cell_angle_beta   90.00000000
_cell_angle_gamma   120.00000264
_symmetry_Int_Tables_number   1
_chemical_formula_structural   CuNi14C
_chemical_formula_sum   'Cu1 Ni14 C1'
_cell_volume   353.29109897
_cell_formula_units_Z   1
loop_
 _symmetry_equiv_pos_site_id
 _symmetry_equiv_pos_as_xyz
  1  'x, y, z'
loop_
 _atom_site_type_symbol
 _atom_site_label
 _atom_site_symmetry_multiplicity
 _atom_site_fract_x
 _atom_site_fract_y
 _atom_site_fract_z
 _atom_site_occupancy
  Ni  Ni0  1  0.16557549  0.83278724  0.12500000  1
  Ni  Ni1  1  0.17023087  0.83511494  0.62500000  1
  Ni  Ni2  1  0.66721276  0.33442451  0.12500000  1
  Ni  Ni3  1  0.66488506  0.32976913  0.62500000  1
  Ni  Ni4  1  0.66721276  0.83278724  0.12500000  1
  Ni  Ni5  1  0.66488506  0.83511494  0.62500000  1
  Ni  Ni6  1  0.32873340  0.17126660  0.37475674  1
  Ni  Ni7  1  0.32873340  0.17126660  0.87524326  1
  Ni  Ni8  1  0.32873340  0.65746780  0.37475674  1
  Ni  Ni9  1  0.32873340  0.65746780  0.87524326  1
  Ni  Ni10  1  0.84253220  0.17126660  0.37475674  1
  Ni  Ni11  1  0.84253220  0.17126660  0.87524326  1
  Ni  Ni12  1  0.83333300  0.66666700  0.37756726  1
  Ni  Ni13  1  0.83333300  0.66666700  0.87243274  1
  C  C14  1  0.16666700  0.33333300  0.62500000  1
  Cu  Cu15  1  0.16666700  0.33333300  0.12500000  1
