# generated using pymatgen
data_Cu4Ni2C3
_symmetry_space_group_name_H-M   'P 1'
_cell_length_a   18.27841500
_cell_length_b   7.31810500
_cell_length_c   7.50364748
_cell_angle_alpha   67.95461424
_cell_angle_beta   90.00000000
_cell_angle_gamma   90.00000000
_symmetry_Int_Tables_number   1
_chemical_formula_structural   Cu4Ni2C3
_chemical_formula_sum   'Cu16 Ni8 C12'
_cell_volume   930.32845064
_cell_formula_units_Z   4
loop_
 _symmetry_equiv_pos_site_id
 _symmetry_equiv_pos_as_xyz
  1  'x, y, z'
loop_
 _atom_site_type_symbol
 _atom_site_label
 _atom_site_symmetry_multiplicity
 _atom_site_fract_x
 _atom_site_fract_y
 _atom_site_fract_z
 _atom_site_occupancy
  C  C0  1  0.31555900  0.01116000  0.78376600  1
  C  C1  1  0.81555900  0.48884000  0.21623400  1
  C  C2  1  0.68444100  0.98884000  0.21623400  1
  C  C3  1  0.18444100  0.51116000  0.78376600  1
  C  C4  1  0.44137900  0.99547000  0.26071600  1
  C  C5  1  0.94137900  0.50453000  0.73928400  1
  C  C6  1  0.55862100  0.00453000  0.73928400  1
  C  C7  1  0.05862100  0.49547000  0.26071600  1
  C  C8  1  0.43659800  0.51140800  0.74367800  1
  C  C9  1  0.93659800  0.98859200  0.25632200  1
  C  C10  1  0.56340200  0.48859200  0.25632200  1
  C  C11  1  0.06340200  0.01140800  0.74367800  1
  Ni  Ni12  1  0.62730400  0.52668600  0.78770200  1
  Ni  Ni13  1  0.12730400  0.97331400  0.21229800  1
  Ni  Ni14  1  0.37269600  0.47331400  0.21229800  1
  Ni  Ni15  1  0.87269600  0.02668600  0.78770200  1
  Ni  Ni16  1  0.74151800  0.40843500  0.68562900  1
  Ni  Ni17  1  0.75848200  0.90843500  0.68562900  1
  Ni  Ni18  1  0.25848200  0.59156500  0.31437100  1
  Ni  Ni19  1  0.24151800  0.09156500  0.31437100  1
  Cu  Cu20  1  0.43180500  0.26159400  0.49114500  1
  Cu  Cu21  1  0.93180500  0.23840600  0.50885500  1
  Cu  Cu22  1  0.56819500  0.73840600  0.50885500  1
  Cu  Cu23  1  0.06819500  0.76159400  0.49114500  1
  Cu  Cu24  1  0.43944500  0.74296600  0.00991700  1
  Cu  Cu25  1  0.93944500  0.75703400  0.99008300  1
  Cu  Cu26  1  0.56055500  0.25703400  0.99008300  1
  Cu  Cu27  1  0.06055500  0.24296600  0.00991700  1
  Cu  Cu28  1  0.18496300  0.78199900  0.04706900  1
  Cu  Cu29  1  0.68496300  0.71800100  0.95293100  1
  Cu  Cu30  1  0.81503700  0.21800100  0.95293100  1
  Cu  Cu31  1  0.31503700  0.28199900  0.04706900  1
  Cu  Cu32  1  0.79959400  0.71810200  0.50272900  1
  Cu  Cu33  1  0.70040600  0.21810200  0.50272900  1
  Cu  Cu34  1  0.20040600  0.28189800  0.49727100  1
  Cu  Cu35  1  0.29959400  0.78189800  0.49727100  1
