# generated using pymatgen
data_Cu8NiC3
_symmetry_space_group_name_H-M   'P 1'
_cell_length_a   6.36932500
_cell_length_b   5.17550000
_cell_length_c   11.44924644
_cell_angle_alpha   83.15480724
_cell_angle_beta   90.00000000
_cell_angle_gamma   90.00000000
_symmetry_Int_Tables_number   1
_chemical_formula_structural   Cu8NiC3
_chemical_formula_sum   'Cu16 Ni2 C6'
_cell_volume   374.72770641
_cell_formula_units_Z   2
loop_
 _symmetry_equiv_pos_site_id
 _symmetry_equiv_pos_as_xyz
  1  'x, y, z'
loop_
 _atom_site_type_symbol
 _atom_site_label
 _atom_site_symmetry_multiplicity
 _atom_site_fract_x
 _atom_site_fract_y
 _atom_site_fract_z
 _atom_site_occupancy
  C  C0  1  0.75000000  0.22788100  0.13615600  1
  C  C1  1  0.25000000  0.77211900  0.86384400  1
  C  C2  1  0.75000000  0.78830000  0.94236300  1
  C  C3  1  0.25000000  0.21170000  0.05763700  1
  C  C4  1  0.75000000  0.66274600  0.33412500  1
  C  C5  1  0.25000000  0.33725400  0.66587500  1
  Ni  Ni6  1  0.25000000  0.07996100  0.37841500  1
  Ni  Ni7  1  0.75000000  0.92003900  0.62158500  1
  Cu  Cu8  1  0.75000000  0.04515700  0.99785900  1
  Cu  Cu9  1  0.25000000  0.95484300  0.00214100  1
  Cu  Cu10  1  0.55480100  0.77679800  0.86350900  1
  Cu  Cu11  1  0.05480100  0.22320200  0.13649100  1
  Cu  Cu12  1  0.44519900  0.22320200  0.13649100  1
  Cu  Cu13  1  0.94519900  0.77679800  0.86350900  1
  Cu  Cu14  1  0.75000000  0.55606900  0.04036700  1
  Cu  Cu15  1  0.25000000  0.44393100  0.95963300  1
  Cu  Cu16  1  0.75000000  0.88967500  0.23510700  1
  Cu  Cu17  1  0.25000000  0.11032500  0.76489300  1
  Cu  Cu18  1  0.75000000  0.40044300  0.28464400  1
  Cu  Cu19  1  0.25000000  0.59955700  0.71535600  1
  Cu  Cu20  1  0.56342000  0.68954700  0.41939400  1
  Cu  Cu21  1  0.06342000  0.31045300  0.58060600  1
  Cu  Cu22  1  0.43658000  0.31045300  0.58060600  1
  Cu  Cu23  1  0.93658000  0.68954700  0.41939400  1
