# generated using pymatgen
data_CuNi4C5
_symmetry_space_group_name_H-M   'P 1'
_cell_length_a   9.33195300
_cell_length_b   9.33195300
_cell_length_c   3.02948800
_cell_angle_alpha   90.00000000
_cell_angle_beta   90.00000000
_cell_angle_gamma   90.00000000
_symmetry_Int_Tables_number   1
_chemical_formula_structural   CuNi4C5
_chemical_formula_sum   'Cu2 Ni8 C10'
_cell_volume   263.82401309
_cell_formula_units_Z   2
loop_
 _symmetry_equiv_pos_site_id
 _symmetry_equiv_pos_as_xyz
  1  'x, y, z'
loop_
 _atom_site_type_symbol
 _atom_site_label
 _atom_site_symmetry_multiplicity
 _atom_site_fract_x
 _atom_site_fract_y
 _atom_site_fract_z
 _atom_site_occupancy
  C  C0  1  0.67608400  0.17608400  0.00000000  1
  C  C1  1  0.32391600  0.82391600  0.00000000  1
  C  C2  1  0.17608400  0.32391600  0.00000000  1
  C  C3  1  0.82391600  0.67608400  0.00000000  1
  C  C4  1  0.50000000  0.50000000  0.00000000  1
  C  C5  1  0.00000000  0.00000000  0.00000000  1
  C  C6  1  0.12705600  0.62705600  0.00000000  1
  C  C7  1  0.87294400  0.37294400  0.00000000  1
  C  C8  1  0.62705600  0.87294400  0.00000000  1
  C  C9  1  0.37294400  0.12705600  0.00000000  1
  Ni  Ni10  1  0.57051300  0.71374400  0.50000000  1
  Ni  Ni11  1  0.42948700  0.28625600  0.50000000  1
  Ni  Ni12  1  0.07051300  0.78625600  0.50000000  1
  Ni  Ni13  1  0.92948700  0.21374400  0.50000000  1
  Ni  Ni14  1  0.28625600  0.57051300  0.50000000  1
  Ni  Ni15  1  0.71374400  0.42948700  0.50000000  1
  Ni  Ni16  1  0.21374400  0.07051300  0.50000000  1
  Ni  Ni17  1  0.78625600  0.92948700  0.50000000  1
  Cu  Cu18  1  0.50000000  0.00000000  0.50000000  1
  Cu  Cu19  1  0.00000000  0.50000000  0.50000000  1
