# generated using pymatgen
data_Cu17Ni3C2
_symmetry_space_group_name_H-M   'P 1'
_cell_length_a   9.47133286
_cell_length_b   9.47133286
_cell_length_c   10.18954888
_cell_angle_alpha   63.70142619
_cell_angle_beta   63.70142619
_cell_angle_gamma   65.08668949
_symmetry_Int_Tables_number   1
_chemical_formula_structural   Cu17Ni3C2
_chemical_formula_sum   'Cu34 Ni6 C4'
_cell_volume   705.27792856
_cell_formula_units_Z   2
loop_
 _symmetry_equiv_pos_site_id
 _symmetry_equiv_pos_as_xyz
  1  'x, y, z'
loop_
 _atom_site_type_symbol
 _atom_site_label
 _atom_site_symmetry_multiplicity
 _atom_site_fract_x
 _atom_site_fract_y
 _atom_site_fract_z
 _atom_site_occupancy
  C  C0  1  0.51336800  0.25564000  0.07424400  1
  C  C1  1  0.74804500  0.48349400  0.42280000  1
  C  C2  1  0.48349400  0.74804500  0.92280000  1
  C  C3  1  0.25564000  0.51336800  0.57424400  1
  Ni  Ni4  1  0.62449000  0.37815500  0.24656200  1
  Ni  Ni5  1  0.37815500  0.62449000  0.74656200  1
  Ni  Ni6  1  0.43446600  0.84987400  0.26162500  1
  Ni  Ni7  1  0.14919500  0.56669100  0.23661900  1
  Ni  Ni8  1  0.56669100  0.14919500  0.73661900  1
  Ni  Ni9  1  0.84987400  0.43446600  0.76162500  1
  Cu  Cu10  1  0.02178600  0.11410100  0.42943200  1
  Cu  Cu11  1  0.88227600  0.96649200  0.00344300  1
  Cu  Cu12  1  0.96649200  0.88227600  0.50344300  1
  Cu  Cu13  1  0.11410100  0.02178600  0.92943200  1
  Cu  Cu14  1  0.72913900  0.75547200  0.41800400  1
  Cu  Cu15  1  0.24509000  0.26397200  0.07986700  1
  Cu  Cu16  1  0.26397200  0.24509000  0.57986700  1
  Cu  Cu17  1  0.75547200  0.72913900  0.91800400  1
  Cu  Cu18  1  0.41688400  0.85413900  0.12240800  1
  Cu  Cu19  1  0.14769300  0.57921200  0.37703100  1
  Cu  Cu20  1  0.57921200  0.14769300  0.87703100  1
  Cu  Cu21  1  0.85413900  0.41688400  0.62240800  1
  Cu  Cu22  1  0.60451400  0.74496300  0.26884800  1
  Cu  Cu23  1  0.25301800  0.39752800  0.22627000  1
  Cu  Cu24  1  0.39752800  0.25301800  0.72627000  1
  Cu  Cu25  1  0.74496300  0.60451400  0.76884800  1
  Cu  Cu26  1  0.55655400  0.48782800  0.11427600  1
  Cu  Cu27  1  0.51581000  0.43752100  0.38421900  1
  Cu  Cu28  1  0.43752100  0.51581000  0.88421900  1
  Cu  Cu29  1  0.48782800  0.55655400  0.61427600  1
  Cu  Cu30  1  0.62074200  0.21219900  0.27622000  1
  Cu  Cu31  1  0.78794100  0.38968900  0.21295600  1
  Cu  Cu32  1  0.38968900  0.78794100  0.71295600  1
  Cu  Cu33  1  0.21219900  0.62074200  0.77622000  1
  Cu  Cu34  1  0.30903800  0.78308100  0.40142500  1
  Cu  Cu35  1  0.21467200  0.69395100  0.09828300  1
  Cu  Cu36  1  0.69395100  0.21467200  0.59828300  1
  Cu  Cu37  1  0.78308100  0.30903800  0.90142500  1
  Cu  Cu38  1  0.41773500  0.01869300  0.24863700  1
  Cu  Cu39  1  0.97988300  0.58525800  0.24994100  1
  Cu  Cu40  1  0.58525800  0.97988300  0.74994100  1
  Cu  Cu41  1  0.01869300  0.41773500  0.74863700  1
  Cu  Cu42  1  0.96712700  0.02597700  0.40668800  1
  Cu  Cu43  1  0.02597700  0.96712700  0.90668800  1
