# generated using pymatgen
data_Cu12(Ni2C5)5
_symmetry_space_group_name_H-M   'P 1'
_cell_length_a   6.66546964
_cell_length_b   7.91123551
_cell_length_c   18.18416800
_cell_angle_alpha   90.00000000
_cell_angle_beta   90.00000000
_cell_angle_gamma   98.37943798
_symmetry_Int_Tables_number   1
_chemical_formula_structural   Cu12(Ni2C5)5
_chemical_formula_sum   'Cu24 Ni20 C50'
_cell_volume   948.65292997
_cell_formula_units_Z   2
loop_
 _symmetry_equiv_pos_site_id
 _symmetry_equiv_pos_as_xyz
  1  'x, y, z'
loop_
 _atom_site_type_symbol
 _atom_site_label
 _atom_site_symmetry_multiplicity
 _atom_site_fract_x
 _atom_site_fract_y
 _atom_site_fract_z
 _atom_site_occupancy
  C  C0  1  0.00000000  0.00000000  0.00000000  1
  C  C1  1  0.50000000  0.50000000  0.50000000  1
  C  C2  1  0.04960400  0.70017900  0.05810100  1
  C  C3  1  0.95039600  0.29982100  0.94189900  1
  C  C4  1  0.45039600  0.79982100  0.55810100  1
  C  C5  1  0.54960400  0.20017900  0.44189900  1
  C  C6  1  0.07180000  0.92877500  0.83833100  1
  C  C7  1  0.92820000  0.07122500  0.16166900  1
  C  C8  1  0.42820000  0.57122500  0.33833100  1
  C  C9  1  0.57180000  0.42877500  0.66166900  1
  C  C10  1  0.27674800  0.95741000  0.77407700  1
  C  C11  1  0.72325200  0.04259000  0.22592300  1
  C  C12  1  0.22325200  0.54259000  0.27407700  1
  C  C13  1  0.77674800  0.45741000  0.72592300  1
  C  C14  1  0.98184100  0.83240700  0.31219100  1
  C  C15  1  0.01815900  0.16759300  0.68780900  1
  C  C16  1  0.51815900  0.66759300  0.81219100  1
  C  C17  1  0.48184100  0.33240700  0.18780900  1
  C  C18  1  0.79271000  0.66758300  0.28642700  1
  C  C19  1  0.20729000  0.33241700  0.71357300  1
  C  C20  1  0.70729000  0.83241700  0.78642700  1
  C  C21  1  0.29271000  0.16758300  0.21357300  1
  C  C22  1  0.39446400  0.80430500  0.09967700  1
  C  C23  1  0.60553600  0.19569500  0.90032300  1
  C  C24  1  0.10553600  0.69569500  0.59967700  1
  C  C25  1  0.89446400  0.30430500  0.40032300  1
  C  C26  1  0.85767200  0.77615700  0.49958500  1
  C  C27  1  0.14232800  0.22384200  0.50041500  1
  C  C28  1  0.64232800  0.72384300  0.99958500  1
  C  C29  1  0.35767200  0.27615800  0.00041500  1
  C  C30  1  0.42094800  0.87151100  0.19023200  1
  C  C31  1  0.57905200  0.12848900  0.80976800  1
  C  C32  1  0.07905200  0.62848900  0.69023200  1
  C  C33  1  0.92094800  0.37151100  0.30976800  1
  C  C34  1  0.02457100  0.89245600  0.43592400  1
  C  C35  1  0.97542900  0.10754400  0.56407600  1
  C  C36  1  0.47542900  0.60754400  0.93592400  1
  C  C37  1  0.52457100  0.39245600  0.06407600  1
  C  C38  1  0.36618600  0.79256100  0.47819600  1
  C  C39  1  0.63381400  0.20743900  0.52180400  1
  C  C40  1  0.13381400  0.70743900  0.97819600  1
  C  C41  1  0.86618600  0.29256100  0.02180400  1
  C  C42  1  0.67579100  0.92383700  0.12507200  1
  C  C43  1  0.32420900  0.07616300  0.87492800  1
  C  C44  1  0.82420900  0.57616300  0.62507200  1
  C  C45  1  0.17579100  0.42383700  0.37492800  1
  C  C46  1  0.78683700  0.72901200  0.39375500  1
  C  C47  1  0.21316300  0.27098800  0.60624500  1
  C  C48  1  0.71316300  0.77098800  0.89375500  1
  C  C49  1  0.28683700  0.22901200  0.10624500  1
  Ni  Ni50  1  0.84501500  0.76076400  0.32320900  1
  Ni  Ni51  1  0.15498500  0.23923600  0.67679100  1
  Ni  Ni52  1  0.65498500  0.73923600  0.82320900  1
  Ni  Ni53  1  0.34501500  0.26076400  0.17679100  1
  Ni  Ni54  1  0.88689600  0.82320000  0.44744100  1
  Ni  Ni55  1  0.11310400  0.17680000  0.55255900  1
  Ni  Ni56  1  0.61310400  0.67680000  0.94744100  1
  Ni  Ni57  1  0.38689600  0.32320000  0.05255900  1
  Ni  Ni58  1  0.48851300  0.84248600  0.14250700  1
  Ni  Ni59  1  0.51148700  0.15751400  0.85749300  1
  Ni  Ni60  1  0.01148700  0.65751400  0.64250700  1
  Ni  Ni61  1  0.98851300  0.34248600  0.35749300  1
  Ni  Ni62  1  0.21687100  0.97989100  0.82377600  1
  Ni  Ni63  1  0.78312900  0.02010900  0.17622400  1
  Ni  Ni64  1  0.28312900  0.52010900  0.32377600  1
  Ni  Ni65  1  0.71687100  0.47989100  0.67622400  1
  Ni  Ni66  1  0.87931200  0.51561000  0.15872100  1
  Ni  Ni67  1  0.12068800  0.48439000  0.84127900  1
  Ni  Ni68  1  0.62068800  0.98439000  0.65872100  1
  Ni  Ni69  1  0.37931200  0.01561000  0.34127900  1
  Cu  Cu70  1  0.32244200  0.98872600  0.40794100  1
  Cu  Cu71  1  0.67755800  0.01127400  0.59205900  1
  Cu  Cu72  1  0.17755800  0.51127400  0.90794100  1
  Cu  Cu73  1  0.82244200  0.48872600  0.09205900  1
  Cu  Cu74  1  0.26528400  0.95268500  0.28889000  1
  Cu  Cu75  1  0.73471600  0.04731500  0.71111000  1
  Cu  Cu76  1  0.23471600  0.54731500  0.78889000  1
  Cu  Cu77  1  0.76528400  0.45268500  0.21111000  1
  Cu  Cu78  1  0.04723300  0.60624000  0.17205700  1
  Cu  Cu79  1  0.95276700  0.39376000  0.82794300  1
  Cu  Cu80  1  0.45276700  0.89376000  0.67205700  1
  Cu  Cu81  1  0.54723300  0.10624000  0.32794300  1
  Cu  Cu82  1  0.75274400  0.59813900  0.56116200  1
  Cu  Cu83  1  0.24725600  0.40186100  0.43883800  1
  Cu  Cu84  1  0.74725600  0.90186100  0.06116200  1
  Cu  Cu85  1  0.25274400  0.09813900  0.93883800  1
  Cu  Cu86  1  0.63327500  0.61594500  0.40661200  1
  Cu  Cu87  1  0.36672500  0.38405500  0.59338800  1
  Cu  Cu88  1  0.86672500  0.88405500  0.90661200  1
  Cu  Cu89  1  0.13327500  0.11594500  0.09338800  1
  Cu  Cu90  1  0.13338000  0.77575000  0.02329300  1
  Cu  Cu91  1  0.86662000  0.22425000  0.97670700  1
  Cu  Cu92  1  0.36662000  0.72425000  0.52329300  1
  Cu  Cu93  1  0.63338000  0.27575000  0.47670700  1
