# generated using pymatgen
data_Cu8NiC5
_symmetry_space_group_name_H-M   'P 1'
_cell_length_a   10.39602173
_cell_length_b   10.39602173
_cell_length_c   9.55590042
_cell_angle_alpha   75.93722761
_cell_angle_beta   75.93722761
_cell_angle_gamma   22.12882734
_symmetry_Int_Tables_number   1
_chemical_formula_structural   Cu8NiC5
_chemical_formula_sum   'Cu8 Ni1 C5'
_cell_volume   376.92424906
_cell_formula_units_Z   1
loop_
 _symmetry_equiv_pos_site_id
 _symmetry_equiv_pos_as_xyz
  1  'x, y, z'
loop_
 _atom_site_type_symbol
 _atom_site_label
 _atom_site_symmetry_multiplicity
 _atom_site_fract_x
 _atom_site_fract_y
 _atom_site_fract_z
 _atom_site_occupancy
  Ni  Ni0  1  0.98212400  0.98212400  0.99926200  1
  C  C1  1  0.79510400  0.79510400  0.83092600  1
  C  C2  1  0.20428000  0.20428000  0.16805100  1
  C  C3  1  0.15649400  0.15649400  0.51755700  1
  C  C4  1  0.84289200  0.84289200  0.48305500  1
  C  C5  1  0.50048000  0.50048000  0.49965700  1
  Cu  Cu6  1  0.58578200  0.58578200  0.67808300  1
  Cu  Cu7  1  0.41432200  0.41432200  0.32298000  1
  Cu  Cu8  1  0.66968100  0.66968100  0.00682600  1
  Cu  Cu9  1  0.33060800  0.33060800  0.99265400  1
  Cu  Cu10  1  0.26036000  0.26036000  0.65741800  1
  Cu  Cu11  1  0.73911700  0.73911700  0.34361500  1
  Cu  Cu12  1  0.92824900  0.92824900  0.66587000  1
  Cu  Cu13  1  0.07246700  0.07246700  0.33354800  1
