# generated using pymatgen
data_Cu7NiC4
_symmetry_space_group_name_H-M   'P 1'
_cell_length_a   10.79232781
_cell_length_b   10.79232781
_cell_length_c   6.06507100
_cell_angle_alpha   90.00000000
_cell_angle_beta   90.00000000
_cell_angle_gamma   119.99999886
_symmetry_Int_Tables_number   1
_chemical_formula_structural   Cu7NiC4
_chemical_formula_sum   'Cu14 Ni2 C8'
_cell_volume   611.78212387
_cell_formula_units_Z   2
loop_
 _symmetry_equiv_pos_site_id
 _symmetry_equiv_pos_as_xyz
  1  'x, y, z'
loop_
 _atom_site_type_symbol
 _atom_site_label
 _atom_site_symmetry_multiplicity
 _atom_site_fract_x
 _atom_site_fract_y
 _atom_site_fract_z
 _atom_site_occupancy
  C  C0  1  0.12555800  0.35690000  0.74007600  1
  C  C1  1  0.76865800  0.12555800  0.24007600  1
  C  C2  1  0.35690000  0.23134200  0.24007600  1
  C  C3  1  0.64310000  0.76865800  0.74007600  1
  C  C4  1  0.23134200  0.87444200  0.74007600  1
  C  C5  1  0.87444200  0.64310000  0.24007600  1
  Ni  Ni6  1  0.33333300  0.66666700  0.33095100  1
  Ni  Ni7  1  0.66666700  0.33333300  0.83095100  1
  C  C8  1  0.00000000  0.00000000  0.18499500  1
  C  C9  1  0.00000000  0.00000000  0.68499500  1
  Cu  Cu10  1  0.52234900  0.10859300  0.98008600  1
  Cu  Cu11  1  0.47765100  0.89140700  0.48008600  1
  Cu  Cu12  1  0.10859300  0.58624500  0.48008600  1
  Cu  Cu13  1  0.58624500  0.47765100  0.98008600  1
  Cu  Cu14  1  0.09396900  0.26956900  0.22671400  1
  Cu  Cu15  1  0.82440000  0.09396900  0.72671400  1
  Cu  Cu16  1  0.41375500  0.52234900  0.48008600  1
  Cu  Cu17  1  0.89140700  0.41375500  0.98008600  1
  Cu  Cu18  1  0.33333300  0.66666700  0.95613700  1
  Cu  Cu19  1  0.66666700  0.33333300  0.45613700  1
  Cu  Cu20  1  0.90603100  0.73043100  0.72671400  1
  Cu  Cu21  1  0.17560000  0.90603100  0.22671400  1
  Cu  Cu22  1  0.73043100  0.82440000  0.22671400  1
  Cu  Cu23  1  0.26956900  0.17560000  0.72671400  1
