# generated using pymatgen
data_CuNi7C12
_symmetry_space_group_name_H-M   'P 1'
_cell_length_a   9.01814570
_cell_length_b   10.50223660
_cell_length_c   10.30247234
_cell_angle_alpha   85.35470236
_cell_angle_beta   98.78912508
_cell_angle_gamma   88.06582104
_symmetry_Int_Tables_number   1
_chemical_formula_structural   CuNi7C12
_chemical_formula_sum   'Cu4 Ni28 C48'
_cell_volume   960.07452801
_cell_formula_units_Z   4
loop_
 _symmetry_equiv_pos_site_id
 _symmetry_equiv_pos_as_xyz
  1  'x, y, z'
loop_
 _atom_site_type_symbol
 _atom_site_label
 _atom_site_symmetry_multiplicity
 _atom_site_fract_x
 _atom_site_fract_y
 _atom_site_fract_z
 _atom_site_occupancy
  Ni  Ni0  1  0.18101000  0.22668800  0.10149500  1
  Ni  Ni1  1  0.87308600  0.75496400  0.90982500  1
  Ni  Ni2  1  0.22533300  0.02494700  0.30440900  1
  Ni  Ni3  1  0.63697100  0.04581900  0.12116300  1
  Ni  Ni4  1  0.73750200  0.51857000  0.09096300  1
  Ni  Ni5  1  0.34715200  0.36849300  0.33093600  1
  Ni  Ni6  1  0.11749200  0.54646300  0.26755800  1
  Ni  Ni7  1  0.38920000  0.36380500  0.85423400  1
  Ni  Ni8  1  0.11550100  0.16643000  0.83026800  1
  Ni  Ni9  1  0.78557800  0.12196200  0.59491600  1
  Ni  Ni10  1  0.95304400  0.28431500  0.35457100  1
  Ni  Ni11  1  0.55336900  0.81409400  0.95532000  1
  Ni  Ni12  1  0.11255400  0.44286000  0.56629600  1
  Ni  Ni13  1  0.44921400  0.66221300  0.25952900  1
  Ni  Ni14  1  0.36696200  0.91993700  0.63141500  1
  Ni  Ni15  1  0.89280500  0.95346100  0.41952100  1
  Ni  Ni16  1  0.07200500  0.92944600  0.73164300  1
  Ni  Ni17  1  0.69866000  0.45903400  0.40354500  1
  Ni  Ni18  1  0.62816400  0.79807400  0.47775700  1
  Ni  Ni19  1  0.70128200  0.55242400  0.77898600  1
  Ni  Ni20  1  0.53983200  0.34398200  0.63183600  1
  Ni  Ni21  1  0.23845900  0.74854600  0.41915300  1
  Ni  Ni22  1  0.66253200  0.03818400  0.84467500  1
  Ni  Ni23  1  0.94334600  0.68933500  0.57572900  1
  Ni  Ni24  1  0.95866800  0.02228600  0.11901500  1
  Ni  Ni25  1  0.35335700  0.49589700  0.07466400  1
  Ni  Ni26  1  0.03065900  0.42582600  0.84862500  1
  Ni  Ni27  1  0.20076600  0.82364400  0.07229900  1
  Cu  Cu28  1  0.22326800  0.67180100  0.82113700  1
  Cu  Cu29  1  0.51361500  0.11460300  0.39782200  1
  Cu  Cu30  1  0.71290000  0.30618800  0.97444500  1
  Cu  Cu31  1  0.82439000  0.76615000  0.21502500  1
  C  C32  1  0.91666700  0.06179500  0.75889600  1
  C  C33  1  0.09278900  0.90212700  0.37306700  1
  C  C34  1  0.21528400  0.04219500  0.73174800  1
  C  C35  1  0.52829200  0.30400300  0.45278500  1
  C  C36  1  0.14050200  0.37754200  0.39199800  1
  C  C37  1  0.51564900  0.00711900  0.97060600  1
  C  C38  1  0.06902700  0.81513200  0.88061000  1
  C  C39  1  0.77194000  0.12157500  0.01096600  1
  C  C40  1  0.91632100  0.13242300  0.46337300  1
  C  C41  1  0.66943700  0.46874600  0.60454800  1
  C  C42  1  0.81481600  0.69597700  0.72873900  1
  C  C43  1  0.94649600  0.87271700  0.59823800  1
  C  C44  1  0.06184000  0.56459000  0.70186300  1
  C  C45  1  0.16640100  0.02702100  0.08871500  1
  C  C46  1  0.89942700  0.40555600  0.48707800  1
  C  C47  1  0.23886700  0.48420600  0.89854900  1
  C  C48  1  0.98353400  0.83255500  0.10469700  1
  C  C49  1  0.68820300  0.99299500  0.48559900  1
  C  C50  1  0.51840500  0.39530600  0.02381000  1
  C  C51  1  0.84248700  0.46717300  0.93049900  1
  C  C52  1  0.80663400  0.96396500  0.22579300  1
  C  C53  1  0.53902900  0.90912300  0.75061800  1
  C  C54  1  0.32505100  0.83867500  0.26447600  1
  C  C55  1  0.78759200  0.38816600  0.24222000  1
  C  C56  1  0.29060800  0.22671600  0.93888200  1
  C  C57  1  0.75122400  0.88857000  0.94926800  1
  C  C58  1  0.62611400  0.17942000  0.69664000  1
  C  C59  1  0.61216600  0.74908500  0.14861100  1
  C  C60  1  0.03777300  0.16407300  0.23253600  1
  C  C61  1  0.08244900  0.62584400  0.45638200  1
  C  C62  1  0.58511300  0.39536200  0.80884900  1
  C  C63  1  0.32551600  0.19338800  0.26707000  1
  C  C64  1  0.90728200  0.60340800  0.17714800  1
  C  C65  1  0.22205400  0.81517300  0.67460500  1
  C  C66  1  0.42537400  0.78540900  0.53348600  1
  C  C67  1  0.67524500  0.65375200  0.93139500  1
  C  C68  1  0.07074500  0.31778100  0.71446200  1
  C  C69  1  0.34233300  0.38543400  0.65100100  1
  C  C70  1  0.61674400  0.63238600  0.39842100  1
  C  C71  1  0.58270700  0.14801700  0.22130500  1
  C  C72  1  0.22932300  0.64306200  0.13225900  1
  C  C73  1  0.34434300  0.03686700  0.48565100  1
  C  C74  1  0.49837000  0.48246500  0.23810900  1
  C  C75  1  0.31827200  0.57162700  0.37264800  1
  C  C76  1  0.82848900  0.77615100  0.40646900  1
  C  C77  1  0.20303300  0.40895000  0.15923200  1
  C  C78  1  0.01564800  0.26322100  0.95253300  1
  C  C79  1  0.35554900  0.75689600  0.95999700  1
