# generated using pymatgen
data_Cu33NiC4
_symmetry_space_group_name_H-M   'P 1'
_cell_length_a   6.46962370
_cell_length_b   6.46962370
_cell_length_c   13.02040218
_cell_angle_alpha   83.06525512
_cell_angle_beta   83.06525512
_cell_angle_gamma   82.86948950
_symmetry_Int_Tables_number   1
_chemical_formula_structural   Cu33NiC4
_chemical_formula_sum   'Cu33 Ni1 C4'
_cell_volume   533.70863426
_cell_formula_units_Z   1
loop_
 _symmetry_equiv_pos_site_id
 _symmetry_equiv_pos_as_xyz
  1  'x, y, z'
loop_
 _atom_site_type_symbol
 _atom_site_label
 _atom_site_symmetry_multiplicity
 _atom_site_fract_x
 _atom_site_fract_y
 _atom_site_fract_z
 _atom_site_occupancy
  C  C0  1  0.65079700  0.65079700  0.32107500  1
  C  C1  1  0.65844200  0.65844200  0.83061000  1
  C  C2  1  0.34140200  0.34140200  0.16778700  1
  C  C3  1  0.34101800  0.34101800  0.67504500  1
  Ni  Ni4  1  0.90614400  0.90614400  0.45191500  1
  Cu  Cu5  1  0.84559400  0.34282500  0.16802600  1
  Cu  Cu6  1  0.84527300  0.33892600  0.67255800  1
  Cu  Cu7  1  0.33978800  0.33978800  0.42103900  1
  Cu  Cu8  1  0.34183200  0.34183200  0.92198400  1
  Cu  Cu9  1  0.34282500  0.84559400  0.16802600  1
  Cu  Cu10  1  0.33892600  0.84527300  0.67255800  1
  Cu  Cu11  1  0.16436700  0.65324000  0.32564100  1
  Cu  Cu12  1  0.15466700  0.65790100  0.83063300  1
  Cu  Cu13  1  0.65883100  0.65883100  0.07683600  1
  Cu  Cu14  1  0.65556700  0.65556700  0.58399500  1
  Cu  Cu15  1  0.65324000  0.16436700  0.32564100  1
  Cu  Cu16  1  0.65790100  0.15466700  0.83063300  1
  Cu  Cu17  1  0.00531600  0.00531600  0.24432200  1
  Cu  Cu18  1  0.99720600  0.99720600  0.75198200  1
  Cu  Cu19  1  0.00356200  0.48791900  0.50239700  1
  Cu  Cu20  1  0.00059100  0.50018800  0.99957100  1
  Cu  Cu21  1  0.50018800  0.00059100  0.99957100  1
  Cu  Cu22  1  0.48791900  0.00356200  0.50239700  1
  Cu  Cu23  1  0.30842800  0.69287100  0.50089300  1
  Cu  Cu24  1  0.29285100  0.70714300  0.00013500  1
  Cu  Cu25  1  0.70987400  0.00172900  0.14398300  1
  Cu  Cu26  1  0.70215900  0.00259300  0.64885500  1
  Cu  Cu27  1  0.99907900  0.30202100  0.35056000  1
  Cu  Cu28  1  0.99718000  0.28976200  0.85630500  1
  Cu  Cu29  1  0.30202100  0.99907900  0.35056000  1
  Cu  Cu30  1  0.28976200  0.99718000  0.85630500  1
  Cu  Cu31  1  0.00172900  0.70987400  0.14398300  1
  Cu  Cu32  1  0.00259300  0.70215900  0.64885500  1
  Cu  Cu33  1  0.70714300  0.29285100  0.00013500  1
  Cu  Cu34  1  0.69287100  0.30842800  0.50089300  1
  Cu  Cu35  1  0.90389600  0.90389600  0.95093700  1
  Cu  Cu36  1  0.09687900  0.09687900  0.04636400  1
  Cu  Cu37  1  0.10214000  0.10214000  0.55699300  1
