# generated using pymatgen
data_Cu2NiC7
_symmetry_space_group_name_H-M   'P 1'
_cell_length_a   5.24408543
_cell_length_b   6.65101506
_cell_length_c   6.64890228
_cell_angle_alpha   85.80583201
_cell_angle_beta   82.23040435
_cell_angle_gamma   82.17657065
_symmetry_Int_Tables_number   1
_chemical_formula_structural   Cu2NiC7
_chemical_formula_sum   'Cu4 Ni2 C14'
_cell_volume   227.28189086
_cell_formula_units_Z   2
loop_
 _symmetry_equiv_pos_site_id
 _symmetry_equiv_pos_as_xyz
  1  'x, y, z'
loop_
 _atom_site_type_symbol
 _atom_site_label
 _atom_site_symmetry_multiplicity
 _atom_site_fract_x
 _atom_site_fract_y
 _atom_site_fract_z
 _atom_site_occupancy
  C  C0  1  0.74981500  0.26827400  0.73172400  1
  C  C1  1  0.24987600  0.73180200  0.26836500  1
  Ni  Ni2  1  0.74983100  0.90582700  0.09415000  1
  Ni  Ni3  1  0.24986900  0.09372800  0.90532200  1
  Cu  Cu4  1  0.78963300  0.39517100  0.20621000  1
  Cu  Cu5  1  0.71036400  0.79359400  0.60481900  1
  Cu  Cu6  1  0.21054800  0.60477000  0.79383200  1
  Cu  Cu7  1  0.28979700  0.20643800  0.39514400  1
  C  C8  1  0.59809600  0.29067800  0.43099300  1
  C  C9  1  0.90213100  0.56888300  0.70946700  1
  C  C10  1  0.40192500  0.70943100  0.56900700  1
  C  C11  1  0.09791200  0.43110000  0.29071100  1
  C  C12  1  0.11636400  0.14164500  0.62579400  1
  C  C13  1  0.38447900  0.37438800  0.85840700  1
  C  C14  1  0.88397600  0.85838600  0.37441300  1
  C  C15  1  0.61594400  0.62579200  0.14163900  1
  C  C16  1  0.86490200  0.20854400  0.02463400  1
  C  C17  1  0.63506100  0.97580700  0.79089400  1
  C  C18  1  0.13481500  0.79123300  0.97562900  1
  C  C19  1  0.36466000  0.02450800  0.20884400  1
