# generated using pymatgen
data_Cu10Ni4C5
_symmetry_space_group_name_H-M   'P 1'
_cell_length_a   3.44826400
_cell_length_b   16.58740800
_cell_length_c   22.20053400
_cell_angle_alpha   90.00000000
_cell_angle_beta   90.00000000
_cell_angle_gamma   90.00000000
_symmetry_Int_Tables_number   1
_chemical_formula_structural   Cu10Ni4C5
_chemical_formula_sum   'Cu20 Ni8 C10'
_cell_volume   1269.82085689
_cell_formula_units_Z   2
loop_
 _symmetry_equiv_pos_site_id
 _symmetry_equiv_pos_as_xyz
  1  'x, y, z'
loop_
 _atom_site_type_symbol
 _atom_site_label
 _atom_site_symmetry_multiplicity
 _atom_site_fract_x
 _atom_site_fract_y
 _atom_site_fract_z
 _atom_site_occupancy
  C  C0  1  0.50000000  0.98956700  0.60321700  1
  C  C1  1  0.50000000  0.01043300  0.39678300  1
  C  C2  1  0.50000000  0.98956700  0.89678300  1
  C  C3  1  0.50000000  0.01043300  0.10321700  1
  C  C4  1  0.50000000  0.50000000  0.50000000  1
  C  C5  1  0.50000000  0.50000000  0.00000000  1
  Ni  Ni6  1  0.00000000  0.28272200  0.47888200  1
  Ni  Ni7  1  0.00000000  0.71727800  0.52111800  1
  Ni  Ni8  1  0.00000000  0.28272200  0.02111800  1
  Ni  Ni9  1  0.00000000  0.71727800  0.97888200  1
  Ni  Ni10  1  0.00000000  0.52102900  0.75000000  1
  Ni  Ni11  1  0.00000000  0.47897100  0.25000000  1
  Ni  Ni12  1  0.00000000  0.23062500  0.75000000  1
  Ni  Ni13  1  0.00000000  0.76937500  0.25000000  1
  Cu  Cu14  1  0.50000000  0.12256000  0.63877700  1
  Cu  Cu15  1  0.50000000  0.87744000  0.36122300  1
  Cu  Cu16  1  0.50000000  0.12256000  0.86122300  1
  Cu  Cu17  1  0.50000000  0.87744000  0.13877700  1
  Cu  Cu18  1  0.50000000  0.84807400  0.61115300  1
  Cu  Cu19  1  0.50000000  0.15192600  0.38884700  1
  Cu  Cu20  1  0.50000000  0.84807400  0.88884700  1
  Cu  Cu21  1  0.50000000  0.15192600  0.11115300  1
  Cu  Cu22  1  0.00000000  0.00000000  0.50000000  1
  Cu  Cu23  1  0.00000000  0.00000000  0.00000000  1
  Cu  Cu24  1  0.00000000  0.92178100  0.75000000  1
  Cu  Cu25  1  0.00000000  0.07821900  0.25000000  1
  Cu  Cu26  1  0.50000000  0.43414600  0.59050900  1
  Cu  Cu27  1  0.50000000  0.56585400  0.40949100  1
  Cu  Cu28  1  0.50000000  0.43414600  0.90949100  1
  Cu  Cu29  1  0.50000000  0.56585400  0.09050900  1
  Cu  Cu30  1  0.00000000  0.65985900  0.57950500  1
  Cu  Cu31  1  0.00000000  0.34014100  0.42049500  1
  Cu  Cu32  1  0.00000000  0.65985900  0.92049500  1
  Cu  Cu33  1  0.00000000  0.34014100  0.07950500  1
  C  C34  1  0.50000000  0.52127000  0.75000000  1
  C  C35  1  0.50000000  0.47873000  0.25000000  1
  C  C36  1  0.00000000  0.82817200  0.75000000  1
  C  C37  1  0.00000000  0.17182800  0.25000000  1
