# generated using pymatgen
data_Cu4NiC
_symmetry_space_group_name_H-M   'P 1'
_cell_length_a   12.03791458
_cell_length_b   12.03791458
_cell_length_c   9.65404900
_cell_angle_alpha   90.00000000
_cell_angle_beta   90.00000000
_cell_angle_gamma   120.00000318
_symmetry_Int_Tables_number   1
_chemical_formula_structural   Cu4NiC
_chemical_formula_sum   'Cu72 Ni18 C18'
_cell_volume   1211.55359612
_cell_formula_units_Z   18
loop_
 _symmetry_equiv_pos_site_id
 _symmetry_equiv_pos_as_xyz
  1  'x, y, z'
loop_
 _atom_site_type_symbol
 _atom_site_label
 _atom_site_symmetry_multiplicity
 _atom_site_fract_x
 _atom_site_fract_y
 _atom_site_fract_z
 _atom_site_occupancy
  C  C0  1  0.23082100  0.11797700  0.26119900  1
  C  C1  1  0.88715500  0.76917900  0.26119900  1
  C  C2  1  0.88202300  0.11284500  0.26119900  1
  C  C3  1  0.23082100  0.11797700  0.73880100  1
  C  C4  1  0.88715500  0.76917900  0.73880100  1
  C  C5  1  0.88202300  0.11284500  0.73880100  1
  C  C6  1  0.56313000  0.78660000  0.24278300  1
  C  C7  1  0.22347100  0.43687000  0.24278300  1
  C  C8  1  0.21340000  0.77652900  0.24278300  1
  C  C9  1  0.56313000  0.78660000  0.75721700  1
  C  C10  1  0.22347100  0.43687000  0.75721700  1
  C  C11  1  0.21340000  0.77652900  0.75721700  1
  C  C12  1  0.54414000  0.10174200  0.24279400  1
  C  C13  1  0.55760200  0.45586000  0.24279400  1
  C  C14  1  0.89825800  0.44239800  0.24279400  1
  C  C15  1  0.54414000  0.10174200  0.75720600  1
  C  C16  1  0.55760200  0.45586000  0.75720600  1
  C  C17  1  0.89825800  0.44239800  0.75720600  1
  Ni  Ni18  1  0.50888100  0.65068400  0.50000000  1
  Ni  Ni19  1  0.14180300  0.49111900  0.50000000  1
  Ni  Ni20  1  0.34931600  0.85819700  0.50000000  1
  Ni  Ni21  1  0.11397600  0.20354000  0.50000000  1
  Ni  Ni22  1  0.08956400  0.88602400  0.50000000  1
  Ni  Ni23  1  0.79646000  0.91043600  0.50000000  1
  Ni  Ni24  1  0.46806400  0.16007800  0.50000000  1
  Ni  Ni25  1  0.69201300  0.53193600  0.50000000  1
  Ni  Ni26  1  0.83992200  0.30798700  0.50000000  1
  Ni  Ni27  1  0.42177500  0.87154600  0.00000000  1
  Ni  Ni28  1  0.44977100  0.57822500  0.00000000  1
  Ni  Ni29  1  0.12845400  0.55022900  0.00000000  1
  Ni  Ni30  1  0.77533600  0.23753400  0.00000000  1
  Ni  Ni31  1  0.46219900  0.22466400  0.00000000  1
  Ni  Ni32  1  0.76246600  0.53780100  0.00000000  1
  Ni  Ni33  1  0.18256100  0.20077900  0.00000000  1
  Ni  Ni34  1  0.01821800  0.81743900  0.00000000  1
  Ni  Ni35  1  0.79922100  0.98178200  0.00000000  1
  Cu  Cu36  1  0.51636600  0.76233100  0.50000000  1
  Cu  Cu37  1  0.24596500  0.48363400  0.50000000  1
  Cu  Cu38  1  0.23766900  0.75403500  0.50000000  1
  Cu  Cu39  1  0.50731000  0.59980200  0.38201500  1
  Cu  Cu40  1  0.09249200  0.49269000  0.38201500  1
  Cu  Cu41  1  0.40019800  0.90750800  0.38201500  1
  Cu  Cu42  1  0.50731000  0.59980200  0.61798500  1
  Cu  Cu43  1  0.09249200  0.49269000  0.61798500  1
  Cu  Cu44  1  0.40019800  0.90750800  0.61798500  1
  Cu  Cu45  1  0.17608400  0.14125300  0.50000000  1
  Cu  Cu46  1  0.96516800  0.82391600  0.50000000  1
  Cu  Cu47  1  0.85874700  0.03483200  0.50000000  1
  Cu  Cu48  1  0.14940300  0.91598400  0.38282100  1
  Cu  Cu49  1  0.76658100  0.85059700  0.38282100  1
  Cu  Cu50  1  0.08401600  0.23341900  0.38282100  1
  Cu  Cu51  1  0.14940300  0.91598400  0.61717900  1
  Cu  Cu52  1  0.76658100  0.85059700  0.61717900  1
  Cu  Cu53  1  0.08401600  0.23341900  0.61717900  1
  Cu  Cu54  1  0.57292300  0.15506900  0.50000000  1
  Cu  Cu55  1  0.58214500  0.42707700  0.50000000  1
  Cu  Cu56  1  0.84493100  0.41785500  0.50000000  1
  Cu  Cu57  1  0.41689700  0.15996200  0.38284100  1
  Cu  Cu58  1  0.74306500  0.58310300  0.38284100  1
  Cu  Cu59  1  0.84003800  0.25693500  0.38284100  1
  Cu  Cu60  1  0.41689700  0.15996200  0.61715900  1
  Cu  Cu61  1  0.74306500  0.58310300  0.61715900  1
  Cu  Cu62  1  0.84003800  0.25693500  0.61715900  1
  Cu  Cu63  1  0.50563500  0.70185300  0.00000000  1
  Cu  Cu64  1  0.19621900  0.49436500  0.00000000  1
  Cu  Cu65  1  0.29814700  0.80378100  0.00000000  1
  Cu  Cu66  1  0.48305900  0.90535400  0.11642200  1
  Cu  Cu67  1  0.42229600  0.51694100  0.11642200  1
  Cu  Cu68  1  0.09464600  0.57770400  0.11642200  1
  Cu  Cu69  1  0.48305900  0.90535400  0.88357800  1
  Cu  Cu70  1  0.42229600  0.51694100  0.88357800  1
  Cu  Cu71  1  0.09464600  0.57770400  0.88357800  1
  Cu  Cu72  1  0.51704700  0.15527200  0.00000000  1
  Cu  Cu73  1  0.63822500  0.48295300  0.00000000  1
  Cu  Cu74  1  0.84472800  0.36177500  0.00000000  1
  Cu  Cu75  1  0.74196800  0.17762900  0.11713800  1
  Cu  Cu76  1  0.43566200  0.25803200  0.11713800  1
  Cu  Cu77  1  0.82237100  0.56433800  0.11713800  1
  Cu  Cu78  1  0.74196800  0.17762900  0.88286200  1
  Cu  Cu79  1  0.43566200  0.25803200  0.88286200  1
  Cu  Cu80  1  0.82237100  0.56433800  0.88286200  1
  Cu  Cu81  1  0.18494500  0.09437600  0.00000000  1
  Cu  Cu82  1  0.90943000  0.81505500  0.00000000  1
  Cu  Cu83  1  0.90562400  0.09057000  0.00000000  1
  Cu  Cu84  1  0.18261500  0.25193100  0.11713600  1
  Cu  Cu85  1  0.06931700  0.81738500  0.11713600  1
  Cu  Cu86  1  0.74806900  0.93068300  0.11713600  1
  Cu  Cu87  1  0.18261500  0.25193100  0.88286400  1
  Cu  Cu88  1  0.06931700  0.81738500  0.88286400  1
  Cu  Cu89  1  0.74806900  0.93068300  0.88286400  1
  Cu  Cu90  1  0.00000000  0.00000000  0.24365000  1
  Cu  Cu91  1  0.00000000  0.00000000  0.75635000  1
  Cu  Cu92  1  0.33333300  0.66666700  0.24954300  1
  Cu  Cu93  1  0.33333300  0.66666700  0.75045700  1
  Cu  Cu94  1  0.66666700  0.33333300  0.25595100  1
  Cu  Cu95  1  0.66666700  0.33333300  0.74404900  1
  Cu  Cu96  1  0.67494600  0.67908300  0.19227400  1
  Cu  Cu97  1  0.00413700  0.32505400  0.19227400  1
  Cu  Cu98  1  0.32091700  0.99586300  0.19227400  1
  Cu  Cu99  1  0.67494600  0.67908300  0.80772600  1
  Cu  Cu100  1  0.00413700  0.32505400  0.80772600  1
  Cu  Cu101  1  0.32091700  0.99586300  0.80772600  1
  Cu  Cu102  1  0.65929200  0.00299500  0.30587300  1
  Cu  Cu103  1  0.34370300  0.34070800  0.30587300  1
  Cu  Cu104  1  0.99700500  0.65629700  0.30587300  1
  Cu  Cu105  1  0.65929200  0.00299500  0.69412700  1
  Cu  Cu106  1  0.34370300  0.34070800  0.69412700  1
  Cu  Cu107  1  0.99700500  0.65629700  0.69412700  1
