# generated using pymatgen
data_CuNiC
_symmetry_space_group_name_H-M   'P 1'
_cell_length_a   3.90850400
_cell_length_b   6.59483400
_cell_length_c   7.57696700
_cell_angle_alpha   90.00000000
_cell_angle_beta   90.00000000
_cell_angle_gamma   90.00000000
_symmetry_Int_Tables_number   1
_chemical_formula_structural   CuNiC
_chemical_formula_sum   'Cu4 Ni4 C4'
_cell_volume   195.30340941
_cell_formula_units_Z   4
loop_
 _symmetry_equiv_pos_site_id
 _symmetry_equiv_pos_as_xyz
  1  'x, y, z'
loop_
 _atom_site_type_symbol
 _atom_site_label
 _atom_site_symmetry_multiplicity
 _atom_site_fract_x
 _atom_site_fract_y
 _atom_site_fract_z
 _atom_site_occupancy
  C  C0  1  0.75000000  0.47433100  0.32288500  1
  C  C1  1  0.25000000  0.02566900  0.82288500  1
  C  C2  1  0.75000000  0.97433100  0.17711500  1
  C  C3  1  0.25000000  0.52566900  0.67711500  1
  Ni  Ni4  1  0.25000000  0.26041800  0.12245800  1
  Ni  Ni5  1  0.25000000  0.76041800  0.37754200  1
  Ni  Ni6  1  0.75000000  0.73958200  0.87754200  1
  Ni  Ni7  1  0.75000000  0.23958200  0.62245800  1
  Cu  Cu8  1  0.25000000  0.64571900  0.06552300  1
  Cu  Cu9  1  0.25000000  0.14571900  0.43447700  1
  Cu  Cu10  1  0.75000000  0.85428100  0.56552300  1
  Cu  Cu11  1  0.75000000  0.35428100  0.93447700  1
