# generated using pymatgen
data_Cu2NiC11
_symmetry_space_group_name_H-M   'P 1'
_cell_length_a   5.85477414
_cell_length_b   10.20400791
_cell_length_c   5.96298593
_cell_angle_alpha   106.83090871
_cell_angle_beta   60.59893865
_cell_angle_gamma   90.00015606
_symmetry_Int_Tables_number   1
_chemical_formula_structural   Cu2NiC11
_chemical_formula_sum   'Cu4 Ni2 C22'
_cell_volume   292.71714428
_cell_formula_units_Z   2
loop_
 _symmetry_equiv_pos_site_id
 _symmetry_equiv_pos_as_xyz
  1  'x, y, z'
loop_
 _atom_site_type_symbol
 _atom_site_label
 _atom_site_symmetry_multiplicity
 _atom_site_fract_x
 _atom_site_fract_y
 _atom_site_fract_z
 _atom_site_occupancy
  C  C0  1  0.63323900  0.12596700  0.73351500  1
  C  C1  1  0.13323400  0.62599100  0.73353100  1
  C  C2  1  0.99177800  0.99900500  0.01644200  1
  C  C3  1  0.49175900  0.49903100  0.01647500  1
  Ni  Ni4  1  0.31251100  0.06251300  0.37498300  1
  Ni  Ni5  1  0.81253100  0.56248600  0.37494200  1
  Cu  Cu6  1  0.06251200  0.81250000  0.37499800  1
  Cu  Cu7  1  0.56251700  0.81249400  0.37498700  1
  Cu  Cu8  1  0.56254300  0.31247200  0.37497400  1
  Cu  Cu9  1  0.06237400  0.31254700  0.37517600  1
  C  C10  1  0.06252500  0.31249900  0.87498300  1
  C  C11  1  0.56248900  0.81250600  0.87501500  1
  C  C12  1  0.20556000  0.92864600  0.58888300  1
  C  C13  1  0.70553100  0.42866300  0.58892200  1
  C  C14  1  0.41942800  0.19634700  0.16112600  1
  C  C15  1  0.91945300  0.69634700  0.16108900  1
  C  C16  1  0.42138000  0.70831400  0.15723800  1
  C  C17  1  0.92137400  0.20831200  0.15725300  1
  C  C18  1  0.70363600  0.91668300  0.59273800  1
  C  C19  1  0.20362900  0.41669100  0.59275700  1
  C  C20  1  0.65187000  0.93346900  0.15819700  1
  C  C21  1  0.15184800  0.43348300  0.15823000  1
  C  C22  1  0.18992400  0.93347000  0.15820300  1
  C  C23  1  0.68992100  0.43348100  0.15820900  1
  C  C24  1  0.47314500  0.69152800  0.59178000  1
  C  C25  1  0.97311000  0.19151800  0.59180000  1
  C  C26  1  0.43510100  0.19151400  0.59177300  1
  C  C27  1  0.93507700  0.69152500  0.59178100  1
