# generated using pymatgen
data_Cu5Ni3
_symmetry_space_group_name_H-M   'P 1'
_cell_length_a   8.44927125
_cell_length_b   8.44927125
_cell_length_c   8.44927125
_cell_angle_alpha   60.00000000
_cell_angle_beta   60.00000000
_cell_angle_gamma   60.00000000
_symmetry_Int_Tables_number   1
_chemical_formula_structural   Cu5Ni3
_chemical_formula_sum   'Cu10 Ni6'
_cell_volume   426.52330010
_cell_formula_units_Z   2
loop_
 _symmetry_equiv_pos_site_id
 _symmetry_equiv_pos_as_xyz
  1  'x, y, z'
loop_
 _atom_site_type_symbol
 _atom_site_label
 _atom_site_symmetry_multiplicity
 _atom_site_fract_x
 _atom_site_fract_y
 _atom_site_fract_z
 _atom_site_occupancy
  Ni  Ni0  1  0.12500000  0.12500000  0.12500000  1
  Ni  Ni1  1  0.12500000  0.12500000  0.62500000  1
  Ni  Ni2  1  0.12500000  0.62500000  0.12500000  1
  Ni  Ni3  1  0.62500000  0.12500000  0.12500000  1
  Ni  Ni4  1  0.50000000  0.50000000  0.50000000  1
  Ni  Ni5  1  0.75000000  0.75000000  0.75000000  1
  Cu  Cu6  1  0.87361300  0.37546200  0.37546200  1
  Cu  Cu7  1  0.37546200  0.87361300  0.37546200  1
  Cu  Cu8  1  0.37546200  0.37546200  0.87361300  1
  Cu  Cu9  1  0.37638700  0.87453800  0.87453800  1
  Cu  Cu10  1  0.37546200  0.37546200  0.37546200  1
  Cu  Cu11  1  0.87453800  0.37638700  0.87453800  1
  Cu  Cu12  1  0.87453800  0.87453800  0.87453800  1
  Cu  Cu13  1  0.87453800  0.87453800  0.37638700  1
  Cu  Cu14  1  0.00000000  0.00000000  0.00000000  1
  Cu  Cu15  1  0.25000000  0.25000000  0.25000000  1
