# generated using pymatgen
data_CuNi5C23
_symmetry_space_group_name_H-M   'P 1'
_cell_length_a   8.70747000
_cell_length_b   10.56928292
_cell_length_c   10.70467126
_cell_angle_alpha   70.21608260
_cell_angle_beta   75.18411012
_cell_angle_gamma   77.41212370
_symmetry_Int_Tables_number   1
_chemical_formula_structural   CuNi5C23
_chemical_formula_sum   'Cu2 Ni10 C46'
_cell_volume   886.80303257
_cell_formula_units_Z   2
loop_
 _symmetry_equiv_pos_site_id
 _symmetry_equiv_pos_as_xyz
  1  'x, y, z'
loop_
 _atom_site_type_symbol
 _atom_site_label
 _atom_site_symmetry_multiplicity
 _atom_site_fract_x
 _atom_site_fract_y
 _atom_site_fract_z
 _atom_site_occupancy
  Ni  Ni0  1  0.14303900  0.80951500  0.79610500  1
  Ni  Ni1  1  0.85696100  0.19048500  0.20389500  1
  Ni  Ni2  1  0.80063700  0.76031900  0.78926700  1
  Ni  Ni3  1  0.19936300  0.23968100  0.21073300  1
  Ni  Ni4  1  0.85471000  0.73650800  0.07029600  1
  Ni  Ni5  1  0.14529000  0.26349200  0.92970400  1
  Ni  Ni6  1  0.81382600  0.47913400  0.98407300  1
  Ni  Ni7  1  0.18617400  0.52086600  0.01592700  1
  Ni  Ni8  1  0.90322000  0.44697600  0.27983900  1
  Ni  Ni9  1  0.09678000  0.55302400  0.72016100  1
  Cu  Cu10  1  0.21707600  0.83211900  0.24951600  1
  Cu  Cu11  1  0.78292400  0.16788100  0.75048400  1
  C  C12  1  0.24840700  0.93170700  0.72287000  1
  C  C13  1  0.75159300  0.06829300  0.27713000  1
  C  C14  1  0.19495700  0.70320000  0.68167800  1
  C  C15  1  0.80504300  0.29680000  0.31832200  1
  C  C16  1  0.93808900  0.87343500  0.72944200  1
  C  C17  1  0.06191100  0.12656500  0.27055800  1
  C  C18  1  0.64079600  0.87196000  0.68458100  1
  C  C19  1  0.35920400  0.12804000  0.31541900  1
  C  C20  1  0.68117600  0.58356200  0.89190600  1
  C  C21  1  0.31882400  0.41643800  0.10809400  1
  C  C22  1  0.71789900  0.79898700  0.94956200  1
  C  C23  1  0.28210100  0.20101300  0.05043800  1
  C  C24  1  0.76820000  0.80169700  0.19180300  1
  C  C25  1  0.23180000  0.19830300  0.80819700  1
  C  C26  1  0.00726400  0.84750400  0.95895800  1
  C  C27  1  0.99273600  0.15249600  0.04104200  1
  C  C28  1  0.96026600  0.62303200  0.90852500  1
  C  C29  1  0.03973400  0.37696800  0.09147500  1
  C  C30  1  0.73863500  0.32640600  0.08132900  1
  C  C31  1  0.26136500  0.67359400  0.91867100  1
  C  C32  1  0.76946900  0.55104200  0.13887800  1
  C  C33  1  0.23053100  0.44895800  0.86112200  1
  C  C34  1  0.81642700  0.50686900  0.40540600  1
  C  C35  1  0.18357300  0.49313100  0.59459400  1
  C  C36  1  0.09596800  0.34560000  0.32288300  1
  C  C37  1  0.90403200  0.65440000  0.67711700  1
  C  C38  1  0.03087700  0.59804400  0.14625500  1
  C  C39  1  0.96912300  0.40195600  0.85374500  1
  C  C40  1  0.44354800  0.60920900  0.28365700  1
  C  C41  1  0.55645200  0.39079100  0.71634300  1
  C  C42  1  0.38498700  0.70111200  0.17198200  1
  C  C43  1  0.61501300  0.29888800  0.82801800  1
  C  C44  1  0.07165600  0.91667000  0.13310700  1
  C  C45  1  0.92834400  0.08333000  0.86689300  1
  C  C46  1  0.01164900  0.86214000  0.40387700  1
  C  C47  1  0.98835100  0.13786000  0.59612300  1
  C  C48  1  0.06883400  0.67342500  0.35206400  1
  C  C49  1  0.93116600  0.32657500  0.64793600  1
  C  C50  1  0.38417900  0.93716700  0.24903300  1
  C  C51  1  0.61582100  0.06283300  0.75096700  1
  C  C52  1  0.47617000  0.49729600  0.73779200  1
  C  C53  1  0.52383000  0.50270400  0.26220800  1
  C  C54  1  0.37128400  0.98491700  0.35145600  1
  C  C55  1  0.62871600  0.01508300  0.64854400  1
  C  C56  1  0.96316100  0.74743700  0.41931700  1
  C  C57  1  0.03683900  0.25256300  0.58068300  1
