# generated using pymatgen
data_Cu3NiC
_symmetry_space_group_name_H-M   'P 1'
_cell_length_a   5.88346706
_cell_length_b   5.88346706
_cell_length_c   5.88346706
_cell_angle_alpha   136.44418318
_cell_angle_beta   136.44418318
_cell_angle_gamma   63.29436357
_symmetry_Int_Tables_number   1
_chemical_formula_structural   Cu3NiC
_chemical_formula_sum   'Cu3 Ni1 C1'
_cell_volume   95.45768975
_cell_formula_units_Z   1
loop_
 _symmetry_equiv_pos_site_id
 _symmetry_equiv_pos_as_xyz
  1  'x, y, z'
loop_
 _atom_site_type_symbol
 _atom_site_label
 _atom_site_symmetry_multiplicity
 _atom_site_fract_x
 _atom_site_fract_y
 _atom_site_fract_z
 _atom_site_occupancy
  C  C0  1  0.56570200  0.56570200  0.00000000  1
  Ni  Ni1  1  0.23109000  0.23109000  0.00000000  1
  Cu  Cu2  1  0.32179200  0.82179200  0.50000000  1
  Cu  Cu3  1  0.00339500  0.00339500  0.00000000  1
  Cu  Cu4  1  0.82179200  0.32179200  0.50000000  1
