# generated using pymatgen
data_CuNi2C11
_symmetry_space_group_name_H-M   'P 1'
_cell_length_a   4.37125400
_cell_length_b   4.37125400
_cell_length_c   12.14988700
_cell_angle_alpha   90.00000000
_cell_angle_beta   90.00000000
_cell_angle_gamma   90.00000000
_symmetry_Int_Tables_number   1
_chemical_formula_structural   CuNi2C11
_chemical_formula_sum   'Cu1 Ni2 C11'
_cell_volume   232.15835843
_cell_formula_units_Z   1
loop_
 _symmetry_equiv_pos_site_id
 _symmetry_equiv_pos_as_xyz
  1  'x, y, z'
loop_
 _atom_site_type_symbol
 _atom_site_label
 _atom_site_symmetry_multiplicity
 _atom_site_fract_x
 _atom_site_fract_y
 _atom_site_fract_z
 _atom_site_occupancy
  Ni  Ni0  1  0.50000000  0.50000000  0.16398200  1
  Ni  Ni1  1  0.50000000  0.50000000  0.83601800  1
  Cu  Cu2  1  0.50000000  0.50000000  0.50000000  1
  C  C3  1  0.00000000  0.00000000  0.36152900  1
  C  C4  1  0.00000000  0.00000000  0.00000000  1
  C  C5  1  0.00000000  0.00000000  0.63847100  1
  C  C6  1  0.00000000  0.50000000  0.38247700  1
  C  C7  1  0.50000000  0.00000000  0.38247700  1
  C  C8  1  0.50000000  0.00000000  0.00000000  1
  C  C9  1  0.00000000  0.00000000  0.18986300  1
  C  C10  1  0.00000000  0.50000000  0.61752300  1
  C  C11  1  0.50000000  0.00000000  0.61752300  1
  C  C12  1  0.00000000  0.00000000  0.81013700  1
  C  C13  1  0.00000000  0.50000000  0.00000000  1
