# generated using pymatgen
data_CuNiC4
_symmetry_space_group_name_H-M   'P 1'
_cell_length_a   7.35455200
_cell_length_b   7.79135799
_cell_length_c   9.91943399
_cell_angle_alpha   110.34231888
_cell_angle_beta   100.70486297
_cell_angle_gamma   103.47998686
_symmetry_Int_Tables_number   1
_chemical_formula_structural   CuNiC4
_chemical_formula_sum   'Cu3 Ni3 C12'
_cell_volume   495.59029426
_cell_formula_units_Z   3
loop_
 _symmetry_equiv_pos_site_id
 _symmetry_equiv_pos_as_xyz
  1  'x, y, z'
loop_
 _atom_site_type_symbol
 _atom_site_label
 _atom_site_symmetry_multiplicity
 _atom_site_fract_x
 _atom_site_fract_y
 _atom_site_fract_z
 _atom_site_occupancy
  Ni  Ni0  1  0.32614600  0.72512100  0.28876800  1
  Ni  Ni1  1  0.99963100  0.00036700  0.99948300  1
  Ni  Ni2  1  0.50000400  0.00019700  0.99967600  1
  Cu  Cu3  1  0.17403800  0.27425900  0.71208600  1
  Cu  Cu4  1  0.67417100  0.27434800  0.71201200  1
  Cu  Cu5  1  0.82575400  0.72625900  0.28741200  1
  C  C6  1  0.81603800  0.29082300  0.98811800  1
  C  C7  1  0.31603900  0.29137800  0.98766200  1
  C  C8  1  0.18440000  0.70751800  0.01367200  1
  C  C9  1  0.68391900  0.70906700  0.01160500  1
  C  C10  1  0.64853200  0.98789700  0.30683400  1
  C  C11  1  0.15009500  0.98807300  0.30657600  1
  C  C12  1  0.35057200  0.01102200  0.69391400  1
  C  C13  1  0.85088400  0.01097100  0.69378000  1
  C  C14  1  0.45525500  0.58785200  0.61672200  1
  C  C15  1  0.95525300  0.58722000  0.61685600  1
  C  C16  1  0.54429000  0.41370300  0.38238000  1
  C  C17  1  0.04497800  0.41392400  0.38244400  1
