# generated using pymatgen
data_Cu4Ni8C
_symmetry_space_group_name_H-M   'P 1'
_cell_length_a   6.61264340
_cell_length_b   6.61264340
_cell_length_c   6.61264340
_cell_angle_alpha   98.26112017
_cell_angle_beta   98.26112017
_cell_angle_gamma   135.44935418
_symmetry_Int_Tables_number   1
_chemical_formula_structural   Cu4Ni8C
_chemical_formula_sum   'Cu4 Ni8 C1'
_cell_volume   187.71296336
_cell_formula_units_Z   1
loop_
 _symmetry_equiv_pos_site_id
 _symmetry_equiv_pos_as_xyz
  1  'x, y, z'
loop_
 _atom_site_type_symbol
 _atom_site_label
 _atom_site_symmetry_multiplicity
 _atom_site_fract_x
 _atom_site_fract_y
 _atom_site_fract_z
 _atom_site_occupancy
  C  C0  1  0.00000000  0.00000000  0.00000000  1
  Ni  Ni1  1  0.00000000  0.33916700  0.33916700  1
  Ni  Ni2  1  0.28064400  0.50000000  0.78064400  1
  Ni  Ni3  1  0.50000000  0.28064400  0.78064400  1
  Ni  Ni4  1  0.50000000  0.71935600  0.21935600  1
  Ni  Ni5  1  0.71935600  0.50000000  0.21935600  1
  Ni  Ni6  1  0.00000000  0.66083300  0.66083300  1
  Ni  Ni7  1  0.33916700  0.00000000  0.33916700  1
  Ni  Ni8  1  0.66083300  0.00000000  0.66083300  1
  Cu  Cu9  1  0.50000000  0.00000000  0.00000000  1
  Cu  Cu10  1  0.50000000  0.50000000  0.50000000  1
  Cu  Cu11  1  0.00000000  0.00000000  0.50000000  1
  Cu  Cu12  1  0.00000000  0.50000000  0.00000000  1
