# generated using pymatgen
data_CuNiC5
_symmetry_space_group_name_H-M   'P 1'
_cell_length_a   7.43765466
_cell_length_b   7.43765466
_cell_length_c   10.53646337
_cell_angle_alpha   89.62783129
_cell_angle_beta   89.62783129
_cell_angle_gamma   89.20466354
_symmetry_Int_Tables_number   1
_chemical_formula_structural   CuNiC5
_chemical_formula_sum   'Cu4 Ni4 C20'
_cell_volume   582.78312046
_cell_formula_units_Z   4
loop_
 _symmetry_equiv_pos_site_id
 _symmetry_equiv_pos_as_xyz
  1  'x, y, z'
loop_
 _atom_site_type_symbol
 _atom_site_label
 _atom_site_symmetry_multiplicity
 _atom_site_fract_x
 _atom_site_fract_y
 _atom_site_fract_z
 _atom_site_occupancy
  Ni  Ni0  1  0.00152900  0.23940900  0.62298400  1
  Ni  Ni1  1  0.73940900  0.00152900  0.37298400  1
  Ni  Ni2  1  0.50152900  0.73940900  0.12298400  1
  Ni  Ni3  1  0.23940900  0.50152900  0.87298400  1
  Cu  Cu4  1  0.00301200  0.74945500  0.62404200  1
  Cu  Cu5  1  0.74945500  0.50301200  0.87404200  1
  Cu  Cu6  1  0.24945500  0.00301200  0.37404200  1
  Cu  Cu7  1  0.50301200  0.24945500  0.12404200  1
  C  C8  1  0.01179200  0.99632900  0.00441200  1
  C  C9  1  0.51179200  0.49632900  0.50441200  1
  C  C10  1  0.49632900  0.01179200  0.75441200  1
  C  C11  1  0.99632900  0.51179200  0.25441200  1
  C  C12  1  0.00503400  0.22625900  0.38059300  1
  C  C13  1  0.77204300  0.98644600  0.61776100  1
  C  C14  1  0.01334800  0.77852200  0.39297500  1
  C  C15  1  0.73241900  0.48440100  0.10723300  1
  C  C16  1  0.48644600  0.77204300  0.36776100  1
  C  C17  1  0.27852200  0.01334800  0.14297500  1
  C  C18  1  0.48440100  0.23241900  0.35723300  1
  C  C19  1  0.72625900  0.00503400  0.13059300  1
  C  C20  1  0.50503400  0.72625900  0.88059300  1
  C  C21  1  0.27204300  0.48644600  0.11776100  1
  C  C22  1  0.51334800  0.27852200  0.89297500  1
  C  C23  1  0.23241900  0.98440100  0.60723300  1
  C  C24  1  0.98644600  0.27204300  0.86776100  1
  C  C25  1  0.77852200  0.51334800  0.64297500  1
  C  C26  1  0.98440100  0.73241900  0.85723300  1
  C  C27  1  0.22625900  0.50503400  0.63059300  1
