# generated using pymatgen
data_Cu(NiC)2
_symmetry_space_group_name_H-M   'P 1'
_cell_length_a   5.90934500
_cell_length_b   5.90934500
_cell_length_c   6.91034400
_cell_angle_alpha   90.00000000
_cell_angle_beta   90.00000000
_cell_angle_gamma   90.00000000
_symmetry_Int_Tables_number   1
_chemical_formula_structural   Cu(NiC)2
_chemical_formula_sum   'Cu4 Ni8 C8'
_cell_volume   241.31168866
_cell_formula_units_Z   4
loop_
 _symmetry_equiv_pos_site_id
 _symmetry_equiv_pos_as_xyz
  1  'x, y, z'
loop_
 _atom_site_type_symbol
 _atom_site_label
 _atom_site_symmetry_multiplicity
 _atom_site_fract_x
 _atom_site_fract_y
 _atom_site_fract_z
 _atom_site_occupancy
  Ni  Ni0  1  0.66412200  0.81457100  0.50000000  1
  Ni  Ni1  1  0.33587800  0.18542900  0.50000000  1
  Ni  Ni2  1  0.83587800  0.31457100  0.00000000  1
  Ni  Ni3  1  0.16412200  0.68542900  0.00000000  1
  Ni  Ni4  1  0.81457100  0.33587800  0.50000000  1
  Ni  Ni5  1  0.18542900  0.66412200  0.50000000  1
  Ni  Ni6  1  0.31457100  0.16412200  0.00000000  1
  Ni  Ni7  1  0.68542900  0.83587800  0.00000000  1
  C  C8  1  0.38631000  0.88631000  0.25000000  1
  C  C9  1  0.61369000  0.11369000  0.25000000  1
  C  C10  1  0.11369000  0.38631000  0.75000000  1
  C  C11  1  0.88631000  0.61369000  0.75000000  1
  C  C12  1  0.88631000  0.61369000  0.25000000  1
  C  C13  1  0.11369000  0.38631000  0.25000000  1
  C  C14  1  0.38631000  0.88631000  0.75000000  1
  C  C15  1  0.61369000  0.11369000  0.75000000  1
  Cu  Cu16  1  0.50000000  0.50000000  0.22200400  1
  Cu  Cu17  1  0.00000000  0.00000000  0.72200400  1
  Cu  Cu18  1  0.50000000  0.50000000  0.77799600  1
  Cu  Cu19  1  0.00000000  0.00000000  0.27799600  1
