# generated using pymatgen
data_CuNi4C45
_symmetry_space_group_name_H-M   'P 1'
_cell_length_a   5.75680656
_cell_length_b   5.75680656
_cell_length_c   19.82755341
_cell_angle_alpha   82.40126258
_cell_angle_beta   82.40126258
_cell_angle_gamma   95.06321839
_symmetry_Int_Tables_number   1
_chemical_formula_structural   CuNi4C45
_chemical_formula_sum   'Cu1 Ni4 C45'
_cell_volume   641.86151971
_cell_formula_units_Z   1
loop_
 _symmetry_equiv_pos_site_id
 _symmetry_equiv_pos_as_xyz
  1  'x, y, z'
loop_
 _atom_site_type_symbol
 _atom_site_label
 _atom_site_symmetry_multiplicity
 _atom_site_fract_x
 _atom_site_fract_y
 _atom_site_fract_z
 _atom_site_occupancy
  C  C0  1  0.34992100  0.84995600  0.30010400  1
  C  C1  1  0.74997900  0.25002100  0.50000000  1
  C  C2  1  0.15004400  0.65007900  0.69989600  1
  C  C3  1  0.94970300  0.44974400  0.10062400  1
  C  C4  1  0.55025600  0.05029700  0.89937600  1
  C  C5  1  0.84995600  0.34992100  0.30010400  1
  C  C6  1  0.25002100  0.74997900  0.50000000  1
  C  C7  1  0.65007900  0.15004400  0.69989600  1
  C  C8  1  0.44974400  0.94970300  0.10062400  1
  C  C9  1  0.05029700  0.55025600  0.89937600  1
  C  C10  1  0.89968400  0.89968400  0.20040400  1
  C  C11  1  0.29998900  0.29998900  0.39997900  1
  C  C12  1  0.70001100  0.70001100  0.60002100  1
  C  C13  1  0.50000000  0.50000000  0.00000000  1
  C  C14  1  0.10031600  0.10031600  0.79959600  1
  Ni  Ni15  1  0.60007800  0.60007800  0.79993500  1
  Ni  Ni16  1  0.20001200  0.20001200  0.59991900  1
  Ni  Ni17  1  0.79998800  0.79998800  0.40008100  1
  Ni  Ni18  1  0.39992200  0.39992200  0.20006500  1
  Cu  Cu19  1  0.00000000  0.00000000  0.00000000  1
  C  C20  1  0.62954200  0.17038700  0.20000000  1
  C  C21  1  0.02955500  0.57038600  0.40000100  1
  C  C22  1  0.42961400  0.97044500  0.59999900  1
  C  C23  1  0.22965200  0.77034800  0.00000000  1
  C  C24  1  0.82961300  0.37045800  0.80000000  1
  C  C25  1  0.57038600  0.02955500  0.40000100  1
  C  C26  1  0.97044500  0.42961400  0.59999900  1
  C  C27  1  0.37045800  0.82961300  0.80000000  1
  C  C28  1  0.17038700  0.62954200  0.20000000  1
  C  C29  1  0.77034800  0.22965200  0.00000000  1
  C  C30  1  0.59637200  0.59637200  0.89841700  1
  C  C31  1  0.19652600  0.19652600  0.69844400  1
  C  C32  1  0.79651800  0.79651800  0.49844200  1
  C  C33  1  0.39645400  0.39645400  0.29847900  1
  C  C34  1  0.99667600  0.99667600  0.09857600  1
  C  C35  1  0.80347400  0.80347400  0.30155600  1
  C  C36  1  0.40362800  0.40362800  0.10158300  1
  C  C37  1  0.00332400  0.00332400  0.90142400  1
  C  C38  1  0.60354600  0.60354600  0.70152100  1
  C  C39  1  0.20348200  0.20348200  0.50155800  1
  C  C40  1  0.65537100  0.65537100  0.18179700  1
  C  C41  1  0.25569900  0.25569900  0.98151100  1
  C  C42  1  0.85548500  0.85548500  0.78166900  1
  C  C43  1  0.45544500  0.45544500  0.58172000  1
  C  C44  1  0.05542900  0.05542900  0.38171000  1
  C  C45  1  0.74430100  0.74430100  0.01848900  1
  C  C46  1  0.34462900  0.34462900  0.81820300  1
  C  C47  1  0.94457100  0.94457100  0.61829000  1
  C  C48  1  0.54455500  0.54455500  0.41828000  1
  C  C49  1  0.14451500  0.14451500  0.21833100  1
