# generated using pymatgen
data_CuNi3C5
_symmetry_space_group_name_H-M   'P 1'
_cell_length_a   2.99183300
_cell_length_b   9.12061100
_cell_length_c   12.31506000
_cell_angle_alpha   90.00000000
_cell_angle_beta   90.00000000
_cell_angle_gamma   90.00000000
_symmetry_Int_Tables_number   1
_chemical_formula_structural   CuNi3C5
_chemical_formula_sum   'Cu4 Ni12 C20'
_cell_volume   336.04529055
_cell_formula_units_Z   4
loop_
 _symmetry_equiv_pos_site_id
 _symmetry_equiv_pos_as_xyz
  1  'x, y, z'
loop_
 _atom_site_type_symbol
 _atom_site_label
 _atom_site_symmetry_multiplicity
 _atom_site_fract_x
 _atom_site_fract_y
 _atom_site_fract_z
 _atom_site_occupancy
  Ni  Ni0  1  0.50000000  0.00000000  0.50000000  1
  Ni  Ni1  1  0.50000000  0.50000000  0.00000000  1
  Ni  Ni2  1  0.00000000  0.24004700  0.38641600  1
  Ni  Ni3  1  0.00000000  0.75995300  0.61358400  1
  Ni  Ni4  1  0.00000000  0.25995300  0.88641600  1
  Ni  Ni5  1  0.00000000  0.74004700  0.11358400  1
  Ni  Ni6  1  0.00000000  0.00000000  0.00000000  1
  Ni  Ni7  1  0.00000000  0.50000000  0.50000000  1
  Ni  Ni8  1  0.50000000  0.99752900  0.21971700  1
  Ni  Ni9  1  0.50000000  0.00247100  0.78028300  1
  Ni  Ni10  1  0.50000000  0.50247100  0.71971700  1
  Ni  Ni11  1  0.50000000  0.49752900  0.28028300  1
  Cu  Cu12  1  0.00000000  0.27372700  0.13884300  1
  Cu  Cu13  1  0.00000000  0.72627300  0.86115700  1
  Cu  Cu14  1  0.00000000  0.22627300  0.63884300  1
  Cu  Cu15  1  0.00000000  0.77372700  0.36115700  1
  C  C16  1  0.00000000  0.35045800  0.04209300  1
  C  C17  1  0.00000000  0.64954200  0.95790700  1
  C  C18  1  0.00000000  0.14954200  0.54209300  1
  C  C19  1  0.00000000  0.85045800  0.45790700  1
  C  C20  1  0.50000000  0.10840200  0.35685400  1
  C  C21  1  0.50000000  0.89159800  0.64314600  1
  C  C22  1  0.50000000  0.39159800  0.85685400  1
  C  C23  1  0.50000000  0.60840200  0.14314600  1
  C  C24  1  0.00000000  0.34922500  0.23644500  1
  C  C25  1  0.00000000  0.65077500  0.76355500  1
  C  C26  1  0.00000000  0.15077500  0.73644500  1
  C  C27  1  0.00000000  0.84922500  0.26355500  1
  C  C28  1  0.50000000  0.38392500  0.42184100  1
  C  C29  1  0.50000000  0.61607500  0.57815900  1
  C  C30  1  0.50000000  0.11607500  0.92184100  1
  C  C31  1  0.50000000  0.88392500  0.07815900  1
  C  C32  1  0.00000000  0.12165200  0.14029500  1
  C  C33  1  0.00000000  0.87834800  0.85970500  1
  C  C34  1  0.00000000  0.37834800  0.64029500  1
  C  C35  1  0.00000000  0.62165200  0.35970500  1
