# generated using pymatgen
data_CuNi3C14
_symmetry_space_group_name_H-M   'P 1'
_cell_length_a   11.11928545
_cell_length_b   11.54482716
_cell_length_c   18.00818019
_cell_angle_alpha   108.81970672
_cell_angle_beta   108.15258249
_cell_angle_gamma   89.98046714
_symmetry_Int_Tables_number   1
_chemical_formula_structural   CuNi3C14
_chemical_formula_sum   'Cu8 Ni24 C112'
_cell_volume   2066.29071952
_cell_formula_units_Z   8
loop_
 _symmetry_equiv_pos_site_id
 _symmetry_equiv_pos_as_xyz
  1  'x, y, z'
loop_
 _atom_site_type_symbol
 _atom_site_label
 _atom_site_symmetry_multiplicity
 _atom_site_fract_x
 _atom_site_fract_y
 _atom_site_fract_z
 _atom_site_occupancy
  Ni  Ni0  1  0.30039010  0.06235730  0.61075323  1
  Ni  Ni1  1  0.30306343  0.56666746  0.61351228  1
  Ni  Ni2  1  0.81027940  0.06209639  0.61449107  1
  Ni  Ni3  1  0.80609492  0.56705221  0.61931036  1
  Ni  Ni4  1  0.18713219  0.43654185  0.38297395  1
  Ni  Ni5  1  0.19262092  0.43859766  0.88751851  1
  Ni  Ni6  1  0.18690897  0.93253271  0.37844332  1
  Ni  Ni7  1  0.68984115  0.43676394  0.38748481  1
  Ni  Ni8  1  0.69171038  0.93502009  0.38631657  1
  Ni  Ni9  1  0.69092175  0.93476664  0.88458665  1
  Ni  Ni10  1  0.05327085  0.30456477  0.11790633  1
  Ni  Ni11  1  0.05253074  0.29901664  0.61312367  1
  Ni  Ni12  1  0.05248444  0.80146538  0.61652023  1
  Ni  Ni13  1  0.55217700  0.29870273  0.11400856  1
  Ni  Ni14  1  0.55773764  0.30229285  0.61160606  1
  Ni  Ni15  1  0.54772777  0.80269015  0.11714873  1
  Ni  Ni16  1  0.56023286  0.79907831  0.61478905  1
  Ni  Ni17  1  0.43585822  0.19078379  0.37854622  1
  Ni  Ni18  1  0.44108516  0.20190158  0.88682927  1
  Ni  Ni19  1  0.43099077  0.69599951  0.38051218  1
  Ni  Ni20  1  0.43889895  0.69813196  0.88603095  1
  Ni  Ni21  1  0.94029743  0.19845510  0.38256986  1
  Ni  Ni22  1  0.93633910  0.19417595  0.88480485  1
  Ni  Ni23  1  0.94536591  0.69669708  0.38274025  1
  Cu  Cu24  1  0.29955563  0.05952024  0.11535290  1
  Cu  Cu25  1  0.29762015  0.56391342  0.11533042  1
  Cu  Cu26  1  0.80100352  0.06488398  0.11007854  1
  Cu  Cu27  1  0.80352087  0.56792923  0.11353737  1
  Cu  Cu28  1  0.19151280  0.93810541  0.88941770  1
  Cu  Cu29  1  0.69008375  0.43386595  0.89039716  1
  Cu  Cu30  1  0.05456141  0.80364767  0.11644104  1
  Cu  Cu31  1  0.93769119  0.70194243  0.88823964  1
  C  C32  1  0.00507930  -0.00013864  0.00222359  1
  C  C33  1  0.00226090  0.99852138  0.49846012  1
  C  C34  1  0.00054431  0.50068775  0.99663738  1
  C  C35  1  0.00136271  0.49920970  0.49979235  1
  C  C36  1  0.50013394  0.00043770  0.00066314  1
  C  C37  1  0.50379494  0.00195236  0.50287462  1
  C  C38  1  0.50123909  0.50230529  0.00220467  1
  C  C39  1  0.50017002  0.49882054  0.49898591  1
  C  C40  1  0.24939409  0.24994111  0.00071754  1
  C  C41  1  0.25418224  0.25131370  0.50135531  1
  C  C42  1  0.24743352  0.74996438  0.99963150  1
  C  C43  1  0.25357693  0.75185633  0.50172483  1
  C  C44  1  0.75336106  0.25204938  0.00140934  1
  C  C45  1  0.75082142  0.25043177  0.49983823  1
  C  C46  1  0.75325024  0.74976243  0.00157063  1
  C  C47  1  0.75006590  0.74873033  0.49737683  1
  C  C48  1  0.11956420  0.12123967  0.24878779  1
  C  C49  1  0.11600695  0.62009195  0.24060378  1
  C  C50  1  0.37225000  0.87721542  0.25385370  1
  C  C51  1  0.87869696  0.87819247  0.75610636  1
  C  C52  1  0.11555037  0.10416517  0.75237176  1
  C  C53  1  0.11191094  0.60646502  0.75308102  1
  C  C54  1  0.61762711  0.10310761  0.24730377  1
  C  C55  1  0.60746316  0.10573200  0.74671858  1
  C  C56  1  0.61555085  0.60436391  0.24791629  1
  C  C57  1  0.61545184  0.60147881  0.75341092  1
  C  C58  1  0.36352869  0.38986075  0.24693051  1
  C  C59  1  0.36297181  0.39370785  0.74644282  1
  C  C60  1  0.36578296  0.89865661  0.75209848  1
  C  C61  1  0.85745252  0.39382031  0.24713413  1
  C  C62  1  0.86077864  0.39747520  0.75760796  1
  C  C63  1  0.86255354  0.90037424  0.24527827  1
  C  C64  1  0.11805683  0.12122486  0.48134938  1
  C  C65  1  0.11304443  0.10987972  0.97418701  1
  C  C66  1  0.11613190  0.61566439  0.47935880  1
  C  C67  1  0.10571062  0.61298817  0.96879269  1
  C  C68  1  0.61136378  0.11777262  0.47946459  1
  C  C69  1  0.61515670  0.11810021  0.97886106  1
  C  C70  1  0.61008052  0.61649053  0.47512853  1
  C  C71  1  0.61525182  0.61197935  0.97426757  1
  C  C72  1  0.13330994  0.38609514  0.02168360  1
  C  C73  1  0.13780598  0.38054873  0.52171023  1
  C  C74  1  0.13414455  0.88444545  0.02676692  1
  C  C75  1  0.13798226  0.88489005  0.52704314  1
  C  C76  1  0.63559901  0.38395765  0.02078812  1
  C  C77  1  0.63801889  0.38576256  0.52476097  1
  C  C78  1  0.63710842  0.88313263  0.02632139  1
  C  C79  1  0.63765298  0.88976068  0.52254418  1
  C  C80  1  0.36831886  0.11613670  0.48452060  1
  C  C81  1  0.35906253  0.10716322  0.97248372  1
  C  C82  1  0.36309066  0.61004615  0.47666207  1
  C  C83  1  0.36172294  0.61054703  0.97528015  1
  C  C84  1  0.86454691  0.11158364  0.47949291  1
  C  C85  1  0.86721888  0.10965722  0.98058648  1
  C  C86  1  0.86336703  0.60848788  0.47329351  1
  C  C87  1  0.86194998  0.60601053  0.97040987  1
  C  C88  1  0.38346309  0.39671203  0.02775274  1
  C  C89  1  0.38738817  0.38714329  0.52434856  1
  C  C90  1  0.37953262  0.89687125  0.02511788  1
  C  C91  1  0.39188135  0.89310471  0.52625736  1
  C  C92  1  0.88294940  0.39794310  0.02167074  1
  C  C93  1  0.88642396  0.39034562  0.52403938  1
  C  C94  1  0.89107842  0.89402954  0.02809072  1
  C  C95  1  0.88616811  0.88829571  0.52095361  1
  C  C96  1  0.09004927  0.10601435  0.12571224  1
  C  C97  1  0.09561109  0.11798388  0.64389205  1
  C  C98  1  0.08423127  0.60505179  0.11798362  1
  C  C99  1  0.10018292  0.61832523  0.64464096  1
  C  C100  1  0.61269024  0.11899469  0.14200435  1
  C  C101  1  0.58177389  0.10629059  0.63117201  1
  C  C102  1  0.61382741  0.62219756  0.14304021  1
  C  C103  1  0.60159797  0.61510296  0.64522601  1
  C  C104  1  0.45273732  0.37594859  0.35620502  1
  C  C105  1  0.46316563  0.38124590  0.85315923  1
  C  C106  1  0.44643367  0.90114054  0.37944976  1
  C  C107  1  0.46229717  0.87937754  0.85784762  1
  C  C108  1  0.95668684  0.38129285  0.35483926  1
  C  C109  1  0.95064765  0.39228649  0.87129937  1
  C  C110  1  0.95581286  0.87966058  0.35532343  1
  C  C111  1  0.96018897  0.89607849  0.87955323  1
  C  C112  1  0.35287997  0.26379481  0.14038656  1
  C  C113  1  0.32878388  0.27985695  0.62949131  1
  C  C114  1  0.34270613  0.76451252  0.13521159  1
  C  C115  1  0.35003411  0.77694136  0.64375029  1
  C  C116  1  0.85508360  0.27290465  0.14150964  1
  C  C117  1  0.84440867  0.27904884  0.64797539  1
  C  C118  1  0.86682916  0.76853329  0.14231891  1
  C  C119  1  0.83845012  0.77379220  0.63483903  1
  C  C120  1  0.20302656  0.22440797  0.37601285  1
  C  C121  1  0.21236406  0.22990136  0.85868415  1
  C  C122  1  0.20208841  0.72509495  0.36257830  1
  C  C123  1  0.20803594  0.73164238  0.85881571  1
  C  C124  1  0.70609904  0.22297481  0.35807860  1
  C  C125  1  0.70858252  0.22319323  0.85481760  1
  C  C126  1  0.69689817  0.72608238  0.35790096  1
  C  C127  1  0.71963040  0.72528729  0.85769438  1
  C  C128  1  0.42588411  0.06716023  0.24397765  1
  C  C129  1  0.41761399  0.07486276  0.74893663  1
  C  C130  1  0.42268202  0.55990906  0.24242163  1
  C  C131  1  0.42386776  0.56782996  0.74900967  1
  C  C132  1  0.90122756  0.07175102  0.24320109  1
  C  C133  1  0.92427774  0.07521517  0.75025925  1
  C  C134  1  0.90185716  0.56866016  0.24411925  1
  C  C135  1  0.92586869  0.56863013  0.75857625  1
  C  C136  1  0.17846276  0.43106544  0.25032076  1
  C  C137  1  0.17318053  0.43115416  0.74988888  1
  C  C138  1  0.15956815  0.92896956  0.24589102  1
  C  C139  1  0.17738537  0.93440259  0.75789371  1
  C  C140  1  0.66923381  0.42884444  0.25048033  1
  C  C141  1  0.66796745  0.42522676  0.75562161  1
  C  C142  1  0.67797508  0.93023544  0.25165539  1
  C  C143  1  0.65721091  0.93239889  0.74991085  1
