# generated using pymatgen
data_CuNiC6
_symmetry_space_group_name_H-M   'P 1'
_cell_length_a   4.24496695
_cell_length_b   15.09584139
_cell_length_c   5.33776664
_cell_angle_alpha   80.29927253
_cell_angle_beta   66.59627618
_cell_angle_gamma   82.28368811
_symmetry_Int_Tables_number   1
_chemical_formula_structural   CuNiC6
_chemical_formula_sum   'Cu4 Ni4 C24'
_cell_volume   308.56334397
_cell_formula_units_Z   4
loop_
 _symmetry_equiv_pos_site_id
 _symmetry_equiv_pos_as_xyz
  1  'x, y, z'
loop_
 _atom_site_type_symbol
 _atom_site_label
 _atom_site_symmetry_multiplicity
 _atom_site_fract_x
 _atom_site_fract_y
 _atom_site_fract_z
 _atom_site_occupancy
  C  C0  1  0.68522000  0.06345700  0.56197700  1
  C  C1  1  0.42832000  0.31357700  0.81719200  1
  C  C2  1  0.18418000  0.56325300  0.05630600  1
  C  C3  1  0.93723700  0.81347400  0.30868300  1
  C  C4  1  0.02517200  0.00210200  0.97041900  1
  C  C5  1  0.73467400  0.24119400  0.31561400  1
  C  C6  1  0.48808100  0.48940000  0.56265400  1
  C  C7  1  0.24625000  0.74163700  0.79164400  1
  Ni  Ni8  1  0.42227000  0.12102200  0.11719300  1
  Ni  Ni9  1  0.17754400  0.37168400  0.35768000  1
  Ni  Ni10  1  0.93236900  0.62037700  0.59943400  1
  Ni  Ni11  1  0.67909900  0.86729100  0.85809600  1
  Cu  Cu12  1  0.55480000  0.68486300  0.18938100  1
  Cu  Cu13  1  0.31912200  0.94006400  0.42588000  1
  Cu  Cu14  1  0.04587200  0.18994000  0.70234900  1
  Cu  Cu15  1  0.79925600  0.43800200  0.94702500  1
  C  C16  1  0.52355500  0.18352000  0.74739900  1
  C  C17  1  0.27923600  0.43258600  0.98537200  1
  C  C18  1  0.03247100  0.68167000  0.23110200  1
  C  C19  1  0.77708000  0.93176800  0.49077000  1
  C  C20  1  0.19341200  0.07599700  0.51185700  1
  C  C21  1  0.94818200  0.32556900  0.74689700  1
  C  C22  1  0.70494100  0.57337100  0.99006000  1
  C  C23  1  0.45409500  0.82103000  0.23896400  1
  C  C24  1  0.85211000  0.12545000  0.13053400  1
  C  C25  1  0.60646100  0.37540500  0.37390200  1
  C  C26  1  0.35949100  0.62495600  0.61842800  1
  C  C27  1  0.10905000  0.87522600  0.86328000  1
  C  C28  1  0.49578500  0.00443300  0.99948100  1
  C  C29  1  0.24742700  0.25357000  0.25296200  1
  C  C30  1  0.00180700  0.50268500  0.49539500  1
  C  C31  1  0.75543300  0.75143000  0.74207600  1
