# generated using pymatgen
data_CuNiC8
_symmetry_space_group_name_H-M   'P 1'
_cell_length_a   8.60651023
_cell_length_b   8.68942703
_cell_length_c   8.58839292
_cell_angle_alpha   90.00000000
_cell_angle_beta   90.00000000
_cell_angle_gamma   90.00000000
_symmetry_Int_Tables_number   1
_chemical_formula_structural   CuNiC8
_chemical_formula_sum   'Cu4 Ni4 C32'
_cell_volume   642.28848365
_cell_formula_units_Z   4
loop_
 _symmetry_equiv_pos_site_id
 _symmetry_equiv_pos_as_xyz
  1  'x, y, z'
loop_
 _atom_site_type_symbol
 _atom_site_label
 _atom_site_symmetry_multiplicity
 _atom_site_fract_x
 _atom_site_fract_y
 _atom_site_fract_z
 _atom_site_occupancy
  Ni  Ni0  1  -0.00000000  0.00000000  0.00000000  1
  Ni  Ni1  1  0.50000000  0.50000000  0.50000000  1
  Ni  Ni2  1  0.50000000  0.00000000  0.50000000  1
  Ni  Ni3  1  0.50000000  0.50000000  -0.00000000  1
  Cu  Cu4  1  -0.00000000  0.50000000  0.50000000  1
  Cu  Cu5  1  0.50000000  0.00000000  -0.00000000  1
  Cu  Cu6  1  -0.00000000  0.50000000  0.00000000  1
  Cu  Cu7  1  -0.00000000  0.00000000  0.50000000  1
  C  C8  1  0.75009307  0.75162136  0.74967972  1
  C  C9  1  0.24990693  0.24837864  0.74967972  1
  C  C10  1  0.24990693  0.75162136  0.25032028  1
  C  C11  1  0.75009307  0.24837864  0.25032028  1
  C  C12  1  0.24782645  0.24982021  0.25008298  1
  C  C13  1  0.75217355  0.75017979  0.25008298  1
  C  C14  1  0.75217355  0.24982021  0.74991702  1
  C  C15  1  0.24782645  0.75017979  0.74991702  1
  C  C16  1  0.98509965  0.21829145  0.28131286  1
  C  C17  1  0.01490035  0.78170855  0.28131286  1
  C  C18  1  0.01490035  0.21829145  0.71868714  1
  C  C19  1  0.98509965  0.78170855  0.71868714  1
  C  C20  1  0.27891609  0.98294484  0.21706977  1
  C  C21  1  0.27891609  0.01705516  0.78293023  1
  C  C22  1  0.72108391  0.01705516  0.21706977  1
  C  C23  1  0.72108391  0.98294484  0.78293023  1
  C  C24  1  0.21687454  0.27977688  0.98294982  1
  C  C25  1  0.78312546  0.27977688  0.01705018  1
  C  C26  1  0.21687454  0.72022312  0.01705018  1
  C  C27  1  0.78312546  0.72022312  0.98294982  1
  C  C28  1  0.51880089  0.27652814  0.22508341  1
  C  C29  1  0.48119911  0.72347186  0.22508341  1
  C  C30  1  0.48119911  0.27652814  0.77491659  1
  C  C31  1  0.51880089  0.72347186  0.77491659  1
  C  C32  1  0.21790449  0.51526113  0.28311024  1
  C  C33  1  0.21790449  0.48473887  0.71688976  1
  C  C34  1  0.78209551  0.48473887  0.28311024  1
  C  C35  1  0.78209551  0.51526113  0.71688976  1
  C  C36  1  0.27543929  0.22498099  0.51723942  1
  C  C37  1  0.72456071  0.22498099  0.48276058  1
  C  C38  1  0.27543929  0.77501901  0.48276058  1
  C  C39  1  0.72456071  0.77501901  0.51723942  1
