# generated using pymatgen
data_Cu2NiC8
_symmetry_space_group_name_H-M   'P 1'
_cell_length_a   5.63141200
_cell_length_b   10.68939000
_cell_length_c   12.85742110
_cell_angle_alpha   71.44892560
_cell_angle_beta   90.00000000
_cell_angle_gamma   90.00000000
_symmetry_Int_Tables_number   1
_chemical_formula_structural   Cu2NiC8
_chemical_formula_sum   'Cu8 Ni4 C32'
_cell_volume   733.75479101
_cell_formula_units_Z   4
loop_
 _symmetry_equiv_pos_site_id
 _symmetry_equiv_pos_as_xyz
  1  'x, y, z'
loop_
 _atom_site_type_symbol
 _atom_site_label
 _atom_site_symmetry_multiplicity
 _atom_site_fract_x
 _atom_site_fract_y
 _atom_site_fract_z
 _atom_site_occupancy
  C  C0  1  0.38769900  0.60615700  0.49889500  1
  C  C1  1  0.61230100  0.39384300  0.50110500  1
  C  C2  1  0.88769900  0.39384300  0.00110500  1
  C  C3  1  0.11230100  0.60615700  0.99889500  1
  C  C4  1  0.14634200  0.43231600  0.88198200  1
  C  C5  1  0.85365800  0.56768400  0.11801800  1
  C  C6  1  0.64634200  0.56768400  0.61801800  1
  C  C7  1  0.35365800  0.43231600  0.38198200  1
  C  C8  1  0.15788000  0.27598100  0.77512100  1
  C  C9  1  0.84212000  0.72401900  0.22487900  1
  C  C10  1  0.65788000  0.72401900  0.72487900  1
  C  C11  1  0.34212000  0.27598100  0.27512100  1
  C  C12  1  0.37113100  0.74971500  0.57825900  1
  C  C13  1  0.62886900  0.25028500  0.42174100  1
  C  C14  1  0.87113100  0.25028500  0.92174100  1
  C  C15  1  0.12886900  0.74971500  0.07825900  1
  C  C16  1  0.46535000  0.79548200  0.65724100  1
  C  C17  1  0.53465000  0.20451800  0.34275900  1
  C  C18  1  0.96535000  0.20451800  0.84275900  1
  C  C19  1  0.03465000  0.79548200  0.15724100  1
  Ni  Ni20  1  0.45864700  0.63861500  0.56036300  1
  Ni  Ni21  1  0.54135300  0.36138500  0.43963700  1
  Ni  Ni22  1  0.95864700  0.36138500  0.93963700  1
  Ni  Ni23  1  0.04135300  0.63861500  0.06036300  1
  Cu  Cu24  1  0.36412300  0.93401800  0.68111400  1
  Cu  Cu25  1  0.63587700  0.06598200  0.31888600  1
  Cu  Cu26  1  0.86412300  0.06598200  0.81888600  1
  Cu  Cu27  1  0.13587700  0.93401800  0.18111400  1
  Cu  Cu28  1  0.35694800  0.82511600  0.99628400  1
  Cu  Cu29  1  0.64305200  0.17488400  0.00371600  1
  Cu  Cu30  1  0.85694800  0.17488400  0.50371600  1
  Cu  Cu31  1  0.14305200  0.82511600  0.49628400  1
  C  C32  1  0.23148800  0.52906700  0.89939400  1
  C  C33  1  0.76851200  0.47093300  0.10060600  1
  C  C34  1  0.73148800  0.47093300  0.60060600  1
  C  C35  1  0.26851200  0.52906700  0.39939400  1
  C  C36  1  0.23929400  0.38906200  0.80122200  1
  C  C37  1  0.76070600  0.61093800  0.19877800  1
  C  C38  1  0.73929400  0.61093800  0.69877800  1
  C  C39  1  0.26070600  0.38906200  0.30122200  1
  C  C40  1  0.25763300  0.25052000  0.70087800  1
  C  C41  1  0.74236700  0.74948000  0.29912200  1
  C  C42  1  0.75763300  0.74948000  0.79912200  1
  C  C43  1  0.24236700  0.25052000  0.20087800  1
