# generated using pymatgen
data_Cu2NiC
_symmetry_space_group_name_H-M   'P 1'
_cell_length_a   8.70629545
_cell_length_b   8.70629545
_cell_length_c   8.70629570
_cell_angle_alpha   106.81611232
_cell_angle_beta   106.81611232
_cell_angle_gamma   106.81611372
_symmetry_Int_Tables_number   1
_chemical_formula_structural   Cu2NiC
_chemical_formula_sum   'Cu12 Ni6 C6'
_cell_volume   552.33271393
_cell_formula_units_Z   6
loop_
 _symmetry_equiv_pos_site_id
 _symmetry_equiv_pos_as_xyz
  1  'x, y, z'
loop_
 _atom_site_type_symbol
 _atom_site_label
 _atom_site_symmetry_multiplicity
 _atom_site_fract_x
 _atom_site_fract_y
 _atom_site_fract_z
 _atom_site_occupancy
  C  C0  1  0.32214300  0.72954100  0.90323300  1
  C  C1  1  0.72954100  0.90323300  0.32214300  1
  C  C2  1  0.90323300  0.32214300  0.72954100  1
  C  C3  1  0.67785700  0.27045900  0.09676700  1
  C  C4  1  0.27045900  0.09676700  0.67785700  1
  C  C5  1  0.09676700  0.67785700  0.27045900  1
  Ni  Ni6  1  0.12938700  0.34065400  0.41740800  1
  Ni  Ni7  1  0.58259200  0.87061300  0.65934600  1
  Ni  Ni8  1  0.87061300  0.65934600  0.58259200  1
  Ni  Ni9  1  0.34065400  0.41740800  0.12938700  1
  Ni  Ni10  1  0.41740800  0.12938700  0.34065400  1
  Ni  Ni11  1  0.65934600  0.58259200  0.87061300  1
  Cu  Cu12  1  0.14229500  0.06458300  0.34784800  1
  Cu  Cu13  1  0.06458300  0.34784800  0.14229500  1
  Cu  Cu14  1  0.34784800  0.14229500  0.06458300  1
  Cu  Cu15  1  0.85770500  0.93541700  0.65215200  1
  Cu  Cu16  1  0.93541700  0.65215200  0.85770500  1
  Cu  Cu17  1  0.65215200  0.85770500  0.93541700  1
  Cu  Cu18  1  0.84814900  0.24221500  0.38544700  1
  Cu  Cu19  1  0.24221500  0.38544700  0.84814900  1
  Cu  Cu20  1  0.61455300  0.15185100  0.75778500  1
  Cu  Cu21  1  0.15185100  0.75778500  0.61455300  1
  Cu  Cu22  1  0.75778500  0.61455300  0.15185100  1
  Cu  Cu23  1  0.38544700  0.84814900  0.24221500  1
