# generated using pymatgen
data_CuNi2C5
_symmetry_space_group_name_H-M   'P 1'
_cell_length_a   9.31332961
_cell_length_b   9.31332961
_cell_length_c   9.31332961
_cell_angle_alpha   120.74373441
_cell_angle_beta   120.74373441
_cell_angle_gamma   88.71657006
_symmetry_Int_Tables_number   1
_chemical_formula_structural   CuNi2C5
_chemical_formula_sum   'Cu2 Ni4 C10'
_cell_volume   564.64040338
_cell_formula_units_Z   2
loop_
 _symmetry_equiv_pos_site_id
 _symmetry_equiv_pos_as_xyz
  1  'x, y, z'
loop_
 _atom_site_type_symbol
 _atom_site_label
 _atom_site_symmetry_multiplicity
 _atom_site_fract_x
 _atom_site_fract_y
 _atom_site_fract_z
 _atom_site_occupancy
  C  C0  1  0.00000000  0.00000000  0.00000000  1
  C  C1  1  0.50000000  0.50000000  0.00000000  1
  C  C2  1  0.99635900  0.49635900  0.79411900  1
  C  C3  1  0.70224000  0.20224000  0.20588100  1
  C  C4  1  0.49635900  0.70224000  0.50000000  1
  C  C5  1  0.20224000  0.99635900  0.50000000  1
  C  C6  1  0.00364100  0.50364100  0.20588100  1
  C  C7  1  0.29776000  0.79776000  0.79411900  1
  C  C8  1  0.50364100  0.29776000  0.50000000  1
  C  C9  1  0.79776000  0.00364100  0.50000000  1
  Ni  Ni10  1  0.34390800  0.84390800  0.18781500  1
  Ni  Ni11  1  0.65609200  0.15609200  0.81218500  1
  Ni  Ni12  1  0.84390800  0.65609200  0.50000000  1
  Ni  Ni13  1  0.15609200  0.34390800  0.50000000  1
  Cu  Cu14  1  0.75000000  0.75000000  0.00000000  1
  Cu  Cu15  1  0.25000000  0.25000000  0.00000000  1
