# generated using pymatgen
data_Cu2NiC
_symmetry_space_group_name_H-M   'P 1'
_cell_length_a   3.72618900
_cell_length_b   6.52825400
_cell_length_c   6.77940356
_cell_angle_alpha   74.65490497
_cell_angle_beta   90.00000000
_cell_angle_gamma   90.00000000
_symmetry_Int_Tables_number   1
_chemical_formula_structural   Cu2NiC
_chemical_formula_sum   'Cu4 Ni2 C2'
_cell_volume   159.03321580
_cell_formula_units_Z   2
loop_
 _symmetry_equiv_pos_site_id
 _symmetry_equiv_pos_as_xyz
  1  'x, y, z'
loop_
 _atom_site_type_symbol
 _atom_site_label
 _atom_site_symmetry_multiplicity
 _atom_site_fract_x
 _atom_site_fract_y
 _atom_site_fract_z
 _atom_site_occupancy
  C  C0  1  0.75000000  0.67449300  0.17735200  1
  C  C1  1  0.25000000  0.32550700  0.82264800  1
  Ni  Ni2  1  0.25000000  0.73629600  0.48372900  1
  Ni  Ni3  1  0.75000000  0.26370400  0.51627100  1
  Cu  Cu4  1  0.25000000  0.96029900  0.98954100  1
  Cu  Cu5  1  0.75000000  0.03970100  0.01045900  1
  Cu  Cu6  1  0.25000000  0.45696500  0.12467800  1
  Cu  Cu7  1  0.75000000  0.54303500  0.87532200  1
