# generated using pymatgen
data_CuNi149
_symmetry_space_group_name_H-M   'P 1'
_cell_length_a   15.91453119
_cell_length_b   15.91453457
_cell_length_c   15.56078085
_cell_angle_alpha   90.00000000
_cell_angle_beta   90.00000000
_cell_angle_gamma   120.00071538
_symmetry_Int_Tables_number   1
_chemical_formula_structural   CuNi149
_chemical_formula_sum   'Cu1 Ni149'
_cell_volume   3413.08165954
_cell_formula_units_Z   1
loop_
 _symmetry_equiv_pos_site_id
 _symmetry_equiv_pos_as_xyz
  1  'x, y, z'
loop_
 _atom_site_type_symbol
 _atom_site_label
 _atom_site_symmetry_multiplicity
 _atom_site_fract_x
 _atom_site_fract_y
 _atom_site_fract_z
 _atom_site_occupancy
  Ni  Ni0  1  0.79899477  0.00068813  -0.00000000  1
  Ni  Ni1  1  0.20169259  0.00068661  -0.00000000  1
  Ni  Ni2  1  0.40012954  0.20006470  -0.00000000  1
  Ni  Ni3  1  0.79993534  0.20006527  -0.00000000  1
  Ni  Ni4  1  0.60002763  0.20005756  -0.00000000  1
  Ni  Ni5  1  0.20169190  0.20100451  -0.00000000  1
  Ni  Ni6  1  0.99931122  0.20100598  -0.00000000  1
  Ni  Ni7  1  0.19975101  0.39950150  -0.00000000  1
  Ni  Ni8  1  0.79994237  0.39997242  -0.00000000  1
  Ni  Ni9  1  0.60002817  0.39997136  -0.00000000  1
  Ni  Ni10  1  0.40035282  0.40039839  -0.00000000  1
  Ni  Ni11  1  0.00004687  0.40039982  -0.00000000  1
  Ni  Ni12  1  0.59960131  0.59964798  -0.00000000  1
  Ni  Ni13  1  0.00004558  0.59964699  -0.00000000  1
  Ni  Ni14  1  0.79993429  0.59986926  -0.00000000  1
  Ni  Ni15  1  0.19998017  0.59998836  -0.00000000  1
  Ni  Ni16  1  0.40000886  0.59999133  -0.00000000  1
  Ni  Ni17  1  0.99931288  0.79830823  -0.00000000  1
  Ni  Ni18  1  0.79899570  0.79830820  -0.00000000  1
  Ni  Ni19  1  0.40001036  0.80001863  -0.00000000  1
  Ni  Ni20  1  0.60050074  0.80024980  -0.00000000  1
  Ni  Ni21  1  0.19975018  0.80024966  -0.00000000  1
  Ni  Ni22  1  0.40035402  0.99995520  -0.00000000  1
  Ni  Ni23  1  0.59960181  0.99995345  -0.00000000  1
  Ni  Ni24  1  0.06646890  0.33323998  0.16655853  1
  Ni  Ni25  1  0.26677161  0.33323994  0.16655877  1
  Ni  Ni26  1  0.06646881  0.73322787  0.16655941  1
  Ni  Ni27  1  0.66676011  0.73322987  0.16655880  1
  Ni  Ni28  1  0.66675962  0.93353071  0.16655887  1
  Ni  Ni29  1  0.26677068  0.93353096  0.16655992  1
  Ni  Ni30  1  0.46677890  0.13331193  0.16661112  1
  Ni  Ni31  1  0.66653338  0.13331282  0.16661130  1
  Ni  Ni32  1  0.86668852  0.33346584  0.16661052  1
  Ni  Ni33  1  0.46677893  0.33346766  0.16661080  1
  Ni  Ni34  1  0.66653311  0.53322187  0.16661029  1
  Ni  Ni35  1  0.86668845  0.53322200  0.16661132  1
  Ni  Ni36  1  0.66666736  0.33333264  0.16676100  1
  Ni  Ni37  1  0.26665073  0.53330135  0.16673377  1
  Ni  Ni38  1  0.46669929  0.73334901  0.16673382  1
  Ni  Ni39  1  0.26664955  0.73334844  0.16673431  1
  Ni  Ni40  1  0.06676553  0.53338328  0.16667588  1
  Ni  Ni41  1  0.46661645  0.53338360  0.16667637  1
  Ni  Ni42  1  0.46661664  0.93323392  0.16667595  1
  Ni  Ni43  1  0.86640837  0.13359016  0.16713228  1
  Ni  Ni44  1  0.26718077  0.13359074  0.16713240  1
  Ni  Ni45  1  0.86640940  0.73281719  0.16713234  1
  Ni  Ni46  1  0.06701200  0.13402351  0.16805107  1
  Ni  Ni47  1  0.86597648  0.93298771  0.16805143  1
  Ni  Ni48  1  0.06701138  0.93298731  0.16805165  1
  Ni  Ni49  1  0.19993552  0.39987204  0.33318143  1
  Ni  Ni50  1  0.60012665  0.80006387  0.33318206  1
  Ni  Ni51  1  0.19993640  0.80006435  0.33318199  1
  Ni  Ni52  1  0.60005666  0.20011331  0.33327205  1
  Ni  Ni53  1  0.79988691  0.39994241  0.33327174  1
  Ni  Ni54  1  0.60005611  0.39994445  0.33327233  1
  Ni  Ni55  1  0.60007969  0.00004217  0.33330947  1
  Ni  Ni56  1  0.39996110  0.00004158  0.33331042  1
  Ni  Ni57  1  0.39996183  0.39992009  0.33330982  1
  Ni  Ni58  1  0.99995832  0.39991969  0.33331087  1
  Ni  Ni59  1  0.60008019  0.60003764  0.33331014  1
  Ni  Ni60  1  0.99995778  0.60003843  0.33331045  1
  Ni  Ni61  1  0.40014661  0.20007409  0.33333662  1
  Ni  Ni62  1  0.79992617  0.20007338  0.33333656  1
  Ni  Ni63  1  0.79992719  0.59985390  0.33333584  1
  Ni  Ni64  1  -0.00000039  0.00000016  0.33344116  1
  Ni  Ni65  1  0.20006111  0.60003034  0.33339114  1
  Ni  Ni66  1  0.39996833  0.60003037  0.33339179  1
  Ni  Ni67  1  0.39996873  0.79993830  0.33339177  1
  Ni  Ni68  1  0.20005025  0.00009000  0.33381636  1
  Ni  Ni69  1  0.80004075  0.00009151  0.33381666  1
  Ni  Ni70  1  0.99991097  0.19996028  0.33381636  1
  Ni  Ni71  1  0.20005109  0.19995969  0.33381576  1
  Ni  Ni72  1  0.80004131  0.79994974  0.33381658  1
  Ni  Ni73  1  0.99990970  0.79994984  0.33381641  1
  Ni  Ni74  1  0.06661706  0.13323377  0.50000000  1
  Ni  Ni75  1  0.46673393  0.13327114  0.50000000  1
  Ni  Ni76  1  0.66653842  0.13327070  0.50000000  1
  Ni  Ni77  1  0.86666432  0.13333546  0.50000000  1
  Ni  Ni78  1  0.26667323  0.13333626  0.50000000  1
  Ni  Ni79  1  0.66666783  0.33333329  0.50000000  1
  Ni  Ni80  1  0.26675349  0.33333611  0.50000000  1
  Ni  Ni81  1  0.06658377  0.33333780  0.50000000  1
  Ni  Ni82  1  0.86672840  0.33346136  0.50000000  1
  Ni  Ni83  1  0.46673331  0.33346194  0.50000000  1
  Ni  Ni84  1  0.66653925  0.53326645  0.50000000  1
  Ni  Ni85  1  0.86672879  0.53326639  0.50000000  1
  Ni  Ni86  1  0.06659551  0.53329721  0.50000000  1
  Ni  Ni87  1  0.46670213  0.53329776  0.50000000  1
  Ni  Ni88  1  0.26659625  0.53319260  0.50000000  1
  Ni  Ni89  1  0.86666373  0.73332737  0.50000000  1
  Ni  Ni90  1  0.66666293  0.73324743  0.50000000  1
  Ni  Ni91  1  0.06658301  0.73324737  0.50000000  1
  Ni  Ni92  1  0.46680922  0.73340454  0.50000000  1
  Ni  Ni93  1  0.26659493  0.73340275  0.50000000  1
  Ni  Ni94  1  0.26675333  0.93341683  0.50000000  1
  Ni  Ni95  1  0.66666340  0.93341683  0.50000000  1
  Ni  Ni96  1  0.86676632  0.93338200  0.50000000  1
  Ni  Ni97  1  0.06661548  0.93338337  0.50000000  1
  Ni  Ni98  1  0.46670280  0.93340396  0.50000000  1
  Ni  Ni99  1  0.20005025  0.00009000  0.66618364  1
  Ni  Ni100  1  0.80004075  0.00009151  0.66618334  1
  Ni  Ni101  1  0.99991097  0.19996028  0.66618364  1
  Ni  Ni102  1  0.20005109  0.19995969  0.66618424  1
  Ni  Ni103  1  0.80004131  0.79994974  0.66618342  1
  Ni  Ni104  1  0.99990970  0.79994984  0.66618359  1
  Ni  Ni105  1  0.20006111  0.60003034  0.66660886  1
  Ni  Ni106  1  0.39996833  0.60003037  0.66660821  1
  Ni  Ni107  1  0.39996873  0.79993830  0.66660823  1
  Ni  Ni108  1  -0.00000039  0.00000016  0.66655884  1
  Ni  Ni109  1  0.40014661  0.20007409  0.66666338  1
  Ni  Ni110  1  0.79992617  0.20007338  0.66666344  1
  Ni  Ni111  1  0.79992719  0.59985390  0.66666416  1
  Ni  Ni112  1  0.60007969  0.00004217  0.66669053  1
  Ni  Ni113  1  0.39996110  0.00004158  0.66668958  1
  Ni  Ni114  1  0.39996183  0.39992009  0.66669018  1
  Ni  Ni115  1  0.99995832  0.39991969  0.66668913  1
  Ni  Ni116  1  0.60008019  0.60003764  0.66668986  1
  Ni  Ni117  1  0.99995778  0.60003843  0.66668955  1
  Ni  Ni118  1  0.60005666  0.20011331  0.66672795  1
  Ni  Ni119  1  0.79988691  0.39994241  0.66672826  1
  Ni  Ni120  1  0.60005611  0.39994445  0.66672767  1
  Ni  Ni121  1  0.19993552  0.39987204  0.66681857  1
  Ni  Ni122  1  0.60012665  0.80006387  0.66681794  1
  Ni  Ni123  1  0.19993640  0.80006435  0.66681801  1
  Ni  Ni124  1  0.06701200  0.13402351  0.83194893  1
  Ni  Ni125  1  0.86597648  0.93298771  0.83194857  1
  Ni  Ni126  1  0.06701138  0.93298731  0.83194835  1
  Ni  Ni127  1  0.86640837  0.13359016  0.83286772  1
  Ni  Ni128  1  0.26718077  0.13359074  0.83286760  1
  Ni  Ni129  1  0.86640940  0.73281719  0.83286766  1
  Ni  Ni130  1  0.06676553  0.53338328  0.83332412  1
  Ni  Ni131  1  0.46661645  0.53338360  0.83332363  1
  Ni  Ni132  1  0.46661664  0.93323392  0.83332405  1
  Ni  Ni133  1  0.26665073  0.53330135  0.83326623  1
  Ni  Ni134  1  0.46669929  0.73334901  0.83326618  1
  Ni  Ni135  1  0.26664955  0.73334844  0.83326569  1
  Ni  Ni136  1  0.66666736  0.33333264  0.83323900  1
  Ni  Ni137  1  0.46677890  0.13331193  0.83338888  1
  Ni  Ni138  1  0.66653338  0.13331282  0.83338870  1
  Ni  Ni139  1  0.86668852  0.33346584  0.83338948  1
  Ni  Ni140  1  0.46677893  0.33346766  0.83338920  1
  Ni  Ni141  1  0.66653311  0.53322187  0.83338971  1
  Ni  Ni142  1  0.86668845  0.53322200  0.83338868  1
  Ni  Ni143  1  0.06646890  0.33323998  0.83344147  1
  Ni  Ni144  1  0.26677161  0.33323994  0.83344123  1
  Ni  Ni145  1  0.06646881  0.73322787  0.83344059  1
  Ni  Ni146  1  0.66676011  0.73322987  0.83344120  1
  Ni  Ni147  1  0.66675962  0.93353071  0.83344113  1
  Ni  Ni148  1  0.26677068  0.93353096  0.83344008  1
  Cu  Cu149  1  0.00000007  0.00000006  -0.00000000  1
