# generated using pymatgen
data_Cu(NiC12)2
_symmetry_space_group_name_H-M   'P 1'
_cell_length_a   6.47300087
_cell_length_b   6.27143206
_cell_length_c   10.06275724
_cell_angle_alpha   89.61861384
_cell_angle_beta   88.73339095
_cell_angle_gamma   119.70806326
_symmetry_Int_Tables_number   1
_chemical_formula_structural   Cu(NiC12)2
_chemical_formula_sum   'Cu1 Ni2 C24'
_cell_volume   354.64564726
_cell_formula_units_Z   1
loop_
 _symmetry_equiv_pos_site_id
 _symmetry_equiv_pos_as_xyz
  1  'x, y, z'
loop_
 _atom_site_type_symbol
 _atom_site_label
 _atom_site_symmetry_multiplicity
 _atom_site_fract_x
 _atom_site_fract_y
 _atom_site_fract_z
 _atom_site_occupancy
  Ni  Ni0  1  0.51983900  0.26087100  0.44216500  1
  Ni  Ni1  1  0.29154200  0.64841100  0.03195800  1
  Cu  Cu2  1  0.93272200  0.48044900  0.62936400  1
  C  C3  1  0.65946300  0.32374000  0.89942100  1
  C  C4  1  0.29555300  0.65170500  0.37798400  1
  C  C5  1  0.79526400  0.15487700  0.20290600  1
  C  C6  1  0.69473300  0.84767600  0.69010000  1
  C  C7  1  0.28297100  0.37014400  0.69902500  1
  C  C8  1  0.79438100  0.63578000  0.19769100  1
  C  C9  1  0.29758600  0.14911300  0.16285500  1
  C  C10  1  0.29448200  0.93565300  0.72152000  1
  C  C11  1  0.94473300  0.96530500  0.45481000  1
  C  C12  1  0.95215000  0.97434900  0.94237700  1
  C  C13  1  0.80907900  0.17943900  0.99744200  1
  C  C14  1  0.59245300  0.80403000  0.48908700  1
  C  C15  1  0.15766000  0.35189100  0.50188100  1
  C  C16  1  0.80469600  0.61766400  0.99449500  1
  C  C17  1  0.35045800  0.15526500  0.96752900  1
  C  C18  1  0.16461300  0.81956400  0.49901800  1
  C  C19  1  0.04050100  0.01726400  0.74035300  1
  C  C20  1  0.98119300  0.98797700  0.25212800  1
  C  C21  1  0.44306200  0.49729900  0.25150900  1
  C  C22  1  0.18368400  0.59179100  0.78581900  1
  C  C23  1  0.64056800  0.12047500  0.74716000  1
  C  C24  1  0.44307800  0.94837800  0.25300400  1
  C  C25  1  0.62360800  0.50988800  0.74451400  1
  C  C26  1  0.99951700  0.50100800  0.27313300  1
