# generated using pymatgen
data_Cu3(Ni5C14)2
_symmetry_space_group_name_H-M   'P 1'
_cell_length_a   6.60156398
_cell_length_b   23.39948867
_cell_length_c   23.39948867
_cell_angle_alpha   120.00000036
_cell_angle_beta   90.00000000
_cell_angle_gamma   90.00000000
_symmetry_Int_Tables_number   1
_chemical_formula_structural   Cu3(Ni5C14)2
_chemical_formula_sum   'Cu18 Ni60 C168'
_cell_volume   3130.33056088
_cell_formula_units_Z   6
loop_
 _symmetry_equiv_pos_site_id
 _symmetry_equiv_pos_as_xyz
  1  'x, y, z'
loop_
 _atom_site_type_symbol
 _atom_site_label
 _atom_site_symmetry_multiplicity
 _atom_site_fract_x
 _atom_site_fract_y
 _atom_site_fract_z
 _atom_site_occupancy
  C  C0  1  0.66225826  0.20637226  0.37837941  1
  C  C1  1  0.66225826  0.62162059  0.82799285  1
  C  C2  1  0.66225826  0.17200715  0.79362774  1
  C  C3  1  0.33774174  0.79362774  0.62162059  1
  C  C4  1  0.33774174  0.37837941  0.17200715  1
  C  C5  1  0.33774174  0.82799285  0.20637226  1
  C  C6  1  0.07003436  0.35047188  0.28654845  1
  C  C7  1  0.07003436  0.71345155  0.06392342  1
  C  C8  1  0.07003436  0.93607658  0.64952812  1
  C  C9  1  0.92996564  0.64952812  0.71345155  1
  C  C10  1  0.92996564  0.28654845  0.93607658  1
  C  C11  1  0.92996564  0.06392342  0.35047188  1
  C  C12  1  0.95756054  0.32209540  0.33152459  1
  C  C13  1  0.95756054  0.66847541  0.99057080  1
  C  C14  1  0.95756054  0.00942920  0.67790460  1
  C  C15  1  0.04243946  0.67790460  0.66847541  1
  C  C16  1  0.04243946  0.33152459  0.00942920  1
  C  C17  1  0.04243946  0.99057080  0.32209540  1
  C  C18  1  0.08407945  0.23510870  0.43500454  1
  C  C19  1  0.08407945  0.56499546  0.80010416  1
  C  C20  1  0.08407945  0.19989584  0.76489130  1
  C  C21  1  0.91592055  0.76489130  0.56499546  1
  C  C22  1  0.91592055  0.43500454  0.19989584  1
  C  C23  1  0.91592055  0.80010416  0.23510870  1
  C  C24  1  0.76074129  0.57725892  0.56281289  1
  C  C25  1  0.76074129  0.43718711  0.01444604  1
  C  C26  1  0.76074129  0.98555396  0.42274108  1
  C  C27  1  0.23925871  0.42274108  0.43718711  1
  C  C28  1  0.23925871  0.56281289  0.98555396  1
  C  C29  1  0.23925871  0.01444604  0.57725892  1
  C  C30  1  0.77464204  0.49606790  0.53252717  1
  C  C31  1  0.77464204  0.46747283  0.96354073  1
  C  C32  1  0.77464204  0.03645927  0.50393210  1
  C  C33  1  0.22535796  0.50393210  0.46747283  1
  C  C34  1  0.22535796  0.53252717  0.03645927  1
  C  C35  1  0.22535796  0.96354073  0.49606790  1
  C  C36  1  0.09836935  0.21007947  0.25388791  1
  C  C37  1  0.09836935  0.74611209  0.95619156  1
  C  C38  1  0.09836935  0.04380844  0.78992053  1
  C  C39  1  0.90163065  0.78992053  0.74611209  1
  C  C40  1  0.90163065  0.25388791  0.04380844  1
  C  C41  1  0.90163065  0.95619156  0.21007947  1
  C  C42  1  0.25685409  0.25213021  0.22443720  1
  C  C43  1  0.25685409  0.77556280  0.02769301  1
  C  C44  1  0.25685409  0.97230699  0.74786979  1
  C  C45  1  0.74314591  0.74786979  0.77556280  1
  C  C46  1  0.74314591  0.22443720  0.97230699  1
  C  C47  1  0.74314591  0.02769301  0.25213021  1
  C  C48  1  0.25453917  0.00294133  0.25016339  1
  C  C49  1  0.25453917  0.74983661  0.75277794  1
  C  C50  1  0.25453917  0.24722206  0.99705867  1
  C  C51  1  0.74546083  0.99705867  0.74983661  1
  C  C52  1  0.74546083  0.25016339  0.24722206  1
  C  C53  1  0.74546083  0.75277794  0.00294133  1
  C  C54  1  0.10660108  0.07091735  0.25825201  1
  C  C55  1  0.10660108  0.74174799  0.81266534  1
  C  C56  1  0.10660108  0.18733466  0.92908265  1
  C  C57  1  0.89339892  0.92908265  0.74174799  1
  C  C58  1  0.89339892  0.25825201  0.18733466  1
  C  C59  1  0.89339892  0.81266534  0.07091735  1
  C  C60  1  0.88222495  0.35142323  0.54121468  1
  C  C61  1  0.88222495  0.45878532  0.81020855  1
  C  C62  1  0.88222495  0.18979145  0.64857677  1
  C  C63  1  0.11777505  0.64857677  0.45878532  1
  C  C64  1  0.11777505  0.54121468  0.18979145  1
  C  C65  1  0.11777505  0.81020855  0.35142323  1
  C  C66  1  0.13321418  0.34570786  0.51203981  1
  C  C67  1  0.13321418  0.48796019  0.83366805  1
  C  C68  1  0.13321418  0.16633195  0.65429214  1
  C  C69  1  0.86678582  0.65429214  0.48796019  1
  C  C70  1  0.86678582  0.51203981  0.16633195  1
  C  C71  1  0.86678582  0.83366805  0.34570786  1
  C  C72  1  0.11044364  0.23066935  0.53110203  1
  C  C73  1  0.11044364  0.46889797  0.69956732  1
  C  C74  1  0.11044364  0.30043268  0.76933065  1
  C  C75  1  0.88955636  0.76933065  0.46889797  1
  C  C76  1  0.88955636  0.53110203  0.30043268  1
  C  C77  1  0.88955636  0.69956732  0.23066935  1
  C  C78  1  0.86227624  0.26438170  0.55432698  1
  C  C79  1  0.86227624  0.44567302  0.71005471  1
  C  C80  1  0.86227624  0.28994529  0.73561830  1
  C  C81  1  0.13772376  0.73561830  0.44567302  1
  C  C82  1  0.13772376  0.55432698  0.28994529  1
  C  C83  1  0.13772376  0.71005471  0.26438170  1
  C  C84  1  0.56285259  0.56819496  0.47545985  1
  C  C85  1  0.56285259  0.52454015  0.09273511  1
  C  C86  1  0.56285259  0.90726489  0.43180504  1
  C  C87  1  0.43714741  0.43180504  0.52454015  1
  C  C88  1  0.43714741  0.47545985  0.90726489  1
  C  C89  1  0.43714741  0.09273511  0.56819496  1
  C  C90  1  0.78522053  0.51815258  0.44334127  1
  C  C91  1  0.78522053  0.55665873  0.07481131  1
  C  C92  1  0.78522053  0.92518869  0.48184742  1
  C  C93  1  0.21477947  0.48184742  0.55665873  1
  C  C94  1  0.21477947  0.44334127  0.92518869  1
  C  C95  1  0.21477947  0.07481131  0.51815258  1
  C  C96  1  0.59052247  0.41778931  0.41959995  1
  C  C97  1  0.59052247  0.58040005  0.99818936  1
  C  C98  1  0.59052247  0.00181064  0.58221069  1
  C  C99  1  0.40947753  0.58221069  0.58040005  1
  C  C100  1  0.40947753  0.41959995  0.00181064  1
  C  C101  1  0.40947753  0.99818936  0.41778931  1
  C  C102  1  0.46945029  0.45761033  0.38083776  1
  C  C103  1  0.46945029  0.61916224  0.07677258  1
  C  C104  1  0.46945029  0.92322742  0.54238967  1
  C  C105  1  0.53054971  0.54238967  0.61916224  1
  C  C106  1  0.53054971  0.38083776  0.92322742  1
  C  C107  1  0.53054971  0.07677258  0.45761033  1
  Ni  Ni108  1  0.17160392  0.25721765  0.26701382  1
  Ni  Ni109  1  0.17160392  0.73298618  0.99020383  1
  Ni  Ni110  1  0.17160392  0.00979617  0.74278235  1
  Ni  Ni111  1  0.82839608  0.74278235  0.73298618  1
  Ni  Ni112  1  0.82839608  0.26701382  0.00979617  1
  Ni  Ni113  1  0.82839608  0.99020383  0.25721765  1
  Ni  Ni114  1  0.16453752  0.04617413  0.28422693  1
  Ni  Ni115  1  0.16453752  0.71577307  0.76194720  1
  Ni  Ni116  1  0.16453752  0.23805280  0.95382587  1
  Ni  Ni117  1  0.83546248  0.95382587  0.71577307  1
  Ni  Ni118  1  0.83546248  0.28422693  0.23805280  1
  Ni  Ni119  1  0.83546248  0.76194720  0.04617413  1
  Ni  Ni120  1  0.31331882  0.27664097  0.32562284  1
  Ni  Ni121  1  0.31331882  0.67437716  0.95101813  1
  Ni  Ni122  1  0.31331882  0.04898187  0.72335903  1
  Ni  Ni123  1  0.68668118  0.72335903  0.67437716  1
  Ni  Ni124  1  0.68668118  0.32562284  0.04898187  1
  Ni  Ni125  1  0.68668118  0.95101813  0.27664097  1
  Ni  Ni126  1  0.90128556  0.35158662  0.45033283  1
  Ni  Ni127  1  0.90128556  0.54966717  0.90125378  1
  Ni  Ni128  1  0.90128556  0.09874622  0.64841338  1
  Ni  Ni129  1  0.09871444  0.64841338  0.54966717  1
  Ni  Ni130  1  0.09871444  0.45033283  0.09874622  1
  Ni  Ni131  1  0.09871444  0.90125378  0.35158662  1
  Ni  Ni132  1  0.29231962  0.09520277  0.34289578  1
  Ni  Ni133  1  0.29231962  0.65710422  0.75230698  1
  Ni  Ni134  1  0.29231962  0.24769302  0.90479723  1
  Ni  Ni135  1  0.70768038  0.90479723  0.65710422  1
  Ni  Ni136  1  0.70768038  0.34289578  0.24769302  1
  Ni  Ni137  1  0.70768038  0.75230698  0.09520277  1
  Ni  Ni138  1  0.97726432  0.32798676  0.49660407  1
  Ni  Ni139  1  0.97726432  0.50339593  0.83138269  1
  Ni  Ni140  1  0.97726432  0.16861731  0.67201324  1
  Ni  Ni141  1  0.02273568  0.67201324  0.50339593  1
  Ni  Ni142  1  0.02273568  0.49660407  0.16861731  1
  Ni  Ni143  1  0.02273568  0.83138269  0.32798676  1
  Ni  Ni144  1  0.86736500  0.16215609  0.48013472  1
  Ni  Ni145  1  0.86736500  0.51986528  0.68202137  1
  Ni  Ni146  1  0.86736500  0.31797863  0.83784391  1
  Ni  Ni147  1  0.13263500  0.83784391  0.51986528  1
  Ni  Ni148  1  0.13263500  0.48013472  0.31797863  1
  Ni  Ni149  1  0.13263500  0.68202137  0.16215609  1
  Ni  Ni150  1  0.95846278  0.23144662  0.51206911  1
  Ni  Ni151  1  0.95846278  0.48793089  0.71937751  1
  Ni  Ni152  1  0.95846278  0.28062249  0.76855338  1
  Ni  Ni153  1  0.04153722  0.76855338  0.48793089  1
  Ni  Ni154  1  0.04153722  0.51206911  0.28062249  1
  Ni  Ni155  1  0.04153722  0.71937751  0.23144662  1
  Ni  Ni156  1  0.63976865  0.52335064  0.46815892  1
  Ni  Ni157  1  0.63976865  0.53184108  0.05519172  1
  Ni  Ni158  1  0.63976865  0.94480828  0.47664936  1
  Ni  Ni159  1  0.36023135  0.47664936  0.53184108  1
  Ni  Ni160  1  0.36023135  0.46815892  0.94480828  1
  Ni  Ni161  1  0.36023135  0.05519172  0.52335064  1
  Ni  Ni162  1  0.51033129  0.46252925  0.42843158  1
  Ni  Ni163  1  0.51033129  0.57156842  0.03409767  1
  Ni  Ni164  1  0.51033129  0.96590233  0.53747075  1
  Ni  Ni165  1  0.48966871  0.53747075  0.57156842  1
  Ni  Ni166  1  0.48966871  0.42843158  0.96590233  1
  Ni  Ni167  1  0.48966871  0.03409767  0.46252925  1
  Cu  Cu168  1  0.01078110  0.30800970  0.28435105  1
  Cu  Cu169  1  0.01078110  0.71564895  0.02365865  1
  Cu  Cu170  1  0.01078110  0.97634135  0.69199030  1
  Cu  Cu171  1  0.98921890  0.69199030  0.71564895  1
  Cu  Cu172  1  0.98921890  0.28435105  0.97634135  1
  Cu  Cu173  1  0.98921890  0.02365865  0.30800970  1
  Cu  Cu174  1  0.96135508  0.25594522  0.46531331  1
  Cu  Cu175  1  0.96135508  0.53468669  0.79063191  1
  Cu  Cu176  1  0.96135508  0.20936809  0.74405478  1
  Cu  Cu177  1  0.03864492  0.74405478  0.53468669  1
  Cu  Cu178  1  0.03864492  0.46531331  0.20936809  1
  Cu  Cu179  1  0.03864492  0.79063191  0.25594522  1
  Cu  Cu180  1  0.68170645  0.53338217  0.53554120  1
  Cu  Cu181  1  0.68170645  0.46445880  0.99784097  1
  Cu  Cu182  1  0.68170645  0.00215903  0.46661783  1
  Cu  Cu183  1  0.31829355  0.46661783  0.46445880  1
  Cu  Cu184  1  0.31829355  0.53554120  0.00215903  1
  Cu  Cu185  1  0.31829355  0.99784097  0.53338217  1
  C  C186  1  0.92361727  0.40994027  0.46437118  1
  C  C187  1  0.92361727  0.53562882  0.94556909  1
  C  C188  1  0.92361727  0.05443091  0.59005973  1
  C  C189  1  0.07638273  0.59005973  0.53562882  1
  C  C190  1  0.07638273  0.46437118  0.05443091  1
  C  C191  1  0.07638273  0.94556909  0.40994027  1
  C  C192  1  0.84531275  0.16396155  0.31126705  1
  C  C193  1  0.84531275  0.68873295  0.85269449  1
  C  C194  1  0.84531275  0.14730551  0.83603845  1
  C  C195  1  0.15468725  0.83603845  0.68873295  1
  C  C196  1  0.15468725  0.31126705  0.14730551  1
  C  C197  1  0.15468725  0.85269449  0.16396155  1
  C  C198  1  0.81385024  0.30681390  0.39660603  1
  C  C199  1  0.81385024  0.60339397  0.91020787  1
  C  C200  1  0.81385024  0.08979213  0.69318610  1
  C  C201  1  0.18614976  0.69318610  0.60339397  1
  C  C202  1  0.18614976  0.39660603  0.08979213  1
  C  C203  1  0.18614976  0.91020787  0.30681390  1
  C  C204  1  0.49525128  0.25100976  0.44895145  1
  C  C205  1  0.49525128  0.55104855  0.80205831  1
  C  C206  1  0.49525128  0.19794169  0.74899024  1
  C  C207  1  0.50474872  0.74899024  0.55104855  1
  C  C208  1  0.50474872  0.44895145  0.19794169  1
  C  C209  1  0.50474872  0.80205831  0.25100976  1
  C  C210  1  0.45461654  0.23404895  0.31354830  1
  C  C211  1  0.45461654  0.68645170  0.92050066  1
  C  C212  1  0.45461654  0.07949934  0.76595105  1
  C  C213  1  0.54538346  0.76595105  0.68645170  1
  C  C214  1  0.54538346  0.31354830  0.07949934  1
  C  C215  1  0.54538346  0.92050066  0.23404895  1
  C  C216  1  0.78357545  0.14166747  0.42245753  1
  C  C217  1  0.78357545  0.57754247  0.71920994  1
  C  C218  1  0.78357545  0.28079006  0.85833253  1
  C  C219  1  0.21642455  0.85833253  0.57754247  1
  C  C220  1  0.21642455  0.42245753  0.28079006  1
  C  C221  1  0.21642455  0.71920994  0.14166747  1
  C  C222  1  0.45410850  0.11355110  0.32501420  1
  C  C223  1  0.45410850  0.67498580  0.78853691  1
  C  C224  1  0.45410850  0.21146309  0.88644890  1
  C  C225  1  0.54589150  0.88644890  0.67498580  1
  C  C226  1  0.54589150  0.32501420  0.21146309  1
  C  C227  1  0.54589150  0.78853691  0.11355110  1
  C  C228  1  0.28320570  0.32896677  0.37825335  1
  C  C229  1  0.28320570  0.62174665  0.95071342  1
  C  C230  1  0.28320570  0.04928658  0.67103323  1
  C  C231  1  0.71679430  0.67103323  0.62174665  1
  C  C232  1  0.71679430  0.37825335  0.04928658  1
  C  C233  1  0.71679430  0.95071342  0.32896677  1
  C  C234  1  0.87313551  0.13031291  0.50939643  1
  C  C235  1  0.87313551  0.49060357  0.62091648  1
  C  C236  1  0.87313551  0.37908352  0.86968709  1
  C  C237  1  0.12686449  0.86968709  0.49060357  1
  C  C238  1  0.12686449  0.50939643  0.37908352  1
  C  C239  1  0.12686449  0.62091648  0.13031291  1
  C  C240  1  0.23483931  0.11349973  0.39987954  1
  C  C241  1  0.23483931  0.60012046  0.71362019  1
  C  C242  1  0.23483931  0.28637981  0.88650027  1
  C  C243  1  0.76516069  0.88650027  0.60012046  1
  C  C244  1  0.76516069  0.39987954  0.28637981  1
  C  C245  1  0.76516069  0.71362019  0.11349973  1
