# generated using pymatgen
data_CuNiC3
_symmetry_space_group_name_H-M   'P 1'
_cell_length_a   4.99287417
_cell_length_b   5.40624239
_cell_length_c   7.77101314
_cell_angle_alpha   84.32479157
_cell_angle_beta   93.06461285
_cell_angle_gamma   90.65209114
_symmetry_Int_Tables_number   1
_chemical_formula_structural   CuNiC3
_chemical_formula_sum   'Cu4 Ni4 C12'
_cell_volume   208.42994947
_cell_formula_units_Z   4
loop_
 _symmetry_equiv_pos_site_id
 _symmetry_equiv_pos_as_xyz
  1  'x, y, z'
loop_
 _atom_site_type_symbol
 _atom_site_label
 _atom_site_symmetry_multiplicity
 _atom_site_fract_x
 _atom_site_fract_y
 _atom_site_fract_z
 _atom_site_occupancy
  Ni  Ni0  1  0.99834900  0.28393500  0.14142100  1
  Ni  Ni1  1  0.49835400  0.78353100  0.64132200  1
  Ni  Ni2  1  0.00153200  0.71645400  0.85847500  1
  Ni  Ni3  1  0.50165800  0.21607000  0.35852400  1
  Cu  Cu4  1  0.50251900  0.18959400  0.84968300  1
  Cu  Cu5  1  0.49721900  0.80996800  0.15034500  1
  Cu  Cu6  1  0.00265900  0.69004100  0.34977600  1
  Cu  Cu7  1  0.99748300  0.31041600  0.65033900  1
  C  C8  1  0.86099200  0.63977200  0.59526200  1
  C  C9  1  0.36051100  0.13915100  0.09510100  1
  C  C10  1  0.67607600  0.15219400  0.60101700  1
  C  C11  1  0.17542200  0.65208800  0.10112100  1
  C  C12  1  0.19937300  0.02195400  0.74107600  1
  C  C13  1  0.69920100  0.52184700  0.24137800  1
  C  C14  1  0.80082900  0.97821500  0.25877900  1
  C  C15  1  0.30066700  0.47801900  0.75893000  1
  C  C16  1  0.32456000  0.84789200  0.39874700  1
  C  C17  1  0.82405800  0.34758800  0.89890500  1
  C  C18  1  0.13955100  0.36102100  0.40496600  1
  C  C19  1  0.63898700  0.86025300  0.90483400  1
