# generated using pymatgen
data_Cu6NiC11
_symmetry_space_group_name_H-M   'P 1'
_cell_length_a   13.37596300
_cell_length_b   13.37596300
_cell_length_c   13.37596300
_cell_angle_alpha   90.00000000
_cell_angle_beta   90.00000000
_cell_angle_gamma   90.00000000
_symmetry_Int_Tables_number   1
_chemical_formula_structural   Cu6NiC11
_chemical_formula_sum   'Cu24 Ni4 C44'
_cell_volume   2393.17896160
_cell_formula_units_Z   4
loop_
 _symmetry_equiv_pos_site_id
 _symmetry_equiv_pos_as_xyz
  1  'x, y, z'
loop_
 _atom_site_type_symbol
 _atom_site_label
 _atom_site_symmetry_multiplicity
 _atom_site_fract_x
 _atom_site_fract_y
 _atom_site_fract_z
 _atom_site_occupancy
  Ni  Ni0  1  0.50000000  0.50000000  0.00000000  1
  Ni  Ni1  1  0.50000000  0.00000000  0.50000000  1
  Ni  Ni2  1  0.00000000  0.50000000  0.50000000  1
  Ni  Ni3  1  0.00000000  0.00000000  0.00000000  1
  Cu  Cu4  1  0.44849600  0.68706600  0.70376000  1
  Cu  Cu5  1  0.55150400  0.18706600  0.79624000  1
  Cu  Cu6  1  0.05150400  0.31293400  0.20376000  1
  Cu  Cu7  1  0.94849600  0.81293400  0.29624000  1
  Cu  Cu8  1  0.70376000  0.44849600  0.68706600  1
  Cu  Cu9  1  0.79624000  0.55150400  0.18706600  1
  Cu  Cu10  1  0.20376000  0.05150400  0.31293400  1
  Cu  Cu11  1  0.29624000  0.94849600  0.81293400  1
  Cu  Cu12  1  0.68706600  0.70376000  0.44849600  1
  Cu  Cu13  1  0.18706600  0.79624000  0.55150400  1
  Cu  Cu14  1  0.31293400  0.20376000  0.05150400  1
  Cu  Cu15  1  0.81293400  0.29624000  0.94849600  1
  Cu  Cu16  1  0.55150400  0.31293400  0.29624000  1
  Cu  Cu17  1  0.44849600  0.81293400  0.20376000  1
  Cu  Cu18  1  0.94849600  0.68706600  0.79624000  1
  Cu  Cu19  1  0.05150400  0.18706600  0.70376000  1
  Cu  Cu20  1  0.29624000  0.55150400  0.31293400  1
  Cu  Cu21  1  0.20376000  0.44849600  0.81293400  1
  Cu  Cu22  1  0.79624000  0.94849600  0.68706600  1
  Cu  Cu23  1  0.70376000  0.05150400  0.18706600  1
  Cu  Cu24  1  0.31293400  0.29624000  0.55150400  1
  Cu  Cu25  1  0.81293400  0.20376000  0.44849600  1
  Cu  Cu26  1  0.68706600  0.79624000  0.94849600  1
  Cu  Cu27  1  0.18706600  0.70376000  0.05150400  1
  C  C28  1  0.63328300  0.63328300  0.63328300  1
  C  C29  1  0.36671700  0.13328300  0.86671700  1
  C  C30  1  0.86671700  0.36671700  0.13328300  1
  C  C31  1  0.13328300  0.86671700  0.36671700  1
  C  C32  1  0.36671700  0.36671700  0.36671700  1
  C  C33  1  0.63328300  0.86671700  0.13328300  1
  C  C34  1  0.13328300  0.63328300  0.86671700  1
  C  C35  1  0.86671700  0.13328300  0.63328300  1
  C  C36  1  0.26178400  0.76178400  0.73821600  1
  C  C37  1  0.73821600  0.26178400  0.76178400  1
  C  C38  1  0.23821600  0.23821600  0.23821600  1
  C  C39  1  0.76178400  0.73821600  0.26178400  1
  C  C40  1  0.73821600  0.23821600  0.26178400  1
  C  C41  1  0.26178400  0.73821600  0.23821600  1
  C  C42  1  0.76178400  0.76178400  0.76178400  1
  C  C43  1  0.23821600  0.26178400  0.73821600  1
  C  C44  1  0.45230800  0.69524600  0.96099000  1
  C  C45  1  0.54769200  0.19524600  0.53901000  1
  C  C46  1  0.04769200  0.30475400  0.46099000  1
  C  C47  1  0.95230800  0.80475400  0.03901000  1
  C  C48  1  0.96099000  0.45230800  0.69524600  1
  C  C49  1  0.53901000  0.54769200  0.19524600  1
  C  C50  1  0.46099000  0.04769200  0.30475400  1
  C  C51  1  0.03901000  0.95230800  0.80475400  1
  C  C52  1  0.69524600  0.96099000  0.45230800  1
  C  C53  1  0.19524600  0.53901000  0.54769200  1
  C  C54  1  0.30475400  0.46099000  0.04769200  1
  C  C55  1  0.80475400  0.03901000  0.95230800  1
  C  C56  1  0.54769200  0.30475400  0.03901000  1
  C  C57  1  0.45230800  0.80475400  0.46099000  1
  C  C58  1  0.95230800  0.69524600  0.53901000  1
  C  C59  1  0.04769200  0.19524600  0.96099000  1
  C  C60  1  0.03901000  0.54769200  0.30475400  1
  C  C61  1  0.46099000  0.45230800  0.80475400  1
  C  C62  1  0.53901000  0.95230800  0.69524600  1
  C  C63  1  0.96099000  0.04769200  0.19524600  1
  C  C64  1  0.30475400  0.03901000  0.54769200  1
  C  C65  1  0.80475400  0.46099000  0.45230800  1
  C  C66  1  0.69524600  0.53901000  0.95230800  1
  C  C67  1  0.19524600  0.96099000  0.04769200  1
  C  C68  1  0.50000000  0.50000000  0.50000000  1
  C  C69  1  0.50000000  0.00000000  0.00000000  1
  C  C70  1  0.00000000  0.50000000  0.00000000  1
  C  C71  1  0.00000000  0.00000000  0.50000000  1
