# generated using pymatgen
data_Cu3NiC17
_symmetry_space_group_name_H-M   'P 1'
_cell_length_a   7.34793300
_cell_length_b   9.76664200
_cell_length_c   9.89837033
_cell_angle_alpha   60.44119646
_cell_angle_beta   90.00000000
_cell_angle_gamma   90.00000000
_symmetry_Int_Tables_number   1
_chemical_formula_structural   Cu3NiC17
_chemical_formula_sum   'Cu6 Ni2 C34'
_cell_volume   617.90036275
_cell_formula_units_Z   2
loop_
 _symmetry_equiv_pos_site_id
 _symmetry_equiv_pos_as_xyz
  1  'x, y, z'
loop_
 _atom_site_type_symbol
 _atom_site_label
 _atom_site_symmetry_multiplicity
 _atom_site_fract_x
 _atom_site_fract_y
 _atom_site_fract_z
 _atom_site_occupancy
  C  C0  1  0.49880800  0.34165600  0.32725000  1
  C  C1  1  0.99880800  0.65834400  0.67275000  1
  C  C2  1  0.50119200  0.65834400  0.67275000  1
  C  C3  1  0.00119200  0.34165600  0.32725000  1
  C  C4  1  0.25000000  0.00645600  0.76344200  1
  C  C5  1  0.25000000  0.23767800  0.01083200  1
  C  C6  1  0.75000000  0.99354400  0.23655800  1
  C  C7  1  0.75000000  0.76232200  0.98916800  1
  Ni  Ni8  1  0.25000000  0.77543300  0.23165200  1
  Ni  Ni9  1  0.75000000  0.22456700  0.76834800  1
  Cu  Cu10  1  0.25000000  0.96805200  0.40139700  1
  Cu  Cu11  1  0.25000000  0.62996400  0.96645100  1
  Cu  Cu12  1  0.25000000  0.39584200  0.63190600  1
  Cu  Cu13  1  0.75000000  0.03194800  0.59860300  1
  Cu  Cu14  1  0.75000000  0.37003600  0.03354900  1
  Cu  Cu15  1  0.75000000  0.60415800  0.36809400  1
  C  C16  1  0.25000000  0.88112300  0.58122400  1
  C  C17  1  0.25000000  0.53401300  0.87865300  1
  C  C18  1  0.25000000  0.57907100  0.54571300  1
  C  C19  1  0.75000000  0.11887700  0.41877600  1
  C  C20  1  0.75000000  0.46598700  0.12134700  1
  C  C21  1  0.75000000  0.42092900  0.45428700  1
  C  C22  1  0.41873600  0.91205100  0.34308000  1
  C  C23  1  0.42216800  0.73627500  0.91473000  1
  C  C24  1  0.42109800  0.33669500  0.74025000  1
  C  C25  1  0.91873600  0.08794900  0.65692000  1
  C  C26  1  0.92216800  0.26372500  0.08527000  1
  C  C27  1  0.92109800  0.66330500  0.25975000  1
  C  C28  1  0.58126400  0.08794900  0.65692000  1
  C  C29  1  0.57783200  0.26372500  0.08527000  1
  C  C30  1  0.57890200  0.66330500  0.25975000  1
  C  C31  1  0.08126400  0.91205100  0.34308000  1
  C  C32  1  0.07783200  0.73627500  0.91473000  1
  C  C33  1  0.07890200  0.33669500  0.74025000  1
  C  C34  1  0.25000000  0.14850200  0.33071800  1
  C  C35  1  0.25000000  0.51655200  0.14543600  1
  C  C36  1  0.25000000  0.33026300  0.51735700  1
  C  C37  1  0.75000000  0.85149800  0.66928200  1
  C  C38  1  0.75000000  0.48344800  0.85456400  1
  C  C39  1  0.75000000  0.66973700  0.48264300  1
  C  C40  1  0.25000000  0.98166700  0.02193100  1
  C  C41  1  0.75000000  0.01833300  0.97806900  1
