# generated using pymatgen
data_Cu12Ni2C
_symmetry_space_group_name_H-M   'P 1'
_cell_length_a   14.92935188
_cell_length_b   13.49555207
_cell_length_c   7.55079607
_cell_angle_alpha   85.42425160
_cell_angle_beta   64.30037394
_cell_angle_gamma   30.27537446
_symmetry_Int_Tables_number   1
_chemical_formula_structural   Cu12Ni2C
_chemical_formula_sum   'Cu24 Ni4 C2'
_cell_volume   525.92512333
_cell_formula_units_Z   2
loop_
 _symmetry_equiv_pos_site_id
 _symmetry_equiv_pos_as_xyz
  1  'x, y, z'
loop_
 _atom_site_type_symbol
 _atom_site_label
 _atom_site_symmetry_multiplicity
 _atom_site_fract_x
 _atom_site_fract_y
 _atom_site_fract_z
 _atom_site_occupancy
  C  C0  1  0.50000000  0.50000000  0.50000000  1
  C  C1  1  0.75000000  0.75000000  0.75000000  1
  Ni  Ni2  1  0.44287300  0.44287300  0.05712700  1
  Ni  Ni3  1  0.05712700  0.05712700  0.44287300  1
  Ni  Ni4  1  0.80712700  0.80712700  0.19287300  1
  Ni  Ni5  1  0.19287300  0.19287300  0.80712700  1
  Cu  Cu6  1  0.68553400  0.21652500  0.35695800  1
  Cu  Cu7  1  0.74098300  0.35695800  0.21652500  1
  Cu  Cu8  1  0.35695800  0.74098300  0.68553400  1
  Cu  Cu9  1  0.21652500  0.68553400  0.74098300  1
  Cu  Cu10  1  0.56446600  0.03347500  0.89304200  1
  Cu  Cu11  1  0.50901700  0.89304200  0.03347500  1
  Cu  Cu12  1  0.89304200  0.50901700  0.56446600  1
  Cu  Cu13  1  0.03347500  0.56446600  0.50901700  1
  Cu  Cu14  1  0.52641100  0.42624900  0.14151000  1
  Cu  Cu15  1  0.90583100  0.14151000  0.42624900  1
  Cu  Cu16  1  0.14151000  0.90583100  0.52641100  1
  Cu  Cu17  1  0.42624900  0.52641100  0.90583100  1
  Cu  Cu18  1  0.72358900  0.82375100  0.10849000  1
  Cu  Cu19  1  0.34416900  0.10849000  0.82375100  1
  Cu  Cu20  1  0.10849000  0.34416900  0.72358900  1
  Cu  Cu21  1  0.82375100  0.72358900  0.34416900  1
  Cu  Cu22  1  0.19175300  0.62480300  0.27764800  1
  Cu  Cu23  1  0.90579600  0.27764800  0.62480300  1
  Cu  Cu24  1  0.27764800  0.90579600  0.19175300  1
  Cu  Cu25  1  0.62480300  0.19175300  0.90579600  1
  Cu  Cu26  1  0.05824700  0.62519700  0.97235200  1
  Cu  Cu27  1  0.34420400  0.97235200  0.62519700  1
  Cu  Cu28  1  0.97235200  0.34420400  0.05824700  1
  Cu  Cu29  1  0.62519700  0.05824700  0.34420400  1
