# generated using pymatgen
data_Cu10Ni5C34
_symmetry_space_group_name_H-M   'P 1'
_cell_length_a   9.26430079
_cell_length_b   9.26430079
_cell_length_c   15.13097737
_cell_angle_alpha   67.69563721
_cell_angle_beta   67.69563721
_cell_angle_gamma   48.98639460
_symmetry_Int_Tables_number   1
_chemical_formula_structural   Cu10Ni5C34
_chemical_formula_sum   'Cu20 Ni10 C68'
_cell_volume   890.61312149
_cell_formula_units_Z   2
loop_
 _symmetry_equiv_pos_site_id
 _symmetry_equiv_pos_as_xyz
  1  'x, y, z'
loop_
 _atom_site_type_symbol
 _atom_site_label
 _atom_site_symmetry_multiplicity
 _atom_site_fract_x
 _atom_site_fract_y
 _atom_site_fract_z
 _atom_site_occupancy
  C  C0  1  0.58472800  0.61971100  0.03833700  1
  C  C1  1  0.61971100  0.58472800  0.53833700  1
  C  C2  1  0.85137300  0.93867400  0.72612700  1
  C  C3  1  0.93867400  0.85137300  0.22612700  1
  C  C4  1  0.44895700  0.52551800  0.92793500  1
  C  C5  1  0.52551800  0.44895700  0.42793500  1
  C  C6  1  0.49202200  0.50768500  0.76168900  1
  C  C7  1  0.50768500  0.49202200  0.26168900  1
  C  C8  1  0.31368900  0.38608500  0.90009500  1
  C  C9  1  0.38608500  0.31368900  0.40009500  1
  C  C10  1  0.03021900  0.36956300  0.97410900  1
  C  C11  1  0.36956300  0.03021900  0.47410900  1
  C  C12  1  0.36503000  0.06354900  0.97533500  1
  C  C13  1  0.06354900  0.36503000  0.47533500  1
  C  C14  1  0.01909700  0.91588900  0.93390500  1
  C  C15  1  0.91588900  0.01909700  0.43390500  1
  C  C16  1  0.80343500  0.13906600  0.89345500  1
  C  C17  1  0.13906600  0.80343500  0.39345500  1
  C  C18  1  0.08313900  0.12271600  0.78547200  1
  C  C19  1  0.12271600  0.08313900  0.28547200  1
  C  C20  1  0.19881500  0.88704100  0.76785000  1
  C  C21  1  0.88704100  0.19881500  0.26785000  1
  C  C22  1  0.40200600  0.08175500  0.77247400  1
  C  C23  1  0.08175500  0.40200600  0.27247400  1
  C  C24  1  0.37318400  0.16075800  0.64840300  1
  C  C25  1  0.16075800  0.37318400  0.14840300  1
  C  C26  1  0.69024200  0.85786500  0.60696800  1
  C  C27  1  0.85786500  0.69024200  0.10696800  1
  C  C28  1  0.54118300  0.80005200  0.70052900  1
  C  C29  1  0.80005200  0.54118300  0.20052900  1
  C  C30  1  0.90518000  0.49791100  0.68634900  1
  C  C31  1  0.49791100  0.90518000  0.18634900  1
  C  C32  1  0.02733100  0.47012600  0.76603800  1
  C  C33  1  0.47012600  0.02733100  0.26603800  1
  C  C34  1  0.20247800  0.48455400  0.59468600  1
  C  C35  1  0.48455400  0.20247800  0.09468600  1
  C  C36  1  0.98788300  0.70596100  0.55787100  1
  C  C37  1  0.70596100  0.98788300  0.05787100  1
  C  C38  1  0.72851100  0.94662300  0.90680200  1
  C  C39  1  0.94662300  0.72851100  0.40680200  1
  C  C40  1  0.95814100  0.74331000  0.89236100  1
  C  C41  1  0.74331000  0.95814100  0.39236100  1
  C  C42  1  0.05006000  0.09887200  0.63196600  1
  C  C43  1  0.09887200  0.05006000  0.13196600  1
  C  C44  1  0.84377900  0.25049700  0.69650200  1
  C  C45  1  0.25049700  0.84377900  0.19650200  1
  C  C46  1  0.51067600  0.26620200  0.71055900  1
  C  C47  1  0.26620200  0.51067600  0.21055900  1
  C  C48  1  0.61043500  0.20457800  0.60270000  1
  C  C49  1  0.20457800  0.61043500  0.10270000  1
  C  C50  1  0.15124300  0.79703700  0.57984100  1
  C  C51  1  0.79703700  0.15124300  0.07984100  1
  C  C52  1  0.20921900  0.64163900  0.68271000  1
  C  C53  1  0.64163900  0.20921900  0.18271000  1
  C  C54  1  0.71131100  0.71126600  0.81376800  1
  C  C55  1  0.71126600  0.71131100  0.31376800  1
  C  C56  1  0.93326300  0.99568100  0.87587100  1
  C  C57  1  0.99568100  0.93326300  0.37587100  1
  C  C58  1  0.05626500  0.02705800  0.77995100  1
  C  C59  1  0.02705800  0.05626500  0.27995100  1
  C  C60  1  0.47960800  0.07381900  0.69668200  1
  C  C61  1  0.07381900  0.47960800  0.19668200  1
  C  C62  1  0.61759700  0.86340800  0.68357800  1
  C  C63  1  0.86340800  0.61759700  0.18357800  1
  C  C64  1  0.94373500  0.56932600  0.70713300  1
  C  C65  1  0.56932600  0.94373500  0.20713300  1
  C  C66  1  0.06587700  0.61823700  0.61898200  1
  C  C67  1  0.61823700  0.06587700  0.11898200  1
  Ni  Ni68  1  0.86796500  0.89244000  0.86833000  1
  Ni  Ni69  1  0.89244000  0.86796500  0.36833000  1
  Ni  Ni70  1  0.95869700  0.10572700  0.69848800  1
  Ni  Ni71  1  0.10572700  0.95869700  0.19848800  1
  Ni  Ni72  1  0.59029700  0.15027900  0.67571000  1
  Ni  Ni73  1  0.15027900  0.59029700  0.17571000  1
  Ni  Ni74  1  0.10141900  0.73346800  0.64180600  1
  Ni  Ni75  1  0.73346800  0.10141900  0.14180600  1
  Ni  Ni76  1  0.76740600  0.74729300  0.74386800  1
  Ni  Ni77  1  0.74729300  0.76740600  0.24386800  1
  Cu  Cu78  1  0.47672900  0.57336400  0.99072700  1
  Cu  Cu79  1  0.57336400  0.47672900  0.49072700  1
  Cu  Cu80  1  0.53372100  0.54232100  0.82823200  1
  Cu  Cu81  1  0.54232100  0.53372100  0.32823200  1
  Cu  Cu82  1  0.56959700  0.53184300  0.66623800  1
  Cu  Cu83  1  0.53184300  0.56959700  0.16623800  1
  Cu  Cu84  1  0.33545300  0.46275400  0.95978400  1
  Cu  Cu85  1  0.46275400  0.33545300  0.45978400  1
  Cu  Cu86  1  0.37636200  0.44575600  0.79412700  1
  Cu  Cu87  1  0.44575600  0.37636200  0.29412700  1
  Cu  Cu88  1  0.10598200  0.47022100  0.91775100  1
  Cu  Cu89  1  0.47022100  0.10598200  0.41775100  1
  Cu  Cu90  1  0.43604800  0.17014900  0.92495600  1
  Cu  Cu91  1  0.17014900  0.43604800  0.42495600  1
  Cu  Cu92  1  0.83710200  0.45803200  0.00314300  1
  Cu  Cu93  1  0.45803200  0.83710200  0.50314300  1
  Cu  Cu94  1  0.16031700  0.16419000  0.00192800  1
  Cu  Cu95  1  0.16419000  0.16031700  0.50192800  1
  Cu  Cu96  1  0.48793400  0.86708800  0.99993900  1
  Cu  Cu97  1  0.86708800  0.48793400  0.49993900  1
