# generated using pymatgen
data_Cu3Ni4C27
_symmetry_space_group_name_H-M   'P 1'
_cell_length_a   3.93859000
_cell_length_b   3.93859000
_cell_length_c   29.08571300
_cell_angle_alpha   90.00000000
_cell_angle_beta   90.00000000
_cell_angle_gamma   90.00000000
_symmetry_Int_Tables_number   1
_chemical_formula_structural   Cu3Ni4C27
_chemical_formula_sum   'Cu3 Ni4 C27'
_cell_volume   451.19186661
_cell_formula_units_Z   1
loop_
 _symmetry_equiv_pos_site_id
 _symmetry_equiv_pos_as_xyz
  1  'x, y, z'
loop_
 _atom_site_type_symbol
 _atom_site_label
 _atom_site_symmetry_multiplicity
 _atom_site_fract_x
 _atom_site_fract_y
 _atom_site_fract_z
 _atom_site_occupancy
  Ni  Ni0  1  0.00000000  0.00000000  0.42180100  1
  Ni  Ni1  1  0.50000000  0.50000000  0.91569200  1
  Ni  Ni2  1  0.50000000  0.50000000  0.07991100  1
  Ni  Ni3  1  0.00000000  0.00000000  0.58517600  1
  C  C4  1  0.00000000  0.00000000  0.29358100  1
  Cu  Cu5  1  0.50000000  0.50000000  0.79156000  1
  Cu  Cu6  1  0.50000000  0.50000000  0.20553100  1
  Cu  Cu7  1  0.00000000  0.00000000  0.70867600  1
  C  C8  1  0.00000000  0.00000000  0.99952100  1
  C  C9  1  0.50000000  0.50000000  0.50043100  1
  C  C10  1  0.50000000  0.50000000  0.35623900  1
  C  C11  1  0.00000000  0.00000000  0.85696500  1
  C  C12  1  0.00000000  0.00000000  0.14307300  1
  C  C13  1  0.50000000  0.50000000  0.64393700  1
  C  C14  1  0.00000000  0.50000000  0.25200500  1
  C  C15  1  0.50000000  0.00000000  0.74998700  1
  C  C16  1  0.50000000  0.00000000  0.25200500  1
  C  C17  1  0.00000000  0.50000000  0.74998700  1
  C  C18  1  0.00000000  0.50000000  0.34800600  1
  C  C19  1  0.50000000  0.00000000  0.85378100  1
  C  C20  1  0.50000000  0.00000000  0.34800600  1
  C  C21  1  0.00000000  0.50000000  0.85378100  1
  C  C22  1  0.50000000  0.00000000  0.15072400  1
  C  C23  1  0.00000000  0.50000000  0.64598300  1
  C  C24  1  0.00000000  0.50000000  0.15072400  1
  C  C25  1  0.50000000  0.00000000  0.64598300  1
  C  C26  1  0.50000000  0.00000000  0.00091500  1
  C  C27  1  0.00000000  0.50000000  0.49814000  1
  C  C28  1  0.50000000  0.00000000  0.49814000  1
  C  C29  1  0.00000000  0.50000000  0.00091500  1
  C  C30  1  0.50000000  0.50000000  0.43045600  1
  C  C31  1  0.00000000  0.00000000  0.93183700  1
  C  C32  1  0.00000000  0.00000000  0.06895100  1
  C  C33  1  0.50000000  0.50000000  0.56757900  1
