# generated using pymatgen
data_Cu2(NiC2)3
_symmetry_space_group_name_H-M   'P 1'
_cell_length_a   7.38377800
_cell_length_b   9.13866300
_cell_length_c   11.59985200
_cell_angle_alpha   90.00000000
_cell_angle_beta   90.00000000
_cell_angle_gamma   90.00000000
_symmetry_Int_Tables_number   1
_chemical_formula_structural   Cu2(NiC2)3
_chemical_formula_sum   'Cu8 Ni12 C24'
_cell_volume   782.73317546
_cell_formula_units_Z   4
loop_
 _symmetry_equiv_pos_site_id
 _symmetry_equiv_pos_as_xyz
  1  'x, y, z'
loop_
 _atom_site_type_symbol
 _atom_site_label
 _atom_site_symmetry_multiplicity
 _atom_site_fract_x
 _atom_site_fract_y
 _atom_site_fract_z
 _atom_site_occupancy
  C  C0  1  0.00000000  0.75000000  0.64618200  1
  C  C1  1  0.00000000  0.25000000  0.85381800  1
  C  C2  1  0.00000000  0.25000000  0.35381800  1
  C  C3  1  0.00000000  0.75000000  0.14618200  1
  C  C4  1  0.53215100  0.50000000  0.75000000  1
  C  C5  1  0.46784900  0.00000000  0.75000000  1
  C  C6  1  0.46784900  0.50000000  0.25000000  1
  C  C7  1  0.53215100  0.00000000  0.25000000  1
  C  C8  1  0.30776600  0.52238700  0.94788200  1
  C  C9  1  0.69223400  0.97761300  0.94788200  1
  C  C10  1  0.69223400  0.02238700  0.55211800  1
  C  C11  1  0.30776600  0.47761300  0.55211800  1
  C  C12  1  0.69223400  0.47761300  0.05211800  1
  C  C13  1  0.30776600  0.02238700  0.05211800  1
  C  C14  1  0.30776600  0.97761300  0.44788200  1
  C  C15  1  0.69223400  0.52238700  0.44788200  1
  C  C16  1  0.29984600  0.67644100  0.88460000  1
  C  C17  1  0.70015400  0.82355900  0.88460000  1
  C  C18  1  0.70015400  0.17644100  0.61540000  1
  C  C19  1  0.29984600  0.32355900  0.61540000  1
  C  C20  1  0.70015400  0.32355900  0.11540000  1
  C  C21  1  0.29984600  0.17644100  0.11540000  1
  C  C22  1  0.29984600  0.82355900  0.38460000  1
  C  C23  1  0.70015400  0.67644100  0.38460000  1
  Ni  Ni24  1  0.50000000  0.75000000  0.65051000  1
  Ni  Ni25  1  0.50000000  0.25000000  0.84949000  1
  Ni  Ni26  1  0.50000000  0.25000000  0.34949000  1
  Ni  Ni27  1  0.50000000  0.75000000  0.15051000  1
  Ni  Ni28  1  0.77763400  0.58943600  0.89081800  1
  Ni  Ni29  1  0.22236600  0.91056400  0.89081800  1
  Ni  Ni30  1  0.22236600  0.08943600  0.60918200  1
  Ni  Ni31  1  0.77763400  0.41056400  0.60918200  1
  Ni  Ni32  1  0.22236600  0.41056400  0.10918200  1
  Ni  Ni33  1  0.77763400  0.08943600  0.10918200  1
  Ni  Ni34  1  0.77763400  0.91056400  0.39081800  1
  Ni  Ni35  1  0.22236600  0.58943600  0.39081800  1
  Cu  Cu36  1  0.31473600  0.56984200  0.87119900  1
  Cu  Cu37  1  0.68526400  0.93015800  0.87119900  1
  Cu  Cu38  1  0.68526400  0.06984200  0.62880100  1
  Cu  Cu39  1  0.31473600  0.43015800  0.62880100  1
  Cu  Cu40  1  0.68526400  0.43015800  0.12880100  1
  Cu  Cu41  1  0.31473600  0.06984200  0.12880100  1
  Cu  Cu42  1  0.31473600  0.93015800  0.37119900  1
  Cu  Cu43  1  0.68526400  0.56984200  0.37119900  1
