# generated using pymatgen
data_Cu(NiC)4
_symmetry_space_group_name_H-M   'P 1'
_cell_length_a   7.05487800
_cell_length_b   7.16173100
_cell_length_c   7.59511600
_cell_angle_alpha   90.00000000
_cell_angle_beta   90.00000000
_cell_angle_gamma   90.00000000
_symmetry_Int_Tables_number   1
_chemical_formula_structural   Cu(NiC)4
_chemical_formula_sum   'Cu4 Ni16 C16'
_cell_volume   383.74428762
_cell_formula_units_Z   4
loop_
 _symmetry_equiv_pos_site_id
 _symmetry_equiv_pos_as_xyz
  1  'x, y, z'
loop_
 _atom_site_type_symbol
 _atom_site_label
 _atom_site_symmetry_multiplicity
 _atom_site_fract_x
 _atom_site_fract_y
 _atom_site_fract_z
 _atom_site_occupancy
  C  C0  1  0.52654500  0.25000000  0.92286800  1
  C  C1  1  0.02654500  0.25000000  0.57713200  1
  C  C2  1  0.47345500  0.75000000  0.07713200  1
  C  C3  1  0.97345500  0.75000000  0.42286800  1
  Ni  Ni4  1  0.95346200  0.12824200  0.94457700  1
  Ni  Ni5  1  0.45346200  0.37175800  0.55542300  1
  Ni  Ni6  1  0.04653800  0.62824200  0.05542300  1
  Ni  Ni7  1  0.54653800  0.87175800  0.44457700  1
  Ni  Ni8  1  0.04653800  0.87175800  0.05542300  1
  Ni  Ni9  1  0.54653800  0.62824200  0.44457700  1
  Ni  Ni10  1  0.95346200  0.37175800  0.94457700  1
  Ni  Ni11  1  0.45346200  0.12824200  0.55542300  1
  Ni  Ni12  1  0.29562800  0.09832500  0.28090500  1
  Ni  Ni13  1  0.79562800  0.40167500  0.21909500  1
  Ni  Ni14  1  0.70437200  0.59832500  0.71909500  1
  Ni  Ni15  1  0.20437200  0.90167500  0.78090500  1
  Ni  Ni16  1  0.70437200  0.90167500  0.71909500  1
  Ni  Ni17  1  0.20437200  0.59832500  0.78090500  1
  Ni  Ni18  1  0.29562800  0.40167500  0.28090500  1
  Ni  Ni19  1  0.79562800  0.09832500  0.21909500  1
  Cu  Cu20  1  0.85744600  0.75000000  0.87461200  1
  Cu  Cu21  1  0.35744600  0.75000000  0.62538800  1
  Cu  Cu22  1  0.14255400  0.25000000  0.12538800  1
  Cu  Cu23  1  0.64255400  0.25000000  0.37461200  1
  C  C24  1  0.01868000  0.25000000  0.98358300  1
  C  C25  1  0.51868000  0.25000000  0.51641700  1
  C  C26  1  0.98132000  0.75000000  0.01641700  1
  C  C27  1  0.48132000  0.75000000  0.48358300  1
  C  C28  1  0.80246100  0.57995100  0.81740400  1
  C  C29  1  0.30246100  0.92004900  0.68259600  1
  C  C30  1  0.19753900  0.07995100  0.18259600  1
  C  C31  1  0.69753900  0.42004900  0.31740400  1
  C  C32  1  0.19753900  0.42004900  0.18259600  1
  C  C33  1  0.69753900  0.07995100  0.31740400  1
  C  C34  1  0.80246100  0.92004900  0.81740400  1
  C  C35  1  0.30246100  0.57995100  0.68259600  1
