# generated using pymatgen
data_CuNi3C2
_symmetry_space_group_name_H-M   'P 1'
_cell_length_a   7.55936800
_cell_length_b   8.65279000
_cell_length_c   14.44454500
_cell_angle_alpha   90.00000000
_cell_angle_beta   90.00000000
_cell_angle_gamma   90.00000000
_symmetry_Int_Tables_number   1
_chemical_formula_structural   CuNi3C2
_chemical_formula_sum   'Cu4 Ni12 C8'
_cell_volume   944.81225494
_cell_formula_units_Z   4
loop_
 _symmetry_equiv_pos_site_id
 _symmetry_equiv_pos_as_xyz
  1  'x, y, z'
loop_
 _atom_site_type_symbol
 _atom_site_label
 _atom_site_symmetry_multiplicity
 _atom_site_fract_x
 _atom_site_fract_y
 _atom_site_fract_z
 _atom_site_occupancy
  C  C0  1  0.00000000  0.50000000  0.00000000  1
  C  C1  1  0.50000000  0.00000000  0.50000000  1
  C  C2  1  0.00000000  0.50000000  0.50000000  1
  C  C3  1  0.50000000  0.00000000  0.00000000  1
  C  C4  1  0.87535800  0.99353700  0.25000000  1
  C  C5  1  0.62464200  0.49353700  0.25000000  1
  C  C6  1  0.12464200  0.00646300  0.75000000  1
  C  C7  1  0.37535800  0.50646300  0.75000000  1
  Ni  Ni8  1  0.63786100  0.97992700  0.25000000  1
  Ni  Ni9  1  0.86213900  0.47992700  0.25000000  1
  Ni  Ni10  1  0.36213900  0.02007300  0.75000000  1
  Ni  Ni11  1  0.13786100  0.52007300  0.75000000  1
  Ni  Ni12  1  0.30871400  0.29507800  0.01536500  1
  Ni  Ni13  1  0.19128600  0.79507800  0.48463500  1
  Ni  Ni14  1  0.69128600  0.70492200  0.51536500  1
  Ni  Ni15  1  0.80871400  0.20492200  0.98463500  1
  Ni  Ni16  1  0.69128600  0.70492200  0.98463500  1
  Ni  Ni17  1  0.80871400  0.20492200  0.51536500  1
  Ni  Ni18  1  0.30871400  0.29507800  0.48463500  1
  Ni  Ni19  1  0.19128600  0.79507800  0.01536500  1
  Cu  Cu20  1  0.02982800  0.00139200  0.25000000  1
  Cu  Cu21  1  0.47017200  0.50139200  0.25000000  1
  Cu  Cu22  1  0.97017200  0.99860800  0.75000000  1
  Cu  Cu23  1  0.52982800  0.49860800  0.75000000  1
