# generated using pymatgen
data_Cu4Ni6C11
_symmetry_space_group_name_H-M   'P 1'
_cell_length_a   11.37808413
_cell_length_b   11.37808413
_cell_length_c   11.37808413
_cell_angle_alpha   119.93572696
_cell_angle_beta   119.93572696
_cell_angle_gamma   90.11136026
_symmetry_Int_Tables_number   1
_chemical_formula_structural   Cu4Ni6C11
_chemical_formula_sum   'Cu8 Ni12 C22'
_cell_volume   1042.58924938
_cell_formula_units_Z   2
loop_
 _symmetry_equiv_pos_site_id
 _symmetry_equiv_pos_as_xyz
  1  'x, y, z'
loop_
 _atom_site_type_symbol
 _atom_site_label
 _atom_site_symmetry_multiplicity
 _atom_site_fract_x
 _atom_site_fract_y
 _atom_site_fract_z
 _atom_site_occupancy
  C  C0  1  0.68365700  0.93387100  0.25021300  1
  C  C1  1  0.68365700  0.43344400  0.74978700  1
  C  C2  1  0.93387100  0.68365700  0.25021300  1
  C  C3  1  0.43344400  0.68365700  0.74978700  1
  C  C4  1  0.31634300  0.06612900  0.74978700  1
  C  C5  1  0.31634300  0.56655600  0.25021300  1
  C  C6  1  0.06612900  0.31634300  0.74978700  1
  C  C7  1  0.56655600  0.31634300  0.25021300  1
  C  C8  1  0.89820500  0.24564500  0.34744000  1
  C  C9  1  0.89820500  0.55076400  0.65256000  1
  C  C10  1  0.24564500  0.89820500  0.34744000  1
  C  C11  1  0.55076400  0.89820500  0.65256000  1
  C  C12  1  0.10179500  0.75435500  0.65256000  1
  C  C13  1  0.10179500  0.44923600  0.34744000  1
  C  C14  1  0.75435500  0.10179500  0.65256000  1
  C  C15  1  0.44923600  0.10179500  0.34744000  1
  C  C16  1  0.33181500  0.33181500  0.66362900  1
  C  C17  1  0.66818500  0.66818500  0.33637100  1
  C  C18  1  0.33181500  0.66818500  0.00000000  1
  C  C19  1  0.66818500  0.33181500  0.00000000  1
  C  C20  1  0.82940100  0.82940100  0.00000000  1
  C  C21  1  0.17059900  0.17059900  0.00000000  1
  Ni  Ni22  1  0.03402100  0.03402100  0.41053700  1
  Ni  Ni23  1  0.62348400  0.62348400  0.58946300  1
  Ni  Ni24  1  0.03402100  0.62348400  0.00000000  1
  Ni  Ni25  1  0.62348400  0.03402100  0.00000000  1
  Ni  Ni26  1  0.96597900  0.96597900  0.58946300  1
  Ni  Ni27  1  0.37651600  0.37651600  0.41053700  1
  Ni  Ni28  1  0.96597900  0.37651600  0.00000000  1
  Ni  Ni29  1  0.37651600  0.96597900  0.00000000  1
  Ni  Ni30  1  0.12877500  0.12877500  0.25755100  1
  Ni  Ni31  1  0.87122500  0.87122500  0.74244900  1
  Ni  Ni32  1  0.12877500  0.87122500  0.00000000  1
  Ni  Ni33  1  0.87122500  0.12877500  0.00000000  1
  Cu  Cu34  1  0.15225100  0.50000000  0.65225100  1
  Cu  Cu35  1  0.84774900  0.50000000  0.34774900  1
  Cu  Cu36  1  0.50000000  0.84774900  0.34774900  1
  Cu  Cu37  1  0.50000000  0.15225100  0.65225100  1
  Cu  Cu38  1  0.61520900  0.61520900  0.00000000  1
  Cu  Cu39  1  0.38479100  0.38479100  0.00000000  1
  Cu  Cu40  1  0.75000000  0.25000000  0.50000000  1
  Cu  Cu41  1  0.25000000  0.75000000  0.50000000  1
