# generated using pymatgen
data_Cu2(NiC)5
_symmetry_space_group_name_H-M   'P 1'
_cell_length_a   6.66258800
_cell_length_b   7.02225100
_cell_length_c   14.14207096
_cell_angle_alpha   61.29003555
_cell_angle_beta   90.00000000
_cell_angle_gamma   90.00000000
_symmetry_Int_Tables_number   1
_chemical_formula_structural   Cu2(NiC)5
_chemical_formula_sum   'Cu8 Ni20 C20'
_cell_volume   580.31383917
_cell_formula_units_Z   4
loop_
 _symmetry_equiv_pos_site_id
 _symmetry_equiv_pos_as_xyz
  1  'x, y, z'
loop_
 _atom_site_type_symbol
 _atom_site_label
 _atom_site_symmetry_multiplicity
 _atom_site_fract_x
 _atom_site_fract_y
 _atom_site_fract_z
 _atom_site_occupancy
  C  C0  1  0.74524500  0.51662400  0.60902800  1
  C  C1  1  0.24524500  0.48337600  0.89097200  1
  C  C2  1  0.25475500  0.48337600  0.39097200  1
  C  C3  1  0.75475500  0.51662400  0.10902800  1
  C  C4  1  0.50606400  0.98006100  0.88475800  1
  C  C5  1  0.00606400  0.01993900  0.61524200  1
  C  C6  1  0.49393600  0.01993900  0.11524200  1
  C  C7  1  0.99393600  0.98006100  0.38475800  1
  C  C8  1  0.01611700  0.93725200  0.88063100  1
  C  C9  1  0.51611700  0.06274800  0.61936900  1
  C  C10  1  0.98388300  0.06274800  0.11936900  1
  C  C11  1  0.48388300  0.93725200  0.38063100  1
  C  C12  1  0.27603800  0.74029200  0.58863300  1
  C  C13  1  0.77603800  0.25970800  0.91136700  1
  C  C14  1  0.72396200  0.25970800  0.41136700  1
  C  C15  1  0.22396200  0.74029200  0.08863300  1
  C  C16  1  0.75779400  0.72528700  0.79064100  1
  C  C17  1  0.25779400  0.27471300  0.70935900  1
  C  C18  1  0.24220600  0.27471300  0.20935900  1
  C  C19  1  0.74220600  0.72528700  0.29064100  1
  Ni  Ni20  1  0.31063300  0.94320100  0.61279600  1
  Ni  Ni21  1  0.81063300  0.05679900  0.88720400  1
  Ni  Ni22  1  0.68936700  0.05679900  0.38720400  1
  Ni  Ni23  1  0.18936700  0.94320100  0.11279600  1
  Ni  Ni24  1  0.70569500  0.89347600  0.66291400  1
  Ni  Ni25  1  0.20569500  0.10652400  0.83708600  1
  Ni  Ni26  1  0.29430500  0.10652400  0.33708600  1
  Ni  Ni27  1  0.79430500  0.89347600  0.16291400  1
  Ni  Ni28  1  0.97450300  0.82188700  0.80543500  1
  Ni  Ni29  1  0.47450300  0.17811300  0.69456500  1
  Ni  Ni30  1  0.02549700  0.17811300  0.19456500  1
  Ni  Ni31  1  0.52549700  0.82188700  0.30543500  1
  Ni  Ni32  1  0.79814900  0.48791600  0.79974100  1
  Ni  Ni33  1  0.29814900  0.51208400  0.70025900  1
  Ni  Ni34  1  0.20185100  0.51208400  0.20025900  1
  Ni  Ni35  1  0.70185100  0.48791600  0.29974100  1
  Ni  Ni36  1  0.57900800  0.26795800  0.50192800  1
  Ni  Ni37  1  0.07900800  0.73204200  0.99807200  1
  Ni  Ni38  1  0.42099200  0.73204200  0.49807200  1
  Ni  Ni39  1  0.92099200  0.26795800  0.00192800  1
  Cu  Cu40  1  0.05055500  0.77927800  0.54943000  1
  Cu  Cu41  1  0.55055500  0.22072200  0.95057000  1
  Cu  Cu42  1  0.94944500  0.22072200  0.45057000  1
  Cu  Cu43  1  0.44944500  0.77927800  0.04943000  1
  Cu  Cu44  1  0.58809800  0.71383600  0.86968600  1
  Cu  Cu45  1  0.08809800  0.28616400  0.63031400  1
  Cu  Cu46  1  0.41190200  0.28616400  0.13031400  1
  Cu  Cu47  1  0.91190200  0.71383600  0.36968600  1
