# generated using pymatgen
data_CuNiC
_symmetry_space_group_name_H-M   'P 1'
_cell_length_a   4.59331900
_cell_length_b   7.00783600
_cell_length_c   8.03709600
_cell_angle_alpha   90.00000000
_cell_angle_beta   90.00000000
_cell_angle_gamma   90.00000000
_symmetry_Int_Tables_number   1
_chemical_formula_structural   CuNiC
_chemical_formula_sum   'Cu4 Ni4 C4'
_cell_volume   258.70790152
_cell_formula_units_Z   4
loop_
 _symmetry_equiv_pos_site_id
 _symmetry_equiv_pos_as_xyz
  1  'x, y, z'
loop_
 _atom_site_type_symbol
 _atom_site_label
 _atom_site_symmetry_multiplicity
 _atom_site_fract_x
 _atom_site_fract_y
 _atom_site_fract_z
 _atom_site_occupancy
  C  C0  1  0.25000000  0.01976500  0.30972700  1
  C  C1  1  0.25000000  0.51976500  0.19027300  1
  C  C2  1  0.75000000  0.98023500  0.69027300  1
  C  C3  1  0.75000000  0.48023500  0.80972700  1
  Ni  Ni4  1  0.25000000  0.16826400  0.92663500  1
  Ni  Ni5  1  0.25000000  0.66826400  0.57336500  1
  Ni  Ni6  1  0.75000000  0.83173600  0.07336500  1
  Ni  Ni7  1  0.75000000  0.33173600  0.42663500  1
  Cu  Cu8  1  0.25000000  0.27077700  0.60241800  1
  Cu  Cu9  1  0.25000000  0.77077700  0.89758200  1
  Cu  Cu10  1  0.75000000  0.72922300  0.39758200  1
  Cu  Cu11  1  0.75000000  0.22922300  0.10241800  1
