# generated using pymatgen
data_Cu18Ni3C11
_symmetry_space_group_name_H-M   'P 1'
_cell_length_a   10.31631040
_cell_length_b   10.31631040
_cell_length_c   13.23106000
_cell_angle_alpha   90.00000000
_cell_angle_beta   90.00000000
_cell_angle_gamma   120.00000259
_symmetry_Int_Tables_number   1
_chemical_formula_structural   Cu18Ni3C11
_chemical_formula_sum   'Cu54 Ni9 C33'
_cell_volume   1219.47825670
_cell_formula_units_Z   3
loop_
 _symmetry_equiv_pos_site_id
 _symmetry_equiv_pos_as_xyz
  1  'x, y, z'
loop_
 _atom_site_type_symbol
 _atom_site_label
 _atom_site_symmetry_multiplicity
 _atom_site_fract_x
 _atom_site_fract_y
 _atom_site_fract_z
 _atom_site_occupancy
  C  C0  1  0.69601300  0.00000000  0.83333300  1
  C  C1  1  0.00000000  0.69601300  0.16666700  1
  C  C2  1  0.30398700  0.30398700  0.50000000  1
  C  C3  1  0.32663000  0.09656300  0.59858500  1
  C  C4  1  0.90343700  0.23006700  0.93191800  1
  C  C5  1  0.09656300  0.32663000  0.40141500  1
  C  C6  1  0.76993300  0.67337000  0.26525200  1
  C  C7  1  0.23006700  0.90343700  0.06808200  1
  C  C8  1  0.67337000  0.76993300  0.73474800  1
  C  C9  1  0.26485100  0.37366500  0.68547800  1
  C  C10  1  0.62633500  0.89118600  0.01881100  1
  C  C11  1  0.37366500  0.26485100  0.31452200  1
  C  C12  1  0.10881400  0.73514900  0.35214400  1
  C  C13  1  0.89118600  0.62633500  0.98118900  1
  C  C14  1  0.73514900  0.10881400  0.64785600  1
  C  C15  1  0.43762000  0.25378100  0.64669600  1
  C  C16  1  0.74621900  0.18383800  0.98002900  1
  C  C17  1  0.25378100  0.43762000  0.35330400  1
  C  C18  1  0.81616200  0.56238000  0.31336300  1
  C  C19  1  0.18383800  0.74621900  0.01997100  1
  C  C20  1  0.56238000  0.81616200  0.68663700  1
  C  C21  1  0.47184800  0.08838700  0.83070700  1
  C  C22  1  0.91161300  0.38346100  0.16404000  1
  C  C23  1  0.08838700  0.47184800  0.16929300  1
  C  C24  1  0.61653900  0.52815200  0.49737400  1
  C  C25  1  0.38346100  0.91161300  0.83596000  1
  C  C26  1  0.52815200  0.61653900  0.50262600  1
  C  C27  1  0.14923800  0.38209000  0.61117000  1
  C  C28  1  0.61791000  0.76714800  0.94450300  1
  C  C29  1  0.38209000  0.14923800  0.38883000  1
  C  C30  1  0.23285200  0.85076200  0.27783700  1
  C  C31  1  0.76714800  0.61791000  0.05549700  1
  C  C32  1  0.85076200  0.23285200  0.72216300  1
  Ni  Ni33  1  0.17511300  0.54455500  0.85491500  1
  Ni  Ni34  1  0.45544500  0.63055800  0.18824900  1
  Ni  Ni35  1  0.54455500  0.17511300  0.14508500  1
  Ni  Ni36  1  0.36944200  0.82488700  0.52158200  1
  Ni  Ni37  1  0.63055800  0.45544500  0.81175100  1
  Ni  Ni38  1  0.82488700  0.36944200  0.47841800  1
  Ni  Ni39  1  0.08359600  0.00000000  0.83333300  1
  Ni  Ni40  1  0.00000000  0.08359600  0.16666700  1
  Ni  Ni41  1  0.91640400  0.91640400  0.50000000  1
  Cu  Cu42  1  0.06711300  0.45676700  0.77597500  1
  Cu  Cu43  1  0.54323300  0.61034600  0.10930800  1
  Cu  Cu44  1  0.45676700  0.06711300  0.22402500  1
  Cu  Cu45  1  0.38965400  0.93288700  0.44264100  1
  Cu  Cu46  1  0.61034600  0.54323300  0.89069200  1
  Cu  Cu47  1  0.93288700  0.38965400  0.55735900  1
  Cu  Cu48  1  0.06935900  0.13254100  0.82155400  1
  Cu  Cu49  1  0.86745900  0.93681800  0.15488700  1
  Cu  Cu50  1  0.13254100  0.06935900  0.17844600  1
  Cu  Cu51  1  0.06318200  0.93064100  0.48822100  1
  Cu  Cu52  1  0.93681800  0.86745900  0.84511300  1
  Cu  Cu53  1  0.93064100  0.06318200  0.51177900  1
  Cu  Cu54  1  0.38875500  0.20366500  0.58317500  1
  Cu  Cu55  1  0.79633500  0.18509000  0.91650900  1
  Cu  Cu56  1  0.20366500  0.38875500  0.41682500  1
  Cu  Cu57  1  0.81491000  0.61124500  0.24984200  1
  Cu  Cu58  1  0.18509000  0.79633500  0.08349100  1
  Cu  Cu59  1  0.61124500  0.81491000  0.75015800  1
  Cu  Cu60  1  0.23764800  0.68143800  0.49880300  1
  Cu  Cu61  1  0.31856200  0.55621000  0.83213700  1
  Cu  Cu62  1  0.68143800  0.23764800  0.50119700  1
  Cu  Cu63  1  0.44379000  0.76235200  0.16547000  1
  Cu  Cu64  1  0.55621000  0.31856200  0.16786300  1
  Cu  Cu65  1  0.76235200  0.44379000  0.83453000  1
  Cu  Cu66  1  0.12008300  0.47399200  0.95341400  1
  Cu  Cu67  1  0.52600800  0.64609200  0.28674800  1
  Cu  Cu68  1  0.47399200  0.12008300  0.04658600  1
  Cu  Cu69  1  0.35390800  0.87991700  0.62008100  1
  Cu  Cu70  1  0.64609200  0.52600800  0.71325200  1
  Cu  Cu71  1  0.87991700  0.35390800  0.37991900  1
  Cu  Cu72  1  0.17651100  0.01885800  0.92232100  1
  Cu  Cu73  1  0.98114200  0.15765300  0.25565400  1
  Cu  Cu74  1  0.01885800  0.17651100  0.07767900  1
  Cu  Cu75  1  0.84234700  0.82348900  0.58898700  1
  Cu  Cu76  1  0.15765300  0.98114200  0.74434600  1
  Cu  Cu77  1  0.82348900  0.84234700  0.41101300  1
  Cu  Cu78  1  0.67482600  0.00000000  0.33333300  1
  Cu  Cu79  1  0.00000000  0.67482600  0.66666700  1
  Cu  Cu80  1  0.32517400  0.32517400  0.00000000  1
  Cu  Cu81  1  0.49647200  0.30405700  0.80753700  1
  Cu  Cu82  1  0.69594300  0.19241600  0.14087000  1
  Cu  Cu83  1  0.30405700  0.49647200  0.19246300  1
  Cu  Cu84  1  0.80758400  0.50352800  0.47420400  1
  Cu  Cu85  1  0.19241600  0.69594300  0.85913000  1
  Cu  Cu86  1  0.50352800  0.80758400  0.52579600  1
  Cu  Cu87  1  0.21354900  0.33833400  0.62070500  1
  Cu  Cu88  1  0.66166600  0.87521400  0.95403800  1
  Cu  Cu89  1  0.33833400  0.21354900  0.37929500  1
  Cu  Cu90  1  0.12478600  0.78645100  0.28737200  1
  Cu  Cu91  1  0.87521400  0.66166600  0.04596200  1
  Cu  Cu92  1  0.78645100  0.12478600  0.71262800  1
  Cu  Cu93  1  0.48344200  0.00000000  0.83333300  1
  Cu  Cu94  1  0.00000000  0.48344200  0.16666700  1
  Cu  Cu95  1  0.51655800  0.51655800  0.50000000  1
