# generated using pymatgen
data_Cu(Ni2C9)2
_symmetry_space_group_name_H-M   'P 1'
_cell_length_a   8.02143700
_cell_length_b   8.02143700
_cell_length_c   8.02143700
_cell_angle_alpha   90.00000000
_cell_angle_beta   90.00000000
_cell_angle_gamma   90.00000000
_symmetry_Int_Tables_number   1
_chemical_formula_structural   Cu(Ni2C9)2
_chemical_formula_sum   'Cu2 Ni8 C36'
_cell_volume   516.12694293
_cell_formula_units_Z   2
loop_
 _symmetry_equiv_pos_site_id
 _symmetry_equiv_pos_as_xyz
  1  'x, y, z'
loop_
 _atom_site_type_symbol
 _atom_site_label
 _atom_site_symmetry_multiplicity
 _atom_site_fract_x
 _atom_site_fract_y
 _atom_site_fract_z
 _atom_site_occupancy
  C  C0  1  0.25000000  0.00000000  0.50000000  1
  C  C1  1  0.75000000  0.00000000  0.50000000  1
  C  C2  1  0.50000000  0.25000000  0.00000000  1
  C  C3  1  0.50000000  0.75000000  0.00000000  1
  C  C4  1  0.00000000  0.50000000  0.25000000  1
  C  C5  1  0.00000000  0.50000000  0.75000000  1
  C  C6  1  0.25000000  0.50000000  0.00000000  1
  C  C7  1  0.75000000  0.50000000  0.00000000  1
  C  C8  1  0.00000000  0.25000000  0.50000000  1
  C  C9  1  0.00000000  0.75000000  0.50000000  1
  C  C10  1  0.50000000  0.00000000  0.25000000  1
  C  C11  1  0.50000000  0.00000000  0.75000000  1
  Ni  Ni12  1  0.16951800  0.16951800  0.16951800  1
  Ni  Ni13  1  0.83048200  0.83048200  0.16951800  1
  Ni  Ni14  1  0.83048200  0.16951800  0.83048200  1
  Ni  Ni15  1  0.66951800  0.66951800  0.66951800  1
  Ni  Ni16  1  0.16951800  0.83048200  0.83048200  1
  Ni  Ni17  1  0.33048200  0.33048200  0.66951800  1
  Ni  Ni18  1  0.66951800  0.33048200  0.33048200  1
  Ni  Ni19  1  0.33048200  0.66951800  0.33048200  1
  Cu  Cu20  1  0.00000000  0.00000000  0.00000000  1
  Cu  Cu21  1  0.50000000  0.50000000  0.50000000  1
  C  C22  1  0.13796600  0.13617800  0.39923100  1
  C  C23  1  0.86203400  0.86382200  0.39923100  1
  C  C24  1  0.86203400  0.13617800  0.60076900  1
  C  C25  1  0.39923100  0.13796600  0.13617800  1
  C  C26  1  0.63617800  0.63796600  0.89923100  1
  C  C27  1  0.13796600  0.86382200  0.60076900  1
  C  C28  1  0.39923100  0.86203400  0.86382200  1
  C  C29  1  0.36382200  0.36203400  0.89923100  1
  C  C30  1  0.60076900  0.86203400  0.13617800  1
  C  C31  1  0.63617800  0.36203400  0.10076900  1
  C  C32  1  0.60076900  0.13796600  0.86382200  1
  C  C33  1  0.36382200  0.63796600  0.10076900  1
  C  C34  1  0.13617800  0.39923100  0.13796600  1
  C  C35  1  0.63796600  0.89923100  0.63617800  1
  C  C36  1  0.13617800  0.60076900  0.86203400  1
  C  C37  1  0.36203400  0.10076900  0.63617800  1
  C  C38  1  0.86382200  0.60076900  0.13796600  1
  C  C39  1  0.63796600  0.10076900  0.36382200  1
  C  C40  1  0.86382200  0.39923100  0.86203400  1
  C  C41  1  0.36203400  0.89923100  0.36382200  1
  C  C42  1  0.89923100  0.63617800  0.63796600  1
  C  C43  1  0.89923100  0.36382200  0.36203400  1
  C  C44  1  0.10076900  0.36382200  0.63796600  1
  C  C45  1  0.10076900  0.63617800  0.36203400  1
