# generated using pymatgen
data_Cu3Ni2C17
_symmetry_space_group_name_H-M   'P 1'
_cell_length_a   7.48616469
_cell_length_b   7.48616469
_cell_length_c   10.49413412
_cell_angle_alpha   88.76385510
_cell_angle_beta   88.76385510
_cell_angle_gamma   90.36135191
_symmetry_Int_Tables_number   1
_chemical_formula_structural   Cu3Ni2C17
_chemical_formula_sum   'Cu6 Ni4 C34'
_cell_volume   587.83200608
_cell_formula_units_Z   2
loop_
 _symmetry_equiv_pos_site_id
 _symmetry_equiv_pos_as_xyz
  1  'x, y, z'
loop_
 _atom_site_type_symbol
 _atom_site_label
 _atom_site_symmetry_multiplicity
 _atom_site_fract_x
 _atom_site_fract_y
 _atom_site_fract_z
 _atom_site_occupancy
  Ni  Ni0  1  0.50000000  0.00000000  0.00000000  1
  Ni  Ni1  1  0.00000000  0.50000000  0.50000000  1
  Ni  Ni2  1  0.76134100  0.23865900  0.75000000  1
  Ni  Ni3  1  0.23865900  0.76134100  0.25000000  1
  Cu  Cu4  1  0.22406700  0.77593300  0.75000000  1
  Cu  Cu5  1  0.28396300  0.26120600  0.24129500  1
  Cu  Cu6  1  0.73879400  0.71603700  0.25870500  1
  Cu  Cu7  1  0.71603700  0.73879400  0.75870500  1
  Cu  Cu8  1  0.26120600  0.28396300  0.74129500  1
  Cu  Cu9  1  0.77593300  0.22406700  0.25000000  1
  C  C10  1  0.50000000  0.00000000  0.50000000  1
  C  C11  1  0.00000000  0.50000000  0.00000000  1
  C  C12  1  0.50000000  0.50000000  0.50000000  1
  C  C13  1  0.00000000  0.00000000  0.00000000  1
  C  C14  1  0.00000000  0.00000000  0.50000000  1
  C  C15  1  0.50000000  0.50000000  0.00000000  1
  C  C16  1  0.56674000  0.75501300  0.44202000  1
  C  C17  1  0.43326000  0.24498700  0.55798000  1
  C  C18  1  0.08606000  0.74974800  0.98412700  1
  C  C19  1  0.91394000  0.25025200  0.01587300  1
  C  C20  1  0.25025200  0.91394000  0.51587300  1
  C  C21  1  0.74974800  0.08606000  0.48412700  1
  C  C22  1  0.24498700  0.43326000  0.05798000  1
  C  C23  1  0.75501300  0.56674000  0.94202000  1
  C  C24  1  0.51170400  0.93271200  0.68491100  1
  C  C25  1  0.93271200  0.51170400  0.18491100  1
  C  C26  1  0.48829600  0.06728800  0.31508900  1
  C  C27  1  0.06728800  0.48829600  0.81508900  1
  C  C28  1  0.69633900  0.50071100  0.62945100  1
  C  C29  1  0.30631800  0.55134000  0.62548800  1
  C  C30  1  0.20394900  0.02561800  0.12096000  1
  C  C31  1  0.81470100  0.95896300  0.14061000  1
  C  C32  1  0.95896300  0.81470100  0.64061000  1
  C  C33  1  0.02561800  0.20394900  0.62096000  1
  C  C34  1  0.55134000  0.30631800  0.12548800  1
  C  C35  1  0.50071100  0.69633900  0.12945100  1
  C  C36  1  0.30366100  0.49928900  0.37054900  1
  C  C37  1  0.69368200  0.44866000  0.37451200  1
  C  C38  1  0.79605100  0.97438200  0.87904000  1
  C  C39  1  0.18529900  0.04103700  0.85939000  1
  C  C40  1  0.04103700  0.18529900  0.35939000  1
  C  C41  1  0.97438200  0.79605100  0.37904000  1
  C  C42  1  0.44866000  0.69368200  0.87451200  1
  C  C43  1  0.49928900  0.30366100  0.87054900  1
