# generated using pymatgen
data_Cu2NiC6
_symmetry_space_group_name_H-M   'P 1'
_cell_length_a   6.37040400
_cell_length_b   6.97974000
_cell_length_c   9.28382400
_cell_angle_alpha   90.00000000
_cell_angle_beta   90.00000000
_cell_angle_gamma   90.00000000
_symmetry_Int_Tables_number   1
_chemical_formula_structural   Cu2NiC6
_chemical_formula_sum   'Cu8 Ni4 C24'
_cell_volume   412.79375578
_cell_formula_units_Z   4
loop_
 _symmetry_equiv_pos_site_id
 _symmetry_equiv_pos_as_xyz
  1  'x, y, z'
loop_
 _atom_site_type_symbol
 _atom_site_label
 _atom_site_symmetry_multiplicity
 _atom_site_fract_x
 _atom_site_fract_y
 _atom_site_fract_z
 _atom_site_occupancy
  Ni  Ni0  1  0.58182200  0.98213100  0.67593800  1
  Ni  Ni1  1  0.41817800  0.48213100  0.32406200  1
  Ni  Ni2  1  0.08182200  0.48213100  0.82406200  1
  Ni  Ni3  1  0.91817800  0.98213100  0.17593800  1
  Cu  Cu4  1  0.09584900  0.74587100  0.52133900  1
  Cu  Cu5  1  0.40415100  0.74587100  0.02133900  1
  Cu  Cu6  1  0.90415100  0.24587100  0.47866100  1
  Cu  Cu7  1  0.59584900  0.24587100  0.97866100  1
  Cu  Cu8  1  0.92755300  0.52694800  0.17398000  1
  Cu  Cu9  1  0.07244700  0.02694800  0.82602000  1
  Cu  Cu10  1  0.42755300  0.02694800  0.32602000  1
  Cu  Cu11  1  0.57244700  0.52694800  0.67398000  1
  C  C12  1  0.69368700  0.74818300  0.39689500  1
  C  C13  1  0.80631300  0.74818300  0.89689500  1
  C  C14  1  0.30631300  0.24818300  0.60310500  1
  C  C15  1  0.19368700  0.24818300  0.10310500  1
  C  C16  1  0.02187700  0.75028600  0.99082800  1
  C  C17  1  0.47812300  0.75028600  0.49082800  1
  C  C18  1  0.97812300  0.25028600  0.00917200  1
  C  C19  1  0.52187700  0.25028600  0.50917200  1
  C  C20  1  0.63752100  0.74897500  0.21959900  1
  C  C21  1  0.86247900  0.74897500  0.71959900  1
  C  C22  1  0.36247900  0.24897500  0.78040100  1
  C  C23  1  0.13752100  0.24897500  0.28040100  1
  C  C24  1  0.31858300  0.05296600  0.07303800  1
  C  C25  1  0.19158900  0.44625300  0.57196400  1
  C  C26  1  0.68141700  0.55296600  0.92696200  1
  C  C27  1  0.80841100  0.94625300  0.42803600  1
  C  C28  1  0.69158900  0.94625300  0.92803600  1
  C  C29  1  0.81858300  0.55296600  0.42696200  1
  C  C30  1  0.30841100  0.44625300  0.07196400  1
  C  C31  1  0.18141700  0.05296600  0.57303800  1
  C  C32  1  0.16407700  0.74838800  0.27786200  1
  C  C33  1  0.33592300  0.74838800  0.77786200  1
  C  C34  1  0.83592300  0.24838800  0.72213800  1
  C  C35  1  0.66407700  0.24838800  0.22213800  1
