# generated using pymatgen
data_Cu4Ni10C23
_symmetry_space_group_name_H-M   'P 1'
_cell_length_a   9.83135950
_cell_length_b   9.83135950
_cell_length_c   13.47511202
_cell_angle_alpha   84.67411710
_cell_angle_beta   84.67411710
_cell_angle_gamma   41.43927347
_symmetry_Int_Tables_number   1
_chemical_formula_structural   Cu4Ni10C23
_chemical_formula_sum   'Cu8 Ni20 C46'
_cell_volume   857.73698581
_cell_formula_units_Z   2
loop_
 _symmetry_equiv_pos_site_id
 _symmetry_equiv_pos_as_xyz
  1  'x, y, z'
loop_
 _atom_site_type_symbol
 _atom_site_label
 _atom_site_symmetry_multiplicity
 _atom_site_fract_x
 _atom_site_fract_y
 _atom_site_fract_z
 _atom_site_occupancy
  C  C0  1  0.07572000  0.80300500  0.93325200  1
  C  C1  1  0.19699500  0.92428000  0.56674800  1
  C  C2  1  0.92428000  0.19699500  0.06674800  1
  C  C3  1  0.80300500  0.07572000  0.43325200  1
  C  C4  1  0.82203900  0.61193900  0.15293000  1
  C  C5  1  0.38806100  0.17796100  0.34707000  1
  C  C6  1  0.17796100  0.38806100  0.84707000  1
  C  C7  1  0.61193900  0.82203900  0.65293000  1
  Ni  Ni8  1  0.93014200  0.23381400  0.81035400  1
  Ni  Ni9  1  0.76618600  0.06985800  0.68964600  1
  Ni  Ni10  1  0.06985800  0.76618600  0.18964600  1
  Ni  Ni11  1  0.23381400  0.93014200  0.31035400  1
  Ni  Ni12  1  0.63124800  0.29710600  0.82925600  1
  Ni  Ni13  1  0.70289400  0.36875200  0.67074400  1
  Ni  Ni14  1  0.36875200  0.70289400  0.17074400  1
  Ni  Ni15  1  0.29710600  0.63124800  0.32925600  1
  Ni  Ni16  1  0.50903300  0.27587600  0.99670400  1
  Ni  Ni17  1  0.72412400  0.49096700  0.50329600  1
  Ni  Ni18  1  0.49096700  0.72412400  0.00329600  1
  Ni  Ni19  1  0.27587600  0.50903300  0.49670400  1
  Ni  Ni20  1  0.37549800  0.17814800  0.09837400  1
  Ni  Ni21  1  0.82185200  0.62450200  0.40162600  1
  Ni  Ni22  1  0.62450200  0.82185200  0.90162600  1
  Ni  Ni23  1  0.17814800  0.37549800  0.59837400  1
  Ni  Ni24  1  0.70606400  0.03504100  0.14558100  1
  Ni  Ni25  1  0.96495900  0.29393600  0.35441900  1
  Ni  Ni26  1  0.29393600  0.96495900  0.85441900  1
  Ni  Ni27  1  0.03504100  0.70606400  0.64558100  1
  Cu  Cu28  1  0.59222400  0.28167100  0.22226200  1
  Cu  Cu29  1  0.71832900  0.40777600  0.27773800  1
  Cu  Cu30  1  0.40777600  0.71832900  0.77773800  1
  Cu  Cu31  1  0.28167100  0.59222400  0.72226200  1
  Cu  Cu32  1  0.25935100  0.08433000  0.15382600  1
  Cu  Cu33  1  0.91567000  0.74064900  0.34617400  1
  Cu  Cu34  1  0.74064900  0.91567000  0.84617400  1
  Cu  Cu35  1  0.08433000  0.25935100  0.65382600  1
  C  C36  1  0.69356000  0.11656600  0.78761400  1
  C  C37  1  0.88343400  0.30644000  0.71238600  1
  C  C38  1  0.30644000  0.88343400  0.21238600  1
  C  C39  1  0.11656600  0.69356000  0.28761400  1
  C  C40  1  0.91066100  0.81940600  0.14725900  1
  C  C41  1  0.18059400  0.08933900  0.35274100  1
  C  C42  1  0.08933900  0.18059400  0.85274100  1
  C  C43  1  0.81940600  0.91066100  0.64725900  1
  C  C44  1  0.81876200  0.21853400  0.86811500  1
  C  C45  1  0.78146600  0.18123800  0.63188500  1
  C  C46  1  0.18123800  0.78146600  0.13188500  1
  C  C47  1  0.21853400  0.81876200  0.36811500  1
  C  C48  1  0.54603300  0.45396700  0.75000000  1
  C  C49  1  0.45396700  0.54603300  0.25000000  1
  C  C50  1  0.47677500  0.37810400  0.90944500  1
  C  C51  1  0.62189600  0.52322500  0.59055500  1
  C  C52  1  0.52322500  0.62189600  0.09055500  1
  C  C53  1  0.37810400  0.47677500  0.40944500  1
  C  C54  1  0.34071700  0.31595300  0.02986200  1
  C  C55  1  0.68404700  0.65928300  0.47013800  1
  C  C56  1  0.65928300  0.68404700  0.97013800  1
  C  C57  1  0.31595300  0.34071700  0.52986200  1
  C  C58  1  0.22112600  0.19720800  0.11095600  1
  C  C59  1  0.80279200  0.77887400  0.38904400  1
  C  C60  1  0.77887400  0.80279200  0.88904400  1
  C  C61  1  0.19720800  0.22112600  0.61095600  1
  C  C62  1  0.55240300  0.03346200  0.14985600  1
  C  C63  1  0.96653800  0.44759700  0.35014400  1
  C  C64  1  0.44759700  0.96653800  0.85014400  1
  C  C65  1  0.03346200  0.55240300  0.64985600  1
  C  C66  1  0.67527400  0.13566600  0.23240700  1
  C  C67  1  0.86433400  0.32472600  0.26759300  1
  C  C68  1  0.32472600  0.86433400  0.76759300  1
  C  C69  1  0.13566600  0.67527400  0.73240700  1
  C  C70  1  0.68357900  0.14158200  0.04988000  1
  C  C71  1  0.85841800  0.31642100  0.45012000  1
  C  C72  1  0.31642100  0.85841800  0.95012000  1
  C  C73  1  0.14158200  0.68357900  0.54988000  1
