# generated using pymatgen
data_Cu(Ni3C2)4
_symmetry_space_group_name_H-M   'P 1'
_cell_length_a   9.60155651
_cell_length_b   9.60155651
_cell_length_c   6.99989500
_cell_angle_alpha   90.00000000
_cell_angle_beta   90.00000000
_cell_angle_gamma   120.00000351
_symmetry_Int_Tables_number   1
_chemical_formula_structural   Cu(Ni3C2)4
_chemical_formula_sum   'Cu2 Ni24 C16'
_cell_volume   558.86308840
_cell_formula_units_Z   2
loop_
 _symmetry_equiv_pos_site_id
 _symmetry_equiv_pos_as_xyz
  1  'x, y, z'
loop_
 _atom_site_type_symbol
 _atom_site_label
 _atom_site_symmetry_multiplicity
 _atom_site_fract_x
 _atom_site_fract_y
 _atom_site_fract_z
 _atom_site_occupancy
  C  C0  1  0.25811800  0.23889400  0.25000000  1
  C  C1  1  0.74188200  0.76110600  0.75000000  1
  C  C2  1  0.76110600  0.01922400  0.25000000  1
  C  C3  1  0.23889400  0.98077600  0.75000000  1
  C  C4  1  0.98077600  0.74188200  0.25000000  1
  C  C5  1  0.01922400  0.25811800  0.75000000  1
  C  C6  1  0.33333300  0.66666700  0.99368900  1
  C  C7  1  0.66666700  0.33333300  0.00631100  1
  C  C8  1  0.66666700  0.33333300  0.49368900  1
  C  C9  1  0.33333300  0.66666700  0.50631100  1
  C  C10  1  0.38962300  0.99444000  0.25000000  1
  C  C11  1  0.61037700  0.00556000  0.75000000  1
  C  C12  1  0.00556000  0.39518300  0.25000000  1
  C  C13  1  0.99444000  0.60481700  0.75000000  1
  C  C14  1  0.60481700  0.61037700  0.25000000  1
  C  C15  1  0.39518300  0.38962300  0.75000000  1
  Ni  Ni16  1  0.59948500  0.13908600  0.25000000  1
  Ni  Ni17  1  0.40051500  0.86091400  0.75000000  1
  Ni  Ni18  1  0.86091400  0.46039900  0.25000000  1
  Ni  Ni19  1  0.13908600  0.53960100  0.75000000  1
  Ni  Ni20  1  0.53960100  0.40051500  0.25000000  1
  Ni  Ni21  1  0.46039900  0.59948500  0.75000000  1
  Ni  Ni22  1  0.19863800  0.45779500  0.25000000  1
  Ni  Ni23  1  0.80136200  0.54220500  0.75000000  1
  Ni  Ni24  1  0.54220500  0.74084300  0.25000000  1
  Ni  Ni25  1  0.45779500  0.25915700  0.75000000  1
  Ni  Ni26  1  0.25915700  0.80136200  0.25000000  1
  Ni  Ni27  1  0.74084300  0.19863800  0.75000000  1
  Ni  Ni28  1  0.33671500  0.05644900  0.07796200  1
  Ni  Ni29  1  0.66328500  0.94355100  0.92203800  1
  Ni  Ni30  1  0.94355100  0.28026600  0.07796200  1
  Ni  Ni31  1  0.66328500  0.94355100  0.57796200  1
  Ni  Ni32  1  0.05644900  0.71973400  0.92203800  1
  Ni  Ni33  1  0.33671500  0.05644900  0.42203800  1
  Ni  Ni34  1  0.71973400  0.66328500  0.07796200  1
  Ni  Ni35  1  0.05644900  0.71973400  0.57796200  1
  Ni  Ni36  1  0.28026600  0.33671500  0.92203800  1
  Ni  Ni37  1  0.94355100  0.28026600  0.42203800  1
  Ni  Ni38  1  0.28026600  0.33671500  0.57796200  1
  Ni  Ni39  1  0.71973400  0.66328500  0.42203800  1
  Cu  Cu40  1  0.00000000  0.00000000  0.25000000  1
  Cu  Cu41  1  0.00000000  0.00000000  0.75000000  1
