# generated using pymatgen
data_Cu10NiC
_symmetry_space_group_name_H-M   'P 1'
_cell_length_a   11.48701964
_cell_length_b   11.48701964
_cell_length_c   11.48701964
_cell_angle_alpha   90.00000000
_cell_angle_beta   90.00000000
_cell_angle_gamma   90.00000000
_symmetry_Int_Tables_number   1
_chemical_formula_structural   Cu10NiC
_chemical_formula_sum   'Cu80 Ni8 C8'
_cell_volume   1515.73085288
_cell_formula_units_Z   8
loop_
 _symmetry_equiv_pos_site_id
 _symmetry_equiv_pos_as_xyz
  1  'x, y, z'
loop_
 _atom_site_type_symbol
 _atom_site_label
 _atom_site_symmetry_multiplicity
 _atom_site_fract_x
 _atom_site_fract_y
 _atom_site_fract_z
 _atom_site_occupancy
  C  C0  1  0.50000000  -0.00000000  -0.00000000  1
  C  C1  1  0.50000000  0.50000000  0.50000000  1
  C  C2  1  -0.00000000  -0.00000000  0.50000000  1
  C  C3  1  0.00000000  0.50000000  -0.00000000  1
  C  C4  1  0.50000000  0.50000000  -0.00000000  1
  C  C5  1  0.50000000  -0.00000000  0.50000000  1
  C  C6  1  -0.00000000  0.50000000  0.50000000  1
  C  C7  1  0.00000000  -0.00000000  -0.00000000  1
  Ni  Ni8  1  0.19157114  0.80842886  0.30842886  1
  Ni  Ni9  1  0.80842886  0.30842886  0.19157114  1
  Ni  Ni10  1  0.30842886  0.19157114  0.80842886  1
  Ni  Ni11  1  0.69157114  0.69157114  0.69157114  1
  Ni  Ni12  1  0.80842886  0.19157114  0.69157114  1
  Ni  Ni13  1  0.19157114  0.69157114  0.80842886  1
  Ni  Ni14  1  0.69157114  0.80842886  0.19157114  1
  Ni  Ni15  1  0.30842886  0.30842886  0.30842886  1
  Cu  Cu16  1  0.26441729  0.73558271  0.23558271  1
  Cu  Cu17  1  0.73558271  0.23558271  0.26441729  1
  Cu  Cu18  1  0.23558271  0.26441729  0.73558271  1
  Cu  Cu19  1  0.76441729  0.76441729  0.76441729  1
  Cu  Cu20  1  0.73558271  0.26441729  0.76441729  1
  Cu  Cu21  1  0.26441729  0.76441729  0.73558271  1
  Cu  Cu22  1  0.76441729  0.73558271  0.26441729  1
  Cu  Cu23  1  0.23558271  0.23558271  0.23558271  1
  Cu  Cu24  1  0.57026899  0.82374489  0.23801973  1
  Cu  Cu25  1  0.42973101  0.32374489  0.26198027  1
  Cu  Cu26  1  0.92973101  0.17625511  0.73801973  1
  Cu  Cu27  1  0.07026899  0.67625511  0.76198027  1
  Cu  Cu28  1  0.23801973  0.57026899  0.82374489  1
  Cu  Cu29  1  0.26198027  0.42973101  0.32374489  1
  Cu  Cu30  1  0.73801973  0.92973101  0.17625511  1
  Cu  Cu31  1  0.76198027  0.07026899  0.67625511  1
  Cu  Cu32  1  0.82374489  0.23801973  0.57026899  1
  Cu  Cu33  1  0.32374489  0.26198027  0.42973101  1
  Cu  Cu34  1  0.17625511  0.73801973  0.92973101  1
  Cu  Cu35  1  0.67625511  0.76198027  0.07026899  1
  Cu  Cu36  1  0.42973101  0.17625511  0.76198027  1
  Cu  Cu37  1  0.57026899  0.67625511  0.73801973  1
  Cu  Cu38  1  0.07026899  0.82374489  0.26198027  1
  Cu  Cu39  1  0.92973101  0.32374489  0.23801973  1
  Cu  Cu40  1  0.76198027  0.42973101  0.17625511  1
  Cu  Cu41  1  0.73801973  0.57026899  0.67625511  1
  Cu  Cu42  1  0.26198027  0.07026899  0.82374489  1
  Cu  Cu43  1  0.23801973  0.92973101  0.32374489  1
  Cu  Cu44  1  0.17625511  0.76198027  0.42973101  1
  Cu  Cu45  1  0.67625511  0.73801973  0.57026899  1
  Cu  Cu46  1  0.82374489  0.26198027  0.07026899  1
  Cu  Cu47  1  0.32374489  0.23801973  0.92973101  1
  Cu  Cu48  1  0.47608573  0.68119785  0.97470533  1
  Cu  Cu49  1  0.52391427  0.18119785  0.52529467  1
  Cu  Cu50  1  0.02391427  0.31880215  0.47470533  1
  Cu  Cu51  1  0.97608573  0.81880215  0.02529467  1
  Cu  Cu52  1  0.97470533  0.47608573  0.68119785  1
  Cu  Cu53  1  0.52529467  0.52391427  0.18119785  1
  Cu  Cu54  1  0.47470533  0.02391427  0.31880215  1
  Cu  Cu55  1  0.02529467  0.97608573  0.81880215  1
  Cu  Cu56  1  0.68119785  0.97470533  0.47608573  1
  Cu  Cu57  1  0.18119785  0.52529467  0.52391427  1
  Cu  Cu58  1  0.31880215  0.47470533  0.02391427  1
  Cu  Cu59  1  0.81880215  0.02529467  0.97608573  1
  Cu  Cu60  1  0.52391427  0.31880215  0.02529467  1
  Cu  Cu61  1  0.47608573  0.81880215  0.47470533  1
  Cu  Cu62  1  0.97608573  0.68119785  0.52529467  1
  Cu  Cu63  1  0.02391427  0.18119785  0.97470533  1
  Cu  Cu64  1  0.02529467  0.52391427  0.31880215  1
  Cu  Cu65  1  0.47470533  0.47608573  0.81880215  1
  Cu  Cu66  1  0.52529467  0.97608573  0.68119785  1
  Cu  Cu67  1  0.97470533  0.02391427  0.18119785  1
  Cu  Cu68  1  0.31880215  0.02529467  0.52391427  1
  Cu  Cu69  1  0.81880215  0.47470533  0.47608573  1
  Cu  Cu70  1  0.68119785  0.52529467  0.97608573  1
  Cu  Cu71  1  0.18119785  0.97470533  0.02391427  1
  Cu  Cu72  1  0.24400660  0.52305631  0.08615199  1
  Cu  Cu73  1  0.75599340  0.02305631  0.41384801  1
  Cu  Cu74  1  0.25599340  0.47694369  0.58615199  1
  Cu  Cu75  1  0.74400660  0.97694369  0.91384801  1
  Cu  Cu76  1  0.08615199  0.24400660  0.52305631  1
  Cu  Cu77  1  0.41384801  0.75599340  0.02305631  1
  Cu  Cu78  1  0.58615199  0.25599340  0.47694369  1
  Cu  Cu79  1  0.91384801  0.74400660  0.97694369  1
  Cu  Cu80  1  0.52305631  0.08615199  0.24400660  1
  Cu  Cu81  1  0.02305631  0.41384801  0.75599340  1
  Cu  Cu82  1  0.47694369  0.58615199  0.25599340  1
  Cu  Cu83  1  0.97694369  0.91384801  0.74400660  1
  Cu  Cu84  1  0.75599340  0.47694369  0.91384801  1
  Cu  Cu85  1  0.24400660  0.97694369  0.58615199  1
  Cu  Cu86  1  0.74400660  0.52305631  0.41384801  1
  Cu  Cu87  1  0.25599340  0.02305631  0.08615199  1
  Cu  Cu88  1  0.91384801  0.75599340  0.47694369  1
  Cu  Cu89  1  0.58615199  0.24400660  0.97694369  1
  Cu  Cu90  1  0.41384801  0.74400660  0.52305631  1
  Cu  Cu91  1  0.08615199  0.25599340  0.02305631  1
  Cu  Cu92  1  0.47694369  0.91384801  0.75599340  1
  Cu  Cu93  1  0.97694369  0.58615199  0.24400660  1
  Cu  Cu94  1  0.52305631  0.41384801  0.74400660  1
  Cu  Cu95  1  0.02305631  0.08615199  0.25599340  1
