# generated using pymatgen
data_Cu31Ni2C9
_symmetry_space_group_name_H-M   'P 1'
_cell_length_a   10.63522526
_cell_length_b   10.23498369
_cell_length_c   8.86112150
_cell_angle_alpha   75.05179892
_cell_angle_beta   63.85171744
_cell_angle_gamma   54.09671426
_symmetry_Int_Tables_number   1
_chemical_formula_structural   Cu31Ni2C9
_chemical_formula_sum   'Cu31 Ni2 C9'
_cell_volume   701.32924374
_cell_formula_units_Z   1
loop_
 _symmetry_equiv_pos_site_id
 _symmetry_equiv_pos_as_xyz
  1  'x, y, z'
loop_
 _atom_site_type_symbol
 _atom_site_label
 _atom_site_symmetry_multiplicity
 _atom_site_fract_x
 _atom_site_fract_y
 _atom_site_fract_z
 _atom_site_occupancy
  C  C0  1  0.50000000  0.00000000  0.00000000  1
  C  C1  1  0.64058000  0.21416000  0.10301000  1
  C  C2  1  0.35942000  0.78584000  0.89699000  1
  C  C3  1  0.10031700  0.33746300  0.26788600  1
  C  C4  1  0.89968300  0.66253700  0.73211400  1
  C  C5  1  0.25787800  0.32375500  0.55606800  1
  C  C6  1  0.74212200  0.67624500  0.44393200  1
  C  C7  1  0.10434300  0.65097500  0.31490900  1
  C  C8  1  0.89565700  0.34902500  0.68509100  1
  Ni  Ni9  1  0.79276400  0.19445400  0.33199500  1
  Ni  Ni10  1  0.20723600  0.80554600  0.66800500  1
  Cu  Cu11  1  0.45159600  0.43635100  0.88713900  1
  Cu  Cu12  1  0.54840400  0.56364900  0.11286100  1
  Cu  Cu13  1  0.28673800  0.19625700  0.36785100  1
  Cu  Cu14  1  0.71326200  0.80374300  0.63214900  1
  Cu  Cu15  1  0.12835600  0.22903100  0.67162300  1
  Cu  Cu16  1  0.87164400  0.77096900  0.32837700  1
  Cu  Cu17  1  0.14446200  0.50636300  0.17014000  1
  Cu  Cu18  1  0.85553800  0.49363700  0.82986000  1
  Cu  Cu19  1  0.83665200  0.09510800  0.23323800  1
  Cu  Cu20  1  0.16334800  0.90489200  0.76676200  1
  Cu  Cu21  1  0.66760600  0.33315800  0.35174800  1
  Cu  Cu22  1  0.33239400  0.66684200  0.64825200  1
  Cu  Cu23  1  0.14095600  0.21562400  0.11290200  1
  Cu  Cu24  1  0.85904400  0.78437600  0.88709800  1
  Cu  Cu25  1  0.19469200  0.75316400  0.17060600  1
  Cu  Cu26  1  0.80530800  0.24683600  0.82939400  1
  Cu  Cu27  1  0.36322600  0.21205500  0.18470600  1
  Cu  Cu28  1  0.63677400  0.78794500  0.81529400  1
  Cu  Cu29  1  0.29776700  0.46036200  0.37041300  1
  Cu  Cu30  1  0.70223300  0.53963800  0.62958700  1
  Cu  Cu31  1  0.54717300  0.66241300  0.17099900  1
  Cu  Cu32  1  0.45282700  0.33758700  0.82900100  1
  Cu  Cu33  1  0.13138400  0.48548200  0.72041000  1
  Cu  Cu34  1  0.86861600  0.51451800  0.27959000  1
  Cu  Cu35  1  0.00000000  0.50000000  0.50000000  1
  Cu  Cu36  1  0.24567300  0.11003900  0.98431500  1
  Cu  Cu37  1  0.75432700  0.88996100  0.01568500  1
  Cu  Cu38  1  0.01719600  0.74102800  0.53067300  1
  Cu  Cu39  1  0.98280400  0.25897200  0.46932700  1
  Cu  Cu40  1  0.44966500  0.18805000  0.57738100  1
  Cu  Cu41  1  0.55033500  0.81195000  0.42261900  1
