# generated using pymatgen
data_Cu3NiC8
_symmetry_space_group_name_H-M   'P 1'
_cell_length_a   3.25552718
_cell_length_b   3.25552718
_cell_length_c   36.55751000
_cell_angle_alpha   90.00000000
_cell_angle_beta   90.00000000
_cell_angle_gamma   119.99998327
_symmetry_Int_Tables_number   1
_chemical_formula_structural   Cu3NiC8
_chemical_formula_sum   'Cu3 Ni1 C8'
_cell_volume   335.54437488
_cell_formula_units_Z   1
loop_
 _symmetry_equiv_pos_site_id
 _symmetry_equiv_pos_as_xyz
  1  'x, y, z'
loop_
 _atom_site_type_symbol
 _atom_site_label
 _atom_site_symmetry_multiplicity
 _atom_site_fract_x
 _atom_site_fract_y
 _atom_site_fract_z
 _atom_site_occupancy
  Ni  Ni0  1  0.00000000  0.00000000  0.09391600  1
  Cu  Cu1  1  0.00000000  0.00000000  0.46967900  1
  Cu  Cu2  1  0.33333300  0.66666700  0.28179700  1
  Cu  Cu3  1  0.33333300  0.66666700  0.65760500  1
  C  C4  1  0.00000000  0.00000000  0.70429200  1
  C  C5  1  0.33333300  0.66666700  0.42292200  1
  C  C6  1  0.33333300  0.66666700  0.51632000  1
  C  C7  1  0.00000000  0.00000000  0.61083200  1
  C  C8  1  0.00000000  0.00000000  0.32419200  1
  C  C9  1  0.33333300  0.66666700  0.05165000  1
  C  C10  1  0.33333300  0.66666700  0.13616800  1
  C  C11  1  0.00000000  0.00000000  0.23937300  1
