# generated using pymatgen
data_CuNiC6
_symmetry_space_group_name_H-M   'P 1'
_cell_length_a   5.55133800
_cell_length_b   6.59149300
_cell_length_c   12.39762000
_cell_angle_alpha   90.00000000
_cell_angle_beta   90.00000000
_cell_angle_gamma   90.00000000
_symmetry_Int_Tables_number   1
_chemical_formula_structural   CuNiC6
_chemical_formula_sum   'Cu2 Ni2 C12'
_cell_volume   453.64882102
_cell_formula_units_Z   2
loop_
 _symmetry_equiv_pos_site_id
 _symmetry_equiv_pos_as_xyz
  1  'x, y, z'
loop_
 _atom_site_type_symbol
 _atom_site_label
 _atom_site_symmetry_multiplicity
 _atom_site_fract_x
 _atom_site_fract_y
 _atom_site_fract_z
 _atom_site_occupancy
  Ni  Ni0  1  0.50000000  0.50000000  0.17035400  1
  Ni  Ni1  1  0.50000000  0.00000000  0.67035400  1
  Cu  Cu2  1  0.50000000  0.00000000  0.16696400  1
  Cu  Cu3  1  0.50000000  0.50000000  0.66696400  1
  C  C4  1  0.50000000  0.25218500  0.41854800  1
  C  C5  1  0.50000000  0.74781500  0.41854800  1
  C  C6  1  0.00000000  0.76964700  0.07326800  1
  C  C7  1  0.00000000  0.23035300  0.07326800  1
  C  C8  1  0.00000000  0.00000000  0.33132200  1
  C  C9  1  0.00000000  0.50000000  0.34772500  1
  C  C10  1  0.50000000  0.75218500  0.91854800  1
  C  C11  1  0.50000000  0.24781500  0.91854800  1
  C  C12  1  0.00000000  0.26964700  0.57326800  1
  C  C13  1  0.00000000  0.73035300  0.57326800  1
  C  C14  1  0.00000000  0.50000000  0.83132200  1
  C  C15  1  0.00000000  0.00000000  0.84772500  1
