# generated using pymatgen
data_Cu2NiC13
_symmetry_space_group_name_H-M   'P 1'
_cell_length_a   7.93518865
_cell_length_b   11.09767100
_cell_length_c   13.69968254
_cell_angle_alpha   90.00000000
_cell_angle_beta   99.88773705
_cell_angle_gamma   90.00000000
_symmetry_Int_Tables_number   1
_chemical_formula_structural   Cu2NiC13
_chemical_formula_sum   'Cu8 Ni4 C52'
_cell_volume   1188.50290586
_cell_formula_units_Z   4
loop_
 _symmetry_equiv_pos_site_id
 _symmetry_equiv_pos_as_xyz
  1  'x, y, z'
loop_
 _atom_site_type_symbol
 _atom_site_label
 _atom_site_symmetry_multiplicity
 _atom_site_fract_x
 _atom_site_fract_y
 _atom_site_fract_z
 _atom_site_occupancy
  C  C0  1  0.57016800  0.17226800  0.41040200  1
  C  C1  1  0.42983200  0.82773200  0.58959800  1
  C  C2  1  0.42983200  0.67226800  0.08959800  1
  C  C3  1  0.57016800  0.32773200  0.91040200  1
  C  C4  1  0.25309800  0.07025000  0.12541000  1
  C  C5  1  0.74690200  0.92975000  0.87459000  1
  C  C6  1  0.74690200  0.57025000  0.37459000  1
  C  C7  1  0.25309800  0.42975000  0.62541000  1
  Ni  Ni8  1  0.03090400  0.24217500  0.35400700  1
  Ni  Ni9  1  0.96909600  0.75782500  0.64599300  1
  Ni  Ni10  1  0.96909600  0.74217500  0.14599300  1
  Ni  Ni11  1  0.03090400  0.25782500  0.85400700  1
  Cu  Cu12  1  0.98799900  0.39892300  0.09174100  1
  Cu  Cu13  1  0.01200100  0.60107700  0.90825900  1
  Cu  Cu14  1  0.01200100  0.89892300  0.40825900  1
  Cu  Cu15  1  0.98799900  0.10107700  0.59174100  1
  Cu  Cu16  1  0.26569900  0.54598300  0.35823700  1
  Cu  Cu17  1  0.73430100  0.45401700  0.64176300  1
  Cu  Cu18  1  0.73430100  0.04598300  0.14176300  1
  Cu  Cu19  1  0.26569900  0.95401700  0.85823700  1
  C  C20  1  0.48101600  0.29484000  0.18914700  1
  C  C21  1  0.51898400  0.70516000  0.81085300  1
  C  C22  1  0.51898400  0.79484000  0.31085300  1
  C  C23  1  0.48101600  0.20516000  0.68914700  1
  C  C24  1  0.08095400  0.27477500  0.02988400  1
  C  C25  1  0.91904600  0.72522500  0.97011600  1
  C  C26  1  0.91904600  0.77477500  0.47011600  1
  C  C27  1  0.08095400  0.22522500  0.52988400  1
  C  C28  1  0.62470900  0.13160300  0.04287200  1
  C  C29  1  0.37529100  0.86839700  0.95712800  1
  C  C30  1  0.37529100  0.63160300  0.45712800  1
  C  C31  1  0.62470900  0.36839700  0.54287200  1
  C  C32  1  0.76553200  0.39517900  0.07823000  1
  C  C33  1  0.23446800  0.60482100  0.92177000  1
  C  C34  1  0.23446800  0.89517900  0.42177000  1
  C  C35  1  0.76553200  0.10482100  0.57823000  1
  C  C36  1  0.07210000  0.55532600  0.08306500  1
  C  C37  1  0.92790000  0.44467400  0.91693500  1
  C  C38  1  0.92790000  0.05532600  0.41693500  1
  C  C39  1  0.07210000  0.94467400  0.58306500  1
  C  C40  1  0.17562500  0.81446500  0.13996100  1
  C  C41  1  0.82437500  0.18553500  0.86003900  1
  C  C42  1  0.82437500  0.31446500  0.36003900  1
  C  C43  1  0.17562500  0.68553500  0.63996100  1
  C  C44  1  0.23412200  0.16782300  0.34307500  1
  C  C45  1  0.76587800  0.83217700  0.65692500  1
  C  C46  1  0.76587800  0.66782300  0.15692500  1
  C  C47  1  0.23412200  0.33217700  0.84307500  1
  C  C48  1  0.06292100  0.36664200  0.22104200  1
  C  C49  1  0.93707900  0.63335800  0.77895800  1
  C  C50  1  0.93707900  0.86664200  0.27895800  1
  C  C51  1  0.06292100  0.13335800  0.72104200  1
  C  C52  1  0.17557200  0.41522800  0.41609200  1
  C  C53  1  0.82442800  0.58477200  0.58390800  1
  C  C54  1  0.82442800  0.91522800  0.08390800  1
  C  C55  1  0.17557200  0.08477200  0.91609200  1
  C  C56  1  0.09327600  0.63636900  0.28603200  1
  C  C57  1  0.90672400  0.36363100  0.71396800  1
  C  C58  1  0.90672400  0.13636900  0.21396800  1
  C  C59  1  0.09327600  0.86363100  0.78603200  1
  C  C60  1  0.41981700  0.50676000  0.28466200  1
  C  C61  1  0.58018300  0.49324000  0.71533800  1
  C  C62  1  0.58018300  0.00676000  0.21533800  1
  C  C63  1  0.41981700  0.99324000  0.78466200  1
