# generated using pymatgen
data_CuNi3C16
_symmetry_space_group_name_H-M   'P 1'
_cell_length_a   7.70983212
_cell_length_b   9.43374181
_cell_length_c   7.78115004
_cell_angle_alpha   113.99670764
_cell_angle_beta   90.59647671
_cell_angle_gamma   113.82227583
_symmetry_Int_Tables_number   1
_chemical_formula_structural   CuNi3C16
_chemical_formula_sum   'Cu2 Ni6 C32'
_cell_volume   462.53287078
_cell_formula_units_Z   2
loop_
 _symmetry_equiv_pos_site_id
 _symmetry_equiv_pos_as_xyz
  1  'x, y, z'
loop_
 _atom_site_type_symbol
 _atom_site_label
 _atom_site_symmetry_multiplicity
 _atom_site_fract_x
 _atom_site_fract_y
 _atom_site_fract_z
 _atom_site_occupancy
  Ni  Ni0  1  0.10050300  0.24756800  0.63777600  1
  Ni  Ni1  1  0.60103900  0.24778100  0.13759000  1
  Ni  Ni2  1  0.10697900  0.24735900  0.14832700  1
  Ni  Ni3  1  0.60718600  0.24739200  0.64878500  1
  Ni  Ni4  1  0.40064800  0.75295100  0.86189800  1
  Ni  Ni5  1  0.90111300  0.75313700  0.36177200  1
  Cu  Cu6  1  0.38862400  0.75233400  0.35612600  1
  Cu  Cu7  1  0.88877700  0.75233100  0.85647900  1
  C  C8  1  0.99601200  0.49351500  0.49722800  1
  C  C9  1  0.49597400  0.49348100  0.99720800  1
  C  C10  1  0.25430200  0.00915700  0.25404600  1
  C  C11  1  0.75377600  0.00857000  0.75368300  1
  C  C12  1  0.25113800  0.00199400  0.75085600  1
  C  C13  1  0.99761100  0.49727300  0.99855400  1
  C  C14  1  0.75122300  0.00201900  0.25078400  1
  C  C15  1  0.49766300  0.49731200  0.49858900  1
  C  C16  1  0.26632800  0.54296200  0.98552800  1
  C  C17  1  0.76648800  0.54340600  0.48569600  1
  C  C18  1  0.77226700  0.96773700  0.98097900  1
  C  C19  1  0.27220000  0.96775400  0.48101800  1
  C  C20  1  0.02585500  0.04175000  0.30843500  1
  C  C21  1  0.52579800  0.04190400  0.80845700  1
  C  C22  1  0.94098200  0.46046300  0.72821400  1
  C  C23  1  0.44099200  0.46054400  0.22835700  1
  C  C24  1  0.23417300  0.45671300  0.51238700  1
  C  C25  1  0.73420900  0.45692300  0.01234500  1
  C  C26  1  0.72686700  0.03568700  0.52111400  1
  C  C27  1  0.22690800  0.03573000  0.02118300  1
  C  C28  1  0.47395000  0.95594500  0.19081500  1
  C  C29  1  0.97391700  0.95612400  0.69083000  1
  C  C30  1  0.55276600  0.53704300  0.76846200  1
  C  C31  1  0.05267300  0.53691700  0.26851100  1
  C  C32  1  0.92906400  0.25562300  0.90350700  1
  C  C33  1  0.42968900  0.25558000  0.40348500  1
  C  C34  1  0.34573500  0.25429200  0.83117000  1
  C  C35  1  0.84581100  0.25428600  0.33112000  1
  C  C36  1  0.57775500  0.74427300  0.59990100  1
  C  C37  1  0.07821700  0.74412700  0.09979700  1
  C  C38  1  0.15734900  0.74502600  0.66452700  1
  C  C39  1  0.65743400  0.74501700  0.16446100  1
