# generated using pymatgen
data_Cu6Ni2C11
_symmetry_space_group_name_H-M   'P 1'
_cell_length_a   5.51324800
_cell_length_b   12.83531300
_cell_length_c   9.99233079
_cell_angle_alpha   90.00000000
_cell_angle_beta   107.78318297
_cell_angle_gamma   90.00000000
_symmetry_Int_Tables_number   1
_chemical_formula_structural   Cu6Ni2C11
_chemical_formula_sum   'Cu12 Ni4 C22'
_cell_volume   673.31404376
_cell_formula_units_Z   2
loop_
 _symmetry_equiv_pos_site_id
 _symmetry_equiv_pos_as_xyz
  1  'x, y, z'
loop_
 _atom_site_type_symbol
 _atom_site_label
 _atom_site_symmetry_multiplicity
 _atom_site_fract_x
 _atom_site_fract_y
 _atom_site_fract_z
 _atom_site_occupancy
  C  C0  1  0.25211500  0.13000200  0.66948900  1
  C  C1  1  0.74788500  0.63000200  0.83051100  1
  C  C2  1  0.74788500  0.86999800  0.33051100  1
  C  C3  1  0.25211500  0.36999800  0.16948900  1
  C  C4  1  0.00000000  0.50000000  0.50000000  1
  C  C5  1  0.00000000  0.00000000  0.00000000  1
  Ni  Ni6  1  0.51496000  0.81957700  0.55388000  1
  Ni  Ni7  1  0.48504000  0.31957700  0.94612000  1
  Ni  Ni8  1  0.48504000  0.18042300  0.44612000  1
  Ni  Ni9  1  0.51496000  0.68042300  0.05388000  1
  Cu  Cu10  1  0.10290400  0.58564200  0.38852100  1
  Cu  Cu11  1  0.89709600  0.08564200  0.11147900  1
  Cu  Cu12  1  0.89709600  0.41435800  0.61147900  1
  Cu  Cu13  1  0.10290400  0.91435800  0.88852100  1
  Cu  Cu14  1  0.12735700  0.60713300  0.61284300  1
  Cu  Cu15  1  0.87264300  0.10713300  0.88715700  1
  Cu  Cu16  1  0.87264300  0.39286700  0.38715700  1
  Cu  Cu17  1  0.12735700  0.89286700  0.11284300  1
  Cu  Cu18  1  0.28137400  0.43741800  0.49014600  1
  Cu  Cu19  1  0.71862600  0.93741800  0.00985400  1
  Cu  Cu20  1  0.71862600  0.56258200  0.50985400  1
  Cu  Cu21  1  0.28137400  0.06258200  0.99014600  1
  C  C22  1  0.39733300  0.21756700  0.56003000  1
  C  C23  1  0.60266700  0.71756700  0.93997000  1
  C  C24  1  0.60266700  0.78243300  0.43997000  1
  C  C25  1  0.39733300  0.28243300  0.06003000  1
  C  C26  1  0.02348900  0.18144500  0.66461200  1
  C  C27  1  0.97651100  0.68144500  0.83538800  1
  C  C28  1  0.97651100  0.81855500  0.33538800  1
  C  C29  1  0.02348900  0.31855500  0.16461200  1
  C  C30  1  0.41445400  0.04299500  0.70947300  1
  C  C31  1  0.58554600  0.54299500  0.79052700  1
  C  C32  1  0.58554600  0.95700500  0.29052700  1
  C  C33  1  0.41445400  0.45700500  0.20947300  1
  C  C34  1  0.30921900  0.10778400  0.38387900  1
  C  C35  1  0.69078100  0.60778400  0.11612100  1
  C  C36  1  0.69078100  0.89221600  0.61612100  1
  C  C37  1  0.30921900  0.39221600  0.88387900  1
