# generated using pymatgen
data_CuNi3C2
_symmetry_space_group_name_H-M   'P 1'
_cell_length_a   9.11388334
_cell_length_b   9.11388334
_cell_length_c   9.11388334
_cell_angle_alpha   109.47122063
_cell_angle_beta   109.47122063
_cell_angle_gamma   109.47122063
_symmetry_Int_Tables_number   1
_chemical_formula_structural   CuNi3C2
_chemical_formula_sum   'Cu8 Ni24 C16'
_cell_volume   582.75834992
_cell_formula_units_Z   8
loop_
 _symmetry_equiv_pos_site_id
 _symmetry_equiv_pos_as_xyz
  1  'x, y, z'
loop_
 _atom_site_type_symbol
 _atom_site_label
 _atom_site_symmetry_multiplicity
 _atom_site_fract_x
 _atom_site_fract_y
 _atom_site_fract_z
 _atom_site_occupancy
  Ni  Ni0  1  0.55963200  0.50823900  0.27082000  1
  Ni  Ni1  1  0.76258100  0.99176100  0.55139300  1
  Ni  Ni2  1  0.73741900  0.28881200  0.22918000  1
  Ni  Ni3  1  0.94036800  0.21118800  0.94860700  1
  Ni  Ni4  1  0.55139300  0.76258100  0.99176100  1
  Ni  Ni5  1  0.27082000  0.55963200  0.50823900  1
  Ni  Ni6  1  0.94860700  0.94036800  0.21118800  1
  Ni  Ni7  1  0.22918000  0.73741900  0.28881200  1
  Ni  Ni8  1  0.28881200  0.22918000  0.73741900  1
  Ni  Ni9  1  0.21118800  0.94860700  0.94036800  1
  Ni  Ni10  1  0.50823900  0.27082000  0.55963200  1
  Ni  Ni11  1  0.99176100  0.55139300  0.76258100  1
  Ni  Ni12  1  0.44036800  0.49176100  0.72918000  1
  Ni  Ni13  1  0.23741900  0.00823900  0.44860700  1
  Ni  Ni14  1  0.26258100  0.71118800  0.77082000  1
  Ni  Ni15  1  0.05963200  0.78881200  0.05139300  1
  Ni  Ni16  1  0.44860700  0.23741900  0.00823900  1
  Ni  Ni17  1  0.72918000  0.44036800  0.49176100  1
  Ni  Ni18  1  0.05139300  0.05963200  0.78881200  1
  Ni  Ni19  1  0.77082000  0.26258100  0.71118800  1
  Ni  Ni20  1  0.71118800  0.77082000  0.26258100  1
  Ni  Ni21  1  0.78881200  0.05139300  0.05963200  1
  Ni  Ni22  1  0.49176100  0.72918000  0.44036800  1
  Ni  Ni23  1  0.00823900  0.44860700  0.23741900  1
  Cu  Cu24  1  0.25147300  0.25147300  0.25147300  1
  Cu  Cu25  1  0.00000000  0.24852700  0.50000000  1
  Cu  Cu26  1  0.50000000  0.00000000  0.24852700  1
  Cu  Cu27  1  0.24852700  0.50000000  0.00000000  1
  Cu  Cu28  1  0.74852700  0.74852700  0.74852700  1
  Cu  Cu29  1  0.00000000  0.75147300  0.50000000  1
  Cu  Cu30  1  0.50000000  0.00000000  0.75147300  1
  Cu  Cu31  1  0.75147300  0.50000000  0.00000000  1
  C  C32  1  0.00000000  0.00000000  0.00000000  1
  C  C33  1  0.00000000  0.50000000  0.50000000  1
  C  C34  1  0.50000000  0.00000000  0.50000000  1
  C  C35  1  0.50000000  0.50000000  0.00000000  1
  C  C36  1  0.25220700  0.25000000  0.50220700  1
  C  C37  1  0.24779300  0.75000000  0.99779300  1
  C  C38  1  0.50220700  0.25220700  0.25000000  1
  C  C39  1  0.99779300  0.24779300  0.75000000  1
  C  C40  1  0.75000000  0.99779300  0.24779300  1
  C  C41  1  0.25000000  0.50220700  0.25220700  1
  C  C42  1  0.74779300  0.75000000  0.49779300  1
  C  C43  1  0.75220700  0.25000000  0.00220700  1
  C  C44  1  0.49779300  0.74779300  0.75000000  1
  C  C45  1  0.00220700  0.75220700  0.25000000  1
  C  C46  1  0.25000000  0.00220700  0.75220700  1
  C  C47  1  0.75000000  0.49779300  0.74779300  1
