# generated using pymatgen
data_Cu2Ni4C
_symmetry_space_group_name_H-M   'P 1'
_cell_length_a   4.22776420
_cell_length_b   4.22776420
_cell_length_c   8.60432523
_cell_angle_alpha   75.77816710
_cell_angle_beta   75.77816710
_cell_angle_gamma   59.99999694
_symmetry_Int_Tables_number   1
_chemical_formula_structural   Cu2Ni4C
_chemical_formula_sum   'Cu2 Ni4 C1'
_cell_volume   127.71751468
_cell_formula_units_Z   1
loop_
 _symmetry_equiv_pos_site_id
 _symmetry_equiv_pos_as_xyz
  1  'x, y, z'
loop_
 _atom_site_type_symbol
 _atom_site_label
 _atom_site_symmetry_multiplicity
 _atom_site_fract_x
 _atom_site_fract_y
 _atom_site_fract_z
 _atom_site_occupancy
  C  C0  1  0.00000000  0.00000000  0.00000000  1
  Ni  Ni1  1  0.44341700  0.44341700  0.66974900  1
  Ni  Ni2  1  0.14443100  0.14443100  0.56670700  1
  Ni  Ni3  1  0.55658300  0.55658300  0.33025100  1
  Ni  Ni4  1  0.85556900  0.85556900  0.43329300  1
  Cu  Cu5  1  0.24364400  0.24364400  0.26906800  1
  Cu  Cu6  1  0.75635600  0.75635600  0.73093200  1
