# generated using pymatgen
data_CuNiC9
_symmetry_space_group_name_H-M   'P 1'
_cell_length_a   6.78961029
_cell_length_b   11.43667521
_cell_length_c   7.12236287
_cell_angle_alpha   99.48072670
_cell_angle_beta   77.23514872
_cell_angle_gamma   87.08589951
_symmetry_Int_Tables_number   1
_chemical_formula_structural   CuNiC9
_chemical_formula_sum   'Cu4 Ni4 C36'
_cell_volume   529.82737976
_cell_formula_units_Z   4
loop_
 _symmetry_equiv_pos_site_id
 _symmetry_equiv_pos_as_xyz
  1  'x, y, z'
loop_
 _atom_site_type_symbol
 _atom_site_label
 _atom_site_symmetry_multiplicity
 _atom_site_fract_x
 _atom_site_fract_y
 _atom_site_fract_z
 _atom_site_occupancy
  Ni  Ni0  1  0.83647400  0.15384900  0.26875800  1
  Ni  Ni1  1  0.83614000  0.65381600  0.76879900  1
  Ni  Ni2  1  0.16391000  0.34618000  0.23129200  1
  Ni  Ni3  1  0.16353400  0.84615600  0.73126700  1
  Cu  Cu4  1  0.69239900  0.54416500  0.34933200  1
  Cu  Cu5  1  0.30780800  0.45585400  0.65059500  1
  Cu  Cu6  1  0.69323000  0.04405700  0.84967200  1
  Cu  Cu7  1  0.30673700  0.95595600  0.15036800  1
  C  C8  1  0.18161400  0.11548900  0.87329300  1
  C  C9  1  0.18071500  0.61554100  0.37341300  1
  C  C10  1  0.81930500  0.38446200  0.62656400  1
  C  C11  1  0.81836900  0.88451800  0.12675800  1
  C  C12  1  0.63531200  0.32134600  0.01504000  1
  C  C13  1  0.63533500  0.82139200  0.51542700  1
  C  C14  1  0.36473300  0.17858800  0.48462000  1
  C  C15  1  0.36456800  0.67867300  0.98491000  1
  C  C16  1  0.75335800  0.29982400  0.78349200  1
  C  C17  1  0.75341700  0.79988600  0.28386400  1
  C  C18  1  0.24663700  0.20010700  0.71617300  1
  C  C19  1  0.24648300  0.70015000  0.21641600  1
  C  C20  1  0.04008600  0.02594000  0.80100500  1
  C  C21  1  0.03920800  0.52614200  0.30086500  1
  C  C22  1  0.96075400  0.47385300  0.69924400  1
  C  C23  1  0.95991000  0.97405300  0.19904100  1
  C  C24  1  0.58572700  0.14322700  0.47241600  1
  C  C25  1  0.58558400  0.64365200  0.97291800  1
  C  C26  1  0.41426300  0.35629200  0.02697000  1
  C  C27  1  0.41433300  0.85670100  0.52763100  1
  C  C28  1  0.32786600  0.30549900  0.43977000  1
  C  C29  1  0.32711800  0.80557400  0.94004600  1
  C  C30  1  0.67283500  0.19446400  0.05998800  1
  C  C31  1  0.67226900  0.69448500  0.56026900  1
  C  C32  1  0.92330000  0.29843000  0.43711800  1
  C  C33  1  0.92221800  0.79864800  0.93718100  1
  C  C34  1  0.07773800  0.20136300  0.06284100  1
  C  C35  1  0.07681400  0.70157000  0.56287700  1
  C  C36  1  0.63013200  0.45322400  0.59980800  1
  C  C37  1  0.62893200  0.95323000  0.10046900  1
  C  C38  1  0.37104200  0.04677500  0.89960000  1
  C  C39  1  0.36991800  0.54675300  0.40000900  1
  C  C40  1  0.25195600  0.09024200  0.37442300  1
  C  C41  1  0.25233200  0.59019200  0.87448200  1
  C  C42  1  0.74750400  0.40991000  0.12535700  1
  C  C43  1  0.74808400  0.90977200  0.62561600  1
