# generated using pymatgen
data_Cu3Ni3C5
_symmetry_space_group_name_H-M   'P 1'
_cell_length_a   7.32589100
_cell_length_b   12.24079500
_cell_length_c   14.06732200
_cell_angle_alpha   90.00000000
_cell_angle_beta   90.00000000
_cell_angle_gamma   90.00000000
_symmetry_Int_Tables_number   1
_chemical_formula_structural   Cu3Ni3C5
_chemical_formula_sum   'Cu24 Ni24 C40'
_cell_volume   1261.48330109
_cell_formula_units_Z   8
loop_
 _symmetry_equiv_pos_site_id
 _symmetry_equiv_pos_as_xyz
  1  'x, y, z'
loop_
 _atom_site_type_symbol
 _atom_site_label
 _atom_site_symmetry_multiplicity
 _atom_site_fract_x
 _atom_site_fract_y
 _atom_site_fract_z
 _atom_site_occupancy
  C  C0  1  0.29486800  0.38030400  0.97395900  1
  C  C1  1  0.20513200  0.61969600  0.47395900  1
  C  C2  1  0.79486800  0.11969600  0.02604100  1
  C  C3  1  0.70513200  0.88030400  0.52604100  1
  Ni  Ni4  1  0.90442000  0.59652500  0.71384700  1
  Ni  Ni5  1  0.59558000  0.40347500  0.21384700  1
  Ni  Ni6  1  0.40442000  0.90347500  0.28615300  1
  Ni  Ni7  1  0.09558000  0.09652500  0.78615300  1
  Ni  Ni8  1  0.05093700  0.49845600  0.74267600  1
  Ni  Ni9  1  0.44906300  0.50154400  0.24267600  1
  Ni  Ni10  1  0.55093700  0.00154400  0.25732400  1
  Ni  Ni11  1  0.94906300  0.99845600  0.75732400  1
  Ni  Ni12  1  0.88449900  0.53366900  0.81835700  1
  Ni  Ni13  1  0.61550100  0.46633100  0.31835700  1
  Ni  Ni14  1  0.38449900  0.96633100  0.18164300  1
  Ni  Ni15  1  0.11550100  0.03366900  0.68164300  1
  Ni  Ni16  1  0.57702000  0.22411600  0.64289100  1
  Ni  Ni17  1  0.92298000  0.77588400  0.14289100  1
  Ni  Ni18  1  0.07702000  0.27588400  0.35710900  1
  Ni  Ni19  1  0.42298000  0.72411600  0.85710900  1
  Ni  Ni20  1  0.56719700  0.30518700  0.54752300  1
  Ni  Ni21  1  0.93280300  0.69481300  0.04752300  1
  Ni  Ni22  1  0.06719700  0.19481300  0.45247700  1
  Ni  Ni23  1  0.43280300  0.80518700  0.95247700  1
  Ni  Ni24  1  0.42776600  0.32759900  0.63849600  1
  Ni  Ni25  1  0.07223400  0.67240100  0.13849600  1
  Ni  Ni26  1  0.92776600  0.17240100  0.36150400  1
  Ni  Ni27  1  0.57223400  0.82759900  0.86150400  1
  C  C28  1  0.73780500  0.41249800  0.68413900  1
  C  C29  1  0.76219500  0.58750200  0.18413900  1
  C  C30  1  0.23780500  0.08750200  0.31586100  1
  C  C31  1  0.26219500  0.91249800  0.81586100  1
  Cu  Cu32  1  0.76933100  0.30891600  0.79853400  1
  Cu  Cu33  1  0.73066900  0.69108400  0.29853400  1
  Cu  Cu34  1  0.26933100  0.19108400  0.20146600  1
  Cu  Cu35  1  0.23066900  0.80891600  0.70146600  1
  Cu  Cu36  1  0.70040100  0.52026300  0.57137100  1
  Cu  Cu37  1  0.79959900  0.47973700  0.07137100  1
  Cu  Cu38  1  0.20040100  0.97973700  0.42862900  1
  Cu  Cu39  1  0.29959900  0.02026300  0.92862900  1
  Cu  Cu40  1  0.95021500  0.33888500  0.61325700  1
  Cu  Cu41  1  0.54978500  0.66111500  0.11325700  1
  Cu  Cu42  1  0.45021500  0.16111500  0.38674300  1
  Cu  Cu43  1  0.04978500  0.83888500  0.88674300  1
  Cu  Cu44  1  0.51921500  0.48545800  0.75502300  1
  Cu  Cu45  1  0.98078500  0.51454200  0.25502300  1
  Cu  Cu46  1  0.01921500  0.01454200  0.24497700  1
  Cu  Cu47  1  0.48078500  0.98545800  0.74497700  1
  Cu  Cu48  1  0.91775100  0.52321500  0.74834300  1
  Cu  Cu49  1  0.58224900  0.47678500  0.24834300  1
  Cu  Cu50  1  0.41775100  0.97678500  0.25165700  1
  Cu  Cu51  1  0.08224900  0.02321500  0.75165700  1
  Cu  Cu52  1  0.55679500  0.30266700  0.62020800  1
  Cu  Cu53  1  0.94320500  0.69733300  0.12020800  1
  Cu  Cu54  1  0.05679500  0.19733300  0.37979200  1
  Cu  Cu55  1  0.44320500  0.80266700  0.87979200  1
  C  C56  1  0.07157800  0.39681400  0.57611300  1
  C  C57  1  0.42842200  0.60318600  0.07611300  1
  C  C58  1  0.57157800  0.10318600  0.42388700  1
  C  C59  1  0.92842200  0.89681400  0.92388700  1
  C  C60  1  0.95383200  0.23745000  0.60644200  1
  C  C61  1  0.54616800  0.76255000  0.10644200  1
  C  C62  1  0.45383200  0.26255000  0.39355800  1
  C  C63  1  0.04616800  0.73745000  0.89355800  1
  C  C64  1  0.78239000  0.61030200  0.57122800  1
  C  C65  1  0.71761000  0.38969800  0.07122800  1
  C  C66  1  0.28239000  0.88969800  0.42877200  1
  C  C67  1  0.21761000  0.11030200  0.92877200  1
  C  C68  1  0.92471600  0.29131500  0.83202000  1
  C  C69  1  0.57528400  0.70868500  0.33202000  1
  C  C70  1  0.42471600  0.20868500  0.16798000  1
  C  C71  1  0.07528400  0.79131500  0.66798000  1
  C  C72  1  0.54842000  0.54604900  0.82484900  1
  C  C73  1  0.95158000  0.45395100  0.32484900  1
  C  C74  1  0.04842000  0.95395100  0.17515100  1
  C  C75  1  0.45158000  0.04604900  0.67515100  1
  C  C76  1  0.59344900  0.49612200  0.50569300  1
  C  C77  1  0.90655100  0.50387800  0.00569300  1
  C  C78  1  0.09344900  0.00387800  0.49430700  1
  C  C79  1  0.40655100  0.99612200  0.99430700  1
  C  C80  1  0.63109700  0.26518200  0.83467900  1
  C  C81  1  0.86890300  0.73481800  0.33467900  1
  C  C82  1  0.13109700  0.23481800  0.16532100  1
  C  C83  1  0.36890300  0.76518200  0.66532100  1
  C  C84  1  0.35897300  0.46448000  0.72951000  1
  C  C85  1  0.14102700  0.53552000  0.22951000  1
  C  C86  1  0.85897300  0.03552000  0.27049000  1
  C  C87  1  0.64102700  0.96448000  0.77049000  1
