# generated using pymatgen
data_Cu4NiC11
_symmetry_space_group_name_H-M   'P 1'
_cell_length_a   5.94693041
_cell_length_b   5.94693041
_cell_length_c   5.87580042
_cell_angle_alpha   61.01413645
_cell_angle_beta   61.01413645
_cell_angle_gamma   59.79202269
_symmetry_Int_Tables_number   1
_chemical_formula_structural   Cu4NiC11
_chemical_formula_sum   'Cu4 Ni1 C11'
_cell_volume   148.90876218
_cell_formula_units_Z   1
loop_
 _symmetry_equiv_pos_site_id
 _symmetry_equiv_pos_as_xyz
  1  'x, y, z'
loop_
 _atom_site_type_symbol
 _atom_site_label
 _atom_site_symmetry_multiplicity
 _atom_site_fract_x
 _atom_site_fract_y
 _atom_site_fract_z
 _atom_site_occupancy
  C  C0  1  0.00000000  0.50000000  0.50000000  1
  C  C1  1  0.00000000  0.00000000  0.50000000  1
  C  C2  1  0.50000000  0.00000000  0.50000000  1
  Ni  Ni3  1  0.50000000  0.50000000  0.00000000  1
  Cu  Cu4  1  0.50000000  0.50000000  0.50000000  1
  Cu  Cu5  1  0.00000000  0.00000000  0.00000000  1
  Cu  Cu6  1  0.00000000  0.50000000  0.00000000  1
  Cu  Cu7  1  0.50000000  0.00000000  0.00000000  1
  C  C8  1  0.74039900  0.74039900  0.77216400  1
  C  C9  1  0.72863300  0.26163200  0.74633300  1
  C  C10  1  0.26163200  0.72863300  0.74633300  1
  C  C11  1  0.22470300  0.22470300  0.78706900  1
  C  C12  1  0.77529700  0.77529700  0.21293100  1
  C  C13  1  0.73836800  0.27136700  0.25366700  1
  C  C14  1  0.27136700  0.73836800  0.25366700  1
  C  C15  1  0.25960100  0.25960100  0.22783600  1
