# generated using pymatgen
data_CuNiC12
_symmetry_space_group_name_H-M   'P 1'
_cell_length_a   6.03083745
_cell_length_b   5.91334086
_cell_length_c   5.96172334
_cell_angle_alpha   90.00000000
_cell_angle_beta   60.37838678
_cell_angle_gamma   119.18235805
_symmetry_Int_Tables_number   1
_chemical_formula_structural   CuNiC12
_chemical_formula_sum   'Cu1 Ni1 C12'
_cell_volume   153.01264456
_cell_formula_units_Z   1
loop_
 _symmetry_equiv_pos_site_id
 _symmetry_equiv_pos_as_xyz
  1  'x, y, z'
loop_
 _atom_site_type_symbol
 _atom_site_label
 _atom_site_symmetry_multiplicity
 _atom_site_fract_x
 _atom_site_fract_y
 _atom_site_fract_z
 _atom_site_occupancy
  C  C0  1  0.26797900  0.13547600  0.11601000  1
  C  C1  1  0.73202100  0.86452400  0.88399000  1
  C  C2  1  0.00000000  0.50000000  0.00000000  1
  C  C3  1  0.00000000  0.50000000  0.50000000  1
  Ni  Ni4  1  0.50000000  0.50000000  0.50000000  1
  Cu  Cu5  1  0.50000000  0.00000000  0.50000000  1
  C  C6  1  0.02322000  0.74487100  0.23839000  1
  C  C7  1  0.99104200  0.25933000  0.25447900  1
  C  C8  1  0.52482400  0.27153900  0.72332000  1
  C  C9  1  0.52482400  0.27153900  0.25185600  1
  C  C10  1  0.97678000  0.25512900  0.76161000  1
  C  C11  1  0.00895800  0.74067000  0.74552100  1
  C  C12  1  0.47517600  0.72846100  0.27668000  1
  C  C13  1  0.47517600  0.72846100  0.74814400  1
