# generated using pymatgen
data_Cu17(Ni2C7)2
_symmetry_space_group_name_H-M   'P 1'
_cell_length_a   10.17541076
_cell_length_b   10.17541076
_cell_length_c   10.17541164
_cell_angle_alpha   89.51310122
_cell_angle_beta   89.51310122
_cell_angle_gamma   89.51309881
_symmetry_Int_Tables_number   1
_chemical_formula_structural   Cu17(Ni2C7)2
_chemical_formula_sum   'Cu17 Ni4 C14'
_cell_volume   1053.43830299
_cell_formula_units_Z   1
loop_
 _symmetry_equiv_pos_site_id
 _symmetry_equiv_pos_as_xyz
  1  'x, y, z'
loop_
 _atom_site_type_symbol
 _atom_site_label
 _atom_site_symmetry_multiplicity
 _atom_site_fract_x
 _atom_site_fract_y
 _atom_site_fract_z
 _atom_site_occupancy
  C  C0  1  0.00048700  0.00048700  0.49922700  1
  C  C1  1  0.49922700  0.00048700  0.00048700  1
  C  C2  1  0.00048700  0.49922700  0.00048700  1
  C  C3  1  0.49833600  0.95569900  0.49833600  1
  C  C4  1  0.49833600  0.49833600  0.95569900  1
  C  C5  1  0.95569900  0.49833600  0.49833600  1
  C  C6  1  0.65614100  0.32998300  0.32998300  1
  C  C7  1  0.32998300  0.65614100  0.32998300  1
  C  C8  1  0.32998300  0.32998300  0.65614100  1
  C  C9  1  0.67067300  0.67067300  0.67067300  1
  C  C10  1  0.86386500  0.13648000  0.13648000  1
  C  C11  1  0.13648000  0.86386500  0.13648000  1
  C  C12  1  0.13648000  0.13648000  0.86386500  1
  C  C13  1  0.86410400  0.86410400  0.86410400  1
  Ni  Ni14  1  0.22422700  0.22422700  0.22422700  1
  Ni  Ni15  1  0.22473600  0.77517900  0.77517900  1
  Ni  Ni16  1  0.77517900  0.77517900  0.22473600  1
  Ni  Ni17  1  0.77517900  0.22473600  0.77517900  1
  Cu  Cu18  1  0.99920700  0.99920700  0.99920700  1
  Cu  Cu19  1  0.35712900  0.35712900  0.35712900  1
  Cu  Cu20  1  0.36724300  0.64376600  0.64376600  1
  Cu  Cu21  1  0.64376600  0.64376600  0.36724300  1
  Cu  Cu22  1  0.64376600  0.36724300  0.64376600  1
  Cu  Cu23  1  0.27404500  0.99346500  0.27404500  1
  Cu  Cu24  1  0.27404500  0.27404500  0.99346500  1
  Cu  Cu25  1  0.99346500  0.27404500  0.27404500  1
  Cu  Cu26  1  0.27431300  0.00471400  0.72385600  1
  Cu  Cu27  1  0.27431300  0.72385600  0.00471400  1
  Cu  Cu28  1  0.99614700  0.72480800  0.72480800  1
  Cu  Cu29  1  0.72385600  0.00471400  0.27431300  1
  Cu  Cu30  1  0.72480800  0.72480800  0.99614700  1
  Cu  Cu31  1  0.00471400  0.72385600  0.27431300  1
  Cu  Cu32  1  0.72480800  0.99614700  0.72480800  1
  Cu  Cu33  1  0.72385600  0.27431300  0.00471400  1
  Cu  Cu34  1  0.00471400  0.27431300  0.72385600  1
