# generated using pymatgen
data_Cu2NiC20
_symmetry_space_group_name_H-M   'P 1'
_cell_length_a   8.41917215
_cell_length_b   8.41917215
_cell_length_c   5.24144300
_cell_angle_alpha   90.00000000
_cell_angle_beta   90.00000000
_cell_angle_gamma   120.00000115
_symmetry_Int_Tables_number   1
_chemical_formula_structural   Cu2NiC20
_chemical_formula_sum   'Cu2 Ni1 C20'
_cell_volume   321.75127248
_cell_formula_units_Z   1
loop_
 _symmetry_equiv_pos_site_id
 _symmetry_equiv_pos_as_xyz
  1  'x, y, z'
loop_
 _atom_site_type_symbol
 _atom_site_label
 _atom_site_symmetry_multiplicity
 _atom_site_fract_x
 _atom_site_fract_y
 _atom_site_fract_z
 _atom_site_occupancy
  C  C0  1  0.42978400  0.42978400  0.00000000  1
  C  C1  1  0.00000000  0.57021600  0.00000000  1
  C  C2  1  0.57021600  0.00000000  0.00000000  1
  C  C3  1  0.76147700  0.76147700  0.50000000  1
  C  C4  1  0.00000000  0.23852300  0.50000000  1
  C  C5  1  0.23852300  0.00000000  0.50000000  1
  Ni  Ni6  1  0.00000000  0.00000000  0.00000000  1
  Cu  Cu7  1  0.33333300  0.66666700  0.45427200  1
  Cu  Cu8  1  0.66666700  0.33333300  0.54572800  1
  C  C9  1  0.90766000  0.77880700  0.20947600  1
  C  C10  1  0.87114700  0.09234000  0.20947600  1
  C  C11  1  0.22119300  0.12885300  0.20947600  1
  C  C12  1  0.12885300  0.22119300  0.79052400  1
  C  C13  1  0.09234000  0.87114700  0.79052400  1
  C  C14  1  0.77880700  0.90766000  0.79052400  1
  C  C15  1  0.33333300  0.66666700  0.74862200  1
  C  C16  1  0.66666700  0.33333300  0.25137800  1
  C  C17  1  0.51403200  0.68864400  0.33693800  1
  C  C18  1  0.17461200  0.48596800  0.33693800  1
  C  C19  1  0.31135600  0.82538800  0.33693800  1
  C  C20  1  0.82538800  0.31135600  0.66306200  1
  C  C21  1  0.48596800  0.17461200  0.66306200  1
  C  C22  1  0.68864400  0.51403200  0.66306200  1
