# generated using pymatgen
data_Cu17Ni3C17
_symmetry_space_group_name_H-M   'P 1'
_cell_length_a   9.37539507
_cell_length_b   11.91462909
_cell_length_c   11.79717490
_cell_angle_alpha   59.79299736
_cell_angle_beta   74.45548340
_cell_angle_gamma   79.01569833
_symmetry_Int_Tables_number   1
_chemical_formula_structural   Cu17Ni3C17
_chemical_formula_sum   'Cu34 Ni6 C34'
_cell_volume   1094.74142698
_cell_formula_units_Z   2
loop_
 _symmetry_equiv_pos_site_id
 _symmetry_equiv_pos_as_xyz
  1  'x, y, z'
loop_
 _atom_site_type_symbol
 _atom_site_label
 _atom_site_symmetry_multiplicity
 _atom_site_fract_x
 _atom_site_fract_y
 _atom_site_fract_z
 _atom_site_occupancy
  C  C0  1  0.27532900  0.65187300  0.07938100  1
  C  C1  1  0.72467100  0.34812700  0.92061900  1
  C  C2  1  0.28851300  0.96768500  0.56790200  1
  C  C3  1  0.71148700  0.03231500  0.43209800  1
  C  C4  1  0.14732600  0.92087400  0.25146200  1
  C  C5  1  0.85267400  0.07912600  0.74853800  1
  C  C6  1  0.73139700  0.48685600  0.30557400  1
  C  C7  1  0.26860300  0.51314400  0.69442600  1
  C  C8  1  0.88266000  0.61434300  0.54233100  1
  C  C9  1  0.11734000  0.38565700  0.45766900  1
  C  C10  1  0.53387600  0.73157600  0.10923700  1
  C  C11  1  0.51769000  0.95396300  0.26240800  1
  C  C12  1  0.49646400  0.83024200  0.80016700  1
  C  C13  1  0.69286000  0.59823800  0.97360100  1
  C  C14  1  0.30714000  0.40176200  0.02639900  1
  C  C15  1  0.94816700  0.70528000  0.03698600  1
  C  C16  1  0.48231000  0.04603700  0.73759200  1
  C  C17  1  0.20930200  0.98765200  0.91998300  1
  C  C18  1  0.95992200  0.50595800  0.74328900  1
  C  C19  1  0.54649100  0.74650900  0.16042900  1
  C  C20  1  0.07407700  0.89861500  0.98402000  1
  C  C21  1  0.96742700  0.79265300  0.87885300  1
  C  C22  1  0.42989100  0.70626800  0.43556100  1
  C  C23  1  0.57010900  0.29373200  0.56443900  1
  C  C24  1  0.73615200  0.80845900  0.74386500  1
  C  C25  1  0.92592300  0.10138500  0.01598000  1
  C  C26  1  0.05183300  0.29472000  0.96301400  1
  C  C27  1  0.03257300  0.20734700  0.12114700  1
  C  C28  1  0.46612400  0.26842400  0.89076300  1
  C  C29  1  0.26384800  0.19154100  0.25613500  1
  C  C30  1  0.79069800  0.01234800  0.08001700  1
  C  C31  1  0.04007900  0.49404200  0.25671100  1
  C  C32  1  0.45350900  0.25349100  0.83957100  1
  C  C33  1  0.50353600  0.16975800  0.19983300  1
  Ni  Ni34  1  0.04769700  0.20601200  0.34541000  1
  Ni  Ni35  1  0.44408400  0.32160700  0.32171200  1
  Ni  Ni36  1  0.95230300  0.79398800  0.65459000  1
  Ni  Ni37  1  0.24266800  0.19546000  0.68560200  1
  Ni  Ni38  1  0.75733200  0.80454000  0.31439800  1
  Ni  Ni39  1  0.55591600  0.67839300  0.67828800  1
  Cu  Cu40  1  0.68955100  0.89135600  0.22301900  1
  Cu  Cu41  1  0.80849100  0.76284000  0.69361300  1
  Cu  Cu42  1  0.99755200  0.85001200  0.70414500  1
  Cu  Cu43  1  0.19150900  0.23716000  0.30638700  1
  Cu  Cu44  1  0.91339800  0.38248400  0.63578600  1
  Cu  Cu45  1  0.00244800  0.14998800  0.29585500  1
  Cu  Cu46  1  0.63249200  0.57258900  0.68762600  1
  Cu  Cu47  1  0.41788600  0.98697900  0.29790800  1
  Cu  Cu48  1  0.53494000  0.34562000  0.19809700  1
  Cu  Cu49  1  0.58211400  0.01302100  0.70209200  1
  Cu  Cu50  1  0.04759300  0.20543800  0.03533600  1
  Cu  Cu51  1  0.85242400  0.83414300  0.35815000  1
  Cu  Cu52  1  0.31044900  0.10864400  0.77698100  1
  Cu  Cu53  1  0.40611200  0.12534600  0.19522800  1
  Cu  Cu54  1  0.26343600  0.31913300  0.62822700  1
  Cu  Cu55  1  0.55646300  0.78722600  0.57851400  1
  Cu  Cu56  1  0.02985600  0.76154400  0.56699500  1
  Cu  Cu57  1  0.14757600  0.16585700  0.64185000  1
  Cu  Cu58  1  0.08660200  0.61751600  0.36421400  1
  Cu  Cu59  1  0.84182300  0.08303500  0.99443400  1
  Cu  Cu60  1  0.44353700  0.21277400  0.42148600  1
  Cu  Cu61  1  0.13947300  0.55972600  0.48888200  1
  Cu  Cu62  1  0.86052700  0.44027400  0.51111800  1
  Cu  Cu63  1  0.61123100  0.22625700  0.19693100  1
  Cu  Cu64  1  0.73656400  0.68086700  0.37177300  1
  Cu  Cu65  1  0.15817700  0.91696500  0.00556600  1
  Cu  Cu66  1  0.46506000  0.65438000  0.80190300  1
  Cu  Cu67  1  0.43425000  0.98906600  0.02293200  1
  Cu  Cu68  1  0.56575000  0.01093400  0.97706800  1
  Cu  Cu69  1  0.59388800  0.87465400  0.80477200  1
  Cu  Cu70  1  0.38876900  0.77374300  0.80306900  1
  Cu  Cu71  1  0.36750800  0.42741100  0.31237400  1
  Cu  Cu72  1  0.97014400  0.23845600  0.43300500  1
  Cu  Cu73  1  0.95240700  0.79456200  0.96466400  1
