# generated using pymatgen
data_Cu17Ni3C2
_symmetry_space_group_name_H-M   'P 1'
_cell_length_a   8.43221200
_cell_length_b   9.64311100
_cell_length_c   17.67002800
_cell_angle_alpha   90.00000000
_cell_angle_beta   90.00000000
_cell_angle_gamma   90.00000000
_symmetry_Int_Tables_number   1
_chemical_formula_structural   Cu17Ni3C2
_chemical_formula_sum   'Cu68 Ni12 C8'
_cell_volume   1436.79868043
_cell_formula_units_Z   4
loop_
 _symmetry_equiv_pos_site_id
 _symmetry_equiv_pos_as_xyz
  1  'x, y, z'
loop_
 _atom_site_type_symbol
 _atom_site_label
 _atom_site_symmetry_multiplicity
 _atom_site_fract_x
 _atom_site_fract_y
 _atom_site_fract_z
 _atom_site_occupancy
  C  C0  1  0.25000000  0.25000000  0.76573700  1
  C  C1  1  0.75000000  0.75000000  0.73426300  1
  C  C2  1  0.75000000  0.75000000  0.23426300  1
  C  C3  1  0.25000000  0.25000000  0.26573700  1
  C  C4  1  0.25000000  0.75000000  0.80125200  1
  C  C5  1  0.75000000  0.25000000  0.69874800  1
  C  C6  1  0.75000000  0.25000000  0.19874800  1
  C  C7  1  0.25000000  0.75000000  0.30125200  1
  Ni  Ni8  1  0.25000000  0.75000000  0.62193400  1
  Ni  Ni9  1  0.75000000  0.25000000  0.87806600  1
  Ni  Ni10  1  0.75000000  0.25000000  0.37806600  1
  Ni  Ni11  1  0.25000000  0.75000000  0.12193400  1
  Ni  Ni12  1  0.45627200  0.00158600  0.77839200  1
  Ni  Ni13  1  0.04372800  0.49841400  0.77839200  1
  Ni  Ni14  1  0.95627200  0.99841400  0.72160800  1
  Ni  Ni15  1  0.54372800  0.50158600  0.72160800  1
  Ni  Ni16  1  0.54372800  0.99841400  0.22160800  1
  Ni  Ni17  1  0.95627200  0.50158600  0.22160800  1
  Ni  Ni18  1  0.04372800  0.00158600  0.27839200  1
  Ni  Ni19  1  0.45627200  0.49841400  0.27839200  1
  Cu  Cu20  1  0.34555900  0.83869800  0.62470400  1
  Cu  Cu21  1  0.15444100  0.66130200  0.62470400  1
  Cu  Cu22  1  0.84555900  0.16130200  0.87529600  1
  Cu  Cu23  1  0.65444100  0.33869800  0.87529600  1
  Cu  Cu24  1  0.65444100  0.16130200  0.37529600  1
  Cu  Cu25  1  0.84555900  0.33869800  0.37529600  1
  Cu  Cu26  1  0.15444100  0.83869800  0.12470400  1
  Cu  Cu27  1  0.34555900  0.66130200  0.12470400  1
  Cu  Cu28  1  0.25000000  0.75000000  0.46650300  1
  Cu  Cu29  1  0.75000000  0.25000000  0.03349700  1
  Cu  Cu30  1  0.75000000  0.25000000  0.53349700  1
  Cu  Cu31  1  0.25000000  0.75000000  0.96650300  1
  Cu  Cu32  1  0.02758400  0.11563700  0.71197200  1
  Cu  Cu33  1  0.47241600  0.38436300  0.71197200  1
  Cu  Cu34  1  0.52758400  0.88436300  0.78802800  1
  Cu  Cu35  1  0.97241600  0.61563700  0.78802800  1
  Cu  Cu36  1  0.97241600  0.88436300  0.28802800  1
  Cu  Cu37  1  0.52758400  0.61563700  0.28802800  1
  Cu  Cu38  1  0.47241600  0.11563700  0.21197200  1
  Cu  Cu39  1  0.02758400  0.38436300  0.21197200  1
  Cu  Cu40  1  0.02131200  0.88243300  0.74144400  1
  Cu  Cu41  1  0.47868800  0.61756700  0.74144400  1
  Cu  Cu42  1  0.52131200  0.11756700  0.75855600  1
  Cu  Cu43  1  0.97868800  0.38243300  0.75855600  1
  Cu  Cu44  1  0.97868800  0.11756700  0.25855600  1
  Cu  Cu45  1  0.52131200  0.38243300  0.25855600  1
  Cu  Cu46  1  0.47868800  0.88243300  0.24144400  1
  Cu  Cu47  1  0.02131200  0.61756700  0.24144400  1
  Cu  Cu48  1  0.30282400  0.00168300  0.78892600  1
  Cu  Cu49  1  0.19717600  0.49831700  0.78892600  1
  Cu  Cu50  1  0.80282400  0.99831700  0.71107400  1
  Cu  Cu51  1  0.69717600  0.50168300  0.71107400  1
  Cu  Cu52  1  0.69717600  0.99831700  0.21107400  1
  Cu  Cu53  1  0.80282400  0.50168300  0.21107400  1
  Cu  Cu54  1  0.19717600  0.00168300  0.28892600  1
  Cu  Cu55  1  0.30282400  0.49831700  0.28892600  1
  Cu  Cu56  1  0.27163000  0.10848100  0.57438900  1
  Cu  Cu57  1  0.22837000  0.39151900  0.57438900  1
  Cu  Cu58  1  0.77163000  0.89151900  0.92561100  1
  Cu  Cu59  1  0.72837000  0.60848100  0.92561100  1
  Cu  Cu60  1  0.72837000  0.89151900  0.42561100  1
  Cu  Cu61  1  0.77163000  0.60848100  0.42561100  1
  Cu  Cu62  1  0.22837000  0.10848100  0.07438900  1
  Cu  Cu63  1  0.27163000  0.39151900  0.07438900  1
  Cu  Cu64  1  0.17036000  0.24511000  0.89262700  1
  Cu  Cu65  1  0.32964000  0.25489000  0.89262700  1
  Cu  Cu66  1  0.67036000  0.75489000  0.60737300  1
  Cu  Cu67  1  0.82964000  0.74511000  0.60737300  1
  Cu  Cu68  1  0.82964000  0.75489000  0.10737300  1
  Cu  Cu69  1  0.67036000  0.74511000  0.10737300  1
  Cu  Cu70  1  0.32964000  0.24511000  0.39262700  1
  Cu  Cu71  1  0.17036000  0.25489000  0.39262700  1
  Cu  Cu72  1  0.14154900  0.81905800  0.92304900  1
  Cu  Cu73  1  0.35845100  0.68094200  0.92304900  1
  Cu  Cu74  1  0.64154900  0.18094200  0.57695100  1
  Cu  Cu75  1  0.85845100  0.31905800  0.57695100  1
  Cu  Cu76  1  0.85845100  0.18094200  0.07695100  1
  Cu  Cu77  1  0.64154900  0.31905800  0.07695100  1
  Cu  Cu78  1  0.35845100  0.81905800  0.42304900  1
  Cu  Cu79  1  0.14154900  0.68094200  0.42304900  1
  Cu  Cu80  1  0.34045800  0.06257400  0.03749100  1
  Cu  Cu81  1  0.15954200  0.43742600  0.03749100  1
  Cu  Cu82  1  0.84045800  0.93742600  0.46250900  1
  Cu  Cu83  1  0.65954200  0.56257400  0.46250900  1
  Cu  Cu84  1  0.65954200  0.93742600  0.96250900  1
  Cu  Cu85  1  0.84045800  0.56257400  0.96250900  1
  Cu  Cu86  1  0.15954200  0.06257400  0.53749100  1
  Cu  Cu87  1  0.34045800  0.43742600  0.53749100  1
