# generated using pymatgen
data_CuNiC6
_symmetry_space_group_name_H-M   'P 1'
_cell_length_a   5.82567364
_cell_length_b   5.82567364
_cell_length_c   5.82567321
_cell_angle_alpha   57.91615578
_cell_angle_beta   57.91615578
_cell_angle_gamma   57.91616065
_symmetry_Int_Tables_number   1
_chemical_formula_structural   CuNiC6
_chemical_formula_sum   'Cu1 Ni1 C6'
_cell_volume   133.11939721
_cell_formula_units_Z   1
loop_
 _symmetry_equiv_pos_site_id
 _symmetry_equiv_pos_as_xyz
  1  'x, y, z'
loop_
 _atom_site_type_symbol
 _atom_site_label
 _atom_site_symmetry_multiplicity
 _atom_site_fract_x
 _atom_site_fract_y
 _atom_site_fract_z
 _atom_site_occupancy
  Ni  Ni0  1  0.50000000  0.50000000  0.50000000  1
  Cu  Cu1  1  0.00000000  0.00000000  0.00000000  1
  C  C2  1  0.64223600  0.83749200  0.25950600  1
  C  C3  1  0.83749200  0.25950600  0.64223600  1
  C  C4  1  0.74049400  0.35776400  0.16250800  1
  C  C5  1  0.16250800  0.74049400  0.35776400  1
  C  C6  1  0.35776400  0.16250800  0.74049400  1
  C  C7  1  0.25950600  0.64223600  0.83749200  1
