# generated using pymatgen
data_CuNiC8
_symmetry_space_group_name_H-M   'P 1'
_cell_length_a   5.71374700
_cell_length_b   5.68074900
_cell_length_c   9.84135966
_cell_angle_alpha   54.71060481
_cell_angle_beta   90.00000000
_cell_angle_gamma   90.00000000
_symmetry_Int_Tables_number   1
_chemical_formula_structural   CuNiC8
_chemical_formula_sum   'Cu2 Ni2 C16'
_cell_volume   260.73659825
_cell_formula_units_Z   2
loop_
 _symmetry_equiv_pos_site_id
 _symmetry_equiv_pos_as_xyz
  1  'x, y, z'
loop_
 _atom_site_type_symbol
 _atom_site_label
 _atom_site_symmetry_multiplicity
 _atom_site_fract_x
 _atom_site_fract_y
 _atom_site_fract_z
 _atom_site_occupancy
  C  C0  1  0.27272300  0.25620700  0.74935700  1
  C  C1  1  0.72727700  0.25620700  0.24935700  1
  C  C2  1  0.21562700  0.74030900  0.24700600  1
  C  C3  1  0.78437300  0.74030900  0.74700600  1
  Ni  Ni4  1  0.25253900  0.99928600  0.49976900  1
  Ni  Ni5  1  0.74746100  0.99928600  0.99976900  1
  Cu  Cu6  1  0.74791500  0.50065100  0.49898100  1
  Cu  Cu7  1  0.25208500  0.50065100  0.99898100  1
  C  C8  1  0.73556800  0.16548600  0.74240900  1
  C  C9  1  0.26443200  0.16548600  0.24240900  1
  C  C10  1  0.77124700  0.81224800  0.25750000  1
  C  C11  1  0.22875300  0.81224800  0.75750000  1
  C  C12  1  0.97340900  0.27493700  0.46146400  1
  C  C13  1  0.02659100  0.27493700  0.96146400  1
  C  C14  1  0.53991600  0.73232600  0.54511800  1
  C  C15  1  0.46008400  0.73232600  0.04511800  1
  C  C16  1  0.47023400  0.33925600  0.45444600  1
  C  C17  1  0.52976600  0.33925600  0.95444600  1
  C  C18  1  0.01402400  0.67929400  0.54395000  1
  C  C19  1  0.98597600  0.67929400  0.04395000  1
