# generated using pymatgen
data_Cu6Ni4C
_symmetry_space_group_name_H-M   'P 1'
_cell_length_a   6.17032508
_cell_length_b   6.17032508
_cell_length_c   5.33667000
_cell_angle_alpha   90.00000000
_cell_angle_beta   90.00000000
_cell_angle_gamma   119.99999010
_symmetry_Int_Tables_number   1
_chemical_formula_structural   Cu6Ni4C
_chemical_formula_sum   'Cu6 Ni4 C1'
_cell_volume   175.96128037
_cell_formula_units_Z   1
loop_
 _symmetry_equiv_pos_site_id
 _symmetry_equiv_pos_as_xyz
  1  'x, y, z'
loop_
 _atom_site_type_symbol
 _atom_site_label
 _atom_site_symmetry_multiplicity
 _atom_site_fract_x
 _atom_site_fract_y
 _atom_site_fract_z
 _atom_site_occupancy
  C  C0  1  0.00000000  0.00000000  0.50000000  1
  Ni  Ni1  1  0.33333300  0.66666700  0.43114600  1
  Ni  Ni2  1  0.66666700  0.33333300  0.56885400  1
  Ni  Ni3  1  0.66666700  0.33333300  0.93275100  1
  Ni  Ni4  1  0.33333300  0.66666700  0.06724900  1
  Cu  Cu5  1  0.51574900  0.48425100  0.24929000  1
  Cu  Cu6  1  0.51574900  0.03149800  0.24929000  1
  Cu  Cu7  1  0.96850200  0.48425100  0.24929000  1
  Cu  Cu8  1  0.48425100  0.51574900  0.75071000  1
  Cu  Cu9  1  0.48425100  0.96850200  0.75071000  1
  Cu  Cu10  1  0.03149800  0.51574900  0.75071000  1
