# generated using pymatgen
data_Cu2(NiC)3
_symmetry_space_group_name_H-M   'P 1'
_cell_length_a   5.22935609
_cell_length_b   5.22935609
_cell_length_c   13.07610200
_cell_angle_alpha   90.00000000
_cell_angle_beta   90.00000000
_cell_angle_gamma   135.25561458
_symmetry_Int_Tables_number   1
_chemical_formula_structural   Cu2(NiC)3
_chemical_formula_sum   'Cu4 Ni6 C6'
_cell_volume   251.71757462
_cell_formula_units_Z   2
loop_
 _symmetry_equiv_pos_site_id
 _symmetry_equiv_pos_as_xyz
  1  'x, y, z'
loop_
 _atom_site_type_symbol
 _atom_site_label
 _atom_site_symmetry_multiplicity
 _atom_site_fract_x
 _atom_site_fract_y
 _atom_site_fract_z
 _atom_site_occupancy
  C  C0  1  0.91726500  0.08273500  0.88838700  1
  C  C1  1  0.08273500  0.91726500  0.11161300  1
  C  C2  1  0.08273500  0.91726500  0.38838700  1
  C  C3  1  0.63846700  0.36153300  0.75000000  1
  C  C4  1  0.91726500  0.08273500  0.61161300  1
  C  C5  1  0.36153300  0.63846700  0.25000000  1
  Ni  Ni6  1  0.65962400  0.34037600  0.25000000  1
  Ni  Ni7  1  0.34037600  0.65962400  0.75000000  1
  Ni  Ni8  1  0.61648000  0.38352000  0.53902400  1
  Ni  Ni9  1  0.38352000  0.61648000  0.46097600  1
  Ni  Ni10  1  0.38352000  0.61648000  0.03902400  1
  Ni  Ni11  1  0.61648000  0.38352000  0.96097600  1
  Cu  Cu12  1  0.79196600  0.20803400  0.40395700  1
  Cu  Cu13  1  0.20803400  0.79196600  0.59604300  1
  Cu  Cu14  1  0.79196600  0.20803400  0.09604300  1
  Cu  Cu15  1  0.20803400  0.79196600  0.90395700  1
