# generated using pymatgen
data_Cu4Ni2C9
_symmetry_space_group_name_H-M   'P 1'
_cell_length_a   8.35444000
_cell_length_b   12.74901500
_cell_length_c   16.24514900
_cell_angle_alpha   90.00000000
_cell_angle_beta   90.00000000
_cell_angle_gamma   90.00000000
_symmetry_Int_Tables_number   1
_chemical_formula_structural   Cu4Ni2C9
_chemical_formula_sum   'Cu16 Ni8 C36'
_cell_volume   1730.28512996
_cell_formula_units_Z   4
loop_
 _symmetry_equiv_pos_site_id
 _symmetry_equiv_pos_as_xyz
  1  'x, y, z'
loop_
 _atom_site_type_symbol
 _atom_site_label
 _atom_site_symmetry_multiplicity
 _atom_site_fract_x
 _atom_site_fract_y
 _atom_site_fract_z
 _atom_site_occupancy
  C  C0  1  0.75000000  0.19498900  0.06230900  1
  C  C1  1  0.75000000  0.69498900  0.43769100  1
  C  C2  1  0.25000000  0.80501100  0.93769100  1
  C  C3  1  0.25000000  0.30501100  0.56230900  1
  C  C4  1  0.75000000  0.25738100  0.41341100  1
  C  C5  1  0.75000000  0.75738100  0.08658900  1
  C  C6  1  0.25000000  0.74261900  0.58658900  1
  C  C7  1  0.25000000  0.24261900  0.91341100  1
  C  C8  1  0.75000000  0.45347100  0.37433300  1
  C  C9  1  0.75000000  0.95347100  0.12566700  1
  C  C10  1  0.25000000  0.54652900  0.62566700  1
  C  C11  1  0.25000000  0.04652900  0.87433300  1
  C  C12  1  0.59822700  0.48890000  0.34742100  1
  C  C13  1  0.90177300  0.98890000  0.15257900  1
  C  C14  1  0.09822700  0.51110000  0.65257900  1
  C  C15  1  0.40177300  0.01110000  0.84742100  1
  C  C16  1  0.40177300  0.51110000  0.65257900  1
  C  C17  1  0.09822700  0.01110000  0.84742100  1
  C  C18  1  0.90177300  0.48890000  0.34742100  1
  C  C19  1  0.59822700  0.98890000  0.15257900  1
  C  C20  1  0.75000000  0.98844500  0.56030200  1
  C  C21  1  0.75000000  0.48844500  0.93969800  1
  C  C22  1  0.25000000  0.01155500  0.43969800  1
  C  C23  1  0.25000000  0.51155500  0.06030200  1
  C  C24  1  0.75000000  0.06602400  0.75364700  1
  C  C25  1  0.75000000  0.56602400  0.74635300  1
  C  C26  1  0.25000000  0.93397600  0.24635300  1
  C  C27  1  0.25000000  0.43397600  0.25364700  1
  C  C28  1  0.63503800  0.97303600  0.62190700  1
  C  C29  1  0.86496200  0.47303600  0.87809300  1
  C  C30  1  0.13503800  0.02696400  0.37809300  1
  C  C31  1  0.36496200  0.52696400  0.12190700  1
  C  C32  1  0.36496200  0.02696400  0.37809300  1
  C  C33  1  0.13503800  0.52696400  0.12190700  1
  C  C34  1  0.86496200  0.97303600  0.62190700  1
  C  C35  1  0.63503800  0.47303600  0.87809300  1
  Ni  Ni36  1  0.75000000  0.34657100  0.39344800  1
  Ni  Ni37  1  0.75000000  0.84657100  0.10655200  1
  Ni  Ni38  1  0.25000000  0.65342900  0.60655200  1
  Ni  Ni39  1  0.25000000  0.15342900  0.89344800  1
  Ni  Ni40  1  0.75000000  0.01277200  0.69085900  1
  Ni  Ni41  1  0.75000000  0.51277200  0.80914100  1
  Ni  Ni42  1  0.25000000  0.98722800  0.30914100  1
  Ni  Ni43  1  0.25000000  0.48722800  0.19085900  1
  Cu  Cu44  1  0.75000000  0.47300400  0.04178200  1
  Cu  Cu45  1  0.75000000  0.97300400  0.45821800  1
  Cu  Cu46  1  0.25000000  0.52699600  0.95821800  1
  Cu  Cu47  1  0.25000000  0.02699600  0.54178200  1
  Cu  Cu48  1  0.75000000  0.21119900  0.93438100  1
  Cu  Cu49  1  0.75000000  0.71119900  0.56561900  1
  Cu  Cu50  1  0.25000000  0.78880100  0.06561900  1
  Cu  Cu51  1  0.25000000  0.28880100  0.43438100  1
  Cu  Cu52  1  0.94417700  0.12525300  0.14820300  1
  Cu  Cu53  1  0.55582300  0.62525300  0.35179700  1
  Cu  Cu54  1  0.44417700  0.87474700  0.85179700  1
  Cu  Cu55  1  0.05582300  0.37474700  0.64820300  1
  Cu  Cu56  1  0.05582300  0.87474700  0.85179700  1
  Cu  Cu57  1  0.44417700  0.37474700  0.64820300  1
  Cu  Cu58  1  0.55582300  0.12525300  0.14820300  1
  Cu  Cu59  1  0.94417700  0.62525300  0.35179700  1
