# generated using pymatgen
data_CuNiC3
_symmetry_space_group_name_H-M   'P 1'
_cell_length_a   6.04105334
_cell_length_b   7.71783707
_cell_length_c   7.71783692
_cell_angle_alpha   83.75699699
_cell_angle_beta   83.83293520
_cell_angle_gamma   83.83293161
_symmetry_Int_Tables_number   1
_chemical_formula_structural   CuNiC3
_chemical_formula_sum   'Cu4 Ni4 C12'
_cell_volume   353.95859274
_cell_formula_units_Z   4
loop_
 _symmetry_equiv_pos_site_id
 _symmetry_equiv_pos_as_xyz
  1  'x, y, z'
loop_
 _atom_site_type_symbol
 _atom_site_label
 _atom_site_symmetry_multiplicity
 _atom_site_fract_x
 _atom_site_fract_y
 _atom_site_fract_z
 _atom_site_occupancy
  Ni  Ni0  1  0.75000000  0.08525300  0.91474700  1
  Ni  Ni1  1  0.75000000  0.74451700  0.25548300  1
  Ni  Ni2  1  0.25000000  0.25548300  0.74451700  1
  Ni  Ni3  1  0.25000000  0.91474700  0.08525300  1
  Cu  Cu4  1  0.71561800  0.59531300  0.79532600  1
  Cu  Cu5  1  0.21561800  0.79532600  0.59531300  1
  Cu  Cu6  1  0.78438200  0.20467400  0.40468700  1
  Cu  Cu7  1  0.28438200  0.40468700  0.20467400  1
  C  C8  1  0.61146100  0.81998600  0.99540100  1
  C  C9  1  0.11146100  0.99540100  0.81998600  1
  C  C10  1  0.87869900  0.71803600  0.52933800  1
  C  C11  1  0.91635000  0.33743600  0.89689900  1
  C  C12  1  0.37869900  0.52933800  0.71803600  1
  C  C13  1  0.41635000  0.89689900  0.33743600  1
  C  C14  1  0.58365000  0.10310100  0.66256400  1
  C  C15  1  0.62130100  0.47066200  0.28196400  1
  C  C16  1  0.08365000  0.66256400  0.10310100  1
  C  C17  1  0.12130100  0.28196400  0.47066200  1
  C  C18  1  0.88853900  0.00459900  0.18001400  1
  C  C19  1  0.38853900  0.18001400  0.00459900  1
