# generated using pymatgen
data_Cu6(NiC6)5
_symmetry_space_group_name_H-M   'P 1'
_cell_length_a   14.57060160
_cell_length_b   8.92485654
_cell_length_c   14.05932098
_cell_angle_alpha   90.00021520
_cell_angle_beta   90.00073920
_cell_angle_gamma   89.99820615
_symmetry_Int_Tables_number   1
_chemical_formula_structural   Cu6(NiC6)5
_chemical_formula_sum   'Cu24 Ni20 C120'
_cell_volume   1828.28153684
_cell_formula_units_Z   4
loop_
 _symmetry_equiv_pos_site_id
 _symmetry_equiv_pos_as_xyz
  1  'x, y, z'
loop_
 _atom_site_type_symbol
 _atom_site_label
 _atom_site_symmetry_multiplicity
 _atom_site_fract_x
 _atom_site_fract_y
 _atom_site_fract_z
 _atom_site_occupancy
  Ni  Ni0  1  0.19726920  0.37939074  0.95297352  1
  Ni  Ni1  1  0.53242798  0.36588962  0.95256164  1
  Ni  Ni2  1  0.86368460  0.37298502  0.95280396  1
  Ni  Ni3  1  0.30089099  0.86593552  0.54744393  1
  Ni  Ni4  1  0.63605244  0.87938387  0.54703714  1
  Ni  Ni5  1  0.96964112  0.87298005  0.54720080  1
  Ni  Ni6  1  0.03726708  0.14308489  0.45338414  1
  Ni  Ni7  1  0.36096079  0.14026056  0.45569209  1
  Ni  Ni8  1  0.29605257  0.85690632  0.95339945  1
  Ni  Ni9  1  0.97237946  0.85975395  0.95568473  1
  Ni  Ni10  1  0.47238158  0.64024857  0.04430077  1
  Ni  Ni11  1  0.79606299  0.64312841  0.04659363  1
  Ni  Ni12  1  0.13606734  0.62061606  0.45297305  1
  Ni  Ni13  1  0.46965340  0.62701721  0.45281379  1
  Ni  Ni14  1  0.80090592  0.63410156  0.45255430  1
  Ni  Ni15  1  0.03243009  0.13408564  0.04744138  1
  Ni  Ni16  1  0.36368430  0.12701604  0.04720872  1
  Ni  Ni17  1  0.69728377  0.12060872  0.04703310  1
  Ni  Ni18  1  0.53728219  0.35686786  0.54661566  1
  Ni  Ni19  1  0.86095185  0.35974854  0.54429275  1
  C  C20  1  0.28526735  0.84262112  0.74895855  1
  C  C21  1  0.61613501  0.84504606  0.75240693  1
  C  C22  1  0.95349173  0.85006580  0.75088206  1
  C  C23  1  0.11619835  0.65490515  0.24761026  1
  C  C24  1  0.45348825  0.64985033  0.24913229  1
  C  C25  1  0.78531249  0.65742615  0.25103391  1
  C  C26  1  0.21713747  0.34511908  0.74760814  1
  C  C27  1  0.54804769  0.34252024  0.75105098  1
  C  C28  1  0.87986157  0.35014038  0.74913382  1
  C  C29  1  0.04804390  0.15739737  0.24895107  1
  C  C30  1  0.37984826  0.14993036  0.25087888  1
  C  C31  1  0.71719174  0.15492604  0.25238534  1
  Cu  Cu32  1  0.03209141  0.55325748  0.84949396  1
  Cu  Cu33  1  0.36732903  0.55316852  0.85131003  1
  Cu  Cu34  1  0.69659039  0.55964477  0.85122330  1
  Cu  Cu35  1  0.13715242  0.05451425  0.85167372  1
  Cu  Cu36  1  0.46863307  0.05059189  0.85201405  1
  Cu  Cu37  1  0.80870578  0.05691985  0.85668228  1
  Cu  Cu38  1  0.19616437  0.94551261  0.35167692  1
  Cu  Cu39  1  0.52463148  0.94307932  0.35668628  1
  Cu  Cu40  1  0.86468229  0.94939177  0.35200177  1
  Cu  Cu41  1  0.30124935  0.44674979  0.34950331  1
  Cu  Cu42  1  0.63675234  0.44030827  0.35122564  1
  Cu  Cu43  1  0.96600148  0.44683180  0.35130639  1
  Cu  Cu44  1  0.30872217  0.44310757  0.14331655  1
  Cu  Cu45  1  0.63718432  0.44553758  0.14831224  1
  Cu  Cu46  1  0.96866925  0.44938628  0.14798819  1
  Cu  Cu47  1  0.13671793  0.05976963  0.64876478  1
  Cu  Cu48  1  0.46597179  0.05316701  0.64869413  1
  Cu  Cu49  1  0.80122359  0.05327967  0.65051627  1
  Cu  Cu50  1  0.19659695  0.94025923  0.14877296  1
  Cu  Cu51  1  0.53211572  0.94671760  0.15051241  1
  Cu  Cu52  1  0.86735857  0.94682881  0.14868441  1
  Cu  Cu53  1  0.02461920  0.55689251  0.64330949  1
  Cu  Cu54  1  0.36466104  0.55063028  0.64798927  1
  Cu  Cu55  1  0.69615152  0.55445186  0.64831145  1
  C  C56  1  0.25767620  0.48150843  0.24379303  1
  C  C57  1  0.58656112  0.49058471  0.24936506  1
  C  C58  1  0.91248602  0.47915473  0.24962242  1
  C  C59  1  0.17243506  0.76354330  0.34801726  1
  C  C60  1  0.50430577  0.75714555  0.35058557  1
  C  C61  1  0.84430632  0.76128979  0.35207166  1
  C  C62  1  0.00939401  0.73833017  0.85010785  1
  C  C63  1  0.34307632  0.73644546  0.84995102  1
  C  C64  1  0.67566388  0.73829708  0.84519118  1
  C  C65  1  0.32905982  0.25716879  0.14942788  1
  C  C66  1  0.66092607  0.26357057  0.15198738  1
  C  C67  1  0.98904833  0.26127199  0.14793384  1
  C  C68  1  0.09691833  0.03864712  0.34987658  1
  C  C69  1  0.42526396  0.03666269  0.35417823  1
  C  C70  1  0.76322243  0.02205671  0.34034885  1
  C  C71  1  0.06203166  0.54650013  0.35015743  1
  C  C72  1  0.40364299  0.53466224  0.35065214  1
  C  C73  1  0.73385441  0.54236688  0.35236385  1
  C  C74  1  0.23382425  0.95770575  0.64763115  1
  C  C75  1  0.56199699  0.95347410  0.64985981  1
  C  C76  1  0.90360748  0.96533774  0.64936287  1
  C  C77  1  0.07013210  0.52203676  0.15963919  1
  C  C78  1  0.40809210  0.53668219  0.14581915  1
  C  C79  1  0.73641357  0.53869774  0.15008760  1
  C  C80  1  0.09949038  0.04233114  0.14763325  1
  C  C81  1  0.42972450  0.03464501  0.14936250  1
  C  C82  1  0.77133001  0.04650902  0.14984702  1
  C  C83  1  0.15761409  0.23838749  0.65478194  1
  C  C84  1  0.49020684  0.23642700  0.65004533  1
  C  C85  1  0.82393417  0.23833635  0.64987287  1
  C  C86  1  0.32395727  0.26167891  0.35011759  1
  C  C87  1  0.65766357  0.26169093  0.34519012  1
  C  C88  1  0.99024157  0.26354637  0.34993361  1
  C  C89  1  0.26309948  0.98579274  0.44228965  1
  C  C90  1  0.58006225  0.97479171  0.45080972  1
  C  C91  1  0.93262647  0.99266522  0.44158579  1
  C  C92  1  0.06837801  0.01430535  0.56000648  1
  C  C93  1  0.39975463  0.00728888  0.55887583  1
  C  C94  1  0.73585625  0.99249839  0.57032583  1
  C  C95  1  0.27130288  0.45349426  0.85015405  1
  C  C96  1  0.59949588  0.45760995  0.85238013  1
  C  C97  1  0.92969980  0.46534346  0.85063863  1
  C  C98  1  0.26493873  0.98570654  0.06001586  1
  C  C99  1  0.59748365  0.00749362  0.07032465  1
  C  C100  1  0.93356632  0.99272486  0.05886637  1
  C  C101  1  0.09746229  0.49250759  0.92969331  1
  C  C102  1  0.43355551  0.50726662  0.94112059  1
  C  C103  1  0.76493433  0.51429937  0.93999343  1
  C  C104  1  0.24679255  0.99054149  0.25062987  1
  C  C105  1  0.57569830  0.98145302  0.25621985  1
  C  C106  1  0.92087319  0.97913327  0.25037064  1
  C  C107  1  0.25326797  0.47478574  0.04919902  1
  C  C108  1  0.57023583  0.48577185  0.05769937  1
  C  C109  1  0.90071366  0.49265606  0.05841051  1
  C  C110  1  0.23587664  0.50750780  0.42969737  1
  C  C111  1  0.56841505  0.48568855  0.44000520  1
  C  C112  1  0.89978040  0.49272451  0.44111996  1
  C  C113  1  0.08007185  0.52521096  0.54919438  1
  C  C114  1  0.43262482  0.50734557  0.55841990  1
  C  C115  1  0.76309928  0.51421758  0.55769737  1
  C  C116  1  0.07566691  0.51849402  0.74378650  1
  C  C117  1  0.42084090  0.52085344  0.74962453  1
  C  C118  1  0.74678067  0.50940224  0.74936386  1
  C  C119  1  0.26318784  0.47800513  0.65963618  1
  C  C120  1  0.59692429  0.46130803  0.65010248  1
  C  C121  1  0.92525090  0.46331477  0.64581074  1
  C  C122  1  0.07021808  0.01423714  0.94228518  1
  C  C123  1  0.40068630  0.00732335  0.94159041  1
  C  C124  1  0.75327513  0.02521405  0.95080403  1
  C  C125  1  0.16089942  0.23647470  0.84800939  1
  C  C126  1  0.48903217  0.23867309  0.85209202  1
  C  C127  1  0.82904027  0.24285075  0.85057519  1
  C  C128  1  0.17570886  0.76165086  0.15480708  1
  C  C129  1  0.50941453  0.76165413  0.14988090  1
  C  C130  1  0.84313137  0.76355112  0.15003607  1
  C  C131  1  0.23637698  0.96132908  0.84989739  1
  C  C132  1  0.57010236  0.97791634  0.84036052  1
  C  C133  1  0.90806848  0.96332575  0.85416757  1
  C  C134  1  0.08651628  0.00951990  0.75062150  1
  C  C135  1  0.41244835  0.02086090  0.75037787  1
  C  C136  1  0.75763248  0.01855322  0.75621795  1
  C  C137  1  0.00428030  0.74283049  0.64942217  1
  C  C138  1  0.34427436  0.73873784  0.64793195  1
  C  C139  1  0.67240624  0.73642063  0.65199454  1
  C  C140  1  0.13132055  0.25461755  0.03086139  1
  C  C141  1  0.46346467  0.25070322  0.03041647  1
  C  C142  1  0.79494955  0.26637603  0.03406484  1
  C  C143  1  0.02636396  0.75005137  0.03671364  1
  C  C144  1  0.36587448  0.74954168  0.03410791  1
  C  C145  1  0.70002743  0.75125832  0.03543256  1
  C  C146  1  0.20200637  0.74540191  0.53086173  1
  C  C147  1  0.53838811  0.73362233  0.53407243  1
  C  C148  1  0.86986917  0.74928257  0.53041120  1
  C  C149  1  0.30698831  0.24999016  0.53671706  1
  C  C150  1  0.63332629  0.24874956  0.53547728  1
  C  C151  1  0.96746573  0.25047058  0.53409294  1
  C  C152  1  0.20000746  0.74881823  0.96460270  1
  C  C153  1  0.52636670  0.74993703  0.96326465  1
  C  C154  1  0.86587030  0.75046637  0.96587017  1
  C  C155  1  0.13332950  0.25114701  0.46456128  1
  C  C156  1  0.46748712  0.24951588  0.46588834  1
  C  C157  1  0.80697005  0.25006027  0.46325486  1
  C  C158  1  0.03838483  0.76637676  0.46593713  1
  C  C159  1  0.36987880  0.75074121  0.46960433  1
  C  C160  1  0.70202036  0.75464386  0.46913683  1
  C  C161  1  0.29494921  0.23362631  0.96593896  1
  C  C162  1  0.63131470  0.24534731  0.96914209  1
  C  C163  1  0.96345930  0.24928111  0.96959266  1
