# generated using pymatgen
data_Cu2Ni2C5
_symmetry_space_group_name_H-M   'P 1'
_cell_length_a   5.91952300
_cell_length_b   5.95370566
_cell_length_c   9.06552200
_cell_angle_alpha   83.35420066
_cell_angle_beta   71.44057718
_cell_angle_gamma   69.73943519
_symmetry_Int_Tables_number   1
_chemical_formula_structural   Cu2Ni2C5
_chemical_formula_sum   'Cu4 Ni4 C10'
_cell_volume   284.13584974
_cell_formula_units_Z   2
loop_
 _symmetry_equiv_pos_site_id
 _symmetry_equiv_pos_as_xyz
  1  'x, y, z'
loop_
 _atom_site_type_symbol
 _atom_site_label
 _atom_site_symmetry_multiplicity
 _atom_site_fract_x
 _atom_site_fract_y
 _atom_site_fract_z
 _atom_site_occupancy
  C  C0  1  0.24107000  0.76373500  0.98464700  1
  C  C1  1  0.75893000  0.23626500  0.01535300  1
  C  C2  1  0.05525700  0.75816900  0.40626800  1
  C  C3  1  0.94474300  0.24183100  0.59373200  1
  C  C4  1  0.47932900  0.74343900  0.55120700  1
  C  C5  1  0.52067100  0.25656100  0.44879300  1
  C  C6  1  0.61379600  0.72184900  0.18763600  1
  C  C7  1  0.38620400  0.27815100  0.81236400  1
  C  C8  1  0.84152200  0.71847800  0.76494200  1
  C  C9  1  0.15847800  0.28152200  0.23505800  1
  Ni  Ni10  1  0.29842000  0.03787400  0.35856200  1
  Ni  Ni11  1  0.15955400  0.54244400  0.64602300  1
  Ni  Ni12  1  0.84044600  0.45755600  0.35397700  1
  Ni  Ni13  1  0.70158000  0.96212600  0.64143800  1
  Cu  Cu14  1  0.64188900  0.51214900  0.81851800  1
  Cu  Cu15  1  0.14932100  0.15856100  0.05258100  1
  Cu  Cu16  1  0.35811100  0.48785100  0.18148200  1
  Cu  Cu17  1  0.85067900  0.84143900  0.94741900  1
