# generated using pymatgen
data_CuNiC
_symmetry_space_group_name_H-M   'P 1'
_cell_length_a   3.07076200
_cell_length_b   4.99140200
_cell_length_c   9.73974700
_cell_angle_alpha   90.00006385
_cell_angle_beta   90.00000000
_cell_angle_gamma   90.00000000
_symmetry_Int_Tables_number   1
_chemical_formula_structural   CuNiC
_chemical_formula_sum   'Cu4 Ni4 C4'
_cell_volume   149.28507208
_cell_formula_units_Z   4
loop_
 _symmetry_equiv_pos_site_id
 _symmetry_equiv_pos_as_xyz
  1  'x, y, z'
loop_
 _atom_site_type_symbol
 _atom_site_label
 _atom_site_symmetry_multiplicity
 _atom_site_fract_x
 _atom_site_fract_y
 _atom_site_fract_z
 _atom_site_occupancy
  C  C0  1  0.75000000  0.47593800  0.34327300  1
  C  C1  1  0.75000000  0.02406200  0.84327500  1
  C  C2  1  0.25000000  0.97591300  0.15669800  1
  C  C3  1  0.24999900  0.52408600  0.65670000  1
  Ni  Ni4  1  0.75000000  0.16922700  0.22839400  1
  Ni  Ni5  1  0.25000000  0.66924300  0.27161400  1
  Ni  Ni6  1  0.75000000  0.33077200  0.72839400  1
  Ni  Ni7  1  0.25000000  0.83075800  0.77161400  1
  Cu  Cu8  1  0.75000000  0.80690100  0.03201200  1
  Cu  Cu9  1  0.25000000  0.30691200  0.46800600  1
  Cu  Cu10  1  0.75000000  0.69310000  0.53201200  1
  Cu  Cu11  1  0.25000000  0.19309000  0.96800600  1
