# generated using pymatgen
data_Cu(Ni4C5)3
_symmetry_space_group_name_H-M   'P 1'
_cell_length_a   9.01126272
_cell_length_b   10.48695250
_cell_length_c   8.74208464
_cell_angle_alpha   93.62745744
_cell_angle_beta   121.02389526
_cell_angle_gamma   82.94873909
_symmetry_Int_Tables_number   1
_chemical_formula_structural   Cu(Ni4C5)3
_chemical_formula_sum   'Cu1 Ni12 C15'
_cell_volume   702.60218929
_cell_formula_units_Z   1
loop_
 _symmetry_equiv_pos_site_id
 _symmetry_equiv_pos_as_xyz
  1  'x, y, z'
loop_
 _atom_site_type_symbol
 _atom_site_label
 _atom_site_symmetry_multiplicity
 _atom_site_fract_x
 _atom_site_fract_y
 _atom_site_fract_z
 _atom_site_occupancy
  C  C0  1  0.50000000  0.50000000  0.50000000  1
  C  C1  1  0.00000000  0.50000000  0.50000000  1
  C  C2  1  0.50000000  0.50000000  0.00000000  1
  C  C3  1  0.84088800  0.59136200  0.00000000  1
  C  C4  1  0.08048900  0.55704800  0.88805900  1
  C  C5  1  0.19243000  0.55704800  0.11194100  1
  C  C6  1  0.15911200  0.40863800  0.00000000  1
  C  C7  1  0.91951100  0.44295200  0.11194100  1
  C  C8  1  0.80757000  0.44295200  0.88805900  1
  C  C9  1  0.04494000  0.57717200  0.18950000  1
  C  C10  1  0.85543900  0.57717200  0.81050000  1
  C  C11  1  0.00506800  0.33275000  0.00000000  1
  C  C12  1  0.95506000  0.42282800  0.81050000  1
  C  C13  1  0.14456100  0.42282800  0.18950000  1
  C  C14  1  0.99493200  0.66725000  0.00000000  1
  Ni  Ni15  1  0.75049700  0.38502700  0.00000000  1
  Ni  Ni16  1  0.16060100  0.89849900  0.65743300  1
  Ni  Ni17  1  0.50316800  0.89850000  0.34256700  1
  Ni  Ni18  1  0.24950300  0.61497300  0.00000000  1
  Ni  Ni19  1  0.83939900  0.10150100  0.34256700  1
  Ni  Ni20  1  0.49683200  0.10150000  0.65743300  1
  Ni  Ni21  1  0.16359800  0.89125300  0.57245000  1
  Ni  Ni22  1  0.59114800  0.89125300  0.42755000  1
  Ni  Ni23  1  0.01037400  0.78138100  0.00000000  1
  Ni  Ni24  1  0.83640200  0.10874700  0.42755000  1
  Ni  Ni25  1  0.40885200  0.10874700  0.57245000  1
  Ni  Ni26  1  0.98962600  0.21861900  0.00000000  1
  Cu  Cu27  1  0.00000000  0.00000000  0.00000000  1
