# generated using pymatgen
data_Cu5(NiC10)3
_symmetry_space_group_name_H-M   'P 1'
_cell_length_a   7.74028100
_cell_length_b   7.67857200
_cell_length_c   7.95052600
_cell_angle_alpha   90.00000000
_cell_angle_beta   90.00000000
_cell_angle_gamma   90.00000000
_symmetry_Int_Tables_number   1
_chemical_formula_structural   Cu5(NiC10)3
_chemical_formula_sum   'Cu5 Ni3 C30'
_cell_volume   472.53398687
_cell_formula_units_Z   1
loop_
 _symmetry_equiv_pos_site_id
 _symmetry_equiv_pos_as_xyz
  1  'x, y, z'
loop_
 _atom_site_type_symbol
 _atom_site_label
 _atom_site_symmetry_multiplicity
 _atom_site_fract_x
 _atom_site_fract_y
 _atom_site_fract_z
 _atom_site_occupancy
  C  C0  1  0.23353200  0.26864500  0.27285300  1
  C  C1  1  0.26428000  0.25607000  0.76050300  1
  C  C2  1  0.23353200  0.73135500  0.27285300  1
  C  C3  1  0.26428000  0.74393000  0.76050300  1
  C  C4  1  0.76646800  0.26864500  0.27285300  1
  C  C5  1  0.73572000  0.25607000  0.76050300  1
  C  C6  1  0.76646800  0.73135500  0.27285300  1
  C  C7  1  0.73572000  0.74393000  0.76050300  1
  Ni  Ni8  1  0.00000000  0.00000000  0.98513400  1
  Ni  Ni9  1  0.00000000  0.00000000  0.51092200  1
  Ni  Ni10  1  0.50000000  0.00000000  0.99654400  1
  Cu  Cu11  1  0.00000000  0.50000000  0.03029500  1
  Cu  Cu12  1  0.00000000  0.50000000  0.52437900  1
  Cu  Cu13  1  0.50000000  0.00000000  0.46418900  1
  Cu  Cu14  1  0.50000000  0.50000000  0.99467600  1
  Cu  Cu15  1  0.50000000  0.50000000  0.50718300  1
  C  C16  1  0.00000000  0.00000000  0.74619800  1
  C  C17  1  0.00000000  0.50000000  0.28025100  1
  C  C18  1  0.00000000  0.50000000  0.78003300  1
  C  C19  1  0.50000000  0.00000000  0.21979500  1
  C  C20  1  0.50000000  0.00000000  0.70138300  1
  C  C21  1  0.50000000  0.50000000  0.74653400  1
  C  C22  1  0.25157500  0.00000000  0.94957700  1
  C  C23  1  0.21102100  0.00000000  0.40398900  1
  C  C24  1  0.25920100  0.50000000  0.04849700  1
  C  C25  1  0.25330200  0.50000000  0.50476700  1
  C  C26  1  0.74842500  0.00000000  0.94957700  1
  C  C27  1  0.78897900  0.00000000  0.40398900  1
  C  C28  1  0.74079900  0.50000000  0.04849700  1
  C  C29  1  0.74669800  0.50000000  0.50476700  1
  C  C30  1  0.00000000  0.21212700  0.08922400  1
  C  C31  1  0.00000000  0.25241800  0.52457400  1
  C  C32  1  0.00000000  0.78787300  0.08922400  1
  C  C33  1  0.00000000  0.74758200  0.52457400  1
  C  C34  1  0.50000000  0.25323400  0.97446900  1
  C  C35  1  0.50000000  0.25920700  0.44443200  1
  C  C36  1  0.50000000  0.74676600  0.97446900  1
  C  C37  1  0.50000000  0.74079300  0.44443200  1
