# generated using pymatgen
data_Cu5(NiC3)2
_symmetry_space_group_name_H-M   'P 1'
_cell_length_a   3.27649483
_cell_length_b   3.27649483
_cell_length_c   31.81193400
_cell_angle_alpha   90.00000000
_cell_angle_beta   90.00000000
_cell_angle_gamma   120.00001680
_symmetry_Int_Tables_number   1
_chemical_formula_structural   Cu5(NiC3)2
_chemical_formula_sum   'Cu10 Ni4 C12'
_cell_volume   295.76011436
_cell_formula_units_Z   2
loop_
 _symmetry_equiv_pos_site_id
 _symmetry_equiv_pos_as_xyz
  1  'x, y, z'
loop_
 _atom_site_type_symbol
 _atom_site_label
 _atom_site_symmetry_multiplicity
 _atom_site_fract_x
 _atom_site_fract_y
 _atom_site_fract_z
 _atom_site_occupancy
  C  C0  1  0.33333300  0.66666700  0.65907900  1
  C  C1  1  0.66666700  0.33333300  0.15907900  1
  C  C2  1  0.66666700  0.33333300  0.34092100  1
  C  C3  1  0.33333300  0.66666700  0.84092100  1
  C  C4  1  0.00000000  0.00000000  0.50000000  1
  C  C5  1  0.00000000  0.00000000  0.00000000  1
  C  C6  1  0.00000000  0.00000000  0.75000000  1
  C  C7  1  0.00000000  0.00000000  0.25000000  1
  C  C8  1  0.33333300  0.66666700  0.43145500  1
  C  C9  1  0.66666700  0.33333300  0.93145500  1
  C  C10  1  0.66666700  0.33333300  0.56854500  1
  C  C11  1  0.33333300  0.66666700  0.06854500  1
  Ni  Ni12  1  0.66666700  0.33333300  0.45414300  1
  Ni  Ni13  1  0.33333300  0.66666700  0.95414300  1
  Ni  Ni14  1  0.33333300  0.66666700  0.54585700  1
  Ni  Ni15  1  0.66666700  0.33333300  0.04585700  1
  Cu  Cu16  1  0.33333300  0.66666700  0.37300800  1
  Cu  Cu17  1  0.66666700  0.33333300  0.87300800  1
  Cu  Cu18  1  0.66666700  0.33333300  0.62699200  1
  Cu  Cu19  1  0.33333300  0.66666700  0.12699200  1
  Cu  Cu20  1  0.33333300  0.66666700  0.75000000  1
  Cu  Cu21  1  0.66666700  0.33333300  0.25000000  1
  Cu  Cu22  1  0.00000000  0.00000000  0.80908600  1
  Cu  Cu23  1  0.00000000  0.00000000  0.30908600  1
  Cu  Cu24  1  0.00000000  0.00000000  0.19091400  1
  Cu  Cu25  1  0.00000000  0.00000000  0.69091400  1
