# generated using pymatgen
data_Cu6Ni2C5
_symmetry_space_group_name_H-M   'P 1'
_cell_length_a   5.46405716
_cell_length_b   5.91666164
_cell_length_c   12.26328153
_cell_angle_alpha   90.00000023
_cell_angle_beta   97.62601435
_cell_angle_gamma   122.78011013
_symmetry_Int_Tables_number   1
_chemical_formula_structural   Cu6Ni2C5
_chemical_formula_sum   'Cu12 Ni4 C10'
_cell_volume   329.14658681
_cell_formula_units_Z   2
loop_
 _symmetry_equiv_pos_site_id
 _symmetry_equiv_pos_as_xyz
  1  'x, y, z'
loop_
 _atom_site_type_symbol
 _atom_site_label
 _atom_site_symmetry_multiplicity
 _atom_site_fract_x
 _atom_site_fract_y
 _atom_site_fract_z
 _atom_site_occupancy
  C  C0  1  0.00000000  0.40749900  0.75000000  1
  C  C1  1  0.00000000  0.59250100  0.25000000  1
  C  C2  1  0.11810400  0.79605900  0.99376000  1
  C  C3  1  0.88189600  0.67795500  0.50624000  1
  C  C4  1  0.88189600  0.20394100  0.00624000  1
  C  C5  1  0.11810400  0.32204500  0.49376000  1
  C  C6  1  0.30579500  0.09594200  0.70809600  1
  C  C7  1  0.69420500  0.79014700  0.79190400  1
  C  C8  1  0.69420500  0.90405800  0.29190400  1
  C  C9  1  0.30579500  0.20985300  0.20809600  1
  Ni  Ni10  1  0.54787300  0.91695000  0.57586400  1
  Ni  Ni11  1  0.45212700  0.36907700  0.92413600  1
  Ni  Ni12  1  0.45212700  0.08305000  0.42413600  1
  Ni  Ni13  1  0.54787300  0.63092300  0.07586400  1
  Cu  Cu14  1  0.31561000  0.72266200  0.64075700  1
  Cu  Cu15  1  0.68439000  0.40705200  0.85924300  1
  Cu  Cu16  1  0.68439000  0.27733800  0.35924300  1
  Cu  Cu17  1  0.31561000  0.59294800  0.14075700  1
  Cu  Cu18  1  0.53949000  0.17924800  0.54828400  1
  Cu  Cu19  1  0.46051000  0.63975900  0.95171600  1
  Cu  Cu20  1  0.46051000  0.82075200  0.45171600  1
  Cu  Cu21  1  0.53949000  0.36024100  0.04828400  1
  Cu  Cu22  1  0.84351500  0.99307700  0.62471000  1
  Cu  Cu23  1  0.15648500  0.14956200  0.87529000  1
  Cu  Cu24  1  0.15648500  0.00692300  0.37529000  1
  Cu  Cu25  1  0.84351500  0.85043800  0.12471000  1
