# generated using pymatgen
data_CuNiC8
_symmetry_space_group_name_H-M   'P 1'
_cell_length_a   8.33102937
_cell_length_b   8.43056690
_cell_length_c   8.39115779
_cell_angle_alpha   90.00000000
_cell_angle_beta   90.00000000
_cell_angle_gamma   90.00000000
_symmetry_Int_Tables_number   1
_chemical_formula_structural   CuNiC8
_chemical_formula_sum   'Cu4 Ni4 C32'
_cell_volume   589.35548850
_cell_formula_units_Z   4
loop_
 _symmetry_equiv_pos_site_id
 _symmetry_equiv_pos_as_xyz
  1  'x, y, z'
loop_
 _atom_site_type_symbol
 _atom_site_label
 _atom_site_symmetry_multiplicity
 _atom_site_fract_x
 _atom_site_fract_y
 _atom_site_fract_z
 _atom_site_occupancy
  C  C0  1  -0.00000000  0.50000000  0.50000000  1
  C  C1  1  0.50000000  0.50000000  0.00000000  1
  C  C2  1  -0.00000000  0.50000000  0.00000000  1
  C  C3  1  -0.00000000  -0.00000000  0.50000000  1
  Ni  Ni4  1  0.74976861  0.74988674  0.75007947  1
  Ni  Ni5  1  0.25023139  0.25011326  0.75007947  1
  Ni  Ni6  1  0.25023139  0.74988674  0.24992053  1
  Ni  Ni7  1  0.74976861  0.25011326  0.24992053  1
  Cu  Cu8  1  0.50000000  -0.00000000  0.50000000  1
  Cu  Cu9  1  0.50000000  -0.00000000  0.00000000  1
  Cu  Cu10  1  -0.00000000  -0.00000000  0.00000000  1
  Cu  Cu11  1  0.50000000  0.50000000  0.50000000  1
  C  C12  1  0.25041591  0.24965469  0.24996025  1
  C  C13  1  0.74958409  0.75034531  0.24996025  1
  C  C14  1  0.74958409  0.24965469  0.75003975  1
  C  C15  1  0.25041591  0.75034531  0.75003975  1
  C  C16  1  0.01681624  0.20881225  0.28630479  1
  C  C17  1  0.98318376  0.79118775  0.28630479  1
  C  C18  1  0.98318376  0.20881225  0.71369521  1
  C  C19  1  0.01681624  0.79118775  0.71369521  1
  C  C20  1  0.28579719  0.01292832  0.20863524  1
  C  C21  1  0.28579719  0.98707168  0.79136476  1
  C  C22  1  0.71420281  0.98707168  0.20863524  1
  C  C23  1  0.71420281  0.01292832  0.79136476  1
  C  C24  1  0.21033740  0.28413100  0.01480379  1
  C  C25  1  0.78966260  0.28413100  0.98519621  1
  C  C26  1  0.21033740  0.71586900  0.98519621  1
  C  C27  1  0.78966260  0.71586900  0.01480379  1
  C  C28  1  0.48354393  0.29082425  0.21347158  1
  C  C29  1  0.51645607  0.70917575  0.21347158  1
  C  C30  1  0.51645607  0.29082425  0.78652842  1
  C  C31  1  0.48354393  0.70917575  0.78652842  1
  C  C32  1  0.21644462  0.48692263  0.29115318  1
  C  C33  1  0.21644462  0.51307737  0.70884682  1
  C  C34  1  0.78355538  0.51307737  0.29115318  1
  C  C35  1  0.78355538  0.48692263  0.70884682  1
  C  C36  1  0.29134475  0.21363614  0.48460687  1
  C  C37  1  0.70865525  0.21363614  0.51539313  1
  C  C38  1  0.29134475  0.78636386  0.51539313  1
  C  C39  1  0.70865525  0.78636386  0.48460687  1
