# generated using pymatgen
data_Cu3Ni8C7
_symmetry_space_group_name_H-M   'P 1'
_cell_length_a   7.50090209
_cell_length_b   7.50090209
_cell_length_c   9.26273500
_cell_angle_alpha   90.00000000
_cell_angle_beta   90.00000000
_cell_angle_gamma   103.74479133
_symmetry_Int_Tables_number   1
_chemical_formula_structural   Cu3Ni8C7
_chemical_formula_sum   'Cu6 Ni16 C14'
_cell_volume   506.23024694
_cell_formula_units_Z   2
loop_
 _symmetry_equiv_pos_site_id
 _symmetry_equiv_pos_as_xyz
  1  'x, y, z'
loop_
 _atom_site_type_symbol
 _atom_site_label
 _atom_site_symmetry_multiplicity
 _atom_site_fract_x
 _atom_site_fract_y
 _atom_site_fract_z
 _atom_site_occupancy
  C  C0  1  0.47245100  0.47245100  0.76198600  1
  C  C1  1  0.52754900  0.52754900  0.26198600  1
  C  C2  1  0.86065900  0.86065900  0.42068800  1
  C  C3  1  0.13934100  0.13934100  0.92068800  1
  C  C4  1  0.78472000  0.78472000  0.03570600  1
  C  C5  1  0.21528000  0.21528000  0.53570600  1
  C  C6  1  0.93851400  0.57232900  0.74601500  1
  C  C7  1  0.06148600  0.42767100  0.24601500  1
  C  C8  1  0.57232900  0.93851400  0.74601500  1
  C  C9  1  0.42767100  0.06148600  0.24601500  1
  C  C10  1  0.25484800  0.74364900  0.49926800  1
  C  C11  1  0.25635100  0.74515200  0.99926800  1
  C  C12  1  0.74515200  0.25635100  0.99926800  1
  C  C13  1  0.74364900  0.25484800  0.49926800  1
  Ni  Ni14  1  0.08481100  0.73223600  0.90217600  1
  Ni  Ni15  1  0.91518900  0.26776400  0.40217600  1
  Ni  Ni16  1  0.26776400  0.91518900  0.40217600  1
  Ni  Ni17  1  0.73223600  0.08481100  0.90217600  1
  Ni  Ni18  1  0.23740100  0.57088000  0.09446100  1
  Ni  Ni19  1  0.57088000  0.23740100  0.09446100  1
  Ni  Ni20  1  0.42912000  0.76259900  0.59446100  1
  Ni  Ni21  1  0.76259900  0.42912000  0.59446100  1
  Ni  Ni22  1  0.23245000  0.56652200  0.40670800  1
  Ni  Ni23  1  0.76755000  0.43347800  0.90670800  1
  Ni  Ni24  1  0.56652200  0.23245000  0.40670800  1
  Ni  Ni25  1  0.43347800  0.76755000  0.90670800  1
  Ni  Ni26  1  0.26681500  0.91821700  0.09435800  1
  Ni  Ni27  1  0.91821700  0.26681500  0.09435800  1
  Ni  Ni28  1  0.08178300  0.73318500  0.59435800  1
  Ni  Ni29  1  0.73318500  0.08178300  0.59435800  1
  Cu  Cu30  1  0.75818500  0.75818500  0.74848000  1
  Cu  Cu31  1  0.24181500  0.24181500  0.24848000  1
  Cu  Cu32  1  0.89297400  0.59853000  0.24508000  1
  Cu  Cu33  1  0.10702600  0.40147000  0.74508000  1
  Cu  Cu34  1  0.59853000  0.89297400  0.24508000  1
  Cu  Cu35  1  0.40147000  0.10702600  0.74508000  1
