# generated using pymatgen
data_Cu4NiC28
_symmetry_space_group_name_H-M   'P 1'
_cell_length_a   7.12814891
_cell_length_b   8.05265155
_cell_length_c   9.35720501
_cell_angle_alpha   86.88549833
_cell_angle_beta   87.89648595
_cell_angle_gamma   88.82898211
_symmetry_Int_Tables_number   1
_chemical_formula_structural   Cu4NiC28
_chemical_formula_sum   'Cu4 Ni1 C28'
_cell_volume   535.86195929
_cell_formula_units_Z   1
loop_
 _symmetry_equiv_pos_site_id
 _symmetry_equiv_pos_as_xyz
  1  'x, y, z'
loop_
 _atom_site_type_symbol
 _atom_site_label
 _atom_site_symmetry_multiplicity
 _atom_site_fract_x
 _atom_site_fract_y
 _atom_site_fract_z
 _atom_site_occupancy
  Ni  Ni0  1  0.86256100  0.16374500  0.99764100  1
  Cu  Cu1  1  0.05720300  0.81589600  0.87943300  1
  Cu  Cu2  1  0.48578800  0.90014100  0.60071600  1
  Cu  Cu3  1  0.51177400  0.41041200  0.40882000  1
  Cu  Cu4  1  0.04728500  0.44143900  0.14554600  1
  C  C5  1  0.30049100  0.79246100  0.26029200  1
  C  C6  1  0.18491200  0.30591200  0.75150500  1
  C  C7  1  0.80789700  0.79919800  0.23848800  1
  C  C8  1  0.68677900  0.28801800  0.73820100  1
  C  C9  1  0.97368900  0.08999900  0.47279200  1
  C  C10  1  0.99693400  0.60852500  0.53232700  1
  C  C11  1  0.54393800  0.58662900  0.98281900  1
  C  C12  1  0.44117100  0.09186200  0.03331800  1
  C  C13  1  0.93701500  0.24481000  0.80582600  1
  C  C14  1  0.12493100  0.01778000  0.62285300  1
  C  C15  1  0.07603400  0.74020600  0.18106500  1
  C  C16  1  0.86128000  0.55977700  0.36998600  1
  C  C17  1  0.25564800  0.98984600  0.30374800  1
  C  C18  1  0.55018300  0.77476500  0.30254100  1
  C  C19  1  0.87816400  0.86992200  0.43769900  1
  C  C20  1  0.20272300  0.49114400  0.82433800  1
  C  C21  1  0.41710300  0.25261100  0.69931200  1
  C  C22  1  0.63855300  0.35996300  0.95948900  1
  C  C23  1  0.21525800  0.14603400  0.93249300  1
  C  C24  1  0.38881900  0.53057100  0.14482100  1
  C  C25  1  0.76394100  0.65704800  0.07430000  1
  C  C26  1  0.38492600  0.85856600  0.05116900  1
  C  C27  1  0.73985500  0.14870900  0.57457200  1
  C  C28  1  0.70409400  0.48881000  0.67115700  1
  C  C29  1  0.63368300  0.06239400  0.88770200  1
  C  C30  1  0.81280000  0.00126100  0.16005600  1
  C  C31  1  0.23677300  0.66509400  0.43317000  1
  C  C32  1  0.09922700  0.37778200  0.56466300  1
