# generated using pymatgen
data_Cu10Ni2C3
_symmetry_space_group_name_H-M   'P 1'
_cell_length_a   5.91235041
_cell_length_b   6.43273011
_cell_length_c   15.56193200
_cell_angle_alpha   90.00000000
_cell_angle_beta   90.00000000
_cell_angle_gamma   117.16113344
_symmetry_Int_Tables_number   1
_chemical_formula_structural   Cu10Ni2C3
_chemical_formula_sum   'Cu20 Ni4 C6'
_cell_volume   526.59339709
_cell_formula_units_Z   2
loop_
 _symmetry_equiv_pos_site_id
 _symmetry_equiv_pos_as_xyz
  1  'x, y, z'
loop_
 _atom_site_type_symbol
 _atom_site_label
 _atom_site_symmetry_multiplicity
 _atom_site_fract_x
 _atom_site_fract_y
 _atom_site_fract_z
 _atom_site_occupancy
  C  C0  1  0.00000000  0.50000000  0.50000000  1
  C  C1  1  0.50000000  0.50000000  0.00000000  1
  C  C2  1  0.87608600  0.25448100  0.11475700  1
  C  C3  1  0.62391400  0.74551900  0.61475700  1
  C  C4  1  0.12391400  0.74551900  0.88524300  1
  C  C5  1  0.37608600  0.25448100  0.38524300  1
  Ni  Ni6  1  0.72543300  0.91899900  0.36683100  1
  Ni  Ni7  1  0.77456700  0.08100100  0.86683100  1
  Ni  Ni8  1  0.27456700  0.08100100  0.63316900  1
  Ni  Ni9  1  0.22543300  0.91899900  0.13316900  1
  Cu  Cu10  1  0.74257500  0.93829400  0.17514100  1
  Cu  Cu11  1  0.75742500  0.06170600  0.67514100  1
  Cu  Cu12  1  0.25742500  0.06170600  0.82485900  1
  Cu  Cu13  1  0.24257500  0.93829400  0.32485900  1
  Cu  Cu14  1  0.64287700  0.29817400  0.05542100  1
  Cu  Cu15  1  0.85712300  0.70182600  0.55542100  1
  Cu  Cu16  1  0.35712300  0.70182600  0.94457900  1
  Cu  Cu17  1  0.14287700  0.29817400  0.44457900  1
  Cu  Cu18  1  0.14664700  0.30858400  0.04996000  1
  Cu  Cu19  1  0.35335300  0.69141600  0.54996000  1
  Cu  Cu20  1  0.85335300  0.69141600  0.95004000  1
  Cu  Cu21  1  0.64664700  0.30858400  0.45004000  1
  Cu  Cu22  1  0.97194100  0.44240800  0.20016400  1
  Cu  Cu23  1  0.52805900  0.55759200  0.70016400  1
  Cu  Cu24  1  0.02805900  0.55759200  0.79983600  1
  Cu  Cu25  1  0.47194100  0.44240800  0.29983600  1
  Cu  Cu26  1  0.11558800  0.75327200  0.37428400  1
  Cu  Cu27  1  0.38441200  0.24672800  0.87428400  1
  Cu  Cu28  1  0.88441200  0.24672800  0.62571600  1
  Cu  Cu29  1  0.61558800  0.75327200  0.12571600  1
