# generated using pymatgen
data_Cu3NiC7
_symmetry_space_group_name_H-M   'P 1'
_cell_length_a   6.85122500
_cell_length_b   6.99623991
_cell_length_c   7.14773353
_cell_angle_alpha   63.19224697
_cell_angle_beta   72.76825624
_cell_angle_gamma   69.35818826
_symmetry_Int_Tables_number   1
_chemical_formula_structural   Cu3NiC7
_chemical_formula_sum   'Cu6 Ni2 C14'
_cell_volume   282.26793790
_cell_formula_units_Z   2
loop_
 _symmetry_equiv_pos_site_id
 _symmetry_equiv_pos_as_xyz
  1  'x, y, z'
loop_
 _atom_site_type_symbol
 _atom_site_label
 _atom_site_symmetry_multiplicity
 _atom_site_fract_x
 _atom_site_fract_y
 _atom_site_fract_z
 _atom_site_occupancy
  C  C0  1  0.74347300  0.20422100  0.42052800  1
  C  C1  1  0.25652700  0.79577900  0.57947200  1
  Ni  Ni2  1  0.32536500  0.14797400  0.87236200  1
  Ni  Ni3  1  0.67463500  0.85202600  0.12763800  1
  Cu  Cu4  1  0.24438300  0.31954700  0.43356100  1
  Cu  Cu5  1  0.75561700  0.68045300  0.56643900  1
  Cu  Cu6  1  0.29719900  0.68202700  0.16725700  1
  Cu  Cu7  1  0.70280100  0.31797300  0.83274300  1
  Cu  Cu8  1  0.09674000  0.49394600  0.09455600  1
  Cu  Cu9  1  0.90326000  0.50605400  0.90544400  1
  C  C10  1  0.13861000  0.41675700  0.91738200  1
  C  C11  1  0.86139000  0.58324300  0.08261800  1
  C  C12  1  0.27916400  0.14968100  0.61910500  1
  C  C13  1  0.72083600  0.85031900  0.38089500  1
  C  C14  1  0.37183800  0.85871400  0.11871900  1
  C  C15  1  0.62816200  0.14128600  0.88128100  1
  C  C16  1  0.80247000  0.32930300  0.96680400  1
  C  C17  1  0.19753000  0.67069700  0.03319600  1
  C  C18  1  0.13890800  0.31361500  0.29805500  1
  C  C19  1  0.86109200  0.68638500  0.70194500  1
  C  C20  1  0.32328200  0.50664900  0.36595200  1
  C  C21  1  0.67671800  0.49335100  0.63404800  1
