# generated using pymatgen
data_CuNiC14
_symmetry_space_group_name_H-M   'P 1'
_cell_length_a   12.10615800
_cell_length_b   8.15900200
_cell_length_c   10.14115722
_cell_angle_alpha   74.06784296
_cell_angle_beta   90.00000000
_cell_angle_gamma   90.00000000
_symmetry_Int_Tables_number   1
_chemical_formula_structural   CuNiC14
_chemical_formula_sum   'Cu4 Ni4 C56'
_cell_volume   963.20705914
_cell_formula_units_Z   4
loop_
 _symmetry_equiv_pos_site_id
 _symmetry_equiv_pos_as_xyz
  1  'x, y, z'
loop_
 _atom_site_type_symbol
 _atom_site_label
 _atom_site_symmetry_multiplicity
 _atom_site_fract_x
 _atom_site_fract_y
 _atom_site_fract_z
 _atom_site_occupancy
  C  C0  1  0.89898800  0.76102500  0.08866800  1
  C  C1  1  0.10101200  0.23897500  0.91133200  1
  C  C2  1  0.39898800  0.73897500  0.91133200  1
  C  C3  1  0.60101200  0.26102500  0.08866800  1
  C  C4  1  0.69398400  0.91224900  0.10586000  1
  C  C5  1  0.30601600  0.08775100  0.89414000  1
  C  C6  1  0.19398400  0.58775100  0.89414000  1
  C  C7  1  0.80601600  0.41224900  0.10586000  1
  C  C8  1  0.40575200  0.35307800  0.05644900  1
  C  C9  1  0.59424800  0.64692200  0.94355100  1
  C  C10  1  0.90575200  0.14692200  0.94355100  1
  C  C11  1  0.09424800  0.85307800  0.05644900  1
  C  C12  1  0.57345000  0.82727800  0.82158000  1
  C  C13  1  0.42655000  0.17272200  0.17842000  1
  C  C14  1  0.07345000  0.67272200  0.17842000  1
  C  C15  1  0.92655000  0.32727800  0.82158000  1
  C  C16  1  0.63239400  0.80451100  0.24872000  1
  C  C17  1  0.36760600  0.19548900  0.75128000  1
  C  C18  1  0.13239400  0.69548900  0.75128000  1
  C  C19  1  0.86760600  0.30451100  0.24872000  1
  C  C20  1  0.65353500  0.55785800  0.65318200  1
  C  C21  1  0.34646500  0.44214200  0.34681800  1
  C  C22  1  0.15353500  0.94214200  0.34681800  1
  C  C23  1  0.84646500  0.05785800  0.65318200  1
  C  C24  1  0.77094900  0.90557200  0.39707600  1
  C  C25  1  0.22905100  0.09442800  0.60292400  1
  C  C26  1  0.27094900  0.59442800  0.60292400  1
  C  C27  1  0.72905100  0.40557200  0.39707600  1
  C  C28  1  0.89646600  0.86463700  0.25167900  1
  C  C29  1  0.10353400  0.13536300  0.74832100  1
  C  C30  1  0.39646600  0.63536300  0.74832100  1
  C  C31  1  0.60353400  0.36463700  0.25167900  1
  Ni  Ni32  1  0.64567600  0.90974500  0.47477600  1
  Ni  Ni33  1  0.35432400  0.09025500  0.52522400  1
  Ni  Ni34  1  0.14567600  0.59025500  0.52522400  1
  Ni  Ni35  1  0.85432400  0.40974500  0.47477600  1
  Cu  Cu36  1  0.36984900  0.84537500  0.13912100  1
  Cu  Cu37  1  0.63015100  0.15462500  0.86087900  1
  Cu  Cu38  1  0.86984900  0.65462500  0.86087900  1
  Cu  Cu39  1  0.13015100  0.34537500  0.13912100  1
  C  C40  1  0.87013500  0.93575900  0.44204700  1
  C  C41  1  0.12986500  0.06424100  0.55795300  1
  C  C42  1  0.37013500  0.56424100  0.55795300  1
  C  C43  1  0.62986500  0.43575900  0.44204700  1
  C  C44  1  0.94901500  0.91171500  0.35029600  1
  C  C45  1  0.05098500  0.08828500  0.64970400  1
  C  C46  1  0.44901500  0.58828500  0.64970400  1
  C  C47  1  0.55098500  0.41171500  0.35029600  1
  C  C48  1  0.78570900  0.86220400  0.27469400  1
  C  C49  1  0.21429100  0.13779600  0.72530600  1
  C  C50  1  0.28570900  0.63779600  0.72530600  1
  C  C51  1  0.71429100  0.36220400  0.27469400  1
  C  C52  1  0.70493900  0.81352300  0.19388600  1
  C  C53  1  0.29506100  0.18647700  0.80611400  1
  C  C54  1  0.20493900  0.68647700  0.80611400  1
  C  C55  1  0.79506100  0.31352300  0.19388600  1
  C  C56  1  0.94342800  0.83464100  0.13757700  1
  C  C57  1  0.05657200  0.16535900  0.86242300  1
  C  C58  1  0.44342800  0.66535900  0.86242300  1
  C  C59  1  0.55657200  0.33464100  0.13757700  1
  C  C60  1  0.44131200  0.30221900  0.15021700  1
  C  C61  1  0.55868800  0.69778100  0.84978300  1
  C  C62  1  0.94131200  0.19778100  0.84978300  1
  C  C63  1  0.05868800  0.80221900  0.15021700  1
