# generated using pymatgen
data_Cu7NiC10
_symmetry_space_group_name_H-M   'P 1'
_cell_length_a   6.99471680
_cell_length_b   7.38023500
_cell_length_c   10.28923946
_cell_angle_alpha   90.00000000
_cell_angle_beta   102.74391229
_cell_angle_gamma   90.00000000
_symmetry_Int_Tables_number   1
_chemical_formula_structural   Cu7NiC10
_chemical_formula_sum   'Cu14 Ni2 C20'
_cell_volume   518.07317841
_cell_formula_units_Z   2
loop_
 _symmetry_equiv_pos_site_id
 _symmetry_equiv_pos_as_xyz
  1  'x, y, z'
loop_
 _atom_site_type_symbol
 _atom_site_label
 _atom_site_symmetry_multiplicity
 _atom_site_fract_x
 _atom_site_fract_y
 _atom_site_fract_z
 _atom_site_occupancy
  Ni  Ni0  1  0.89655100  0.91214700  0.63593400  1
  Ni  Ni1  1  0.89655100  0.08785300  0.13593400  1
  Cu  Cu2  1  0.55700300  0.98160000  0.82893000  1
  Cu  Cu3  1  0.55700300  0.01840000  0.32893000  1
  Cu  Cu4  1  0.34855300  0.01636600  0.03091000  1
  Cu  Cu5  1  0.34855300  0.98363400  0.53091000  1
  Cu  Cu6  1  0.11575000  0.39714900  0.07357200  1
  Cu  Cu7  1  0.11575000  0.60285100  0.57357200  1
  Cu  Cu8  1  0.65994600  0.36690900  0.99189500  1
  Cu  Cu9  1  0.65994600  0.63309100  0.49189500  1
  Cu  Cu10  1  0.84949500  0.61957200  0.80974600  1
  Cu  Cu11  1  0.84949500  0.38042800  0.30974600  1
  Cu  Cu12  1  0.30289000  0.63146800  0.88229500  1
  Cu  Cu13  1  0.30289000  0.36853200  0.38229500  1
  Cu  Cu14  1  0.48807800  0.36854000  0.68776700  1
  Cu  Cu15  1  0.48807800  0.63146000  0.18776700  1
  C  C16  1  0.76722200  0.85914800  0.79455800  1
  C  C17  1  0.76722200  0.14085200  0.29455800  1
  C  C18  1  0.58603600  0.12417000  0.98824500  1
  C  C19  1  0.58603600  0.87583000  0.48824500  1
  C  C20  1  0.33576500  0.87597300  0.87651400  1
  C  C21  1  0.33576500  0.12402700  0.37651400  1
  C  C22  1  0.13261400  0.14703300  0.05026100  1
  C  C23  1  0.13261400  0.85296700  0.55026100  1
  C  C24  1  0.29364200  0.51689100  0.72275800  1
  C  C25  1  0.29364200  0.48310900  0.22275800  1
  C  C26  1  0.45062500  0.12379800  0.68132700  1
  C  C27  1  0.45062500  0.87620200  0.18132700  1
  C  C28  1  0.88051300  0.39111400  0.12951200  1
  C  C29  1  0.88051300  0.60888600  0.62951200  1
  C  C30  1  0.07753900  0.57816800  0.94010700  1
  C  C31  1  0.07753900  0.42183200  0.44010700  1
  C  C32  1  0.70494800  0.41406600  0.82428900  1
  C  C33  1  0.70494800  0.58593400  0.32428900  1
  C  C34  1  0.49513100  0.54371400  0.02068300  1
  C  C35  1  0.49513100  0.45628600  0.52068300  1
