# generated using pymatgen
data_Cu8Ni2C9
_symmetry_space_group_name_H-M   'P 1'
_cell_length_a   6.21415900
_cell_length_b   6.55312021
_cell_length_c   6.72894961
_cell_angle_alpha   95.02373194
_cell_angle_beta   90.00000000
_cell_angle_gamma   90.00000000
_symmetry_Int_Tables_number   1
_chemical_formula_structural   Cu8Ni2C9
_chemical_formula_sum   'Cu8 Ni2 C9'
_cell_volume   272.96453361
_cell_formula_units_Z   1
loop_
 _symmetry_equiv_pos_site_id
 _symmetry_equiv_pos_as_xyz
  1  'x, y, z'
loop_
 _atom_site_type_symbol
 _atom_site_label
 _atom_site_symmetry_multiplicity
 _atom_site_fract_x
 _atom_site_fract_y
 _atom_site_fract_z
 _atom_site_occupancy
  C  C0  1  0.48509000  0.25000000  0.75000000  1
  Ni  Ni1  1  0.65477100  0.25000000  0.25000000  1
  Ni  Ni2  1  0.33150600  0.75000000  0.75000000  1
  Cu  Cu3  1  0.07830200  0.09575200  0.49678500  1
  Cu  Cu4  1  0.70713400  0.67822300  0.03197300  1
  Cu  Cu5  1  0.70713400  0.82177700  0.46802700  1
  Cu  Cu6  1  0.90531700  0.45921500  0.64165600  1
  Cu  Cu7  1  0.90531700  0.04078500  0.85834400  1
  Cu  Cu8  1  0.33878900  0.54580900  0.32130900  1
  Cu  Cu9  1  0.07830200  0.40424800  0.00321500  1
  Cu  Cu10  1  0.33878900  0.95419100  0.17869100  1
  C  C11  1  0.49325000  0.54972700  0.73849600  1
  C  C12  1  0.80755300  0.45703700  0.30329400  1
  C  C13  1  0.16933800  0.75826100  0.94874800  1
  C  C14  1  0.48963400  0.30154500  0.06401900  1
  C  C15  1  0.80755300  0.04296300  0.19670600  1
  C  C16  1  0.49325000  0.95027300  0.76150400  1
  C  C17  1  0.16933800  0.74173900  0.55125200  1
  C  C18  1  0.48963400  0.19845500  0.43598100  1
