# generated using pymatgen
data_CuNiC12
_symmetry_space_group_name_H-M   'P 1'
_cell_length_a   7.65285985
_cell_length_b   7.65285985
_cell_length_c   12.96926900
_cell_angle_alpha   90.00000000
_cell_angle_beta   90.00000000
_cell_angle_gamma   119.99999872
_symmetry_Int_Tables_number   1
_chemical_formula_structural   CuNiC12
_chemical_formula_sum   'Cu4 Ni4 C48'
_cell_volume   657.79967662
_cell_formula_units_Z   4
loop_
 _symmetry_equiv_pos_site_id
 _symmetry_equiv_pos_as_xyz
  1  'x, y, z'
loop_
 _atom_site_type_symbol
 _atom_site_label
 _atom_site_symmetry_multiplicity
 _atom_site_fract_x
 _atom_site_fract_y
 _atom_site_fract_z
 _atom_site_occupancy
  C  C0  1  0.61257200  0.69103300  0.74574600  1
  C  C1  1  0.07846000  0.38742800  0.74574600  1
  C  C2  1  0.38742800  0.30896700  0.24574600  1
  C  C3  1  0.07846000  0.69103300  0.74574600  1
  C  C4  1  0.30896700  0.92154000  0.74574600  1
  C  C5  1  0.92154000  0.61257200  0.24574600  1
  C  C6  1  0.30896700  0.38742800  0.74574600  1
  C  C7  1  0.92154000  0.30896700  0.24574600  1
  C  C8  1  0.69103300  0.07846000  0.24574600  1
  C  C9  1  0.69103300  0.61257200  0.24574600  1
  C  C10  1  0.61257200  0.92154000  0.74574600  1
  C  C11  1  0.38742800  0.07846000  0.24574600  1
  C  C12  1  0.72055200  0.74522900  0.99611900  1
  C  C13  1  0.02467800  0.27944800  0.99611900  1
  C  C14  1  0.27944800  0.25477100  0.49611900  1
  C  C15  1  0.02467800  0.74522900  0.99611900  1
  C  C16  1  0.25477100  0.97532200  0.99611900  1
  C  C17  1  0.97532200  0.72055200  0.49611900  1
  C  C18  1  0.25477100  0.27944800  0.99611900  1
  C  C19  1  0.97532200  0.25477100  0.49611900  1
  C  C20  1  0.74522900  0.02467800  0.49611900  1
  C  C21  1  0.74522900  0.72055200  0.49611900  1
  C  C22  1  0.72055200  0.97532200  0.99611900  1
  C  C23  1  0.27944800  0.02467800  0.49611900  1
  Ni  Ni24  1  0.00000000  0.00000000  0.99876300  1
  Ni  Ni25  1  0.00000000  0.00000000  0.49876300  1
  Ni  Ni26  1  0.66666700  0.33333300  0.24617800  1
  Ni  Ni27  1  0.33333300  0.66666700  0.74617800  1
  Cu  Cu28  1  0.66666700  0.33333300  0.77535300  1
  Cu  Cu29  1  0.33333300  0.66666700  0.27535300  1
  Cu  Cu30  1  0.66666700  0.33333300  0.94460500  1
  Cu  Cu31  1  0.33333300  0.66666700  0.44460500  1
  C  C32  1  0.23252900  0.46505900  0.74638100  1
  C  C33  1  0.23252900  0.76747100  0.74638100  1
  C  C34  1  0.76747100  0.53494100  0.24638100  1
  C  C35  1  0.53494100  0.76747100  0.74638100  1
  C  C36  1  0.76747100  0.23252900  0.24638100  1
  C  C37  1  0.46505900  0.23252900  0.24638100  1
  C  C38  1  0.10081700  0.20163300  0.99907200  1
  C  C39  1  0.10081700  0.89918300  0.99907200  1
  C  C40  1  0.89918300  0.79836700  0.49907200  1
  C  C41  1  0.79836700  0.89918300  0.99907200  1
  C  C42  1  0.89918300  0.10081700  0.49907200  1
  C  C43  1  0.20163300  0.10081700  0.49907200  1
  C  C44  1  0.77429100  0.54858200  0.74662400  1
  C  C45  1  0.77429100  0.22570900  0.74662400  1
  C  C46  1  0.22570900  0.45141800  0.24662400  1
  C  C47  1  0.45141800  0.22570900  0.74662400  1
  C  C48  1  0.22570900  0.77429100  0.24662400  1
  C  C49  1  0.54858200  0.77429100  0.24662400  1
  C  C50  1  0.55899700  0.11799400  0.97319400  1
  C  C51  1  0.55899700  0.44100300  0.97319400  1
  C  C52  1  0.44100300  0.88200600  0.47319400  1
  C  C53  1  0.88200600  0.44100300  0.97319400  1
  C  C54  1  0.44100300  0.55899700  0.47319400  1
  C  C55  1  0.11799400  0.55899700  0.47319400  1
