# generated using pymatgen
data_Cu16Ni2C
_symmetry_space_group_name_H-M   'P 1'
_cell_length_a   12.47228000
_cell_length_b   7.85531900
_cell_length_c   15.24933359
_cell_angle_alpha   68.56765120
_cell_angle_beta   90.00000000
_cell_angle_gamma   90.00000000
_symmetry_Int_Tables_number   1
_chemical_formula_structural   Cu16Ni2C
_chemical_formula_sum   'Cu64 Ni8 C4'
_cell_volume   1390.72124200
_cell_formula_units_Z   4
loop_
 _symmetry_equiv_pos_site_id
 _symmetry_equiv_pos_as_xyz
  1  'x, y, z'
loop_
 _atom_site_type_symbol
 _atom_site_label
 _atom_site_symmetry_multiplicity
 _atom_site_fract_x
 _atom_site_fract_y
 _atom_site_fract_z
 _atom_site_occupancy
  C  C0  1  0.62144500  0.80648900  0.71429900  1
  C  C1  1  0.87855500  0.80648900  0.21429900  1
  C  C2  1  0.37855500  0.19351100  0.28570100  1
  C  C3  1  0.12144500  0.19351100  0.78570100  1
  Ni  Ni4  1  0.71618600  0.74795500  0.54754600  1
  Ni  Ni5  1  0.78381400  0.74795500  0.04754600  1
  Ni  Ni6  1  0.28381400  0.25204500  0.45245400  1
  Ni  Ni7  1  0.21618600  0.25204500  0.95245400  1
  Ni  Ni8  1  0.60429300  0.14399000  0.76062500  1
  Ni  Ni9  1  0.89570700  0.14399000  0.26062500  1
  Ni  Ni10  1  0.39570700  0.85601000  0.23937500  1
  Ni  Ni11  1  0.10429300  0.85601000  0.73937500  1
  Cu  Cu12  1  0.89101600  0.25417800  0.51768000  1
  Cu  Cu13  1  0.60898400  0.25417800  0.01768000  1
  Cu  Cu14  1  0.10898400  0.74582200  0.48232000  1
  Cu  Cu15  1  0.39101600  0.74582200  0.98232000  1
  Cu  Cu16  1  0.90624500  0.27938100  0.93786800  1
  Cu  Cu17  1  0.59375500  0.27938100  0.43786800  1
  Cu  Cu18  1  0.09375500  0.72061900  0.06213200  1
  Cu  Cu19  1  0.40624500  0.72061900  0.56213200  1
  Cu  Cu20  1  0.63561800  0.62954000  0.62538100  1
  Cu  Cu21  1  0.86438200  0.62954000  0.12538100  1
  Cu  Cu22  1  0.36438200  0.37046000  0.37461900  1
  Cu  Cu23  1  0.13561800  0.37046000  0.87461900  1
  Cu  Cu24  1  0.44722900  0.56162500  0.81482100  1
  Cu  Cu25  1  0.05277100  0.56162500  0.31482100  1
  Cu  Cu26  1  0.55277100  0.43837500  0.18517900  1
  Cu  Cu27  1  0.94722900  0.43837500  0.68517900  1
  Cu  Cu28  1  0.80989800  0.64312300  0.54489200  1
  Cu  Cu29  1  0.69010200  0.64312300  0.04489200  1
  Cu  Cu30  1  0.19010200  0.35687700  0.45510800  1
  Cu  Cu31  1  0.30989800  0.35687700  0.95510800  1
  Cu  Cu32  1  0.74161400  0.89222300  0.59380200  1
  Cu  Cu33  1  0.75838600  0.89222300  0.09380200  1
  Cu  Cu34  1  0.25838600  0.10777700  0.40619800  1
  Cu  Cu35  1  0.24161400  0.10777700  0.90619800  1
  Cu  Cu36  1  0.60746900  0.11200800  0.66403200  1
  Cu  Cu37  1  0.89253100  0.11200800  0.16403200  1
  Cu  Cu38  1  0.39253100  0.88799200  0.33596800  1
  Cu  Cu39  1  0.10746900  0.88799200  0.83596800  1
  Cu  Cu40  1  0.41797500  0.71364100  0.81490500  1
  Cu  Cu41  1  0.08202500  0.71364100  0.31490500  1
  Cu  Cu42  1  0.58202500  0.28635900  0.18509500  1
  Cu  Cu43  1  0.91797500  0.28635900  0.68509500  1
  Cu  Cu44  1  0.50636600  0.23605900  0.76727800  1
  Cu  Cu45  1  0.99363400  0.23605900  0.26727800  1
  Cu  Cu46  1  0.49363400  0.76394100  0.23272200  1
  Cu  Cu47  1  0.00636600  0.76394100  0.73272200  1
  Cu  Cu48  1  0.70389100  0.22429000  0.77440300  1
  Cu  Cu49  1  0.79610900  0.22429000  0.27440300  1
  Cu  Cu50  1  0.29610900  0.77571000  0.22559700  1
  Cu  Cu51  1  0.20389100  0.77571000  0.72559700  1
  Cu  Cu52  1  0.80603400  0.71902400  0.81654900  1
  Cu  Cu53  1  0.69396600  0.71902400  0.31654900  1
  Cu  Cu54  1  0.19396600  0.28097600  0.18345100  1
  Cu  Cu55  1  0.30603400  0.28097600  0.68345100  1
  Cu  Cu56  1  0.77030700  0.55942100  0.83966900  1
  Cu  Cu57  1  0.72969300  0.55942100  0.33966900  1
  Cu  Cu58  1  0.22969300  0.44057900  0.16033100  1
  Cu  Cu59  1  0.27030700  0.44057900  0.66033100  1
  Cu  Cu60  1  0.60096700  0.93649400  0.82625500  1
  Cu  Cu61  1  0.89903300  0.93649400  0.32625500  1
  Cu  Cu62  1  0.39903300  0.06350600  0.17374500  1
  Cu  Cu63  1  0.10096700  0.06350600  0.67374500  1
  Cu  Cu64  1  0.43113900  0.81213700  0.60955900  1
  Cu  Cu65  1  0.06886100  0.81213700  0.10955900  1
  Cu  Cu66  1  0.56886100  0.18786300  0.39044100  1
  Cu  Cu67  1  0.93113900  0.18786300  0.89044100  1
  Cu  Cu68  1  0.59552800  0.40501000  0.95625400  1
  Cu  Cu69  1  0.90447200  0.40501000  0.45625400  1
  Cu  Cu70  1  0.40447200  0.59499000  0.04374600  1
  Cu  Cu71  1  0.09552800  0.59499000  0.54374600  1
  Cu  Cu72  1  0.65885300  0.83659000  0.46009300  1
  Cu  Cu73  1  0.84114700  0.83659000  0.96009300  1
  Cu  Cu74  1  0.34114700  0.16341000  0.53990700  1
  Cu  Cu75  1  0.15885300  0.16341000  0.03990700  1
