# generated using pymatgen
data_CuNi2C13
_symmetry_space_group_name_H-M   'P 1'
_cell_length_a   8.14817921
_cell_length_b   8.30992811
_cell_length_c   12.76455800
_cell_angle_alpha   90.00000000
_cell_angle_beta   90.00000000
_cell_angle_gamma   94.99665506
_symmetry_Int_Tables_number   1
_chemical_formula_structural   CuNi2C13
_chemical_formula_sum   'Cu4 Ni8 C52'
_cell_volume   861.01370266
_cell_formula_units_Z   4
loop_
 _symmetry_equiv_pos_site_id
 _symmetry_equiv_pos_as_xyz
  1  'x, y, z'
loop_
 _atom_site_type_symbol
 _atom_site_label
 _atom_site_symmetry_multiplicity
 _atom_site_fract_x
 _atom_site_fract_y
 _atom_site_fract_z
 _atom_site_occupancy
  C  C0  1  0.68852500  0.88940400  0.83501100  1
  C  C1  1  0.18852500  0.38940400  0.66498900  1
  C  C2  1  0.31147500  0.11059600  0.16498900  1
  C  C3  1  0.81147500  0.61059600  0.33501100  1
  C  C4  1  0.83970200  0.00558100  0.56611600  1
  C  C5  1  0.33970200  0.50558100  0.93388400  1
  C  C6  1  0.16029800  0.99441900  0.43388400  1
  C  C7  1  0.66029800  0.49441900  0.06611600  1
  C  C8  1  0.53913900  0.30706600  0.48502700  1
  C  C9  1  0.03913900  0.80706600  0.01497300  1
  C  C10  1  0.46086100  0.69293400  0.51497300  1
  C  C11  1  0.96086100  0.19293400  0.98502700  1
  C  C12  1  0.83333400  0.60752800  0.62501400  1
  C  C13  1  0.33333400  0.10752800  0.87498600  1
  C  C14  1  0.16666600  0.39247200  0.37498600  1
  C  C15  1  0.66666600  0.89247200  0.12501400  1
  C  C16  1  0.87298300  0.50570900  0.84466700  1
  C  C17  1  0.37298300  0.00570900  0.65533300  1
  C  C18  1  0.12701700  0.49429100  0.15533300  1
  C  C19  1  0.62701700  0.99429100  0.34466700  1
  Ni  Ni20  1  0.75980700  0.34495100  0.70259600  1
  Ni  Ni21  1  0.25980700  0.84495100  0.79740400  1
  Ni  Ni22  1  0.24019300  0.65504900  0.29740400  1
  Ni  Ni23  1  0.74019300  0.15504900  0.20259600  1
  Ni  Ni24  1  0.62149500  0.48940200  0.74157900  1
  Ni  Ni25  1  0.12149500  0.98940200  0.75842100  1
  Ni  Ni26  1  0.37850500  0.51059800  0.25842100  1
  Ni  Ni27  1  0.87850500  0.01059800  0.24157900  1
  Cu  Cu28  1  0.75098600  0.47094200  0.72625800  1
  Cu  Cu29  1  0.25098600  0.97094200  0.77374200  1
  Cu  Cu30  1  0.24901400  0.52905800  0.27374200  1
  Cu  Cu31  1  0.74901400  0.02905800  0.22625800  1
  C  C32  1  0.85810600  0.04672400  0.81726800  1
  C  C33  1  0.35810600  0.54672400  0.68273200  1
  C  C34  1  0.14189400  0.95327600  0.18273200  1
  C  C35  1  0.64189400  0.45327600  0.31726800  1
  C  C36  1  0.52486400  0.72885700  0.86139000  1
  C  C37  1  0.02486400  0.22885700  0.63861000  1
  C  C38  1  0.47513600  0.27114300  0.13861000  1
  C  C39  1  0.97513600  0.77114300  0.36139000  1
  C  C40  1  0.80966100  0.77832200  0.66718600  1
  C  C41  1  0.30966100  0.27832200  0.83281400  1
  C  C42  1  0.19033900  0.22167800  0.33281400  1
  C  C43  1  0.69033900  0.72167800  0.16718600  1
  C  C44  1  0.01585400  0.57619300  0.61072600  1
  C  C45  1  0.51585400  0.07619300  0.88927400  1
  C  C46  1  0.98414600  0.42380700  0.38927400  1
  C  C47  1  0.48414600  0.92380700  0.11072600  1
  C  C48  1  0.73732400  0.57425900  0.52061500  1
  C  C49  1  0.23732400  0.07425900  0.97938500  1
  C  C50  1  0.26267600  0.42574100  0.47938500  1
  C  C51  1  0.76267600  0.92574100  0.02061500  1
  C  C52  1  0.04980400  0.46669000  0.81609700  1
  C  C53  1  0.54980400  0.96669000  0.68390300  1
  C  C54  1  0.95019600  0.53331000  0.18390300  1
  C  C55  1  0.45019600  0.03331000  0.31609700  1
  C  C56  1  0.79903700  0.39493700  0.93206900  1
  C  C57  1  0.29903700  0.89493700  0.56793100  1
  C  C58  1  0.20096300  0.60506300  0.06793100  1
  C  C59  1  0.70096300  0.10506300  0.43206900  1
  C  C60  1  0.86948700  0.68748100  0.87392700  1
  C  C61  1  0.36948700  0.18748000  0.62607300  1
  C  C62  1  0.13051300  0.31252000  0.12607300  1
  C  C63  1  0.63051300  0.81251900  0.37392700  1
