# generated using pymatgen
data_Cu(Ni3C4)2
_symmetry_space_group_name_H-M   'P 1'
_cell_length_a   9.67927522
_cell_length_b   9.67927522
_cell_length_c   3.38883200
_cell_angle_alpha   90.00000000
_cell_angle_beta   90.00000000
_cell_angle_gamma   119.99999464
_symmetry_Int_Tables_number   1
_chemical_formula_structural   Cu(Ni3C4)2
_chemical_formula_sum   'Cu1 Ni6 C8'
_cell_volume   274.95800726
_cell_formula_units_Z   1
loop_
 _symmetry_equiv_pos_site_id
 _symmetry_equiv_pos_as_xyz
  1  'x, y, z'
loop_
 _atom_site_type_symbol
 _atom_site_label
 _atom_site_symmetry_multiplicity
 _atom_site_fract_x
 _atom_site_fract_y
 _atom_site_fract_z
 _atom_site_occupancy
  Ni  Ni0  1  0.11458700  0.62819100  0.24957100  1
  Ni  Ni1  1  0.51360300  0.88541300  0.24957100  1
  Ni  Ni2  1  0.37180900  0.48639700  0.24957100  1
  Ni  Ni3  1  0.88541300  0.37180900  0.75042900  1
  Ni  Ni4  1  0.48639700  0.11458700  0.75042900  1
  Ni  Ni5  1  0.62819100  0.51360300  0.75042900  1
  Cu  Cu6  1  0.00000000  0.00000000  0.50000000  1
  C  C7  1  0.66666700  0.33333300  0.24995000  1
  C  C8  1  0.33333300  0.66666700  0.75005000  1
  C  C9  1  0.28767700  0.94313500  0.25073400  1
  C  C10  1  0.65545800  0.71232300  0.25073400  1
  C  C11  1  0.05686500  0.34454200  0.25073400  1
  C  C12  1  0.71232300  0.05686500  0.74926600  1
  C  C13  1  0.34454200  0.28767700  0.74926600  1
  C  C14  1  0.94313500  0.65545800  0.74926600  1
