# generated using pymatgen
data_Cu3NiC18
_symmetry_space_group_name_H-M   'P 1'
_cell_length_a   7.29696462
_cell_length_b   10.39562551
_cell_length_c   7.34891527
_cell_angle_alpha   91.08488246
_cell_angle_beta   90.15256478
_cell_angle_gamma   90.03061818
_symmetry_Int_Tables_number   1
_chemical_formula_structural   Cu3NiC18
_chemical_formula_sum   'Cu6 Ni2 C36'
_cell_volume   557.36107557
_cell_formula_units_Z   2
loop_
 _symmetry_equiv_pos_site_id
 _symmetry_equiv_pos_as_xyz
  1  'x, y, z'
loop_
 _atom_site_type_symbol
 _atom_site_label
 _atom_site_symmetry_multiplicity
 _atom_site_fract_x
 _atom_site_fract_y
 _atom_site_fract_z
 _atom_site_occupancy
  C  C0  1  0.19370176  0.01305488  0.28472657  1
  Ni  Ni1  1  0.81650265  0.27056850  0.72193222  1
  Ni  Ni2  1  0.97055524  0.97507363  0.57591730  1
  Cu  Cu3  1  0.28452730  0.72941167  0.27116588  1
  Cu  Cu4  1  0.76284441  0.24586647  0.24735807  1
  Cu  Cu5  1  0.24285194  0.75949850  0.76120368  1
  Cu  Cu6  1  0.50549377  0.47968900  0.97395454  1
  Cu  Cu7  1  0.99929990  0.49789222  0.98977061  1
  Cu  Cu8  1  0.52916248  0.00808565  0.53721644  1
  C  C9  1  0.25169399  0.26493134  0.24209787  1
  C  C10  1  0.74873226  0.74352953  0.75486254  1
  C  C11  1  0.76127626  0.75815890  0.25321625  1
  C  C12  1  0.24528728  0.24903435  0.73518603  1
  C  C13  1  0.49304033  0.99992258  0.00170263  1
  C  C14  1  0.00097190  0.50430158  0.49406632  1
  C  C15  1  0.98242394  0.00344048  0.99143313  1
  C  C16  1  0.50778954  0.49426631  0.50049477  1
  C  C17  1  0.24099973  0.92251314  0.00419977  1
  C  C18  1  0.75728765  0.40653257  0.50584885  1
  C  C19  1  0.25164319  0.33682427  0.98997167  1
  C  C20  1  0.75778500  0.83954617  0.50869691  1
  C  C21  1  0.55838097  0.62846579  0.30781884  1
  C  C22  1  0.00815689  0.12423245  0.76157704  1
  C  C23  1  0.95807168  0.62434920  0.70738921  1
  C  C24  1  0.43005182  0.11834110  0.20658347  1
  C  C25  1  0.55952577  0.61492464  0.70248644  1
  C  C26  1  0.03574047  0.14748087  0.17661122  1
  C  C27  1  0.94550253  0.62908355  0.30585926  1
  C  C28  1  0.41689346  0.10790076  0.79473814  1
  C  C29  1  0.73692818  0.05999022  0.01847065  1
  C  C30  1  0.25708883  0.57366624  0.49516036  1
  C  C31  1  0.75587007  0.67996032  0.00371412  1
  C  C32  1  0.24782560  0.18184923  0.48391696  1
  C  C33  1  0.45073680  0.36934905  0.69828251  1
  C  C34  1  0.95816260  0.89118224  0.21358381  1
  C  C35  1  0.03843678  0.38418185  0.28149056  1
  C  C36  1  0.54201461  0.87322634  0.79032722  1
  C  C37  1  0.46576181  0.37857196  0.28020826  1
  C  C38  1  0.95813805  0.86497340  0.80316036  1
  C  C39  1  0.05514377  0.38294240  0.69951227  1
  C  C40  1  0.53568058  0.87303030  0.21239121  1
  C  C41  1  0.75948950  0.34095194  0.97784358  1
  C  C42  1  0.24417361  0.90681051  0.50208230  1
  C  C43  1  0.25984009  0.62364391  0.00028517  1
