# generated using pymatgen
data_CuNiC8
_symmetry_space_group_name_H-M   'P 1'
_cell_length_a   7.75366200
_cell_length_b   5.48904900
_cell_length_c   5.58995487
_cell_angle_alpha   82.46943422
_cell_angle_beta   90.00000000
_cell_angle_gamma   90.00000000
_symmetry_Int_Tables_number   1
_chemical_formula_structural   CuNiC8
_chemical_formula_sum   'Cu2 Ni2 C16'
_cell_volume   235.85781771
_cell_formula_units_Z   2
loop_
 _symmetry_equiv_pos_site_id
 _symmetry_equiv_pos_as_xyz
  1  'x, y, z'
loop_
 _atom_site_type_symbol
 _atom_site_label
 _atom_site_symmetry_multiplicity
 _atom_site_fract_x
 _atom_site_fract_y
 _atom_site_fract_z
 _atom_site_occupancy
  C  C0  1  0.25000000  0.54431800  0.48449400  1
  C  C1  1  0.75000000  0.45568200  0.51550600  1
  C  C2  1  0.25000000  0.01517400  0.93919900  1
  C  C3  1  0.75000000  0.98482600  0.06080100  1
  Ni  Ni4  1  0.50000000  0.00000000  0.50000000  1
  Ni  Ni5  1  0.00000000  0.00000000  0.50000000  1
  Cu  Cu6  1  0.50000000  0.50000000  0.00000000  1
  Cu  Cu7  1  0.00000000  0.50000000  0.00000000  1
  C  C8  1  0.56209300  0.65399300  0.66069900  1
  C  C9  1  0.92635100  0.20102500  0.88025900  1
  C  C10  1  0.06209300  0.34600700  0.33930100  1
  C  C11  1  0.42635100  0.79897500  0.11974100  1
  C  C12  1  0.57364900  0.20102500  0.88025900  1
  C  C13  1  0.07364900  0.79897500  0.11974100  1
  C  C14  1  0.75000000  0.60220100  0.12511200  1
  C  C15  1  0.93790700  0.65399300  0.66069900  1
  C  C16  1  0.25000000  0.88886000  0.60302500  1
  C  C17  1  0.43790700  0.34600700  0.33930100  1
  C  C18  1  0.25000000  0.39779900  0.87488800  1
  C  C19  1  0.75000000  0.11114000  0.39697500  1
