# generated using pymatgen
data_CuNiC8
_symmetry_space_group_name_H-M   'P 1'
_cell_length_a   8.43146020
_cell_length_b   8.43146020
_cell_length_c   8.43146020
_cell_angle_alpha   90.00000000
_cell_angle_beta   90.00000000
_cell_angle_gamma   90.00000000
_symmetry_Int_Tables_number   1
_chemical_formula_structural   CuNiC8
_chemical_formula_sum   'Cu4 Ni4 C32'
_cell_volume   599.38846783
_cell_formula_units_Z   4
loop_
 _symmetry_equiv_pos_site_id
 _symmetry_equiv_pos_as_xyz
  1  'x, y, z'
loop_
 _atom_site_type_symbol
 _atom_site_label
 _atom_site_symmetry_multiplicity
 _atom_site_fract_x
 _atom_site_fract_y
 _atom_site_fract_z
 _atom_site_occupancy
  C  C0  1  0.50000000  0.50000000  0.50000000  1
  C  C1  1  0.00000000  0.00000000  0.00000000  1
  C  C2  1  0.00000000  0.00000000  0.50000000  1
  C  C3  1  0.00000000  0.50000000  0.00000000  1
  C  C4  1  0.50000000  0.00000000  0.00000000  1
  C  C5  1  0.50000000  0.50000000  0.00000000  1
  C  C6  1  0.50000000  0.00000000  0.50000000  1
  C  C7  1  0.00000000  0.50000000  0.50000000  1
  Ni  Ni8  1  0.25000000  0.25000000  0.25000000  1
  Ni  Ni9  1  0.25000000  0.75000000  0.75000000  1
  Ni  Ni10  1  0.75000000  0.25000000  0.75000000  1
  Ni  Ni11  1  0.75000000  0.75000000  0.25000000  1
  Cu  Cu12  1  0.75000000  0.75000000  0.75000000  1
  Cu  Cu13  1  0.75000000  0.25000000  0.25000000  1
  Cu  Cu14  1  0.25000000  0.75000000  0.25000000  1
  Cu  Cu15  1  0.25000000  0.25000000  0.75000000  1
  C  C16  1  0.21553507  0.29253091  0.50236801  1
  C  C17  1  0.21553507  0.70746909  0.49763199  1
  C  C18  1  0.78446493  0.29253091  0.49763199  1
  C  C19  1  0.78446493  0.70746909  0.50236801  1
  C  C20  1  0.29253091  0.50236801  0.21553507  1
  C  C21  1  0.70746909  0.49763199  0.21553507  1
  C  C22  1  0.29253091  0.49763199  0.78446493  1
  C  C23  1  0.70746909  0.50236801  0.78446493  1
  C  C24  1  0.50236801  0.21553507  0.29253091  1
  C  C25  1  0.49763199  0.21553507  0.70746909  1
  C  C26  1  0.49763199  0.78446493  0.29253091  1
  C  C27  1  0.50236801  0.78446493  0.70746909  1
  C  C28  1  0.28446493  0.20746909  0.99763199  1
  C  C29  1  0.28446493  0.79253091  0.00236801  1
  C  C30  1  0.71553507  0.20746909  0.00236801  1
  C  C31  1  0.71553507  0.79253091  0.99763199  1
  C  C32  1  0.20746909  0.99763199  0.28446493  1
  C  C33  1  0.79253091  0.00236801  0.28446493  1
  C  C34  1  0.20746909  0.00236801  0.71553507  1
  C  C35  1  0.79253091  0.99763199  0.71553507  1
  C  C36  1  0.99763199  0.28446493  0.20746909  1
  C  C37  1  0.00236801  0.28446493  0.79253091  1
  C  C38  1  0.00236801  0.71553507  0.20746909  1
  C  C39  1  0.99763199  0.71553507  0.79253091  1
