# generated using pymatgen
data_Cu9Ni3C5
_symmetry_space_group_name_H-M   'P 1'
_cell_length_a   7.99917944
_cell_length_b   8.07807168
_cell_length_c   8.12514652
_cell_angle_alpha   106.85495138
_cell_angle_beta   104.95891600
_cell_angle_gamma   104.95350346
_symmetry_Int_Tables_number   1
_chemical_formula_structural   Cu9Ni3C5
_chemical_formula_sum   'Cu18 Ni6 C10'
_cell_volume   452.89550032
_cell_formula_units_Z   2
loop_
 _symmetry_equiv_pos_site_id
 _symmetry_equiv_pos_as_xyz
  1  'x, y, z'
loop_
 _atom_site_type_symbol
 _atom_site_label
 _atom_site_symmetry_multiplicity
 _atom_site_fract_x
 _atom_site_fract_y
 _atom_site_fract_z
 _atom_site_occupancy
  C  C0  1  0.74211300  0.74829200  0.74322900  1
  C  C1  1  0.25788700  0.25170800  0.25677100  1
  C  C2  1  0.24365600  0.86142600  0.14104700  1
  C  C3  1  0.13112100  0.24331100  0.85898600  1
  C  C4  1  0.85899300  0.13280700  0.23475800  1
  C  C5  1  0.75634400  0.13857400  0.85895300  1
  C  C6  1  0.86887900  0.75668900  0.14101400  1
  C  C7  1  0.14100700  0.86719300  0.76524200  1
  C  C8  1  0.02179000  0.96691800  0.06371900  1
  C  C9  1  0.97821000  0.03308200  0.93628100  1
  Ni  Ni10  1  0.15917800  0.60640100  0.36880700  1
  Ni  Ni11  1  0.37038400  0.15979000  0.61156100  1
  Ni  Ni12  1  0.61030900  0.36901000  0.15847500  1
  Ni  Ni13  1  0.84082200  0.39359900  0.63119300  1
  Ni  Ni14  1  0.62961600  0.84021000  0.38843900  1
  Ni  Ni15  1  0.38969100  0.63099000  0.84152500  1
  Cu  Cu16  1  0.55255300  0.87061800  0.24751300  1
  Cu  Cu17  1  0.24792700  0.55402200  0.87311900  1
  Cu  Cu18  1  0.87208200  0.24983200  0.55362400  1
  Cu  Cu19  1  0.44744700  0.12938200  0.75248700  1
  Cu  Cu20  1  0.75207300  0.44597800  0.12688100  1
  Cu  Cu21  1  0.12791800  0.75016800  0.44637600  1
  Cu  Cu22  1  0.16839900  0.57408000  0.20965900  1
  Cu  Cu23  1  0.20985000  0.16743100  0.58309000  1
  Cu  Cu24  1  0.58343000  0.20925100  0.16473700  1
  Cu  Cu25  1  0.83160100  0.42592000  0.79034100  1
  Cu  Cu26  1  0.79015000  0.83256900  0.41691000  1
  Cu  Cu27  1  0.41657000  0.79074900  0.83526300  1
  Cu  Cu28  1  0.17944300  0.49494600  0.44786000  1
  Cu  Cu29  1  0.45110800  0.18045500  0.50033600  1
  Cu  Cu30  1  0.49598700  0.44771600  0.18120500  1
  Cu  Cu31  1  0.82055700  0.50505400  0.55214000  1
  Cu  Cu32  1  0.54889200  0.81954500  0.49966400  1
  Cu  Cu33  1  0.50401300  0.55228400  0.81879500  1
