# generated using pymatgen
data_Cu6NiC4
_symmetry_space_group_name_H-M   'P 1'
_cell_length_a   3.35878200
_cell_length_b   6.57130692
_cell_length_c   6.57130692
_cell_angle_alpha   120.00000931
_cell_angle_beta   90.00000000
_cell_angle_gamma   90.00000000
_symmetry_Int_Tables_number   1
_chemical_formula_structural   Cu6NiC4
_chemical_formula_sum   'Cu6 Ni1 C4'
_cell_volume   125.60759851
_cell_formula_units_Z   1
loop_
 _symmetry_equiv_pos_site_id
 _symmetry_equiv_pos_as_xyz
  1  'x, y, z'
loop_
 _atom_site_type_symbol
 _atom_site_label
 _atom_site_symmetry_multiplicity
 _atom_site_fract_x
 _atom_site_fract_y
 _atom_site_fract_z
 _atom_site_occupancy
  Ni  Ni0  1  0.00000000  0.00000000  0.00000000  1
  Cu  Cu1  1  0.50000000  0.19872500  0.80127500  1
  Cu  Cu2  1  0.50000000  0.60255000  0.80127500  1
  Cu  Cu3  1  0.00000000  0.93011500  0.46505800  1
  Cu  Cu4  1  0.00000000  0.53494200  0.06988500  1
  Cu  Cu5  1  0.00000000  0.53494200  0.46505800  1
  Cu  Cu6  1  0.50000000  0.19872500  0.39745000  1
  C  C7  1  0.50000000  0.81277400  0.18722600  1
  C  C8  1  0.50000000  0.81277400  0.62554900  1
  C  C9  1  0.00000000  0.33333300  0.66666700  1
  C  C10  1  0.50000000  0.37445100  0.18722600  1
