# generated using pymatgen
data_Cu2(NiC3)3
_symmetry_space_group_name_H-M   'P 1'
_cell_length_a   12.16240500
_cell_length_b   7.94058000
_cell_length_c   9.00752136
_cell_angle_alpha   69.31724483
_cell_angle_beta   90.00000000
_cell_angle_gamma   90.00000000
_symmetry_Int_Tables_number   1
_chemical_formula_structural   Cu2(NiC3)3
_chemical_formula_sum   'Cu8 Ni12 C36'
_cell_volume   813.84962020
_cell_formula_units_Z   4
loop_
 _symmetry_equiv_pos_site_id
 _symmetry_equiv_pos_as_xyz
  1  'x, y, z'
loop_
 _atom_site_type_symbol
 _atom_site_label
 _atom_site_symmetry_multiplicity
 _atom_site_fract_x
 _atom_site_fract_y
 _atom_site_fract_z
 _atom_site_occupancy
  C  C0  1  0.24908300  0.13295700  0.95145600  1
  C  C1  1  0.74908300  0.86704300  0.54854400  1
  C  C2  1  0.75091700  0.86704300  0.04854400  1
  C  C3  1  0.25091700  0.13295700  0.45145600  1
  Ni  Ni4  1  0.42463200  0.76792200  0.49815800  1
  Ni  Ni5  1  0.92463200  0.23207800  0.00184200  1
  Ni  Ni6  1  0.57536800  0.23207800  0.50184200  1
  Ni  Ni7  1  0.07536800  0.76792200  0.99815800  1
  Ni  Ni8  1  0.43524000  0.65429800  0.19642200  1
  Ni  Ni9  1  0.93524000  0.34570200  0.30357800  1
  Ni  Ni10  1  0.56476000  0.34570200  0.80357800  1
  Ni  Ni11  1  0.06476000  0.65429800  0.69642200  1
  Ni  Ni12  1  0.37483900  0.72522000  0.84538500  1
  Ni  Ni13  1  0.87483900  0.27478000  0.65461500  1
  Ni  Ni14  1  0.62516100  0.27478000  0.15461500  1
  Ni  Ni15  1  0.12516100  0.72522000  0.34538500  1
  Cu  Cu16  1  0.50072700  0.93904300  0.25905400  1
  Cu  Cu17  1  0.00072700  0.06095700  0.24094600  1
  Cu  Cu18  1  0.49927300  0.06095700  0.74094600  1
  Cu  Cu19  1  0.99927300  0.93904300  0.75905400  1
  Cu  Cu20  1  0.28702000  0.56428000  0.07626000  1
  Cu  Cu21  1  0.78702000  0.43572000  0.42374000  1
  Cu  Cu22  1  0.71298000  0.43572000  0.92374000  1
  Cu  Cu23  1  0.21298000  0.56428000  0.57626000  1
  C  C24  1  0.61813700  0.05107200  0.23860700  1
  C  C25  1  0.11813700  0.94892800  0.26139300  1
  C  C26  1  0.38186300  0.94892800  0.76139300  1
  C  C27  1  0.88186300  0.05107200  0.73860700  1
  C  C28  1  0.38738400  0.05827500  0.22571500  1
  C  C29  1  0.88738400  0.94172500  0.27428500  1
  C  C30  1  0.61261600  0.94172500  0.77428500  1
  C  C31  1  0.11261600  0.05827500  0.72571500  1
  C  C32  1  0.51048800  0.80073100  0.15514100  1
  C  C33  1  0.01048800  0.19926900  0.34485900  1
  C  C34  1  0.48951200  0.19926900  0.84485900  1
  C  C35  1  0.98951200  0.80073100  0.65514100  1
  C  C36  1  0.50299000  0.80194800  0.46300100  1
  C  C37  1  0.00299000  0.19805200  0.03699900  1
  C  C38  1  0.49701000  0.19805200  0.53699900  1
  C  C39  1  0.99701000  0.80194800  0.96300100  1
  C  C40  1  0.21209100  0.74686500  0.04389300  1
  C  C41  1  0.71209100  0.25313500  0.45610700  1
  C  C42  1  0.78790900  0.25313500  0.95610700  1
  C  C43  1  0.28790900  0.74686500  0.54389300  1
  C  C44  1  0.22452000  0.37123900  0.12497900  1
  C  C45  1  0.72452000  0.62876100  0.37502100  1
  C  C46  1  0.77548000  0.62876100  0.87502100  1
  C  C47  1  0.27548000  0.37123900  0.62497900  1
  C  C48  1  0.38046400  0.54096500  0.22621700  1
  C  C49  1  0.88046400  0.45903500  0.27378300  1
  C  C50  1  0.61953600  0.45903500  0.77378300  1
  C  C51  1  0.11953600  0.54096500  0.72621700  1
  C  C52  1  0.36528000  0.59016200  0.90608400  1
  C  C53  1  0.86528000  0.40983800  0.59391600  1
  C  C54  1  0.63472000  0.40983800  0.09391600  1
  C  C55  1  0.13472000  0.59016200  0.40608400  1
