# generated using pymatgen
data_Cu6NiC24
_symmetry_space_group_name_H-M   'P 1'
_cell_length_a   5.68214822
_cell_length_b   5.79994713
_cell_length_c   15.14519578
_cell_angle_alpha   93.83277258
_cell_angle_beta   89.76119679
_cell_angle_gamma   119.26771239
_symmetry_Int_Tables_number   1
_chemical_formula_structural   Cu6NiC24
_chemical_formula_sum   'Cu6 Ni1 C24'
_cell_volume   434.20433135
_cell_formula_units_Z   1
loop_
 _symmetry_equiv_pos_site_id
 _symmetry_equiv_pos_as_xyz
  1  'x, y, z'
loop_
 _atom_site_type_symbol
 _atom_site_label
 _atom_site_symmetry_multiplicity
 _atom_site_fract_x
 _atom_site_fract_y
 _atom_site_fract_z
 _atom_site_occupancy
  C  C0  1  0.00442300  0.99800700  0.75538000  1
  C  C1  1  0.97384500  0.93022900  0.25668900  1
  C  C2  1  0.35024300  0.69636300  0.89241600  1
  C  C3  1  0.33673900  0.65328900  0.59432900  1
  C  C4  1  0.71866700  0.43990600  0.04334600  1
  C  C5  1  0.64704400  0.27085300  0.42749700  1
  Ni  Ni6  1  0.61768400  0.21313300  0.20351800  1
  Cu  Cu7  1  0.03456500  0.06417100  0.00505700  1
  Cu  Cu8  1  0.98976700  0.95609400  0.50203700  1
  Cu  Cu9  1  0.34534100  0.68217100  0.15777600  1
  Cu  Cu10  1  0.30898000  0.59600200  0.34893600  1
  Cu  Cu11  1  0.67469100  0.34017700  0.84004500  1
  Cu  Cu12  1  0.66971900  0.32137500  0.65391200  1
  C  C13  1  0.12950100  0.22154600  0.40050000  1
  C  C14  1  0.73045800  0.97827800  0.10684400  1
  C  C15  1  0.85363800  0.69733400  0.60158800  1
  C  C16  1  0.32506800  0.15367800  0.91021700  1
  C  C17  1  0.25549900  0.97800900  0.10592000  1
  C  C18  1  0.12145300  0.71441100  0.44319300  1
  C  C19  1  0.82648500  0.14836100  0.91198900  1
  C  C20  1  0.86449400  0.19287200  0.56637500  1
  C  C21  1  0.62275300  0.72114700  0.44041900  1
  C  C22  1  0.22643700  0.45597400  0.04463800  1
  C  C23  1  0.34695700  0.18497400  0.56725600  1
  C  C24  1  0.85650200  0.70781800  0.91259700  1
  C  C25  1  0.51818000  0.47469700  0.74920100  1
  C  C26  1  0.47559000  0.47410200  0.23840900  1
  C  C27  1  0.52355500  0.03218600  0.74230700  1
  C  C28  1  0.96930200  0.47468300  0.74973200  1
  C  C29  1  0.46891100  0.92377800  0.27780300  1
  C  C30  1  0.01558900  0.47105200  0.24204000  1
