# generated using pymatgen
data_Cu12Ni3C4
_symmetry_space_group_name_H-M   'P 1'
_cell_length_a   8.84439485
_cell_length_b   8.87109867
_cell_length_c   24.60548084
_cell_angle_alpha   90.00000000
_cell_angle_beta   90.00000000
_cell_angle_gamma   90.00000000
_symmetry_Int_Tables_number   1
_chemical_formula_structural   Cu12Ni3C4
_chemical_formula_sum   'Cu96 Ni24 C32'
_cell_volume   1930.53370898
_cell_formula_units_Z   8
loop_
 _symmetry_equiv_pos_site_id
 _symmetry_equiv_pos_as_xyz
  1  'x, y, z'
loop_
 _atom_site_type_symbol
 _atom_site_label
 _atom_site_symmetry_multiplicity
 _atom_site_fract_x
 _atom_site_fract_y
 _atom_site_fract_z
 _atom_site_occupancy
  C  C0  1  0.03840746  0.62224384  0.29078388  1
  C  C1  1  0.03840746  0.87775616  0.79078388  1
  C  C2  1  0.14214918  0.93185037  0.00935791  1
  C  C3  1  0.14214918  0.56814963  0.50935791  1
  C  C4  1  0.35785082  0.06814963  0.50935791  1
  C  C5  1  0.35785082  0.43185037  0.00935791  1
  C  C6  1  0.46159254  0.12224384  0.29078388  1
  C  C7  1  0.46159254  0.37775616  0.79078388  1
  C  C8  1  0.53840746  0.62224384  0.20921612  1
  C  C9  1  0.53840746  0.87775616  0.70921612  1
  C  C10  1  0.64214918  0.56814963  0.99064209  1
  C  C11  1  0.64214918  0.93185037  0.49064209  1
  C  C12  1  0.85785082  0.43185037  0.49064209  1
  C  C13  1  0.85785082  0.06814963  0.99064209  1
  C  C14  1  0.96159254  0.12224384  0.20921612  1
  C  C15  1  0.96159254  0.37775616  0.70921612  1
  C  C16  1  0.00682375  0.40301483  0.06594568  1
  C  C17  1  0.00682375  0.09698517  0.56594568  1
  C  C18  1  0.99726386  0.79466325  0.18033062  1
  C  C19  1  0.99726386  0.70533675  0.68033062  1
  C  C20  1  0.50273614  0.29466325  0.18033062  1
  C  C21  1  0.50273614  0.20533675  0.68033062  1
  C  C22  1  0.49317625  0.59698517  0.56594568  1
  C  C23  1  0.49317625  0.90301483  0.06594568  1
  C  C24  1  0.50682375  0.40301483  0.43405432  1
  C  C25  1  0.50682375  0.09698517  0.93405432  1
  C  C26  1  0.49726386  0.70533675  0.81966938  1
  C  C27  1  0.49726386  0.79466325  0.31966938  1
  C  C28  1  0.00273614  0.29466325  0.31966938  1
  C  C29  1  0.00273614  0.20533675  0.81966938  1
  C  C30  1  0.99317625  0.90301483  0.43405432  1
  C  C31  1  0.99317625  0.59698517  0.93405432  1
  Ni  Ni32  1  0.14412671  0.94575239  0.29605774  1
  Ni  Ni33  1  0.14412671  0.55424761  0.79605774  1
  Ni  Ni34  1  0.14620428  0.25139731  0.44511156  1
  Ni  Ni35  1  0.14620428  0.24860269  0.94511156  1
  Ni  Ni36  1  0.19263063  0.09742701  0.11525577  1
  Ni  Ni37  1  0.19263063  0.40257299  0.61525577  1
  Ni  Ni38  1  0.30736937  0.59742701  0.11525577  1
  Ni  Ni39  1  0.30736937  0.90257299  0.61525577  1
  Ni  Ni40  1  0.35379572  0.75139731  0.44511156  1
  Ni  Ni41  1  0.35379572  0.74860269  0.94511156  1
  Ni  Ni42  1  0.35587329  0.44575239  0.29605774  1
  Ni  Ni43  1  0.35587329  0.05424761  0.79605774  1
  Ni  Ni44  1  0.64412671  0.55424761  0.70394226  1
  Ni  Ni45  1  0.64412671  0.94575239  0.20394226  1
  Ni  Ni46  1  0.64620428  0.25139731  0.05488844  1
  Ni  Ni47  1  0.64620428  0.24860269  0.55488844  1
  Ni  Ni48  1  0.69263063  0.09742701  0.38474423  1
  Ni  Ni49  1  0.69263063  0.40257299  0.88474423  1
  Ni  Ni50  1  0.80736937  0.59742701  0.38474423  1
  Ni  Ni51  1  0.80736937  0.90257299  0.88474423  1
  Ni  Ni52  1  0.85379572  0.75139731  0.05488844  1
  Ni  Ni53  1  0.85379572  0.74860269  0.55488844  1
  Ni  Ni54  1  0.85587329  0.44575239  0.20394226  1
  Ni  Ni55  1  0.85587329  0.05424761  0.70394226  1
  Cu  Cu56  1  0.06306012  0.38376116  0.46587779  1
  Cu  Cu57  1  0.06306012  0.11623884  0.96587779  1
  Cu  Cu58  1  0.08001856  0.09032375  0.27586376  1
  Cu  Cu59  1  0.08001856  0.40967625  0.77586376  1
  Cu  Cu60  1  0.08224367  0.10680569  0.46950813  1
  Cu  Cu61  1  0.08224367  0.39319431  0.96950813  1
  Cu  Cu62  1  0.08903015  0.90943396  0.35066578  1
  Cu  Cu63  1  0.08903015  0.59056604  0.85066578  1
  Cu  Cu64  1  0.09439208  0.19551147  0.08160838  1
  Cu  Cu65  1  0.09439208  0.30448853  0.58160838  1
  Cu  Cu66  1  0.09497216  0.82044624  0.25830613  1
  Cu  Cu67  1  0.09497216  0.67955376  0.75830613  1
  Cu  Cu68  1  0.09458732  0.01674018  0.15499549  1
  Cu  Cu69  1  0.09458732  0.48325982  0.65499549  1
  Cu  Cu70  1  0.13664701  0.24017159  0.38553524  1
  Cu  Cu71  1  0.13664701  0.25982841  0.88553524  1
  Cu  Cu72  1  0.18807534  0.45652116  0.29483957  1
  Cu  Cu73  1  0.18807534  0.04347884  0.79483957  1
  Cu  Cu74  1  0.19002650  0.68202683  0.14394497  1
  Cu  Cu75  1  0.19002650  0.81797317  0.64394497  1
  Cu  Cu76  1  0.19281302  0.75962117  0.46317843  1
  Cu  Cu77  1  0.19281302  0.74037883  0.96317843  1
  Cu  Cu78  1  0.23636738  0.01382940  0.57645471  1
  Cu  Cu79  1  0.23636738  0.48617060  0.07645471  1
  Cu  Cu80  1  0.26363262  0.51382940  0.57645471  1
  Cu  Cu81  1  0.26363262  0.98617060  0.07645471  1
  Cu  Cu82  1  0.30718698  0.24037883  0.96317843  1
  Cu  Cu83  1  0.30718698  0.25962117  0.46317843  1
  Cu  Cu84  1  0.30997350  0.18202683  0.14394497  1
  Cu  Cu85  1  0.30997350  0.31797317  0.64394497  1
  Cu  Cu86  1  0.31192466  0.95652116  0.29483957  1
  Cu  Cu87  1  0.31192466  0.54347884  0.79483957  1
  Cu  Cu88  1  0.36335299  0.74017159  0.38553524  1
  Cu  Cu89  1  0.36335299  0.75982841  0.88553524  1
  Cu  Cu90  1  0.40541268  0.98325982  0.65499549  1
  Cu  Cu91  1  0.40541268  0.51674018  0.15499549  1
  Cu  Cu92  1  0.40502784  0.32044624  0.25830613  1
  Cu  Cu93  1  0.40502784  0.17955376  0.75830613  1
  Cu  Cu94  1  0.40560792  0.69551147  0.08160838  1
  Cu  Cu95  1  0.40560792  0.80448853  0.58160838  1
  Cu  Cu96  1  0.41096985  0.09056604  0.85066578  1
  Cu  Cu97  1  0.41096985  0.40943396  0.35066578  1
  Cu  Cu98  1  0.41775633  0.89319431  0.96950813  1
  Cu  Cu99  1  0.41775633  0.60680569  0.46950813  1
  Cu  Cu100  1  0.41998144  0.59032375  0.27586376  1
  Cu  Cu101  1  0.41998144  0.90967625  0.77586376  1
  Cu  Cu102  1  0.43693988  0.61623884  0.96587779  1
  Cu  Cu103  1  0.43693988  0.88376116  0.46587779  1
  Cu  Cu104  1  0.56306012  0.38376116  0.03412221  1
  Cu  Cu105  1  0.56306012  0.11623884  0.53412221  1
  Cu  Cu106  1  0.58001856  0.09032375  0.22413624  1
  Cu  Cu107  1  0.58001856  0.40967625  0.72413624  1
  Cu  Cu108  1  0.58224367  0.10680569  0.03049187  1
  Cu  Cu109  1  0.58224367  0.39319431  0.53049187  1
  Cu  Cu110  1  0.58903015  0.59056604  0.64933422  1
  Cu  Cu111  1  0.58903015  0.90943396  0.14933422  1
  Cu  Cu112  1  0.59439208  0.19551147  0.41839162  1
  Cu  Cu113  1  0.59439208  0.30448853  0.91839162  1
  Cu  Cu114  1  0.59497216  0.82044624  0.24169387  1
  Cu  Cu115  1  0.59497216  0.67955376  0.74169387  1
  Cu  Cu116  1  0.59458732  0.01674018  0.34500451  1
  Cu  Cu117  1  0.59458732  0.48325982  0.84500451  1
  Cu  Cu118  1  0.63664701  0.24017159  0.11446476  1
  Cu  Cu119  1  0.63664701  0.25982841  0.61446476  1
  Cu  Cu120  1  0.68807534  0.45652116  0.20516043  1
  Cu  Cu121  1  0.68807534  0.04347884  0.70516043  1
  Cu  Cu122  1  0.69002650  0.68202683  0.35605503  1
  Cu  Cu123  1  0.69002650  0.81797317  0.85605503  1
  Cu  Cu124  1  0.69281302  0.75962117  0.03682157  1
  Cu  Cu125  1  0.69281302  0.74037883  0.53682157  1
  Cu  Cu126  1  0.73636738  0.48617060  0.42354529  1
  Cu  Cu127  1  0.73636738  0.01382940  0.92354529  1
  Cu  Cu128  1  0.76363262  0.98617060  0.42354529  1
  Cu  Cu129  1  0.76363262  0.51382940  0.92354529  1
  Cu  Cu130  1  0.80718698  0.25962117  0.03682157  1
  Cu  Cu131  1  0.80718698  0.24037883  0.53682157  1
  Cu  Cu132  1  0.80997350  0.18202683  0.35605503  1
  Cu  Cu133  1  0.80997350  0.31797317  0.85605503  1
  Cu  Cu134  1  0.81192466  0.54347884  0.70516043  1
  Cu  Cu135  1  0.81192466  0.95652116  0.20516043  1
  Cu  Cu136  1  0.86335299  0.74017159  0.11446476  1
  Cu  Cu137  1  0.86335299  0.75982841  0.61446476  1
  Cu  Cu138  1  0.90541268  0.51674018  0.34500451  1
  Cu  Cu139  1  0.90541268  0.98325982  0.84500451  1
  Cu  Cu140  1  0.90502784  0.32044624  0.24169387  1
  Cu  Cu141  1  0.90502784  0.17955376  0.74169387  1
  Cu  Cu142  1  0.90560792  0.69551147  0.41839162  1
  Cu  Cu143  1  0.90560792  0.80448853  0.91839162  1
  Cu  Cu144  1  0.91096985  0.40943396  0.14933422  1
  Cu  Cu145  1  0.91096985  0.09056604  0.64933422  1
  Cu  Cu146  1  0.91775633  0.60680569  0.03049187  1
  Cu  Cu147  1  0.91775633  0.89319431  0.53049187  1
  Cu  Cu148  1  0.91998144  0.59032375  0.22413624  1
  Cu  Cu149  1  0.91998144  0.90967625  0.72413624  1
  Cu  Cu150  1  0.93693988  0.61623884  0.53412221  1
  Cu  Cu151  1  0.93693988  0.88376116  0.03412221  1
