# generated using pymatgen
data_CuNiC14
_symmetry_space_group_name_H-M   'P 1'
_cell_length_a   6.54531700
_cell_length_b   7.45893200
_cell_length_c   7.58590900
_cell_angle_alpha   90.00000000
_cell_angle_beta   90.00000000
_cell_angle_gamma   90.00000000
_symmetry_Int_Tables_number   1
_chemical_formula_structural   CuNiC14
_chemical_formula_sum   'Cu2 Ni2 C28'
_cell_volume   370.35222784
_cell_formula_units_Z   2
loop_
 _symmetry_equiv_pos_site_id
 _symmetry_equiv_pos_as_xyz
  1  'x, y, z'
loop_
 _atom_site_type_symbol
 _atom_site_label
 _atom_site_symmetry_multiplicity
 _atom_site_fract_x
 _atom_site_fract_y
 _atom_site_fract_z
 _atom_site_occupancy
  C  C0  1  0.74061600  0.26020300  0.49767400  1
  C  C1  1  0.25938400  0.73979700  0.99767400  1
  C  C2  1  0.25938400  0.26020300  0.49767400  1
  C  C3  1  0.74061600  0.73979700  0.99767400  1
  C  C4  1  0.50000000  0.03006100  0.83221600  1
  C  C5  1  0.50000000  0.96993900  0.33221600  1
  C  C6  1  0.00000000  0.46985800  0.16533500  1
  C  C7  1  0.00000000  0.53014200  0.66533500  1
  Ni  Ni8  1  0.00000000  0.11930100  0.87281500  1
  Ni  Ni9  1  0.00000000  0.88069900  0.37281500  1
  Cu  Cu10  1  0.50000000  0.37206900  0.12602200  1
  Cu  Cu11  1  0.50000000  0.62793100  0.62602200  1
  C  C12  1  0.50000000  0.10622100  0.61787300  1
  C  C13  1  0.50000000  0.89377900  0.11787300  1
  C  C14  1  0.00000000  0.41801800  0.38839500  1
  C  C15  1  0.00000000  0.58198200  0.88839500  1
  C  C16  1  0.20707900  0.01911300  0.37312900  1
  C  C17  1  0.79292100  0.98088700  0.87312900  1
  C  C18  1  0.69230300  0.50599400  0.62650200  1
  C  C19  1  0.30769700  0.49400600  0.12650200  1
  C  C20  1  0.30769700  0.50599400  0.62650200  1
  C  C21  1  0.69230300  0.49400600  0.12650200  1
  C  C22  1  0.79292100  0.01911300  0.37312900  1
  C  C23  1  0.20707900  0.98088700  0.87312900  1
  C  C24  1  0.00000000  0.76550000  0.56774400  1
  C  C25  1  0.00000000  0.23450000  0.06774400  1
  C  C26  1  0.50000000  0.74341300  0.45560500  1
  C  C27  1  0.50000000  0.25658700  0.95560500  1
  C  C28  1  0.50000000  0.24963400  0.29211400  1
  C  C29  1  0.50000000  0.75036600  0.79211400  1
  C  C30  1  0.00000000  0.25263900  0.68727100  1
  C  C31  1  0.00000000  0.74736100  0.18727100  1
