# generated using pymatgen
data_Cu3NiC3
_symmetry_space_group_name_H-M   'P 1'
_cell_length_a   12.35217922
_cell_length_b   12.35217922
_cell_length_c   12.35217922
_cell_angle_alpha   109.47122063
_cell_angle_beta   109.47122063
_cell_angle_gamma   109.47122063
_symmetry_Int_Tables_number   1
_chemical_formula_structural   Cu3NiC3
_chemical_formula_sum   'Cu12 Ni4 C12'
_cell_volume   1450.80439501
_cell_formula_units_Z   4
loop_
 _symmetry_equiv_pos_site_id
 _symmetry_equiv_pos_as_xyz
  1  'x, y, z'
loop_
 _atom_site_type_symbol
 _atom_site_label
 _atom_site_symmetry_multiplicity
 _atom_site_fract_x
 _atom_site_fract_y
 _atom_site_fract_z
 _atom_site_occupancy
  C  C0  1  0.48689600  0.49344800  0.24344800  1
  C  C1  1  0.75000000  0.24344800  0.25655200  1
  C  C2  1  0.75000000  0.00655200  0.49344800  1
  C  C3  1  0.24344800  0.48689600  0.49344800  1
  C  C4  1  0.25655200  0.75000000  0.24344800  1
  C  C5  1  0.01310400  0.25655200  0.00655200  1
  C  C6  1  0.00655200  0.01310400  0.25655200  1
  C  C7  1  0.49344800  0.75000000  0.00655200  1
  C  C8  1  0.49344800  0.24344800  0.48689600  1
  C  C9  1  0.00655200  0.49344800  0.75000000  1
  C  C10  1  0.25655200  0.00655200  0.01310400  1
  C  C11  1  0.24344800  0.25655200  0.75000000  1
  Ni  Ni12  1  0.25000000  0.25000000  0.25000000  1
  Ni  Ni13  1  0.50000000  0.00000000  0.25000000  1
  Ni  Ni14  1  0.00000000  0.25000000  0.50000000  1
  Ni  Ni15  1  0.25000000  0.50000000  0.00000000  1
  Cu  Cu16  1  0.25000000  0.74924300  0.75075700  1
  Cu  Cu17  1  0.49848500  0.49924300  0.74924300  1
  Cu  Cu18  1  0.00151500  0.75075700  0.00075700  1
  Cu  Cu19  1  0.75075700  0.25000000  0.74924300  1
  Cu  Cu20  1  0.00075700  0.00151500  0.75075700  1
  Cu  Cu21  1  0.25000000  0.00075700  0.49924300  1
  Cu  Cu22  1  0.74924300  0.49848500  0.49924300  1
  Cu  Cu23  1  0.49924300  0.25000000  0.00075700  1
  Cu  Cu24  1  0.74924300  0.75075700  0.25000000  1
  Cu  Cu25  1  0.75075700  0.00075700  0.00151500  1
  Cu  Cu26  1  0.00075700  0.49924300  0.25000000  1
  Cu  Cu27  1  0.49924300  0.74924300  0.49848500  1
