# generated using pymatgen
data_Cu2Ni10C
_symmetry_space_group_name_H-M   'P 1'
_cell_length_a   4.74856700
_cell_length_b   6.31386037
_cell_length_c   6.31386037
_cell_angle_alpha   98.51842022
_cell_angle_beta   112.08879134
_cell_angle_gamma   67.91120866
_symmetry_Int_Tables_number   1
_chemical_formula_structural   Cu2Ni10C
_chemical_formula_sum   'Cu2 Ni10 C1'
_cell_volume   162.52713662
_cell_formula_units_Z   1
loop_
 _symmetry_equiv_pos_site_id
 _symmetry_equiv_pos_as_xyz
  1  'x, y, z'
loop_
 _atom_site_type_symbol
 _atom_site_label
 _atom_site_symmetry_multiplicity
 _atom_site_fract_x
 _atom_site_fract_y
 _atom_site_fract_z
 _atom_site_occupancy
  C  C0  1  0.00000000  0.00000000  0.00000000  1
  Ni  Ni1  1  0.63956300  0.36043700  0.63956300  1
  Ni  Ni2  1  0.36043700  0.63956300  0.36043700  1
  Ni  Ni3  1  0.00000000  0.35384700  0.35384700  1
  Ni  Ni4  1  0.00000000  0.64615300  0.64615300  1
  Ni  Ni5  1  0.50000000  0.79315600  0.79315600  1
  Ni  Ni6  1  0.50000000  0.20684400  0.20684400  1
  Ni  Ni7  1  0.50000000  0.00000000  0.50000000  1
  Ni  Ni8  1  0.00000000  0.00000000  0.50000000  1
  Ni  Ni9  1  0.50000000  0.50000000  0.00000000  1
  Ni  Ni10  1  0.00000000  0.50000000  0.00000000  1
  Cu  Cu11  1  0.73174600  0.76825400  0.23174600  1
  Cu  Cu12  1  0.26825400  0.23174600  0.76825400  1
