# generated using pymatgen
data_Cu4Ni
_symmetry_space_group_name_H-M   'P 1'
_cell_length_a   16.93319940
_cell_length_b   16.93319940
_cell_length_c   16.93319940
_cell_angle_alpha   90.00000000
_cell_angle_beta   90.00000000
_cell_angle_gamma   90.00000000
_symmetry_Int_Tables_number   1
_chemical_formula_structural   Cu4Ni
_chemical_formula_sum   'Cu128 Ni32'
_cell_volume   4855.31116004
_cell_formula_units_Z   32
loop_
 _symmetry_equiv_pos_site_id
 _symmetry_equiv_pos_as_xyz
  1  'x, y, z'
loop_
 _atom_site_type_symbol
 _atom_site_label
 _atom_site_symmetry_multiplicity
 _atom_site_fract_x
 _atom_site_fract_y
 _atom_site_fract_z
 _atom_site_occupancy
  Ni  Ni0  1  0.08734832  0.08734832  0.08734832  1
  Ni  Ni1  1  0.91265168  0.91265168  0.08734832  1
  Ni  Ni2  1  0.91265168  0.08734832  0.91265168  1
  Ni  Ni3  1  0.58734832  0.58734832  0.58734832  1
  Ni  Ni4  1  0.08734832  0.91265168  0.91265168  1
  Ni  Ni5  1  0.41265168  0.41265168  0.58734832  1
  Ni  Ni6  1  0.58734832  0.41265168  0.41265168  1
  Ni  Ni7  1  0.41265168  0.58734832  0.41265168  1
  Ni  Ni8  1  0.08965535  0.40268311  0.32883199  1
  Ni  Ni9  1  0.91034465  0.59731689  0.32883199  1
  Ni  Ni10  1  0.91034465  0.40268311  0.67116801  1
  Ni  Ni11  1  0.32883199  0.08965535  0.40268311  1
  Ni  Ni12  1  0.90268311  0.58965535  0.82883199  1
  Ni  Ni13  1  0.08965535  0.59731689  0.67116801  1
  Ni  Ni14  1  0.32883199  0.91034465  0.59731689  1
  Ni  Ni15  1  0.09731689  0.41034465  0.82883199  1
  Ni  Ni16  1  0.67116801  0.91034465  0.40268311  1
  Ni  Ni17  1  0.90268311  0.41034465  0.17116801  1
  Ni  Ni18  1  0.67116801  0.08965535  0.59731689  1
  Ni  Ni19  1  0.09731689  0.58965535  0.17116801  1
  Ni  Ni20  1  0.40268311  0.32883199  0.08965535  1
  Ni  Ni21  1  0.58965535  0.82883199  0.90268311  1
  Ni  Ni22  1  0.40268311  0.67116801  0.91034465  1
  Ni  Ni23  1  0.41034465  0.17116801  0.90268311  1
  Ni  Ni24  1  0.59731689  0.67116801  0.08965535  1
  Ni  Ni25  1  0.58965535  0.17116801  0.09731689  1
  Ni  Ni26  1  0.59731689  0.32883199  0.91034465  1
  Ni  Ni27  1  0.41034465  0.82883199  0.09731689  1
  Ni  Ni28  1  0.82883199  0.90268311  0.58965535  1
  Ni  Ni29  1  0.82883199  0.09731689  0.41034465  1
  Ni  Ni30  1  0.17116801  0.09731689  0.58965535  1
  Ni  Ni31  1  0.17116801  0.90268311  0.41034465  1
  Cu  Cu32  1  0.07449886  0.28155746  0.31745195  1
  Cu  Cu33  1  0.92550114  0.71844254  0.31745195  1
  Cu  Cu34  1  0.92550114  0.28155746  0.68254805  1
  Cu  Cu35  1  0.31745195  0.07449886  0.28155746  1
  Cu  Cu36  1  0.78155746  0.57449886  0.81745195  1
  Cu  Cu37  1  0.07449886  0.71844254  0.68254805  1
  Cu  Cu38  1  0.31745195  0.92550114  0.71844254  1
  Cu  Cu39  1  0.21844254  0.42550114  0.81745195  1
  Cu  Cu40  1  0.68254805  0.92550114  0.28155746  1
  Cu  Cu41  1  0.78155746  0.42550114  0.18254805  1
  Cu  Cu42  1  0.68254805  0.07449886  0.71844254  1
  Cu  Cu43  1  0.21844254  0.57449886  0.18254805  1
  Cu  Cu44  1  0.28155746  0.31745195  0.07449886  1
  Cu  Cu45  1  0.57449886  0.81745195  0.78155746  1
  Cu  Cu46  1  0.28155746  0.68254805  0.92550114  1
  Cu  Cu47  1  0.42550114  0.18254805  0.78155746  1
  Cu  Cu48  1  0.71844254  0.68254805  0.07449886  1
  Cu  Cu49  1  0.57449886  0.18254805  0.21844254  1
  Cu  Cu50  1  0.71844254  0.31745195  0.92550114  1
  Cu  Cu51  1  0.42550114  0.81745195  0.21844254  1
  Cu  Cu52  1  0.81745195  0.78155746  0.57449886  1
  Cu  Cu53  1  0.81745195  0.21844254  0.42550114  1
  Cu  Cu54  1  0.18254805  0.21844254  0.57449886  1
  Cu  Cu55  1  0.18254805  0.78155746  0.42550114  1
  Cu  Cu56  1  0.04741741  0.09546871  0.59224645  1
  Cu  Cu57  1  0.95258259  0.90453129  0.59224645  1
  Cu  Cu58  1  0.95258259  0.09546871  0.40775355  1
  Cu  Cu59  1  0.59224645  0.04741741  0.09546871  1
  Cu  Cu60  1  0.59546871  0.54741741  0.09224645  1
  Cu  Cu61  1  0.04741741  0.90453129  0.40775355  1
  Cu  Cu62  1  0.59224645  0.95258259  0.90453129  1
  Cu  Cu63  1  0.40453129  0.45258259  0.09224645  1
  Cu  Cu64  1  0.40775355  0.95258259  0.09546871  1
  Cu  Cu65  1  0.59546871  0.45258259  0.90775355  1
  Cu  Cu66  1  0.40775355  0.04741741  0.90453129  1
  Cu  Cu67  1  0.40453129  0.54741741  0.90775355  1
  Cu  Cu68  1  0.09546871  0.59224645  0.04741741  1
  Cu  Cu69  1  0.54741741  0.09224645  0.59546871  1
  Cu  Cu70  1  0.09546871  0.40775355  0.95258259  1
  Cu  Cu71  1  0.45258259  0.90775355  0.59546871  1
  Cu  Cu72  1  0.90453129  0.40775355  0.04741741  1
  Cu  Cu73  1  0.54741741  0.90775355  0.40453129  1
  Cu  Cu74  1  0.90453129  0.59224645  0.95258259  1
  Cu  Cu75  1  0.45258259  0.09224645  0.40453129  1
  Cu  Cu76  1  0.09224645  0.59546871  0.54741741  1
  Cu  Cu77  1  0.09224645  0.40453129  0.45258259  1
  Cu  Cu78  1  0.90775355  0.40453129  0.54741741  1
  Cu  Cu79  1  0.90775355  0.59546871  0.45258259  1
  Cu  Cu80  1  0.07831036  0.08110477  0.21009495  1
  Cu  Cu81  1  0.92168964  0.91889523  0.21009495  1
  Cu  Cu82  1  0.92168964  0.08110477  0.78990505  1
  Cu  Cu83  1  0.21009495  0.07831036  0.08110477  1
  Cu  Cu84  1  0.58110477  0.57831036  0.71009495  1
  Cu  Cu85  1  0.07831036  0.91889523  0.78990505  1
  Cu  Cu86  1  0.21009495  0.92168964  0.91889523  1
  Cu  Cu87  1  0.41889523  0.42168964  0.71009495  1
  Cu  Cu88  1  0.78990505  0.92168964  0.08110477  1
  Cu  Cu89  1  0.58110477  0.42168964  0.28990505  1
  Cu  Cu90  1  0.78990505  0.07831036  0.91889523  1
  Cu  Cu91  1  0.41889523  0.57831036  0.28990505  1
  Cu  Cu92  1  0.08110477  0.21009495  0.07831036  1
  Cu  Cu93  1  0.57831036  0.71009495  0.58110477  1
  Cu  Cu94  1  0.08110477  0.78990505  0.92168964  1
  Cu  Cu95  1  0.42168964  0.28990505  0.58110477  1
  Cu  Cu96  1  0.91889523  0.78990505  0.07831036  1
  Cu  Cu97  1  0.57831036  0.28990505  0.41889523  1
  Cu  Cu98  1  0.91889523  0.21009495  0.92168964  1
  Cu  Cu99  1  0.42168964  0.71009495  0.41889523  1
  Cu  Cu100  1  0.71009495  0.58110477  0.57831036  1
  Cu  Cu101  1  0.71009495  0.41889523  0.42168964  1
  Cu  Cu102  1  0.28990505  0.41889523  0.57831036  1
  Cu  Cu103  1  0.28990505  0.58110477  0.42168964  1
  Cu  Cu104  1  0.42422282  0.42422282  0.42422282  1
  Cu  Cu105  1  0.57577718  0.57577718  0.42422282  1
  Cu  Cu106  1  0.57577718  0.42422282  0.57577718  1
  Cu  Cu107  1  0.92422282  0.92422282  0.92422282  1
  Cu  Cu108  1  0.42422282  0.57577718  0.57577718  1
  Cu  Cu109  1  0.07577718  0.07577718  0.92422282  1
  Cu  Cu110  1  0.92422282  0.07577718  0.07577718  1
  Cu  Cu111  1  0.07577718  0.92422282  0.07577718  1
  Cu  Cu112  1  0.21065773  0.40587049  0.31182538  1
  Cu  Cu113  1  0.78934227  0.59412951  0.31182538  1
  Cu  Cu114  1  0.78934227  0.40587049  0.68817462  1
  Cu  Cu115  1  0.31182538  0.21065773  0.40587049  1
  Cu  Cu116  1  0.90587049  0.71065773  0.81182538  1
  Cu  Cu117  1  0.21065773  0.59412951  0.68817462  1
  Cu  Cu118  1  0.31182538  0.78934227  0.59412951  1
  Cu  Cu119  1  0.09412951  0.28934227  0.81182538  1
  Cu  Cu120  1  0.68817462  0.78934227  0.40587049  1
  Cu  Cu121  1  0.90587049  0.28934227  0.18817462  1
  Cu  Cu122  1  0.68817462  0.21065773  0.59412951  1
  Cu  Cu123  1  0.09412951  0.71065773  0.18817462  1
  Cu  Cu124  1  0.40587049  0.31182538  0.21065773  1
  Cu  Cu125  1  0.71065773  0.81182538  0.90587049  1
  Cu  Cu126  1  0.40587049  0.68817462  0.78934227  1
  Cu  Cu127  1  0.28934227  0.18817462  0.90587049  1
  Cu  Cu128  1  0.59412951  0.68817462  0.21065773  1
  Cu  Cu129  1  0.71065773  0.18817462  0.09412951  1
  Cu  Cu130  1  0.59412951  0.31182538  0.78934227  1
  Cu  Cu131  1  0.28934227  0.81182538  0.09412951  1
  Cu  Cu132  1  0.81182538  0.90587049  0.71065773  1
  Cu  Cu133  1  0.81182538  0.09412951  0.28934227  1
  Cu  Cu134  1  0.18817462  0.09412951  0.71065773  1
  Cu  Cu135  1  0.18817462  0.90587049  0.28934227  1
  Cu  Cu136  1  0.06938032  0.42066414  0.17180834  1
  Cu  Cu137  1  0.93061968  0.57933586  0.17180834  1
  Cu  Cu138  1  0.93061968  0.42066414  0.82819166  1
  Cu  Cu139  1  0.17180834  0.06938032  0.42066414  1
  Cu  Cu140  1  0.92066414  0.56938032  0.67180834  1
  Cu  Cu141  1  0.06938032  0.57933586  0.82819166  1
  Cu  Cu142  1  0.17180834  0.93061968  0.57933586  1
  Cu  Cu143  1  0.07933586  0.43061968  0.67180834  1
  Cu  Cu144  1  0.82819166  0.93061968  0.42066414  1
  Cu  Cu145  1  0.92066414  0.43061968  0.32819166  1
  Cu  Cu146  1  0.82819166  0.06938032  0.57933586  1
  Cu  Cu147  1  0.07933586  0.56938032  0.32819166  1
  Cu  Cu148  1  0.42066414  0.17180834  0.06938032  1
  Cu  Cu149  1  0.56938032  0.67180834  0.92066414  1
  Cu  Cu150  1  0.42066414  0.82819166  0.93061968  1
  Cu  Cu151  1  0.43061968  0.32819166  0.92066414  1
  Cu  Cu152  1  0.57933586  0.82819166  0.06938032  1
  Cu  Cu153  1  0.56938032  0.32819166  0.07933586  1
  Cu  Cu154  1  0.57933586  0.17180834  0.93061968  1
  Cu  Cu155  1  0.43061968  0.67180834  0.07933586  1
  Cu  Cu156  1  0.67180834  0.92066414  0.56938032  1
  Cu  Cu157  1  0.67180834  0.07933586  0.43061968  1
  Cu  Cu158  1  0.32819166  0.07933586  0.56938032  1
  Cu  Cu159  1  0.32819166  0.92066414  0.43061968  1
