# generated using pymatgen
data_Cu4NiC7
_symmetry_space_group_name_H-M   'P 1'
_cell_length_a   8.39277639
_cell_length_b   8.39277639
_cell_length_c   8.39277639
_cell_angle_alpha   98.24306150
_cell_angle_beta   98.24306150
_cell_angle_gamma   135.50032714
_symmetry_Int_Tables_number   1
_chemical_formula_structural   Cu4NiC7
_chemical_formula_sum   'Cu12 Ni3 C21'
_cell_volume   383.50600659
_cell_formula_units_Z   3
loop_
 _symmetry_equiv_pos_site_id
 _symmetry_equiv_pos_as_xyz
  1  'x, y, z'
loop_
 _atom_site_type_symbol
 _atom_site_label
 _atom_site_symmetry_multiplicity
 _atom_site_fract_x
 _atom_site_fract_y
 _atom_site_fract_z
 _atom_site_occupancy
  C  C0  1  0.00000000  0.00000000  0.00000000  1
  Ni  Ni1  1  0.75000000  0.25000000  0.50000000  1
  Ni  Ni2  1  0.25000000  0.75000000  0.50000000  1
  Ni  Ni3  1  0.50000000  0.50000000  0.00000000  1
  Cu  Cu4  1  0.71373000  0.92752800  0.64125800  1
  Cu  Cu5  1  0.92752800  0.28627000  0.21379700  1
  Cu  Cu6  1  0.28627000  0.07247200  0.35874200  1
  Cu  Cu7  1  0.07247200  0.71373000  0.78620300  1
  Cu  Cu8  1  0.36429900  0.49066800  0.34149000  1
  Cu  Cu9  1  0.02280800  0.36429900  0.87363100  1
  Cu  Cu10  1  0.63570100  0.50933200  0.65851000  1
  Cu  Cu11  1  0.14917800  0.02280800  0.65851000  1
  Cu  Cu12  1  0.85082200  0.97719200  0.34149000  1
  Cu  Cu13  1  0.50933200  0.85082200  0.87363100  1
  Cu  Cu14  1  0.97719200  0.63570100  0.12636900  1
  Cu  Cu15  1  0.49066800  0.14917800  0.12636900  1
  C  C16  1  0.42515400  0.78020600  0.20535900  1
  C  C17  1  0.78020600  0.57484600  0.35505200  1
  C  C18  1  0.21979400  0.42515400  0.64494800  1
  C  C19  1  0.57484600  0.21979400  0.79464100  1
  C  C20  1  0.36696200  0.08667900  0.88691000  1
  C  C21  1  0.08667900  0.19976800  0.71971700  1
  C  C22  1  0.19976800  0.48005200  0.11309000  1
  C  C23  1  0.48005200  0.36696200  0.28028300  1
  C  C24  1  0.91332100  0.80023200  0.28028300  1
  C  C25  1  0.63303800  0.91332100  0.11309000  1
  C  C26  1  0.51994800  0.63303800  0.71971700  1
  C  C27  1  0.80023200  0.51994800  0.88691000  1
  C  C28  1  0.83936800  0.43515500  0.27452400  1
  C  C29  1  0.56484500  0.83936800  0.40421300  1
  C  C30  1  0.43515500  0.16063200  0.59578700  1
  C  C31  1  0.16063200  0.56484500  0.72547600  1
  C  C32  1  0.32519400  0.89212100  0.21731500  1
  C  C33  1  0.10787900  0.32519400  0.43307300  1
  C  C34  1  0.89212100  0.67480600  0.56692700  1
  C  C35  1  0.67480600  0.10787900  0.78268500  1
