# generated using pymatgen
data_CuNiC8
_symmetry_space_group_name_H-M   'P 1'
_cell_length_a   11.01009289
_cell_length_b   10.53037467
_cell_length_c   10.01912260
_cell_angle_alpha   90.00000000
_cell_angle_beta   90.00000000
_cell_angle_gamma   90.00000000
_symmetry_Int_Tables_number   1
_chemical_formula_structural   CuNiC8
_chemical_formula_sum   'Cu4 Ni4 C32'
_cell_volume   1161.62111479
_cell_formula_units_Z   4
loop_
 _symmetry_equiv_pos_site_id
 _symmetry_equiv_pos_as_xyz
  1  'x, y, z'
loop_
 _atom_site_type_symbol
 _atom_site_label
 _atom_site_symmetry_multiplicity
 _atom_site_fract_x
 _atom_site_fract_y
 _atom_site_fract_z
 _atom_site_occupancy
  Ni  Ni0  1  0.00000000  0.00000000  0.00000000  1
  Ni  Ni1  1  0.50000000  0.50000000  0.50000000  1
  Ni  Ni2  1  0.50000000  0.50000000  -0.00000000  1
  Ni  Ni3  1  -0.00000000  0.00000000  0.50000000  1
  C  C4  1  0.75000000  0.75000000  0.75000000  1
  C  C5  1  0.25000000  0.25000000  0.75000000  1
  C  C6  1  0.25000000  0.75000000  0.25000000  1
  C  C7  1  0.75000000  0.25000000  0.25000000  1
  Cu  Cu8  1  -0.00000000  0.50000000  0.50000000  1
  Cu  Cu9  1  0.50000000  0.00000000  0.50000000  1
  Cu  Cu10  1  0.50000000  0.00000000  0.00000000  1
  Cu  Cu11  1  -0.00000000  0.50000000  -0.00000000  1
  C  C12  1  0.25000000  0.25000000  0.25000000  1
  C  C13  1  0.75000000  0.75000000  0.25000000  1
  C  C14  1  0.75000000  0.25000000  0.75000000  1
  C  C15  1  0.25000000  0.75000000  0.75000000  1
  C  C16  1  -0.00299833  0.21128297  0.28562379  1
  C  C17  1  0.00299833  0.78871703  0.28562379  1
  C  C18  1  0.00299833  0.21128297  0.71437621  1
  C  C19  1  -0.00299833  0.78871703  0.71437621  1
  C  C20  1  0.29158522  0.02164601  0.20560610  1
  C  C21  1  0.29158522  0.97835399  0.79439390  1
  C  C22  1  0.70841478  0.97835399  0.20560610  1
  C  C23  1  0.70841478  0.02164601  0.79439390  1
  C  C24  1  0.20661478  0.29174906  0.02945168  1
  C  C25  1  0.79338522  0.29174906  0.97054832  1
  C  C26  1  0.20661478  0.70825094  0.97054832  1
  C  C27  1  0.79338522  0.70825094  0.02945168  1
  C  C28  1  0.50299833  0.28871703  0.21437621  1
  C  C29  1  0.49700167  0.71128297  0.21437621  1
  C  C30  1  0.49700167  0.28871703  0.78562379  1
  C  C31  1  0.50299833  0.71128297  0.78562379  1
  C  C32  1  0.20841478  0.47835399  0.29439390  1
  C  C33  1  0.20841478  0.52164601  0.70560610  1
  C  C34  1  0.79158522  0.52164601  0.29439390  1
  C  C35  1  0.79158522  0.47835399  0.70560610  1
  C  C36  1  0.29338522  0.20825094  0.47054832  1
  C  C37  1  0.70661478  0.20825094  0.52945168  1
  C  C38  1  0.29338522  0.79174906  0.52945168  1
  C  C39  1  0.70661478  0.79174906  0.47054832  1
