# generated using pymatgen
data_Cu3Ni3C20
_symmetry_space_group_name_H-M   'P 1'
_cell_length_a   5.02724300
_cell_length_b   8.14016800
_cell_length_c   16.51858644
_cell_angle_alpha   74.86875367
_cell_angle_beta   90.00000000
_cell_angle_gamma   90.00000000
_symmetry_Int_Tables_number   1
_chemical_formula_structural   Cu3Ni3C20
_chemical_formula_sum   'Cu6 Ni6 C40'
_cell_volume   652.54748321
_cell_formula_units_Z   2
loop_
 _symmetry_equiv_pos_site_id
 _symmetry_equiv_pos_as_xyz
  1  'x, y, z'
loop_
 _atom_site_type_symbol
 _atom_site_label
 _atom_site_symmetry_multiplicity
 _atom_site_fract_x
 _atom_site_fract_y
 _atom_site_fract_z
 _atom_site_occupancy
  Ni  Ni0  1  0.59028600  0.36100500  0.20806600  1
  Ni  Ni1  1  0.09028600  0.63899500  0.29193400  1
  Ni  Ni2  1  0.40971400  0.63899500  0.79193400  1
  Ni  Ni3  1  0.90971400  0.36100500  0.70806600  1
  Ni  Ni4  1  0.50000000  0.00000000  0.50000000  1
  Ni  Ni5  1  0.00000000  0.00000000  0.00000000  1
  Cu  Cu6  1  0.43137500  0.22796200  0.62218300  1
  Cu  Cu7  1  0.56862500  0.77203800  0.37781700  1
  Cu  Cu8  1  0.93137500  0.77203800  0.87781700  1
  Cu  Cu9  1  0.06862500  0.22796200  0.12218300  1
  Cu  Cu10  1  0.00000000  0.50000000  0.50000000  1
  Cu  Cu11  1  0.50000000  0.50000000  0.00000000  1
  C  C12  1  0.99781000  0.05885400  0.34152800  1
  C  C13  1  0.51292300  0.39492100  0.39522900  1
  C  C14  1  0.01292300  0.60507900  0.10477100  1
  C  C15  1  0.98707700  0.39492100  0.89522900  1
  C  C16  1  0.00219000  0.94114600  0.65847200  1
  C  C17  1  0.48707700  0.60507900  0.60477100  1
  C  C18  1  0.50219000  0.05885400  0.84152800  1
  C  C19  1  0.49781000  0.94114600  0.15847200  1
  C  C20  1  0.43053800  0.78977300  0.25292500  1
  C  C21  1  0.80778300  0.78793500  0.97543300  1
  C  C22  1  0.37242100  0.42812300  0.29557900  1
  C  C23  1  0.38662600  0.12285600  0.18615100  1
  C  C24  1  0.62757900  0.57187700  0.70442100  1
  C  C25  1  0.06946200  0.78977300  0.75292500  1
  C  C26  1  0.87242100  0.57187700  0.20442100  1
  C  C27  1  0.70987000  0.55554700  0.88170200  1
  C  C28  1  0.68261200  0.12913200  0.91378000  1
  C  C29  1  0.56946200  0.21022700  0.74707500  1
  C  C30  1  0.11337400  0.12285600  0.68615100  1
  C  C31  1  0.29013000  0.44445300  0.11829800  1
  C  C32  1  0.29286800  0.59187300  0.41456800  1
  C  C33  1  0.31738800  0.87086800  0.08622000  1
  C  C34  1  0.68352600  0.00474100  0.61955100  1
  C  C35  1  0.18352600  0.99525900  0.88044900  1
  C  C36  1  0.79286800  0.40812700  0.08543200  1
  C  C37  1  0.12757900  0.42812300  0.79557900  1
  C  C38  1  0.18261200  0.87086800  0.58622000  1
  C  C39  1  0.20987000  0.44445300  0.61829800  1
  C  C40  1  0.81647400  0.00474100  0.11955100  1
  C  C41  1  0.31647400  0.99525900  0.38044900  1
  C  C42  1  0.19221700  0.21206500  0.02456700  1
  C  C43  1  0.30778300  0.21206500  0.52456700  1
  C  C44  1  0.70713200  0.40812700  0.58543200  1
  C  C45  1  0.93053800  0.21022700  0.24707500  1
  C  C46  1  0.61337400  0.87714400  0.81384900  1
  C  C47  1  0.81738800  0.12913200  0.41378000  1
  C  C48  1  0.69221700  0.78793500  0.47543300  1
  C  C49  1  0.79013000  0.55554700  0.38170200  1
  C  C50  1  0.20713200  0.59187300  0.91456800  1
  C  C51  1  0.88662600  0.87714400  0.31384900  1
