# generated using pymatgen
data_CuNiC16
_symmetry_space_group_name_H-M   'P 1'
_cell_length_a   5.84361300
_cell_length_b   8.12001700
_cell_length_c   13.08254631
_cell_angle_alpha   72.73543432
_cell_angle_beta   90.00000000
_cell_angle_gamma   90.00000000
_symmetry_Int_Tables_number   1
_chemical_formula_structural   CuNiC16
_chemical_formula_sum   'Cu2 Ni2 C32'
_cell_volume   592.80083933
_cell_formula_units_Z   2
loop_
 _symmetry_equiv_pos_site_id
 _symmetry_equiv_pos_as_xyz
  1  'x, y, z'
loop_
 _atom_site_type_symbol
 _atom_site_label
 _atom_site_symmetry_multiplicity
 _atom_site_fract_x
 _atom_site_fract_y
 _atom_site_fract_z
 _atom_site_occupancy
  Ni  Ni0  1  0.86425400  0.03183100  0.96921200  1
  Ni  Ni1  1  0.13574600  0.03183100  0.46921200  1
  Cu  Cu2  1  0.75109200  0.49956100  0.00089200  1
  Cu  Cu3  1  0.24890800  0.49956100  0.50089200  1
  C  C4  1  0.43169900  0.31332000  0.84152700  1
  C  C5  1  0.93301700  0.68999800  0.65784300  1
  C  C6  1  0.06698300  0.68999800  0.15784300  1
  C  C7  1  0.56830100  0.31332000  0.34152700  1
  C  C8  1  0.11630700  0.19753400  0.17131900  1
  C  C9  1  0.60652900  0.80104800  0.32902300  1
  C  C10  1  0.39347100  0.80104800  0.82902300  1
  C  C11  1  0.88369300  0.19753400  0.67131900  1
  C  C12  1  0.70797700  0.42597300  0.86691300  1
  C  C13  1  0.20532400  0.56974600  0.63577300  1
  C  C14  1  0.79467600  0.56974600  0.13577300  1
  C  C15  1  0.29202300  0.42597300  0.36691300  1
  C  C16  1  0.59271300  0.12160600  0.82437900  1
  C  C17  1  0.08797000  0.88074700  0.67395000  1
  C  C18  1  0.91203000  0.88074700  0.17395000  1
  C  C19  1  0.40728700  0.12160600  0.32437900  1
  C  C20  1  0.93122200  0.16951300  0.28864200  1
  C  C21  1  0.42278100  0.82682200  0.21321400  1
  C  C22  1  0.57721900  0.82682200  0.71321400  1
  C  C23  1  0.06877800  0.16951300  0.78864200  1
  C  C24  1  0.24814200  0.40989400  0.14750600  1
  C  C25  1  0.74493100  0.58997500  0.35172900  1
  C  C26  1  0.25506900  0.58997500  0.85172900  1
  C  C27  1  0.75185800  0.40989400  0.64750600  1
  C  C28  1  0.33950900  0.21356200  0.97667800  1
  C  C29  1  0.85678800  0.79283500  0.51927000  1
  C  C30  1  0.14321200  0.79283500  0.01927000  1
  C  C31  1  0.66049100  0.21356200  0.47667800  1
  C  C32  1  0.87315300  0.25647800  0.06716000  1
  C  C33  1  0.36954400  0.74207800  0.43482800  1
  C  C34  1  0.63045600  0.74207800  0.93482800  1
  C  C35  1  0.12684700  0.25647800  0.56716000  1
