# generated using pymatgen
data_Cu2Ni5C2
_symmetry_space_group_name_H-M   'P 1'
_cell_length_a   9.46200229
_cell_length_b   14.99301500
_cell_length_c   5.99977127
_cell_angle_alpha   90.00000000
_cell_angle_beta   92.72483908
_cell_angle_gamma   90.00000000
_symmetry_Int_Tables_number   1
_chemical_formula_structural   Cu2Ni5C2
_chemical_formula_sum   'Cu8 Ni20 C8'
_cell_volume   850.18885903
_cell_formula_units_Z   4
loop_
 _symmetry_equiv_pos_site_id
 _symmetry_equiv_pos_as_xyz
  1  'x, y, z'
loop_
 _atom_site_type_symbol
 _atom_site_label
 _atom_site_symmetry_multiplicity
 _atom_site_fract_x
 _atom_site_fract_y
 _atom_site_fract_z
 _atom_site_occupancy
  C  C0  1  0.20033500  0.61262300  0.42202100  1
  C  C1  1  0.70033500  0.88737700  0.92202100  1
  C  C2  1  0.79966500  0.38737700  0.57797900  1
  C  C3  1  0.29966500  0.11262300  0.07797900  1
  C  C4  1  0.30125500  0.79091300  0.33337400  1
  C  C5  1  0.80125500  0.70908700  0.83337400  1
  C  C6  1  0.69874500  0.20908700  0.66662600  1
  C  C7  1  0.19874500  0.29091300  0.16662600  1
  Ni  Ni8  1  0.38102100  0.67522800  0.37280800  1
  Ni  Ni9  1  0.88102100  0.82477200  0.87280800  1
  Ni  Ni10  1  0.61897900  0.32477200  0.62719200  1
  Ni  Ni11  1  0.11897900  0.17522800  0.12719200  1
  Ni  Ni12  1  0.41877800  0.73025200  0.54272300  1
  Ni  Ni13  1  0.91877800  0.76974800  0.04272300  1
  Ni  Ni14  1  0.58122200  0.26974800  0.45727700  1
  Ni  Ni15  1  0.08122200  0.23025200  0.95727700  1
  Ni  Ni16  1  0.51111500  0.74156200  0.72112800  1
  Ni  Ni17  1  0.01111500  0.75843800  0.22112800  1
  Ni  Ni18  1  0.48888500  0.25843800  0.27887200  1
  Ni  Ni19  1  0.98888500  0.24156200  0.77887200  1
  Ni  Ni20  1  0.62131600  0.74996800  0.84558200  1
  Ni  Ni21  1  0.12131600  0.75003200  0.34558200  1
  Ni  Ni22  1  0.37868400  0.25003200  0.15441800  1
  Ni  Ni23  1  0.87868400  0.24996800  0.65441800  1
  Ni  Ni24  1  0.98996300  0.52200700  0.61492100  1
  Ni  Ni25  1  0.48996300  0.97799300  0.11492100  1
  Ni  Ni26  1  0.01003700  0.47799300  0.38507900  1
  Ni  Ni27  1  0.51003700  0.02200700  0.88507900  1
  Cu  Cu28  1  0.07116300  0.58660100  0.66839500  1
  Cu  Cu29  1  0.57116300  0.91339900  0.16839500  1
  Cu  Cu30  1  0.92883700  0.41339900  0.33160500  1
  Cu  Cu31  1  0.42883700  0.08660100  0.83160500  1
  Cu  Cu32  1  0.10664700  0.50953600  0.26857000  1
  Cu  Cu33  1  0.60664700  0.99046400  0.76857000  1
  Cu  Cu34  1  0.89335300  0.49046400  0.73143000  1
  Cu  Cu35  1  0.39335300  0.00953600  0.23143000  1
