# generated using pymatgen
data_Cu2Ni2C19
_symmetry_space_group_name_H-M   'P 1'
_cell_length_a   7.03806517
_cell_length_b   6.86425391
_cell_length_c   17.10610400
_cell_angle_alpha   90.00000000
_cell_angle_beta   90.00000000
_cell_angle_gamma   107.66108102
_symmetry_Int_Tables_number   1
_chemical_formula_structural   Cu2Ni2C19
_chemical_formula_sum   'Cu4 Ni4 C38'
_cell_volume   787.46339409
_cell_formula_units_Z   2
loop_
 _symmetry_equiv_pos_site_id
 _symmetry_equiv_pos_as_xyz
  1  'x, y, z'
loop_
 _atom_site_type_symbol
 _atom_site_label
 _atom_site_symmetry_multiplicity
 _atom_site_fract_x
 _atom_site_fract_y
 _atom_site_fract_z
 _atom_site_occupancy
  C  C0  1  0.19821300  0.89581200  0.85820800  1
  C  C1  1  0.80178700  0.10418800  0.14179200  1
  C  C2  1  0.80178700  0.10418800  0.35820800  1
  C  C3  1  0.19821300  0.89581200  0.64179200  1
  C  C4  1  0.69977100  0.89576600  0.75000000  1
  C  C5  1  0.30022900  0.10423400  0.25000000  1
  Ni  Ni6  1  0.69402300  0.90110200  0.94299300  1
  Ni  Ni7  1  0.30597700  0.09889800  0.05700700  1
  Ni  Ni8  1  0.30597700  0.09889800  0.44299300  1
  Ni  Ni9  1  0.69402300  0.90110200  0.55700700  1
  Cu  Cu10  1  0.60196700  0.38541600  0.89983000  1
  Cu  Cu11  1  0.39803300  0.61458400  0.10017000  1
  Cu  Cu12  1  0.39803300  0.61458400  0.39983000  1
  Cu  Cu13  1  0.60196700  0.38541600  0.60017000  1
  C  C14  1  0.71892400  0.81719200  0.35443300  1
  C  C15  1  0.28107600  0.18280800  0.64556700  1
  C  C16  1  0.28107600  0.18280800  0.85443300  1
  C  C17  1  0.71892400  0.81719200  0.14556700  1
  C  C18  1  0.57307900  0.69265900  0.52156400  1
  C  C19  1  0.42692100  0.30734100  0.47843600  1
  C  C20  1  0.42692100  0.30734100  0.02156400  1
  C  C21  1  0.57307900  0.69265900  0.97843600  1
  C  C22  1  0.01531600  0.88740400  0.75000000  1
  C  C23  1  0.98468400  0.11259600  0.25000000  1
  C  C24  1  0.22188900  0.93355700  0.99557400  1
  C  C25  1  0.77811100  0.06644300  0.00442600  1
  C  C26  1  0.77811100  0.06644300  0.49557400  1
  C  C27  1  0.22188900  0.93355700  0.50442600  1
  C  C28  1  0.61572600  0.61160400  0.75000000  1
  C  C29  1  0.38427400  0.38839600  0.25000000  1
  C  C30  1  0.55852300  0.97720800  0.88500700  1
  C  C31  1  0.44147700  0.02279200  0.11499300  1
  C  C32  1  0.44147700  0.02279200  0.38500700  1
  C  C33  1  0.55852300  0.97720800  0.61499300  1
  C  C34  1  0.13229800  0.62150500  0.87492800  1
  C  C35  1  0.86770200  0.37849500  0.12507200  1
  C  C36  1  0.86770200  0.37849500  0.37492800  1
  C  C37  1  0.13229800  0.62150500  0.62507200  1
  C  C38  1  0.37700200  0.87233500  0.75000000  1
  C  C39  1  0.62299800  0.12766500  0.25000000  1
  C  C40  1  0.85317700  0.86249800  0.88717100  1
  C  C41  1  0.14682300  0.13750200  0.11282900  1
  C  C42  1  0.14682300  0.13750200  0.38717100  1
  C  C43  1  0.85317700  0.86249800  0.61282900  1
  C  C44  1  0.78039400  0.17472900  0.75000000  1
  C  C45  1  0.21960600  0.82527100  0.25000000  1
