# generated using pymatgen
data_CuNiC5
_symmetry_space_group_name_H-M   'P 1'
_cell_length_a   9.37399583
_cell_length_b   9.37399583
_cell_length_c   6.88144383
_cell_angle_alpha   80.51593958
_cell_angle_beta   80.51593958
_cell_angle_gamma   115.20731341
_symmetry_Int_Tables_number   1
_chemical_formula_structural   CuNiC5
_chemical_formula_sum   'Cu4 Ni4 C20'
_cell_volume   520.58657006
_cell_formula_units_Z   4
loop_
 _symmetry_equiv_pos_site_id
 _symmetry_equiv_pos_as_xyz
  1  'x, y, z'
loop_
 _atom_site_type_symbol
 _atom_site_label
 _atom_site_symmetry_multiplicity
 _atom_site_fract_x
 _atom_site_fract_y
 _atom_site_fract_z
 _atom_site_occupancy
  C  C0  1  0.59802900  0.40197100  0.75000000  1
  C  C1  1  0.40197100  0.59802900  0.25000000  1
  C  C2  1  0.22644400  0.77355600  0.75000000  1
  C  C3  1  0.77355600  0.22644400  0.25000000  1
  Ni  Ni4  1  0.96289300  0.06581100  0.29458300  1
  Ni  Ni5  1  0.03710700  0.93418900  0.70541700  1
  Ni  Ni6  1  0.93418900  0.03710700  0.20541700  1
  Ni  Ni7  1  0.06581100  0.96289300  0.79458300  1
  Cu  Cu8  1  0.61520800  0.90445300  0.70701900  1
  Cu  Cu9  1  0.38479200  0.09554700  0.29298100  1
  Cu  Cu10  1  0.09554700  0.38479200  0.79298100  1
  Cu  Cu11  1  0.90445300  0.61520800  0.20701900  1
  C  C12  1  0.71625700  0.88219800  0.87124700  1
  C  C13  1  0.28374300  0.11780200  0.12875300  1
  C  C14  1  0.11780200  0.28374300  0.62875300  1
  C  C15  1  0.88219800  0.71625700  0.37124700  1
  C  C16  1  0.56131200  0.77011500  0.57040600  1
  C  C17  1  0.43868800  0.22988500  0.42959400  1
  C  C18  1  0.22988500  0.43868800  0.92959400  1
  C  C19  1  0.77011500  0.56131200  0.07040600  1
  C  C20  1  0.43544700  0.89114600  0.84648200  1
  C  C21  1  0.56455300  0.10885400  0.15351800  1
  C  C22  1  0.10885400  0.56455300  0.65351800  1
  C  C23  1  0.89114600  0.43544700  0.34648200  1
  C  C24  1  0.71458000  0.10167900  0.55746600  1
  C  C25  1  0.28542000  0.89832100  0.44253400  1
  C  C26  1  0.89832100  0.28542000  0.94253400  1
  C  C27  1  0.10167900  0.71458000  0.05746600  1
