# generated using pymatgen
data_Cu2NiC10
_symmetry_space_group_name_H-M   'P 1'
_cell_length_a   7.23189800
_cell_length_b   7.71111829
_cell_length_c   7.95900186
_cell_angle_alpha   86.94312324
_cell_angle_beta   113.25013251
_cell_angle_gamma   100.96135543
_symmetry_Int_Tables_number   1
_chemical_formula_structural   Cu2NiC10
_chemical_formula_sum   'Cu4 Ni2 C20'
_cell_volume   400.24138505
_cell_formula_units_Z   2
loop_
 _symmetry_equiv_pos_site_id
 _symmetry_equiv_pos_as_xyz
  1  'x, y, z'
loop_
 _atom_site_type_symbol
 _atom_site_label
 _atom_site_symmetry_multiplicity
 _atom_site_fract_x
 _atom_site_fract_y
 _atom_site_fract_z
 _atom_site_occupancy
  C  C0  1  0.77985500  0.16171500  0.28625600  1
  C  C1  1  0.22014500  0.83828500  0.71374400  1
  Ni  Ni2  1  0.24660300  0.26605600  0.03862100  1
  Ni  Ni3  1  0.75339700  0.73394400  0.96137900  1
  Cu  Cu4  1  0.54632500  0.61414000  0.24700300  1
  Cu  Cu5  1  0.45367500  0.38586000  0.75299700  1
  Cu  Cu6  1  0.18037900  0.89989200  0.21339700  1
  Cu  Cu7  1  0.81962100  0.10010800  0.78660300  1
  C  C8  1  0.35728100  0.46904900  0.21794200  1
  C  C9  1  0.64271900  0.53095100  0.78205800  1
  C  C10  1  0.95072200  0.23611300  0.94348500  1
  C  C11  1  0.04927800  0.76388700  0.05651500  1
  C  C12  1  0.45535000  0.30040700  0.93137600  1
  C  C13  1  0.54465000  0.69959300  0.06862400  1
  C  C14  1  0.32358900  0.04094900  0.15707500  1
  C  C15  1  0.67641100  0.95905100  0.84292500  1
  C  C16  1  0.75441100  0.56231400  0.35815100  1
  C  C17  1  0.24558900  0.43768600  0.64184900  1
  C  C18  1  0.54065400  0.77028200  0.38098000  1
  C  C19  1  0.45934600  0.22971800  0.61902000  1
  C  C20  1  0.34363800  0.78613000  0.38392600  1
  C  C21  1  0.65636200  0.21387000  0.61607400  1
  C  C22  1  0.07166500  0.95431300  0.32207400  1
  C  C23  1  0.92833500  0.04568700  0.67792600  1
  C  C24  1  0.16514000  0.51110400  0.36141900  1
  C  C25  1  0.83486000  0.48889600  0.63858100  1
