# generated using pymatgen
data_Cu2Ni2C
_symmetry_space_group_name_H-M   'P 1'
_cell_length_a   7.35697814
_cell_length_b   7.35697814
_cell_length_c   15.80511230
_cell_angle_alpha   79.73970212
_cell_angle_beta   79.73970212
_cell_angle_gamma   78.09125543
_symmetry_Int_Tables_number   1
_chemical_formula_structural   Cu2Ni2C
_chemical_formula_sum   'Cu12 Ni12 C6'
_cell_volume   814.73080021
_cell_formula_units_Z   6
loop_
 _symmetry_equiv_pos_site_id
 _symmetry_equiv_pos_as_xyz
  1  'x, y, z'
loop_
 _atom_site_type_symbol
 _atom_site_label
 _atom_site_symmetry_multiplicity
 _atom_site_fract_x
 _atom_site_fract_y
 _atom_site_fract_z
 _atom_site_occupancy
  C  C0  1  0.46552300  0.46552300  0.22613100  1
  C  C1  1  0.53447700  0.53447700  0.77386900  1
  C  C2  1  0.80412500  0.80412500  0.28362100  1
  C  C3  1  0.19587500  0.19587500  0.71637900  1
  C  C4  1  0.86910000  0.86910000  0.78332200  1
  C  C5  1  0.13090000  0.13090000  0.21667800  1
  Ni  Ni6  1  0.81679300  0.81679300  0.13576500  1
  Ni  Ni7  1  0.18320700  0.18320700  0.86423500  1
  Ni  Ni8  1  0.30842500  0.89319500  0.12973700  1
  Ni  Ni9  1  0.69157500  0.10680500  0.87026300  1
  Ni  Ni10  1  0.10680500  0.69157500  0.87026300  1
  Ni  Ni11  1  0.89319500  0.30842500  0.12973700  1
  Ni  Ni12  1  0.95393500  0.95393500  0.36284600  1
  Ni  Ni13  1  0.04606500  0.04606500  0.63715400  1
  Ni  Ni14  1  0.45412400  0.85366100  0.35841700  1
  Ni  Ni15  1  0.54587600  0.14633900  0.64158300  1
  Ni  Ni16  1  0.14633900  0.54587600  0.64158300  1
  Ni  Ni17  1  0.85366100  0.45412400  0.35841700  1
  Cu  Cu18  1  0.73601000  0.73601000  0.73203400  1
  Cu  Cu19  1  0.26399000  0.26399000  0.26796600  1
  Cu  Cu20  1  0.51728100  0.27835200  0.09739700  1
  Cu  Cu21  1  0.48271900  0.72164800  0.90260300  1
  Cu  Cu22  1  0.72164800  0.48271900  0.90260300  1
  Cu  Cu23  1  0.27835200  0.51728100  0.09739700  1
  Cu  Cu24  1  0.67096100  0.37020300  0.32856800  1
  Cu  Cu25  1  0.32903900  0.62979700  0.67143200  1
  Cu  Cu26  1  0.62979700  0.32903900  0.67143200  1
  Cu  Cu27  1  0.37020300  0.67096100  0.32856800  1
  Cu  Cu28  1  0.61483500  0.61483500  0.94445000  1
  Cu  Cu29  1  0.38516500  0.38516500  0.05555000  1
