# generated using pymatgen
data_Cu5NiC
_symmetry_space_group_name_H-M   'P 1'
_cell_length_a   13.90672218
_cell_length_b   13.90672218
_cell_length_c   27.49901185
_cell_angle_alpha   61.93167553
_cell_angle_beta   61.93167553
_cell_angle_gamma   29.05636284
_symmetry_Int_Tables_number   1
_chemical_formula_structural   Cu5NiC
_chemical_formula_sum   'Cu60 Ni12 C12'
_cell_volume   2257.25343418
_cell_formula_units_Z   12
loop_
 _symmetry_equiv_pos_site_id
 _symmetry_equiv_pos_as_xyz
  1  'x, y, z'
loop_
 _atom_site_type_symbol
 _atom_site_label
 _atom_site_symmetry_multiplicity
 _atom_site_fract_x
 _atom_site_fract_y
 _atom_site_fract_z
 _atom_site_occupancy
  C  C0  1  0.93689500  0.84543900  0.93777600  1
  C  C1  1  0.31289200  0.06608300  0.41616700  1
  C  C2  1  0.06608300  0.31289200  0.91616700  1
  C  C3  1  0.01778000  0.64374300  0.85218100  1
  C  C4  1  0.68058500  0.94190900  0.58487500  1
  C  C5  1  0.15313800  0.06821800  0.56246500  1
  C  C6  1  0.06821800  0.15313800  0.06246500  1
  C  C7  1  0.94190900  0.68058500  0.08487500  1
  C  C8  1  0.35551200  0.98729500  0.64812500  1
  C  C9  1  0.64374300  0.01778000  0.35218100  1
  C  C10  1  0.84543900  0.93689500  0.43777600  1
  C  C11  1  0.98729500  0.35551200  0.14812500  1
  Ni  Ni12  1  0.91960000  0.29884000  0.91325600  1
  Ni  Ni13  1  0.29884000  0.91960000  0.41325600  1
  Ni  Ni14  1  0.75142400  0.54645400  0.21835400  1
  Ni  Ni15  1  0.70192900  0.08280600  0.58702300  1
  Ni  Ni16  1  0.08280600  0.70192900  0.08702300  1
  Ni  Ni17  1  0.72552700  0.13928500  0.88161000  1
  Ni  Ni18  1  0.25060500  0.45437800  0.78245200  1
  Ni  Ni19  1  0.27581500  0.86399500  0.11904500  1
  Ni  Ni20  1  0.54645400  0.75142400  0.71835400  1
  Ni  Ni21  1  0.45437800  0.25060500  0.28245200  1
  Ni  Ni22  1  0.13928500  0.72552700  0.38161000  1
  Ni  Ni23  1  0.86399500  0.27581500  0.61904500  1
  Cu  Cu24  1  0.17151300  0.22032100  0.56774700  1
  Cu  Cu25  1  0.38240200  0.44413000  0.06847300  1
  Cu  Cu26  1  0.93263400  0.32139000  0.83249200  1
  Cu  Cu27  1  0.55822900  0.61807600  0.43364900  1
  Cu  Cu28  1  0.53063300  0.15262700  0.50162800  1
  Cu  Cu29  1  0.44413000  0.38240200  0.56847300  1
  Cu  Cu30  1  0.69115800  0.86267800  0.15999400  1
  Cu  Cu31  1  0.68644600  0.06295900  0.66802200  1
  Cu  Cu32  1  0.15262700  0.53063300  0.00162800  1
  Cu  Cu33  1  0.57951200  0.35015400  0.91757800  1
  Cu  Cu34  1  0.64949400  0.42535600  0.58250500  1
  Cu  Cu35  1  0.37102700  0.14858800  0.64206100  1
  Cu  Cu36  1  0.14858800  0.37102700  0.14206100  1
  Cu  Cu37  1  0.33805000  0.83999600  0.63920700  1
  Cu  Cu38  1  0.22032100  0.17151300  0.06774700  1
  Cu  Cu39  1  0.32934400  0.55007100  0.73479600  1
  Cu  Cu40  1  0.12326100  0.88566000  0.31333400  1
  Cu  Cu41  1  0.90624300  0.15165900  0.05697900  1
  Cu  Cu42  1  0.27689000  0.01166100  0.97871500  1
  Cu  Cu43  1  0.13389500  0.31304900  0.34027400  1
  Cu  Cu44  1  0.82518800  0.78562800  0.43300000  1
  Cu  Cu45  1  0.55007100  0.32934400  0.23479600  1
  Cu  Cu46  1  0.61807600  0.55822900  0.93364900  1
  Cu  Cu47  1  0.32139000  0.93263400  0.33249200  1
  Cu  Cu48  1  0.44759700  0.89143000  0.77409600  1
  Cu  Cu49  1  0.66089000  0.16331400  0.36149000  1
  Cu  Cu50  1  0.83999600  0.33805000  0.13920700  1
  Cu  Cu51  1  0.35015400  0.57951200  0.41757800  1
  Cu  Cu52  1  0.31304900  0.13389500  0.84027400  1
  Cu  Cu53  1  0.62295800  0.85980900  0.35765400  1
  Cu  Cu54  1  0.45010500  0.67206500  0.76564300  1
  Cu  Cu55  1  0.77447800  0.67082500  0.08409100  1
  Cu  Cu56  1  0.85066100  0.09611100  0.44221700  1
  Cu  Cu57  1  0.04843000  0.20438400  0.70550900  1
  Cu  Cu58  1  0.01166100  0.27689000  0.47871500  1
  Cu  Cu59  1  0.09611100  0.85066100  0.94221700  1
  Cu  Cu60  1  0.16331400  0.66089000  0.86149000  1
  Cu  Cu61  1  0.11866300  0.87600200  0.18691200  1
  Cu  Cu62  1  0.11645700  0.54394800  0.72753400  1
  Cu  Cu63  1  0.67082500  0.77447800  0.58409100  1
  Cu  Cu64  1  0.06295900  0.68644600  0.16802200  1
  Cu  Cu65  1  0.85080800  0.47193100  0.99785600  1
  Cu  Cu66  1  0.89143000  0.44759700  0.27409600  1
  Cu  Cu67  1  0.86267800  0.69115800  0.65999400  1
  Cu  Cu68  1  0.78562800  0.82518800  0.93300000  1
  Cu  Cu69  1  0.22478700  0.33300100  0.91597900  1
  Cu  Cu70  1  0.80237900  0.94830600  0.79381200  1
  Cu  Cu71  1  0.98929400  0.72553300  0.52238300  1
  Cu  Cu72  1  0.47193100  0.85080800  0.49785600  1
  Cu  Cu73  1  0.15165900  0.90624300  0.55697900  1
  Cu  Cu74  1  0.88566000  0.12326100  0.81333400  1
  Cu  Cu75  1  0.42535600  0.64949400  0.08250500  1
  Cu  Cu76  1  0.33300100  0.22478700  0.41597900  1
  Cu  Cu77  1  0.67206500  0.45010500  0.26564300  1
  Cu  Cu78  1  0.87600200  0.11866300  0.68691200  1
  Cu  Cu79  1  0.94830600  0.80237900  0.29381200  1
  Cu  Cu80  1  0.54394800  0.11645700  0.22753400  1
  Cu  Cu81  1  0.85980900  0.62295800  0.85765400  1
  Cu  Cu82  1  0.20438400  0.04843000  0.20550900  1
  Cu  Cu83  1  0.72553300  0.98929400  0.02238300  1
