# generated using pymatgen
data_CuNi11C4
_symmetry_space_group_name_H-M   'P 1'
_cell_length_a   7.41219000
_cell_length_b   7.41219000
_cell_length_c   7.79618300
_cell_angle_alpha   90.00000000
_cell_angle_beta   90.00000000
_cell_angle_gamma   90.00000000
_symmetry_Int_Tables_number   1
_chemical_formula_structural   CuNi11C4
_chemical_formula_sum   'Cu2 Ni22 C8'
_cell_volume   428.32666453
_cell_formula_units_Z   2
loop_
 _symmetry_equiv_pos_site_id
 _symmetry_equiv_pos_as_xyz
  1  'x, y, z'
loop_
 _atom_site_type_symbol
 _atom_site_label
 _atom_site_symmetry_multiplicity
 _atom_site_fract_x
 _atom_site_fract_y
 _atom_site_fract_z
 _atom_site_occupancy
  Ni  Ni0  1  0.50000000  0.50000000  0.76900200  1
  Ni  Ni1  1  0.50000000  0.50000000  0.23099800  1
  Ni  Ni2  1  0.50000000  0.24624100  0.50000000  1
  Ni  Ni3  1  0.50000000  0.75375900  0.50000000  1
  Ni  Ni4  1  0.75375900  0.50000000  0.50000000  1
  Ni  Ni5  1  0.24624100  0.50000000  0.50000000  1
  Ni  Ni6  1  0.00000000  0.26267100  0.00000000  1
  Ni  Ni7  1  0.00000000  0.73732900  0.00000000  1
  Ni  Ni8  1  0.73732900  0.00000000  0.00000000  1
  Ni  Ni9  1  0.26267100  0.00000000  0.00000000  1
  Ni  Ni10  1  0.00000000  0.25554000  0.50000000  1
  Ni  Ni11  1  0.00000000  0.74446000  0.50000000  1
  Ni  Ni12  1  0.74446000  0.00000000  0.50000000  1
  Ni  Ni13  1  0.25554000  0.00000000  0.50000000  1
  Ni  Ni14  1  0.25497600  0.25497600  0.75590400  1
  Ni  Ni15  1  0.74502400  0.74502400  0.75590400  1
  Ni  Ni16  1  0.74502400  0.25497600  0.75590400  1
  Ni  Ni17  1  0.25497600  0.74502400  0.75590400  1
  Ni  Ni18  1  0.74502400  0.74502400  0.24409600  1
  Ni  Ni19  1  0.25497600  0.25497600  0.24409600  1
  Ni  Ni20  1  0.25497600  0.74502400  0.24409600  1
  Ni  Ni21  1  0.74502400  0.25497600  0.24409600  1
  Cu  Cu22  1  0.00000000  0.00000000  0.75140500  1
  Cu  Cu23  1  0.00000000  0.00000000  0.24859500  1
  C  C24  1  0.00000000  0.00000000  0.00000000  1
  C  C25  1  0.00000000  0.00000000  0.50000000  1
  C  C26  1  0.50000000  0.50000000  0.00000000  1
  C  C27  1  0.50000000  0.50000000  0.50000000  1
  C  C28  1  0.50000000  0.00000000  0.50000000  1
  C  C29  1  0.00000000  0.50000000  0.50000000  1
  C  C30  1  0.50000000  0.00000000  0.00000000  1
  C  C31  1  0.00000000  0.50000000  0.00000000  1
