# generated using pymatgen
data_Cu5Ni21
_symmetry_space_group_name_H-M   'P 1'
_cell_length_a   13.36943055
_cell_length_b   13.36943055
_cell_length_c   13.36943055
_cell_angle_alpha   60.00000000
_cell_angle_beta   60.00000000
_cell_angle_gamma   60.00000000
_symmetry_Int_Tables_number   1
_chemical_formula_structural   Cu5Ni21
_chemical_formula_sum   'Cu20 Ni84'
_cell_volume   1689.75496229
_cell_formula_units_Z   4
loop_
 _symmetry_equiv_pos_site_id
 _symmetry_equiv_pos_as_xyz
  1  'x, y, z'
loop_
 _atom_site_type_symbol
 _atom_site_label
 _atom_site_symmetry_multiplicity
 _atom_site_fract_x
 _atom_site_fract_y
 _atom_site_fract_z
 _atom_site_occupancy
  Ni  Ni0  1  0.25243800  0.25243800  0.91593500  1
  Ni  Ni1  1  0.25243800  0.25243800  0.57919000  1
  Ni  Ni2  1  0.91593500  0.57919000  0.25243800  1
  Ni  Ni3  1  0.91593500  0.25243800  0.25243800  1
  Ni  Ni4  1  0.57919000  0.91593500  0.25243800  1
  Ni  Ni5  1  0.57919000  0.25243800  0.25243800  1
  Ni  Ni6  1  0.25243800  0.91593500  0.57919000  1
  Ni  Ni7  1  0.25243800  0.57919000  0.91593500  1
  Ni  Ni8  1  0.25243800  0.91593500  0.25243800  1
  Ni  Ni9  1  0.57919000  0.25243800  0.91593500  1
  Ni  Ni10  1  0.91593500  0.25243800  0.57919000  1
  Ni  Ni11  1  0.25243800  0.57919000  0.25243800  1
  Ni  Ni12  1  0.17184700  0.17184700  0.17184700  1
  Ni  Ni13  1  0.17184700  0.17184700  0.48445900  1
  Ni  Ni14  1  0.17184700  0.48445900  0.17184700  1
  Ni  Ni15  1  0.48445900  0.17184700  0.17184700  1
  Ni  Ni16  1  0.80264000  0.80264000  0.80264000  1
  Ni  Ni17  1  0.80264000  0.80264000  0.59208100  1
  Ni  Ni18  1  0.80264000  0.59208100  0.80264000  1
  Ni  Ni19  1  0.59208100  0.80264000  0.80264000  1
  Ni  Ni20  1  0.05321200  0.05321200  0.05321200  1
  Ni  Ni21  1  0.05321200  0.05321200  0.84036400  1
  Ni  Ni22  1  0.05321200  0.84036400  0.05321200  1
  Ni  Ni23  1  0.84036400  0.05321200  0.05321200  1
  Ni  Ni24  1  0.50789000  0.50789000  0.80399000  1
  Ni  Ni25  1  0.50789000  0.50789000  0.18022900  1
  Ni  Ni26  1  0.80399000  0.18022900  0.50789000  1
  Ni  Ni27  1  0.80399000  0.50789000  0.50789000  1
  Ni  Ni28  1  0.18022900  0.80399000  0.50789000  1
  Ni  Ni29  1  0.18022900  0.50789000  0.50789000  1
  Ni  Ni30  1  0.50789000  0.80399000  0.18022900  1
  Ni  Ni31  1  0.50789000  0.18022900  0.80399000  1
  Ni  Ni32  1  0.50789000  0.80399000  0.50789000  1
  Ni  Ni33  1  0.18022900  0.50789000  0.80399000  1
  Ni  Ni34  1  0.80399000  0.50789000  0.18022900  1
  Ni  Ni35  1  0.50789000  0.18022900  0.50789000  1
  Ni  Ni36  1  0.90625100  0.90625100  0.90625100  1
  Ni  Ni37  1  0.90625100  0.90625100  0.28124800  1
  Ni  Ni38  1  0.90625100  0.28124800  0.90625100  1
  Ni  Ni39  1  0.28124800  0.90625100  0.90625100  1
  Ni  Ni40  1  0.75763900  0.75763900  0.42018200  1
  Ni  Ni41  1  0.75763900  0.75763900  0.06454000  1
  Ni  Ni42  1  0.42018200  0.06454000  0.75763900  1
  Ni  Ni43  1  0.42018200  0.75763900  0.75763900  1
  Ni  Ni44  1  0.06454000  0.42018200  0.75763900  1
  Ni  Ni45  1  0.06454000  0.75763900  0.75763900  1
  Ni  Ni46  1  0.75763900  0.42018200  0.06454000  1
  Ni  Ni47  1  0.75763900  0.06454000  0.42018200  1
  Ni  Ni48  1  0.75763900  0.42018200  0.75763900  1
  Ni  Ni49  1  0.06454000  0.75763900  0.42018200  1
  Ni  Ni50  1  0.42018200  0.75763900  0.06454000  1
  Ni  Ni51  1  0.75763900  0.06454000  0.75763900  1
  Ni  Ni52  1  0.55444100  0.55444100  0.55444100  1
  Ni  Ni53  1  0.55444100  0.55444100  0.33667600  1
  Ni  Ni54  1  0.55444100  0.33667600  0.55444100  1
  Ni  Ni55  1  0.33667600  0.55444100  0.55444100  1
  Ni  Ni56  1  0.32693900  0.32693900  0.32693900  1
  Ni  Ni57  1  0.32693900  0.32693900  0.01918300  1
  Ni  Ni58  1  0.32693900  0.01918300  0.32693900  1
  Ni  Ni59  1  0.01918300  0.32693900  0.32693900  1
  Ni  Ni60  1  0.93032500  0.56967500  0.56967500  1
  Ni  Ni61  1  0.56967500  0.93032500  0.93032500  1
  Ni  Ni62  1  0.56967500  0.93032500  0.56967500  1
  Ni  Ni63  1  0.93032500  0.56967500  0.93032500  1
  Ni  Ni64  1  0.56967500  0.56967500  0.93032500  1
  Ni  Ni65  1  0.93032500  0.93032500  0.56967500  1
  Ni  Ni66  1  0.01081200  0.01081200  0.32021900  1
  Ni  Ni67  1  0.01081200  0.01081200  0.65815800  1
  Ni  Ni68  1  0.32021900  0.65815800  0.01081200  1
  Ni  Ni69  1  0.32021900  0.01081200  0.01081200  1
  Ni  Ni70  1  0.65815800  0.32021900  0.01081200  1
  Ni  Ni71  1  0.65815800  0.01081200  0.01081200  1
  Ni  Ni72  1  0.01081200  0.32021900  0.65815800  1
  Ni  Ni73  1  0.01081200  0.65815800  0.32021900  1
  Ni  Ni74  1  0.01081200  0.32021900  0.01081200  1
  Ni  Ni75  1  0.65815800  0.01081200  0.32021900  1
  Ni  Ni76  1  0.32021900  0.01081200  0.65815800  1
  Ni  Ni77  1  0.01081200  0.65815800  0.01081200  1
  Ni  Ni78  1  0.67546500  0.32453500  0.32453500  1
  Ni  Ni79  1  0.32453500  0.67546500  0.67546500  1
  Ni  Ni80  1  0.32453500  0.67546500  0.32453500  1
  Ni  Ni81  1  0.67546500  0.32453500  0.67546500  1
  Ni  Ni82  1  0.32453500  0.32453500  0.67546500  1
  Ni  Ni83  1  0.67546500  0.67546500  0.32453500  1
  Cu  Cu84  1  0.65806800  0.65806800  0.65806800  1
  Cu  Cu85  1  0.65806800  0.65806800  0.02579500  1
  Cu  Cu86  1  0.65806800  0.02579500  0.65806800  1
  Cu  Cu87  1  0.02579500  0.65806800  0.65806800  1
  Cu  Cu88  1  0.41956700  0.41956700  0.41956700  1
  Cu  Cu89  1  0.41956700  0.41956700  0.74130000  1
  Cu  Cu90  1  0.41956700  0.74130000  0.41956700  1
  Cu  Cu91  1  0.74130000  0.41956700  0.41956700  1
  Cu  Cu92  1  0.40830500  0.09169500  0.09169500  1
  Cu  Cu93  1  0.09169500  0.40830500  0.40830500  1
  Cu  Cu94  1  0.09169500  0.40830500  0.09169500  1
  Cu  Cu95  1  0.40830500  0.09169500  0.40830500  1
  Cu  Cu96  1  0.09169500  0.09169500  0.40830500  1
  Cu  Cu97  1  0.40830500  0.40830500  0.09169500  1
  Cu  Cu98  1  0.83378300  0.16621700  0.16621700  1
  Cu  Cu99  1  0.16621700  0.83378300  0.83378300  1
  Cu  Cu100  1  0.16621700  0.83378300  0.16621700  1
  Cu  Cu101  1  0.83378300  0.16621700  0.83378300  1
  Cu  Cu102  1  0.16621700  0.16621700  0.83378300  1
  Cu  Cu103  1  0.83378300  0.83378300  0.16621700  1
