# generated using pymatgen
data_Cu5NiC4
_symmetry_space_group_name_H-M   'P 1'
_cell_length_a   6.75470000
_cell_length_b   11.72468500
_cell_length_c   14.22593651
_cell_angle_alpha   73.44498724
_cell_angle_beta   90.00000000
_cell_angle_gamma   90.00000000
_symmetry_Int_Tables_number   1
_chemical_formula_structural   Cu5NiC4
_chemical_formula_sum   'Cu40 Ni8 C32'
_cell_volume   1079.94426801
_cell_formula_units_Z   8
loop_
 _symmetry_equiv_pos_site_id
 _symmetry_equiv_pos_as_xyz
  1  'x, y, z'
loop_
 _atom_site_type_symbol
 _atom_site_label
 _atom_site_symmetry_multiplicity
 _atom_site_fract_x
 _atom_site_fract_y
 _atom_site_fract_z
 _atom_site_occupancy
  C  C0  1  0.00000000  0.50000000  0.50000000  1
  C  C1  1  0.50000000  0.00000000  0.50000000  1
  C  C2  1  0.00000000  0.00000000  0.00000000  1
  C  C3  1  0.50000000  0.50000000  0.00000000  1
  C  C4  1  0.00716400  0.66324100  0.58237300  1
  C  C5  1  0.99283600  0.33675900  0.41762700  1
  C  C6  1  0.50716400  0.83675900  0.41762700  1
  C  C7  1  0.49283600  0.16324100  0.58237300  1
  C  C8  1  0.76300800  0.90871700  0.13622300  1
  C  C9  1  0.23699200  0.09128300  0.86377700  1
  C  C10  1  0.26300800  0.59128300  0.86377700  1
  C  C11  1  0.73699200  0.40871700  0.13622300  1
  C  C12  1  0.31570100  0.90995800  0.07004600  1
  C  C13  1  0.68429900  0.09004200  0.92995400  1
  C  C14  1  0.81570100  0.59004200  0.92995400  1
  C  C15  1  0.18429900  0.40995800  0.07004600  1
  C  C16  1  0.79289900  0.62877200  0.36826200  1
  C  C17  1  0.20710100  0.37122800  0.63173800  1
  C  C18  1  0.29289900  0.87122800  0.63173800  1
  C  C19  1  0.70710100  0.12877200  0.36826200  1
  C  C20  1  0.44114900  0.64042900  0.10019400  1
  C  C21  1  0.55885100  0.35957100  0.89980600  1
  C  C22  1  0.94114900  0.85957100  0.89980600  1
  C  C23  1  0.05885100  0.14042900  0.10019400  1
  C  C24  1  0.74897200  0.86568400  0.60361500  1
  C  C25  1  0.25102800  0.13431600  0.39638500  1
  C  C26  1  0.24897200  0.63431600  0.39638500  1
  C  C27  1  0.75102800  0.36568400  0.60361500  1
  C  C28  1  0.49293900  0.76581800  0.24872600  1
  C  C29  1  0.50706100  0.23418200  0.75127400  1
  C  C30  1  0.99293900  0.73418200  0.75127400  1
  C  C31  1  0.00706100  0.26581800  0.24872600  1
  Ni  Ni32  1  0.97239500  0.65818800  0.14627500  1
  Ni  Ni33  1  0.02760500  0.34181200  0.85372500  1
  Ni  Ni34  1  0.47239500  0.84181200  0.85372500  1
  Ni  Ni35  1  0.52760500  0.15818800  0.14627500  1
  Ni  Ni36  1  0.49875100  0.40576500  0.35161800  1
  Ni  Ni37  1  0.50124900  0.59423500  0.64838200  1
  Ni  Ni38  1  0.99875100  0.09423500  0.64838200  1
  Ni  Ni39  1  0.00124900  0.90576500  0.35161800  1
  Cu  Cu40  1  0.41709000  0.85710200  0.46642900  1
  Cu  Cu41  1  0.58291000  0.14289800  0.53357100  1
  Cu  Cu42  1  0.91709000  0.64289800  0.53357100  1
  Cu  Cu43  1  0.08291000  0.35710200  0.46642900  1
  Cu  Cu44  1  0.73191200  0.60032100  0.98401500  1
  Cu  Cu45  1  0.26808800  0.39967900  0.01598500  1
  Cu  Cu46  1  0.23191200  0.89967900  0.01598500  1
  Cu  Cu47  1  0.76808800  0.10032100  0.98401500  1
  Cu  Cu48  1  0.78139600  0.75827300  0.72074800  1
  Cu  Cu49  1  0.21860400  0.24172700  0.27925200  1
  Cu  Cu50  1  0.28139600  0.74172700  0.27925200  1
  Cu  Cu51  1  0.71860400  0.25827300  0.72074800  1
  Cu  Cu52  1  0.89544600  0.56760300  0.36931300  1
  Cu  Cu53  1  0.10455400  0.43239700  0.63068700  1
  Cu  Cu54  1  0.39544600  0.93239700  0.63068700  1
  Cu  Cu55  1  0.60455400  0.06760300  0.36931300  1
  Cu  Cu56  1  0.61818800  0.76429300  0.33401400  1
  Cu  Cu57  1  0.38181200  0.23570700  0.66598600  1
  Cu  Cu58  1  0.11818800  0.73570700  0.66598600  1
  Cu  Cu59  1  0.88181200  0.26429300  0.33401400  1
  Cu  Cu60  1  0.91111700  0.90897100  0.13165900  1
  Cu  Cu61  1  0.08888300  0.09102900  0.86834100  1
  Cu  Cu62  1  0.41111700  0.59102900  0.86834100  1
  Cu  Cu63  1  0.58888300  0.40897100  0.13165900  1
  Cu  Cu64  1  0.76109000  0.93213100  0.54123300  1
  Cu  Cu65  1  0.23891000  0.06786900  0.45876700  1
  Cu  Cu66  1  0.26109000  0.56786900  0.45876700  1
  Cu  Cu67  1  0.73891000  0.43213100  0.54123300  1
  Cu  Cu68  1  0.51026100  0.87907600  0.17013900  1
  Cu  Cu69  1  0.48973900  0.12092400  0.82986100  1
  Cu  Cu70  1  0.01026100  0.62092400  0.82986100  1
  Cu  Cu71  1  0.98973900  0.37907600  0.17013900  1
  Cu  Cu72  1  0.54897900  0.66466100  0.20895200  1
  Cu  Cu73  1  0.45102100  0.33533900  0.79104800  1
  Cu  Cu74  1  0.04897900  0.83533900  0.79104800  1
  Cu  Cu75  1  0.95102100  0.16466100  0.20895200  1
  Cu  Cu76  1  0.35527700  0.60661300  0.05771500  1
  Cu  Cu77  1  0.64472300  0.39338700  0.94228500  1
  Cu  Cu78  1  0.85527700  0.89338700  0.94228500  1
  Cu  Cu79  1  0.14472300  0.10661300  0.05771500  1
