# generated using pymatgen
data_Cu3(NiC)4
_symmetry_space_group_name_H-M   'P 1'
_cell_length_a   8.88802400
_cell_length_b   9.56618500
_cell_length_c   18.36099400
_cell_angle_alpha   90.00000000
_cell_angle_beta   90.00000000
_cell_angle_gamma   90.00000000
_symmetry_Int_Tables_number   1
_chemical_formula_structural   Cu3(NiC)4
_chemical_formula_sum   'Cu24 Ni32 C32'
_cell_volume   1561.13400144
_cell_formula_units_Z   8
loop_
 _symmetry_equiv_pos_site_id
 _symmetry_equiv_pos_as_xyz
  1  'x, y, z'
loop_
 _atom_site_type_symbol
 _atom_site_label
 _atom_site_symmetry_multiplicity
 _atom_site_fract_x
 _atom_site_fract_y
 _atom_site_fract_z
 _atom_site_occupancy
  C  C0  1  0.82824500  0.09332300  0.39141000  1
  C  C1  1  0.67175500  0.59332300  0.60859000  1
  C  C2  1  0.32824500  0.90667700  0.10859000  1
  C  C3  1  0.17175500  0.40667700  0.89141000  1
  C  C4  1  0.17175500  0.90667700  0.60859000  1
  C  C5  1  0.32824500  0.40667700  0.39141000  1
  C  C6  1  0.67175500  0.09332300  0.89141000  1
  C  C7  1  0.82824500  0.59332300  0.10859000  1
  C  C8  1  0.62218300  0.32025300  0.49991600  1
  C  C9  1  0.87781700  0.82025300  0.50008400  1
  C  C10  1  0.12218300  0.67974700  0.00008400  1
  C  C11  1  0.37781700  0.17974700  0.99991600  1
  C  C12  1  0.37781700  0.67974700  0.50008400  1
  C  C13  1  0.12218300  0.17974700  0.49991600  1
  C  C14  1  0.87781700  0.32025300  0.99991600  1
  C  C15  1  0.62218300  0.82025300  0.00008400  1
  C  C16  1  0.64233200  0.26342100  0.20735800  1
  C  C17  1  0.85766800  0.76342100  0.79264200  1
  C  C18  1  0.14233200  0.73657900  0.29264200  1
  C  C19  1  0.35766800  0.23657900  0.70735800  1
  C  C20  1  0.35766800  0.73657900  0.79264200  1
  C  C21  1  0.14233200  0.23657900  0.20735800  1
  C  C22  1  0.85766800  0.26342100  0.70735800  1
  C  C23  1  0.64233200  0.76342100  0.29264200  1
  C  C24  1  0.16689400  0.47542700  0.62411200  1
  C  C25  1  0.33310600  0.97542700  0.37588800  1
  C  C26  1  0.66689400  0.52457300  0.87588800  1
  C  C27  1  0.83310600  0.02457300  0.12411200  1
  C  C28  1  0.83310600  0.52457300  0.37588800  1
  C  C29  1  0.66689400  0.02457300  0.62411200  1
  C  C30  1  0.33310600  0.47542700  0.12411200  1
  C  C31  1  0.16689400  0.97542700  0.87588800  1
  Ni  Ni32  1  0.54270700  0.38104200  0.43284200  1
  Ni  Ni33  1  0.95729300  0.88104200  0.56715800  1
  Ni  Ni34  1  0.04270700  0.61895800  0.06715800  1
  Ni  Ni35  1  0.45729300  0.11895800  0.93284200  1
  Ni  Ni36  1  0.45729300  0.61895800  0.56715800  1
  Ni  Ni37  1  0.04270700  0.11895800  0.43284200  1
  Ni  Ni38  1  0.95729300  0.38104200  0.93284200  1
  Ni  Ni39  1  0.54270700  0.88104200  0.06715800  1
  Ni  Ni40  1  0.78678100  0.44361700  0.03054600  1
  Ni  Ni41  1  0.71321900  0.94361700  0.96945400  1
  Ni  Ni42  1  0.28678100  0.55638300  0.46945400  1
  Ni  Ni43  1  0.21321900  0.05638300  0.53054600  1
  Ni  Ni44  1  0.21321900  0.55638300  0.96945400  1
  Ni  Ni45  1  0.28678100  0.05638300  0.03054600  1
  Ni  Ni46  1  0.71321900  0.44361700  0.53054600  1
  Ni  Ni47  1  0.78678100  0.94361700  0.46945400  1
  Ni  Ni48  1  0.74640100  0.22769000  0.47207600  1
  Ni  Ni49  1  0.75359900  0.72769000  0.52792400  1
  Ni  Ni50  1  0.24640100  0.77231000  0.02792400  1
  Ni  Ni51  1  0.25359900  0.27231000  0.97207600  1
  Ni  Ni52  1  0.25359900  0.77231000  0.52792400  1
  Ni  Ni53  1  0.24640100  0.27231000  0.47207600  1
  Ni  Ni54  1  0.75359900  0.22769000  0.97207600  1
  Ni  Ni55  1  0.74640100  0.72769000  0.02792400  1
  Ni  Ni56  1  0.97569500  0.25587900  0.05102900  1
  Ni  Ni57  1  0.52430500  0.75587900  0.94897100  1
  Ni  Ni58  1  0.47569400  0.74412100  0.44897100  1
  Ni  Ni59  1  0.02430500  0.24412100  0.55102900  1
  Ni  Ni60  1  0.02430500  0.74412100  0.94897100  1
  Ni  Ni61  1  0.47569400  0.24412100  0.05102900  1
  Ni  Ni62  1  0.52430500  0.25587900  0.55102900  1
  Ni  Ni63  1  0.97569500  0.75587900  0.44897100  1
  Cu  Cu64  1  0.86508200  0.24785700  0.33056500  1
  Cu  Cu65  1  0.63491800  0.74785700  0.66943500  1
  Cu  Cu66  1  0.36508200  0.75214300  0.16943500  1
  Cu  Cu67  1  0.13491800  0.25214300  0.83056500  1
  Cu  Cu68  1  0.13491800  0.75214300  0.66943500  1
  Cu  Cu69  1  0.36508200  0.25214300  0.33056500  1
  Cu  Cu70  1  0.63491800  0.24785700  0.83056500  1
  Cu  Cu71  1  0.86508200  0.74785700  0.16943500  1
  Cu  Cu72  1  0.91514100  0.96216000  0.32750600  1
  Cu  Cu73  1  0.58485900  0.46216000  0.67249400  1
  Cu  Cu74  1  0.41514100  0.03784000  0.17249400  1
  Cu  Cu75  1  0.08485900  0.53784000  0.82750600  1
  Cu  Cu76  1  0.08485900  0.03784000  0.67249400  1
  Cu  Cu77  1  0.41514100  0.53784000  0.32750600  1
  Cu  Cu78  1  0.58485900  0.96216000  0.82750600  1
  Cu  Cu79  1  0.91514100  0.46216000  0.17249400  1
  Cu  Cu80  1  0.62885000  0.06665500  0.35962000  1
  Cu  Cu81  1  0.87115000  0.56665500  0.64038000  1
  Cu  Cu82  1  0.12885000  0.93334500  0.14038000  1
  Cu  Cu83  1  0.37115000  0.43334500  0.85962000  1
  Cu  Cu84  1  0.37115000  0.93334500  0.64038000  1
  Cu  Cu85  1  0.12885000  0.43334500  0.35962000  1
  Cu  Cu86  1  0.87115000  0.06665500  0.85962000  1
  Cu  Cu87  1  0.62885000  0.56665500  0.14038000  1
