# generated using pymatgen
data_Cu3Ni5C34
_symmetry_space_group_name_H-M   'P 1'
_cell_length_a   10.45067092
_cell_length_b   7.08663607
_cell_length_c   11.21216000
_cell_angle_alpha   90.00000000
_cell_angle_beta   90.00000000
_cell_angle_gamma   118.14693275
_symmetry_Int_Tables_number   1
_chemical_formula_structural   Cu3Ni5C34
_chemical_formula_sum   'Cu3 Ni5 C34'
_cell_volume   732.17433580
_cell_formula_units_Z   1
loop_
 _symmetry_equiv_pos_site_id
 _symmetry_equiv_pos_as_xyz
  1  'x, y, z'
loop_
 _atom_site_type_symbol
 _atom_site_label
 _atom_site_symmetry_multiplicity
 _atom_site_fract_x
 _atom_site_fract_y
 _atom_site_fract_z
 _atom_site_occupancy
  C  C0  1  0.35858700  0.73957800  0.15478700  1
  C  C1  1  0.35858700  0.73957800  0.84521300  1
  C  C2  1  0.32136100  0.29370200  0.35271300  1
  C  C3  1  0.32136100  0.29370200  0.64728700  1
  C  C4  1  0.73255600  0.02454900  0.72862600  1
  C  C5  1  0.61752800  0.37140900  0.17102000  1
  C  C6  1  0.61752800  0.37140900  0.82898000  1
  C  C7  1  0.73255600  0.02454900  0.27137400  1
  Ni  Ni8  1  0.96659100  0.26075200  0.50000000  1
  Ni  Ni9  1  0.23914000  0.11253300  0.00000000  1
  Ni  Ni10  1  0.46913600  0.97023000  0.50000000  1
  Ni  Ni11  1  0.71654200  0.80879600  0.00000000  1
  Ni  Ni12  1  0.68413500  0.64787300  0.50000000  1
  Cu  Cu13  1  0.01874000  0.73521600  0.35112300  1
  Cu  Cu14  1  0.01874000  0.73521600  0.64887700  1
  Cu  Cu15  1  0.00502800  0.41012800  0.00000000  1
  C  C16  1  0.97869600  0.92963300  0.15194100  1
  C  C17  1  0.97869600  0.92963300  0.84805900  1
  C  C18  1  0.16972200  0.00412200  0.78899100  1
  C  C19  1  0.17277700  0.76357000  0.00000000  1
  C  C20  1  0.21640000  0.87680800  0.50000000  1
  C  C21  1  0.50826600  0.03810900  0.69623300  1
  C  C22  1  0.22480200  0.41452900  0.00000000  1
  C  C23  1  0.18271200  0.38073600  0.50000000  1
  C  C24  1  0.52067100  0.79254400  0.00000000  1
  C  C25  1  0.48570200  0.67138600  0.50000000  1
  C  C26  1  0.16972200  0.00412200  0.21100900  1
  C  C27  1  0.49306000  0.56000900  0.22880200  1
  C  C28  1  0.49306000  0.56000900  0.77119800  1
  C  C29  1  0.45567100  0.18826200  0.00000000  1
  C  C30  1  0.51395300  0.31846600  0.50000000  1
  C  C31  1  0.81984000  0.76007400  0.25583800  1
  C  C32  1  0.81984000  0.76007400  0.74416200  1
  C  C33  1  0.50826600  0.03810900  0.30376700  1
  C  C34  1  0.77888800  0.56629100  0.00000000  1
  C  C35  1  0.84241900  0.52074300  0.50000000  1
  C  C36  1  0.97857000  0.04023500  0.00000000  1
  C  C37  1  0.77025500  0.14418600  0.00000000  1
  C  C38  1  0.72626800  0.02647300  0.50000000  1
  C  C39  1  0.96028100  0.38070300  0.29754400  1
  C  C40  1  0.96028100  0.38070300  0.70245600  1
  C  C41  1  0.95346700  0.93865100  0.50000000  1
