# generated using pymatgen
data_Cu(Ni3C7)2
_symmetry_space_group_name_H-M   'P 1'
_cell_length_a   11.09911838
_cell_length_b   11.09911838
_cell_length_c   13.36965300
_cell_angle_alpha   90.00000000
_cell_angle_beta   90.00000000
_cell_angle_gamma   94.69052952
_symmetry_Int_Tables_number   1
_chemical_formula_structural   Cu(Ni3C7)2
_chemical_formula_sum   'Cu2 Ni12 C28'
_cell_volume   1641.49730256
_cell_formula_units_Z   2
loop_
 _symmetry_equiv_pos_site_id
 _symmetry_equiv_pos_as_xyz
  1  'x, y, z'
loop_
 _atom_site_type_symbol
 _atom_site_label
 _atom_site_symmetry_multiplicity
 _atom_site_fract_x
 _atom_site_fract_y
 _atom_site_fract_z
 _atom_site_occupancy
  Ni  Ni0  1  0.95475200  0.17515700  0.11200600  1
  Ni  Ni1  1  0.04524800  0.82484300  0.88799400  1
  Ni  Ni2  1  0.54524800  0.32484300  0.61200600  1
  Ni  Ni3  1  0.67515700  0.45475200  0.38799400  1
  Ni  Ni4  1  0.45475200  0.67515700  0.38799400  1
  Ni  Ni5  1  0.32484300  0.54524800  0.61200600  1
  Ni  Ni6  1  0.82484300  0.04524800  0.88799400  1
  Ni  Ni7  1  0.17515700  0.95475200  0.11200600  1
  Ni  Ni8  1  0.36326800  0.36326800  0.39977300  1
  Ni  Ni9  1  0.63673200  0.63673200  0.60022700  1
  Ni  Ni10  1  0.13673200  0.13673200  0.89977300  1
  Ni  Ni11  1  0.86326800  0.86326800  0.10022700  1
  Cu  Cu12  1  0.00000000  0.00000000  0.00000000  1
  Cu  Cu13  1  0.50000000  0.50000000  0.50000000  1
  C  C14  1  0.28683900  0.53481000  0.25450000  1
  C  C15  1  0.71316100  0.46519000  0.74550000  1
  C  C16  1  0.21316100  0.96519000  0.75450000  1
  C  C17  1  0.03481000  0.78683900  0.24550000  1
  C  C18  1  0.78683900  0.03481000  0.24550000  1
  C  C19  1  0.96519000  0.21316100  0.75450000  1
  C  C20  1  0.46519000  0.71316100  0.74550000  1
  C  C21  1  0.53481000  0.28683900  0.25450000  1
  C  C22  1  0.11368100  0.36031800  0.00962400  1
  C  C23  1  0.88631900  0.63968200  0.99037600  1
  C  C24  1  0.38631900  0.13968200  0.50962400  1
  C  C25  1  0.86031800  0.61368100  0.49037600  1
  C  C26  1  0.61368100  0.86031800  0.49037600  1
  C  C27  1  0.13968200  0.38631900  0.50962400  1
  C  C28  1  0.63968200  0.88631900  0.99037600  1
  C  C29  1  0.36031800  0.11368100  0.00962400  1
  C  C30  1  0.89679700  0.39679700  0.25000000  1
  C  C31  1  0.10320300  0.60320300  0.75000000  1
  C  C32  1  0.60320300  0.10320300  0.75000000  1
  C  C33  1  0.39679700  0.89679700  0.25000000  1
  C  C34  1  0.74956800  0.25043200  0.00000000  1
  C  C35  1  0.25043200  0.74956800  0.00000000  1
  C  C36  1  0.75043200  0.24956800  0.50000000  1
  C  C37  1  0.24956800  0.75043200  0.50000000  1
  C  C38  1  0.14992900  0.14992900  0.26112200  1
  C  C39  1  0.85007100  0.85007100  0.73887800  1
  C  C40  1  0.35007100  0.35007100  0.76112200  1
  C  C41  1  0.64992900  0.64992900  0.23887800  1
