# generated using pymatgen
data_Cu5Ni2C25
_symmetry_space_group_name_H-M   'P 1'
_cell_length_a   5.88247300
_cell_length_b   6.45460233
_cell_length_c   8.59574445
_cell_angle_alpha   82.93952154
_cell_angle_beta   109.31160230
_cell_angle_gamma   114.55354751
_symmetry_Int_Tables_number   1
_chemical_formula_structural   Cu5Ni2C25
_chemical_formula_sum   'Cu5 Ni2 C25'
_cell_volume   280.11619750
_cell_formula_units_Z   1
loop_
 _symmetry_equiv_pos_site_id
 _symmetry_equiv_pos_as_xyz
  1  'x, y, z'
loop_
 _atom_site_type_symbol
 _atom_site_label
 _atom_site_symmetry_multiplicity
 _atom_site_fract_x
 _atom_site_fract_y
 _atom_site_fract_z
 _atom_site_occupancy
  C  C0  1  0.75249000  0.00087800  0.50008400  1
  C  C1  1  0.24627900  0.25431800  0.74324700  1
  C  C2  1  0.24751000  0.99912200  0.49991600  1
  C  C3  1  0.74974300  0.25468600  0.74274500  1
  C  C4  1  0.75110500  0.50266100  0.00085400  1
  C  C5  1  0.24889500  0.49733900  0.99914600  1
  C  C6  1  0.25025700  0.74531400  0.25725500  1
  C  C7  1  0.75372100  0.74568200  0.25675300  1
  C  C8  1  0.50000000  0.50000000  0.50000000  1
  Ni  Ni9  1  0.01125900  0.25551400  0.25332300  1
  Ni  Ni10  1  0.98874100  0.74448600  0.74667700  1
  Cu  Cu11  1  0.50000000  0.00000000  0.00000000  1
  Cu  Cu12  1  0.50810300  0.25454400  0.25362300  1
  Cu  Cu13  1  0.00000000  0.50000000  0.50000000  1
  Cu  Cu14  1  0.49189700  0.74545600  0.74637700  1
  Cu  Cu15  1  0.00000000  0.00000000  0.00000000  1
  C  C16  1  0.11156800  0.25856200  0.48644500  1
  C  C17  1  0.64826300  0.53129500  0.75205200  1
  C  C18  1  0.64501800  0.26896500  0.48284200  1
  C  C19  1  0.10200400  0.50534000  0.73995300  1
  C  C20  1  0.11345500  0.76335000  0.99069800  1
  C  C21  1  0.60899800  0.76327200  0.98620200  1
  C  C22  1  0.64537500  0.02796800  0.23996800  1
  C  C23  1  0.10947200  0.00758500  0.23926800  1
  C  C24  1  0.35498200  0.73103500  0.51715800  1
  C  C25  1  0.89052800  0.99241500  0.76073200  1
  C  C26  1  0.88843200  0.74143800  0.51355500  1
  C  C27  1  0.35462500  0.97203200  0.76003200  1
  C  C28  1  0.39100200  0.23672800  0.01379800  1
  C  C29  1  0.88654500  0.23665000  0.00930200  1
  C  C30  1  0.89799600  0.49466000  0.26004700  1
  C  C31  1  0.35173700  0.46870500  0.24794800  1
