# generated using pymatgen
data_Cu2NiC8
_symmetry_space_group_name_H-M   'P 1'
_cell_length_a   5.82508100
_cell_length_b   5.04710200
_cell_length_c   10.52475235
_cell_angle_alpha   62.47257364
_cell_angle_beta   90.00000000
_cell_angle_gamma   90.00000000
_symmetry_Int_Tables_number   1
_chemical_formula_structural   Cu2NiC8
_chemical_formula_sum   'Cu4 Ni2 C16'
_cell_volume   274.39524250
_cell_formula_units_Z   2
loop_
 _symmetry_equiv_pos_site_id
 _symmetry_equiv_pos_as_xyz
  1  'x, y, z'
loop_
 _atom_site_type_symbol
 _atom_site_label
 _atom_site_symmetry_multiplicity
 _atom_site_fract_x
 _atom_site_fract_y
 _atom_site_fract_z
 _atom_site_occupancy
  Ni  Ni0  1  0.37179100  0.50000000  0.75000000  1
  Ni  Ni1  1  0.62820900  0.50000000  0.25000000  1
  Cu  Cu2  1  0.16219400  0.26413800  0.49772300  1
  Cu  Cu3  1  0.16219400  0.73586200  0.00227700  1
  Cu  Cu4  1  0.83780600  0.73586200  0.50227700  1
  Cu  Cu5  1  0.83780600  0.26413800  0.99772300  1
  C  C6  1  0.33838300  0.71174900  0.86122200  1
  C  C7  1  0.33838300  0.28825100  0.63877800  1
  C  C8  1  0.66161700  0.28825100  0.13877800  1
  C  C9  1  0.66161700  0.71174900  0.36122200  1
  C  C10  1  0.88549000  0.18338000  0.39307800  1
  C  C11  1  0.88549000  0.81662000  0.10692200  1
  C  C12  1  0.11451000  0.81662000  0.60692200  1
  C  C13  1  0.11451000  0.18338000  0.89307800  1
  C  C14  1  0.60184700  0.25639500  0.87883200  1
  C  C15  1  0.60184700  0.74360500  0.62116800  1
  C  C16  1  0.39815300  0.74360500  0.12116800  1
  C  C17  1  0.39815300  0.25639500  0.37883200  1
  C  C18  1  0.89155100  0.67335700  0.88930300  1
  C  C19  1  0.10844900  0.32664300  0.11069700  1
  C  C20  1  0.89155100  0.32664300  0.61069700  1
  C  C21  1  0.10844900  0.67335700  0.38930300  1
