# generated using pymatgen
data_Cu2Ni2C27
_symmetry_space_group_name_H-M   'P 1'
_cell_length_a   11.99284791
_cell_length_b   11.99284791
_cell_length_c   11.46085205
_cell_angle_alpha   77.68643169
_cell_angle_beta   77.68643169
_cell_angle_gamma   32.34790583
_symmetry_Int_Tables_number   1
_chemical_formula_structural   Cu2Ni2C27
_chemical_formula_sum   'Cu4 Ni4 C54'
_cell_volume   859.97026923
_cell_formula_units_Z   2
loop_
 _symmetry_equiv_pos_site_id
 _symmetry_equiv_pos_as_xyz
  1  'x, y, z'
loop_
 _atom_site_type_symbol
 _atom_site_label
 _atom_site_symmetry_multiplicity
 _atom_site_fract_x
 _atom_site_fract_y
 _atom_site_fract_z
 _atom_site_occupancy
  Ni  Ni0  1  0.74709200  0.36256400  0.90634600  1
  Ni  Ni1  1  0.63743600  0.25290800  0.59365400  1
  Ni  Ni2  1  0.25290800  0.63743600  0.09365400  1
  Ni  Ni3  1  0.36256400  0.74709200  0.40634600  1
  Cu  Cu4  1  0.81110000  0.64653600  0.82587800  1
  Cu  Cu5  1  0.35346400  0.18890000  0.67412200  1
  Cu  Cu6  1  0.18890000  0.35346400  0.17412200  1
  Cu  Cu7  1  0.64653600  0.81110000  0.32587800  1
  C  C8  1  0.22616900  0.87699500  0.76574700  1
  C  C9  1  0.12300500  0.77383100  0.73425300  1
  C  C10  1  0.77383100  0.12300500  0.23425300  1
  C  C11  1  0.87699500  0.22616900  0.26574700  1
  C  C12  1  0.11001100  0.22422900  0.01497400  1
  C  C13  1  0.77577100  0.88998900  0.48502600  1
  C  C14  1  0.88998900  0.77577100  0.98502600  1
  C  C15  1  0.22422900  0.11001100  0.51497400  1
  C  C16  1  0.44191200  0.85836800  0.07409600  1
  C  C17  1  0.14163200  0.55808800  0.42590400  1
  C  C18  1  0.55808800  0.14163200  0.92590400  1
  C  C19  1  0.85836800  0.44191200  0.57409600  1
  C  C20  1  0.31706000  0.95357700  0.87096300  1
  C  C21  1  0.04642300  0.68294000  0.62903700  1
  C  C22  1  0.68294000  0.04642300  0.12903700  1
  C  C23  1  0.95357700  0.31706000  0.37096300  1
  C  C24  1  0.49130700  0.79716400  0.66361600  1
  C  C25  1  0.20283600  0.50869300  0.83638400  1
  C  C26  1  0.50869300  0.20283600  0.33638400  1
  C  C27  1  0.79716400  0.49130700  0.16361600  1
  C  C28  1  0.09922200  0.56375700  0.73920500  1
  C  C29  1  0.43624300  0.90077800  0.76079500  1
  C  C30  1  0.90077800  0.43624300  0.26079500  1
  C  C31  1  0.56375700  0.09922200  0.23920500  1
  C  C32  1  0.91968200  0.42717400  0.04527800  1
  C  C33  1  0.57282600  0.08031800  0.45472200  1
  C  C34  1  0.08031800  0.57282600  0.95472200  1
  C  C35  1  0.42717400  0.91968200  0.54527800  1
  C  C36  1  0.76891900  0.38839000  0.18095100  1
  C  C37  1  0.61161000  0.23108100  0.31904900  1
  C  C38  1  0.23108100  0.61161000  0.81904900  1
  C  C39  1  0.38839000  0.76891900  0.68095100  1
  C  C40  1  0.46226400  0.80120800  0.97098500  1
  C  C41  1  0.19879200  0.53773600  0.52901500  1
  C  C42  1  0.53773600  0.19879200  0.02901500  1
  C  C43  1  0.80120800  0.46226400  0.47098500  1
  C  C44  1  0.73972100  0.92935400  0.90010400  1
  C  C45  1  0.07064600  0.26027900  0.59989600  1
  C  C46  1  0.26027900  0.07064600  0.09989600  1
  C  C47  1  0.92935400  0.73972100  0.40010400  1
  C  C48  1  0.15438100  0.17309000  0.89994200  1
  C  C49  1  0.82691000  0.84561900  0.60005800  1
  C  C50  1  0.84561900  0.82691000  0.10005800  1
  C  C51  1  0.17309000  0.15438100  0.39994200  1
  C  C52  1  0.20158900  0.94399100  0.86481800  1
  C  C53  1  0.05600900  0.79841100  0.63518200  1
  C  C54  1  0.79841100  0.05600900  0.13518200  1
  C  C55  1  0.94399100  0.20158900  0.36481800  1
  C  C56  1  0.07834800  0.92165200  0.75000000  1
  C  C57  1  0.92165200  0.07834800  0.25000000  1
  C  C58  1  0.72223600  0.58767400  0.65792900  1
  C  C59  1  0.41232600  0.27776400  0.84207100  1
  C  C60  1  0.27776400  0.41232600  0.34207100  1
  C  C61  1  0.58767400  0.72223600  0.15792900  1
