# generated using pymatgen
data_CuNiC6
_symmetry_space_group_name_H-M   'P 1'
_cell_length_a   5.01553800
_cell_length_b   6.25878000
_cell_length_c   10.97432700
_cell_angle_alpha   90.00000000
_cell_angle_beta   90.00000000
_cell_angle_gamma   90.00000000
_symmetry_Int_Tables_number   1
_chemical_formula_structural   CuNiC6
_chemical_formula_sum   'Cu4 Ni4 C24'
_cell_volume   344.49673319
_cell_formula_units_Z   4
loop_
 _symmetry_equiv_pos_site_id
 _symmetry_equiv_pos_as_xyz
  1  'x, y, z'
loop_
 _atom_site_type_symbol
 _atom_site_label
 _atom_site_symmetry_multiplicity
 _atom_site_fract_x
 _atom_site_fract_y
 _atom_site_fract_z
 _atom_site_occupancy
  C  C0  1  0.18192300  0.00073000  0.58617300  1
  C  C1  1  0.31807700  0.00073000  0.08617300  1
  C  C2  1  0.31807700  0.49927000  0.08617300  1
  C  C3  1  0.18192300  0.49927000  0.58617300  1
  C  C4  1  0.68192300  0.50073000  0.91382700  1
  C  C5  1  0.81807700  0.50073000  0.41382700  1
  C  C6  1  0.81807700  0.99927000  0.41382700  1
  C  C7  1  0.68192300  0.99927000  0.91382700  1
  Ni  Ni8  1  0.67306500  0.25000000  0.66976400  1
  Ni  Ni9  1  0.82693500  0.25000000  0.16976400  1
  Ni  Ni10  1  0.32693500  0.75000000  0.33023600  1
  Ni  Ni11  1  0.17306500  0.75000000  0.83023600  1
  Cu  Cu12  1  0.17763700  0.25000000  0.83777200  1
  Cu  Cu13  1  0.32236300  0.25000000  0.33777200  1
  Cu  Cu14  1  0.67763700  0.75000000  0.66222800  1
  Cu  Cu15  1  0.82236300  0.75000000  0.16222800  1
  C  C16  1  0.77624200  0.01130500  0.59294800  1
  C  C17  1  0.72375800  0.01130500  0.09294800  1
  C  C18  1  0.31668600  0.25000000  0.67660500  1
  C  C19  1  0.69938200  0.25000000  0.32213100  1
  C  C20  1  0.18331400  0.25000000  0.17660500  1
  C  C21  1  0.80061800  0.25000000  0.82213100  1
  C  C22  1  0.72375800  0.48869500  0.09294800  1
  C  C23  1  0.77624200  0.48869500  0.59294800  1
  C  C24  1  0.22375800  0.51130500  0.40705200  1
  C  C25  1  0.27624200  0.51130500  0.90705200  1
  C  C26  1  0.68331400  0.75000000  0.32339500  1
  C  C27  1  0.81668600  0.75000000  0.82339500  1
  C  C28  1  0.30061800  0.75000000  0.67786900  1
  C  C29  1  0.19938200  0.75000000  0.17786900  1
  C  C30  1  0.22375800  0.98869500  0.40705200  1
  C  C31  1  0.27624200  0.98869500  0.90705200  1
