# generated using pymatgen
data_Cu12Ni4C7
_symmetry_space_group_name_H-M   'P 1'
_cell_length_a   4.87681400
_cell_length_b   4.90308855
_cell_length_c   21.72405500
_cell_angle_alpha   90.00000000
_cell_angle_beta   90.00000000
_cell_angle_gamma   119.82289091
_symmetry_Int_Tables_number   1
_chemical_formula_structural   Cu12Ni4C7
_chemical_formula_sum   'Cu24 Ni8 C14'
_cell_volume   450.66077840
_cell_formula_units_Z   2
loop_
 _symmetry_equiv_pos_site_id
 _symmetry_equiv_pos_as_xyz
  1  'x, y, z'
loop_
 _atom_site_type_symbol
 _atom_site_label
 _atom_site_symmetry_multiplicity
 _atom_site_fract_x
 _atom_site_fract_y
 _atom_site_fract_z
 _atom_site_occupancy
  C  C0  1  0.50000000  0.00000000  0.50000000  1
  C  C1  1  0.00000000  0.00000000  0.00000000  1
  C  C2  1  0.82992300  0.67090800  0.41277900  1
  C  C3  1  0.84098500  0.67090800  0.58722100  1
  C  C4  1  0.34098500  0.67090800  0.91277900  1
  C  C5  1  0.32992300  0.67090800  0.08722100  1
  C  C6  1  0.17007700  0.32909200  0.58722100  1
  C  C7  1  0.15901500  0.32909200  0.41277900  1
  C  C8  1  0.65901500  0.32909200  0.08722100  1
  C  C9  1  0.67007700  0.32909200  0.91277900  1
  C  C10  1  0.90601800  0.00000000  0.28896800  1
  C  C11  1  0.09398200  0.00000000  0.71103200  1
  C  C12  1  0.59398200  0.00000000  0.78896800  1
  C  C13  1  0.40601800  0.00000000  0.21103200  1
  Ni  Ni14  1  0.25232300  0.51748300  0.31274500  1
  Ni  Ni15  1  0.26516000  0.51748300  0.68725500  1
  Ni  Ni16  1  0.76516000  0.51748300  0.81274500  1
  Ni  Ni17  1  0.75232300  0.51748300  0.18725500  1
  Ni  Ni18  1  0.74767700  0.48251700  0.68725500  1
  Ni  Ni19  1  0.73484000  0.48251700  0.31274500  1
  Ni  Ni20  1  0.23484000  0.48251700  0.18725500  1
  Ni  Ni21  1  0.24767700  0.48251700  0.81274500  1
  Cu  Cu22  1  0.12934000  0.30386500  0.33460100  1
  Cu  Cu23  1  0.17452500  0.30386500  0.66539900  1
  Cu  Cu24  1  0.67452500  0.30386500  0.83460100  1
  Cu  Cu25  1  0.62934000  0.30386500  0.16539900  1
  Cu  Cu26  1  0.87066000  0.69613500  0.66539900  1
  Cu  Cu27  1  0.82547500  0.69613500  0.33460100  1
  Cu  Cu28  1  0.32547500  0.69613500  0.16539900  1
  Cu  Cu29  1  0.37066000  0.69613500  0.83460100  1
  Cu  Cu30  1  0.12761400  0.62921300  0.43410100  1
  Cu  Cu31  1  0.50159900  0.62921300  0.56589900  1
  Cu  Cu32  1  0.00159900  0.62921300  0.93410100  1
  Cu  Cu33  1  0.62761400  0.62921300  0.06589900  1
  Cu  Cu34  1  0.87238600  0.37078700  0.56589900  1
  Cu  Cu35  1  0.49840100  0.37078700  0.43410100  1
  Cu  Cu36  1  0.99840100  0.37078700  0.06589900  1
  Cu  Cu37  1  0.37238600  0.37078700  0.93410100  1
  Cu  Cu38  1  0.58173400  0.00000000  0.27306000  1
  Cu  Cu39  1  0.41826600  0.00000000  0.72694000  1
  Cu  Cu40  1  0.91826600  0.00000000  0.77306000  1
  Cu  Cu41  1  0.08173400  0.00000000  0.22694000  1
  Cu  Cu42  1  0.86985600  0.00000000  0.43736500  1
  Cu  Cu43  1  0.13014400  0.00000000  0.56263500  1
  Cu  Cu44  1  0.63014400  0.00000000  0.93736500  1
  Cu  Cu45  1  0.36985600  0.00000000  0.06263500  1
