# generated using pymatgen
data_Cu8NiC
_symmetry_space_group_name_H-M   'P 1'
_cell_length_a   14.89718600
_cell_length_b   5.92577900
_cell_length_c   8.59803080
_cell_angle_alpha   80.99247275
_cell_angle_beta   90.00000000
_cell_angle_gamma   90.00000000
_symmetry_Int_Tables_number   1
_chemical_formula_structural   Cu8NiC
_chemical_formula_sum   'Cu32 Ni4 C4'
_cell_volume   749.65177563
_cell_formula_units_Z   4
loop_
 _symmetry_equiv_pos_site_id
 _symmetry_equiv_pos_as_xyz
  1  'x, y, z'
loop_
 _atom_site_type_symbol
 _atom_site_label
 _atom_site_symmetry_multiplicity
 _atom_site_fract_x
 _atom_site_fract_y
 _atom_site_fract_z
 _atom_site_occupancy
  C  C0  1  0.07495600  0.51125500  0.67993600  1
  C  C1  1  0.92504400  0.48874500  0.32006400  1
  C  C2  1  0.57495600  0.98874500  0.32006400  1
  C  C3  1  0.42504400  0.01125500  0.67993600  1
  Ni  Ni4  1  0.61047400  0.78643800  0.67018600  1
  Ni  Ni5  1  0.38952600  0.21356200  0.32981400  1
  Ni  Ni6  1  0.11047400  0.71356200  0.32981400  1
  Ni  Ni7  1  0.88952600  0.28643800  0.67018600  1
  Cu  Cu8  1  0.10802800  0.76596400  0.91197900  1
  Cu  Cu9  1  0.89197200  0.23403600  0.08802100  1
  Cu  Cu10  1  0.60802800  0.73403600  0.08802100  1
  Cu  Cu11  1  0.39197200  0.26596400  0.91197900  1
  Cu  Cu12  1  0.37474100  0.06184700  0.88702900  1
  Cu  Cu13  1  0.62525900  0.93815300  0.11297100  1
  Cu  Cu14  1  0.87474100  0.43815300  0.11297100  1
  Cu  Cu15  1  0.12525900  0.56184700  0.88702900  1
  Cu  Cu16  1  0.55934600  0.99269300  0.70851800  1
  Cu  Cu17  1  0.44065400  0.00730700  0.29148200  1
  Cu  Cu18  1  0.05934600  0.50730700  0.29148200  1
  Cu  Cu19  1  0.94065400  0.49269300  0.70851800  1
  Cu  Cu20  1  0.35668600  0.74097600  0.62644500  1
  Cu  Cu21  1  0.64331400  0.25902400  0.37355500  1
  Cu  Cu22  1  0.85668600  0.75902400  0.37355500  1
  Cu  Cu23  1  0.14331400  0.24097600  0.62644500  1
  Cu  Cu24  1  0.07514500  0.75304200  0.49005200  1
  Cu  Cu25  1  0.92485500  0.24695800  0.50994800  1
  Cu  Cu26  1  0.57514500  0.74695800  0.50994800  1
  Cu  Cu27  1  0.42485500  0.25304200  0.49005200  1
  Cu  Cu28  1  0.28546200  0.67636300  0.70418200  1
  Cu  Cu29  1  0.71453800  0.32363700  0.29581800  1
  Cu  Cu30  1  0.78546200  0.82363700  0.29581800  1
  Cu  Cu31  1  0.21453800  0.17636300  0.70418200  1
  Cu  Cu32  1  0.70311200  0.84402700  0.66129400  1
  Cu  Cu33  1  0.29688800  0.15597300  0.33870600  1
  Cu  Cu34  1  0.20311200  0.65597300  0.33870600  1
  Cu  Cu35  1  0.79688800  0.34402700  0.66129400  1
  Cu  Cu36  1  0.58800900  0.58765000  0.77943200  1
  Cu  Cu37  1  0.41199100  0.41235000  0.22056800  1
  Cu  Cu38  1  0.08800900  0.91235000  0.22056800  1
  Cu  Cu39  1  0.91199100  0.08765000  0.77943200  1
