# generated using pymatgen
data_CuNiC12
_symmetry_space_group_name_H-M   'P 1'
_cell_length_a   7.93194400
_cell_length_b   8.78569300
_cell_length_c   9.16530800
_cell_angle_alpha   90.00000000
_cell_angle_beta   90.00000000
_cell_angle_gamma   90.00000000
_symmetry_Int_Tables_number   1
_chemical_formula_structural   CuNiC12
_chemical_formula_sum   'Cu4 Ni4 C48'
_cell_volume   638.70854579
_cell_formula_units_Z   4
loop_
 _symmetry_equiv_pos_site_id
 _symmetry_equiv_pos_as_xyz
  1  'x, y, z'
loop_
 _atom_site_type_symbol
 _atom_site_label
 _atom_site_symmetry_multiplicity
 _atom_site_fract_x
 _atom_site_fract_y
 _atom_site_fract_z
 _atom_site_occupancy
  Ni  Ni0  1  0.25000000  0.05460900  0.93327500  1
  Ni  Ni1  1  0.25000000  0.55460900  0.56672500  1
  Ni  Ni2  1  0.75000000  0.94539100  0.06672500  1
  Ni  Ni3  1  0.75000000  0.44539100  0.43327500  1
  Cu  Cu4  1  0.25000000  0.41244400  0.91458000  1
  Cu  Cu5  1  0.25000000  0.91244400  0.58542000  1
  Cu  Cu6  1  0.75000000  0.58755600  0.08542000  1
  Cu  Cu7  1  0.75000000  0.08755600  0.41458000  1
  C  C8  1  0.56315500  0.06944900  0.80864300  1
  C  C9  1  0.93684500  0.56944900  0.69135700  1
  C  C10  1  0.06315500  0.93055100  0.19135700  1
  C  C11  1  0.43684500  0.43055100  0.30864300  1
  C  C12  1  0.43684500  0.93055100  0.19135700  1
  C  C13  1  0.06315500  0.43055100  0.30864300  1
  C  C14  1  0.93684500  0.06944900  0.80864300  1
  C  C15  1  0.56315500  0.56944900  0.69135700  1
  C  C16  1  0.05936200  0.27081200  0.58223800  1
  C  C17  1  0.44063800  0.77081200  0.91776200  1
  C  C18  1  0.55936200  0.72918800  0.41776200  1
  C  C19  1  0.94063800  0.22918800  0.08223800  1
  C  C20  1  0.94063800  0.72918800  0.41776200  1
  C  C21  1  0.55936200  0.22918800  0.08223800  1
  C  C22  1  0.44063800  0.27081200  0.58223800  1
  C  C23  1  0.05936200  0.77081200  0.91776200  1
  C  C24  1  0.55806200  0.12940400  0.63969800  1
  C  C25  1  0.94193800  0.62940400  0.86030200  1
  C  C26  1  0.05806200  0.87059600  0.36030200  1
  C  C27  1  0.44193800  0.37059600  0.13969800  1
  C  C28  1  0.44193800  0.87059600  0.36030200  1
  C  C29  1  0.05806200  0.37059600  0.13969800  1
  C  C30  1  0.94193800  0.12940400  0.63969800  1
  C  C31  1  0.55806200  0.62940400  0.86030200  1
  C  C32  1  0.02421500  0.19652400  0.92105100  1
  C  C33  1  0.47578500  0.69652400  0.57894900  1
  C  C34  1  0.52421500  0.80347600  0.07894900  1
  C  C35  1  0.97578500  0.30347600  0.42105100  1
  C  C36  1  0.97578500  0.80347600  0.07894900  1
  C  C37  1  0.52421500  0.30347600  0.42105100  1
  C  C38  1  0.47578500  0.19652400  0.92105100  1
  C  C39  1  0.02421500  0.69652400  0.57894900  1
  C  C40  1  0.06622900  0.42291900  0.68446900  1
  C  C41  1  0.43377100  0.92291900  0.81553100  1
  C  C42  1  0.56622900  0.57708100  0.31553100  1
  C  C43  1  0.93377100  0.07708100  0.18446900  1
  C  C44  1  0.93377100  0.57708100  0.31553100  1
  C  C45  1  0.56622900  0.07708100  0.18446900  1
  C  C46  1  0.43377100  0.42291900  0.68446900  1
  C  C47  1  0.06622900  0.92291900  0.81553100  1
  C  C48  1  0.25000000  0.19755900  0.58177000  1
  C  C49  1  0.25000000  0.69755900  0.91823000  1
  C  C50  1  0.75000000  0.80244100  0.41823000  1
  C  C51  1  0.75000000  0.30244100  0.08177000  1
  C  C52  1  0.25000000  0.47901000  0.36035800  1
  C  C53  1  0.25000000  0.97901000  0.13964200  1
  C  C54  1  0.75000000  0.52099000  0.63964200  1
  C  C55  1  0.75000000  0.02099000  0.86035800  1
