# generated using pymatgen
data_Cu3Ni2C15
_symmetry_space_group_name_H-M   'P 1'
_cell_length_a   6.71730600
_cell_length_b   10.05188800
_cell_length_c   10.18101400
_cell_angle_alpha   90.00000000
_cell_angle_beta   90.00000000
_cell_angle_gamma   90.00000000
_symmetry_Int_Tables_number   1
_chemical_formula_structural   Cu3Ni2C15
_chemical_formula_sum   'Cu6 Ni4 C30'
_cell_volume   687.43843201
_cell_formula_units_Z   2
loop_
 _symmetry_equiv_pos_site_id
 _symmetry_equiv_pos_as_xyz
  1  'x, y, z'
loop_
 _atom_site_type_symbol
 _atom_site_label
 _atom_site_symmetry_multiplicity
 _atom_site_fract_x
 _atom_site_fract_y
 _atom_site_fract_z
 _atom_site_occupancy
  C  C0  1  0.97184100  0.00000000  0.00000000  1
  C  C1  1  0.02815900  0.50000000  0.50000000  1
  Ni  Ni2  1  0.87334300  0.84399700  0.60837500  1
  Ni  Ni3  1  0.87334300  0.15600300  0.39162500  1
  Ni  Ni4  1  0.12665700  0.34399700  0.89162500  1
  Ni  Ni5  1  0.12665700  0.65600300  0.10837500  1
  Cu  Cu6  1  0.89796900  0.61420200  0.84216900  1
  Cu  Cu7  1  0.89796900  0.38579800  0.15783100  1
  Cu  Cu8  1  0.10203100  0.11420200  0.65783100  1
  Cu  Cu9  1  0.10203100  0.88579800  0.34216900  1
  Cu  Cu10  1  0.52732500  0.50000000  0.00000000  1
  Cu  Cu11  1  0.47267500  0.00000000  0.50000000  1
  C  C12  1  0.45033900  0.70236200  0.65185800  1
  C  C13  1  0.45033900  0.29763800  0.34814200  1
  C  C14  1  0.54966100  0.20236200  0.84814200  1
  C  C15  1  0.54966100  0.79763800  0.15185800  1
  C  C16  1  0.48448000  0.90524400  0.87234000  1
  C  C17  1  0.48448000  0.09475600  0.12766000  1
  C  C18  1  0.51552000  0.40524400  0.62766000  1
  C  C19  1  0.51552000  0.59475600  0.37234000  1
  C  C20  1  0.61603600  0.88594000  0.56838700  1
  C  C21  1  0.61603600  0.11406000  0.43161300  1
  C  C22  1  0.38396400  0.38594000  0.93161300  1
  C  C23  1  0.38396400  0.61406000  0.06838700  1
  C  C24  1  0.87660300  0.69750900  0.70437100  1
  C  C25  1  0.87660300  0.30249100  0.29562900  1
  C  C26  1  0.12339700  0.19750900  0.79562900  1
  C  C27  1  0.12339700  0.80249100  0.20437100  1
  C  C28  1  0.97969300  0.97814100  0.69288800  1
  C  C29  1  0.97969300  0.02185900  0.30711200  1
  C  C30  1  0.02030700  0.47814100  0.80711200  1
  C  C31  1  0.02030700  0.52185900  0.19288800  1
  C  C32  1  0.67067500  0.57097600  0.89036800  1
  C  C33  1  0.67067500  0.42902400  0.10963200  1
  C  C34  1  0.32932500  0.07097600  0.60963200  1
  C  C35  1  0.32932500  0.92902400  0.39036800  1
  C  C36  1  0.00448500  0.69976500  0.95985400  1
  C  C37  1  0.00448500  0.30023500  0.04014600  1
  C  C38  1  0.99551500  0.19976500  0.54014600  1
  C  C39  1  0.99551500  0.80023500  0.45985400  1
