# generated using pymatgen
data_Cu2NiC7
_symmetry_space_group_name_H-M   'P 1'
_cell_length_a   6.80222024
_cell_length_b   6.80222024
_cell_length_c   5.29417484
_cell_angle_alpha   76.43316448
_cell_angle_beta   76.43316448
_cell_angle_gamma   84.90365037
_symmetry_Int_Tables_number   1
_chemical_formula_structural   Cu2NiC7
_chemical_formula_sum   'Cu4 Ni2 C14'
_cell_volume   231.33469456
_cell_formula_units_Z   2
loop_
 _symmetry_equiv_pos_site_id
 _symmetry_equiv_pos_as_xyz
  1  'x, y, z'
loop_
 _atom_site_type_symbol
 _atom_site_label
 _atom_site_symmetry_multiplicity
 _atom_site_fract_x
 _atom_site_fract_y
 _atom_site_fract_z
 _atom_site_occupancy
  C  C0  1  0.91762200  0.08237800  0.75000000  1
  C  C1  1  0.08237800  0.91762200  0.25000000  1
  Ni  Ni2  1  0.74147600  0.25852400  0.25000000  1
  Ni  Ni3  1  0.25852400  0.74147600  0.75000000  1
  Cu  Cu4  1  0.39200500  0.21202500  0.73394800  1
  Cu  Cu5  1  0.78797500  0.60799500  0.76605200  1
  Cu  Cu6  1  0.21202500  0.39200500  0.23394800  1
  Cu  Cu7  1  0.60799500  0.78797500  0.26605200  1
  C  C8  1  0.37513500  0.32758700  0.97915900  1
  C  C9  1  0.67241300  0.62486500  0.52084100  1
  C  C10  1  0.62486500  0.67241300  0.02084100  1
  C  C11  1  0.32758700  0.37513500  0.47915900  1
  C  C12  1  0.62604200  0.14036700  0.63200100  1
  C  C13  1  0.85963300  0.37395800  0.86799900  1
  C  C14  1  0.37395800  0.85963300  0.36799900  1
  C  C15  1  0.14036700  0.62604200  0.13200100  1
  C  C16  1  0.03157400  0.22435100  0.34334400  1
  C  C17  1  0.77564900  0.96842600  0.15665600  1
  C  C18  1  0.22435100  0.03157400  0.84334400  1
  C  C19  1  0.96842600  0.77564900  0.65665600  1
