# generated using pymatgen
data_CuNiC8
_symmetry_space_group_name_H-M   'P 1'
_cell_length_a   8.33394486
_cell_length_b   8.36615605
_cell_length_c   8.30814962
_cell_angle_alpha   90.00000000
_cell_angle_beta   90.00000000
_cell_angle_gamma   90.00000000
_symmetry_Int_Tables_number   1
_chemical_formula_structural   CuNiC8
_chemical_formula_sum   'Cu4 Ni4 C32'
_cell_volume   579.26980728
_cell_formula_units_Z   4
loop_
 _symmetry_equiv_pos_site_id
 _symmetry_equiv_pos_as_xyz
  1  'x, y, z'
loop_
 _atom_site_type_symbol
 _atom_site_label
 _atom_site_symmetry_multiplicity
 _atom_site_fract_x
 _atom_site_fract_y
 _atom_site_fract_z
 _atom_site_occupancy
  Ni  Ni0  1  0.00000000  -0.00000000  -0.00000000  1
  Ni  Ni1  1  0.50000000  0.50000000  0.50000000  1
  Ni  Ni2  1  0.00000000  0.50000000  -0.00000000  1
  Ni  Ni3  1  0.00000000  -0.00000000  0.50000000  1
  Cu  Cu4  1  0.00000000  0.50000000  0.50000000  1
  Cu  Cu5  1  0.50000000  -0.00000000  0.50000000  1
  Cu  Cu6  1  0.50000000  0.50000000  -0.00000000  1
  Cu  Cu7  1  0.50000000  -0.00000000  -0.00000000  1
  C  C8  1  0.25305216  0.24973099  0.25062019  1
  C  C9  1  0.74694784  0.75026901  0.25062019  1
  C  C10  1  0.74694784  0.24973099  0.74937981  1
  C  C11  1  0.25305216  0.75026901  0.74937981  1
  C  C12  1  0.74652000  0.74884201  0.74970293  1
  C  C13  1  0.25348000  0.25115799  0.74970293  1
  C  C14  1  0.25348000  0.74884201  0.25029707  1
  C  C15  1  0.74652000  0.25115799  0.25029707  1
  C  C16  1  0.97677112  0.23071867  0.26821775  1
  C  C17  1  0.02322888  0.76928133  0.26821775  1
  C  C18  1  0.02322888  0.23071867  0.73178225  1
  C  C19  1  0.97677112  0.76928133  0.73178225  1
  C  C20  1  0.27946324  0.98257850  0.22558351  1
  C  C21  1  0.27946324  0.01742150  0.77441649  1
  C  C22  1  0.72053676  0.01742150  0.22558351  1
  C  C23  1  0.72053676  0.98257850  0.77441649  1
  C  C24  1  0.23373583  0.27151057  0.97548156  1
  C  C25  1  0.76626417  0.27151057  0.02451844  1
  C  C26  1  0.23373583  0.72848943  0.02451844  1
  C  C27  1  0.76626417  0.72848943  0.97548156  1
  C  C28  1  0.52060755  0.28380610  0.22200920  1
  C  C29  1  0.47939245  0.71619390  0.22200920  1
  C  C30  1  0.47939245  0.28380610  0.77799080  1
  C  C31  1  0.52060755  0.71619390  0.77799080  1
  C  C32  1  0.22508121  0.51873759  0.28230640  1
  C  C33  1  0.22508121  0.48126241  0.71769360  1
  C  C34  1  0.77491879  0.48126241  0.28230640  1
  C  C35  1  0.77491879  0.51873759  0.71769360  1
  C  C36  1  0.28227313  0.22065756  0.52715291  1
  C  C37  1  0.71772687  0.22065756  0.47284709  1
  C  C38  1  0.28227313  0.77934244  0.47284709  1
  C  C39  1  0.71772687  0.77934244  0.52715291  1
