# generated using pymatgen
data_CuNi3C10
_symmetry_space_group_name_H-M   'P 1'
_cell_length_a   9.54710298
_cell_length_b   9.54710298
_cell_length_c   7.75983700
_cell_angle_alpha   90.00000000
_cell_angle_beta   90.00000000
_cell_angle_gamma   120.00000681
_symmetry_Int_Tables_number   1
_chemical_formula_structural   CuNi3C10
_chemical_formula_sum   'Cu3 Ni9 C30'
_cell_volume   612.52866163
_cell_formula_units_Z   3
loop_
 _symmetry_equiv_pos_site_id
 _symmetry_equiv_pos_as_xyz
  1  'x, y, z'
loop_
 _atom_site_type_symbol
 _atom_site_label
 _atom_site_symmetry_multiplicity
 _atom_site_fract_x
 _atom_site_fract_y
 _atom_site_fract_z
 _atom_site_occupancy
  Ni  Ni0  1  0.33392400  0.33350700  0.25102200  1
  Ni  Ni1  1  0.99958400  0.66607600  0.25102200  1
  Ni  Ni2  1  0.66649300  0.00041600  0.25102200  1
  Ni  Ni3  1  0.66607600  0.66649300  0.74897800  1
  Ni  Ni4  1  0.00041600  0.33392400  0.74897800  1
  Ni  Ni5  1  0.33350700  0.99958400  0.74897800  1
  Ni  Ni6  1  0.33333300  0.66666700  0.50240300  1
  Ni  Ni7  1  0.66666700  0.33333300  0.49759700  1
  Ni  Ni8  1  0.00000000  0.00000000  0.50000000  1
  Cu  Cu9  1  0.33333300  0.66666700  0.03076500  1
  Cu  Cu10  1  0.66666700  0.33333300  0.96923500  1
  Cu  Cu11  1  0.00000000  0.00000000  0.00000000  1
  C  C12  1  0.32768800  0.34045500  0.77707400  1
  C  C13  1  0.01276800  0.67231200  0.77707400  1
  C  C14  1  0.65954500  0.98723200  0.77707400  1
  C  C15  1  0.67231200  0.65954500  0.22292600  1
  C  C16  1  0.98723200  0.32768800  0.22292600  1
  C  C17  1  0.34045500  0.01276800  0.22292600  1
  C  C18  1  0.48742700  0.33459300  0.80087100  1
  C  C19  1  0.84716600  0.51257300  0.80087100  1
  C  C20  1  0.66540700  0.15283400  0.80087100  1
  C  C21  1  0.51257300  0.66540700  0.19912900  1
  C  C22  1  0.15283400  0.48742700  0.19912900  1
  C  C23  1  0.33459300  0.84716600  0.19912900  1
  C  C24  1  0.33727800  0.48214000  0.88834000  1
  C  C25  1  0.14486300  0.66272200  0.88834000  1
  C  C26  1  0.51786000  0.85513700  0.88834000  1
  C  C27  1  0.66272200  0.51786000  0.11166000  1
  C  C28  1  0.85513700  0.33727800  0.11166000  1
  C  C29  1  0.48214000  0.14486300  0.11166000  1
  C  C30  1  0.18252600  0.17649300  0.84112000  1
  C  C31  1  0.99396700  0.81747400  0.84112000  1
  C  C32  1  0.82350700  0.00603300  0.84112000  1
  C  C33  1  0.81747400  0.82350700  0.15888000  1
  C  C34  1  0.00603300  0.18252600  0.15888000  1
  C  C35  1  0.17649300  0.99396700  0.15888000  1
  C  C36  1  0.36740000  0.06659000  0.41129300  1
  C  C37  1  0.93341000  0.30081000  0.41129300  1
  C  C38  1  0.69919000  0.63260000  0.41129300  1
  C  C39  1  0.63260000  0.93341000  0.58870700  1
  C  C40  1  0.06659000  0.69919000  0.58870700  1
  C  C41  1  0.30081000  0.36740000  0.58870700  1
