# generated using pymatgen
data_CuNi3C14
_symmetry_space_group_name_H-M   'P 1'
_cell_length_a   6.92883753
_cell_length_b   6.92883753
_cell_length_c   13.04399288
_cell_angle_alpha   80.98525511
_cell_angle_beta   80.98525511
_cell_angle_gamma   103.22741139
_symmetry_Int_Tables_number   1
_chemical_formula_structural   CuNi3C14
_chemical_formula_sum   'Cu2 Ni6 C28'
_cell_volume   589.88550136
_cell_formula_units_Z   2
loop_
 _symmetry_equiv_pos_site_id
 _symmetry_equiv_pos_as_xyz
  1  'x, y, z'
loop_
 _atom_site_type_symbol
 _atom_site_label
 _atom_site_symmetry_multiplicity
 _atom_site_fract_x
 _atom_site_fract_y
 _atom_site_fract_z
 _atom_site_occupancy
  C  C0  1  0.04430500  0.54161900  0.48630000  1
  C  C1  1  0.54161900  0.04430500  0.98630000  1
  C  C2  1  0.23571000  0.72341000  0.67809600  1
  C  C3  1  0.72341000  0.23571000  0.17809600  1
  C  C4  1  0.54790200  0.86899800  0.55296200  1
  C  C5  1  0.86899800  0.54790200  0.05296200  1
  C  C6  1  0.56170900  0.93729000  0.67865000  1
  C  C7  1  0.93729000  0.56170900  0.17865000  1
  C  C8  1  0.43056000  0.05896500  0.59148800  1
  C  C9  1  0.05896500  0.43056000  0.09148800  1
  C  C10  1  0.16445300  0.39274500  0.78686600  1
  C  C11  1  0.39274500  0.16445300  0.28686600  1
  C  C12  1  0.41045800  0.54379400  0.78877800  1
  C  C13  1  0.54379400  0.41045800  0.28877800  1
  C  C14  1  0.36925900  0.43474200  0.67608000  1
  C  C15  1  0.43474200  0.36925900  0.17608000  1
  C  C16  1  0.05688400  0.95114700  0.74277500  1
  C  C17  1  0.95114700  0.05688400  0.24277500  1
  C  C18  1  0.18005000  0.84490000  0.84007700  1
  C  C19  1  0.84490000  0.18005000  0.34007700  1
  C  C20  1  0.95110200  0.69652700  0.81452900  1
  C  C21  1  0.69652700  0.95110200  0.31452900  1
  C  C22  1  0.46567500  0.91568100  0.61970500  1
  C  C23  1  0.91568100  0.46567500  0.11970500  1
  C  C24  1  0.30090500  0.50232500  0.73836000  1
  C  C25  1  0.50232500  0.30090500  0.23836000  1
  C  C26  1  0.09258900  0.81264700  0.77862300  1
  C  C27  1  0.81264700  0.09258900  0.27862300  1
  Ni  Ni28  1  0.08413600  0.23611200  0.52387400  1
  Ni  Ni29  1  0.23611200  0.08413600  0.02387400  1
  Ni  Ni30  1  0.72849500  0.53039100  0.47884200  1
  Ni  Ni31  1  0.53039100  0.72849500  0.97884200  1
  Ni  Ni32  1  0.24176500  0.71390600  0.33676600  1
  Ni  Ni33  1  0.71390600  0.24176500  0.83676600  1
  Cu  Cu34  1  0.10410500  0.67970000  0.59483000  1
  Cu  Cu35  1  0.67970000  0.10410500  0.09483000  1
