# generated using pymatgen
data_Cu3NiC2
_symmetry_space_group_name_H-M   'P 1'
_cell_length_a   3.27412798
_cell_length_b   3.27412798
_cell_length_c   42.00748500
_cell_angle_alpha   90.00000000
_cell_angle_beta   90.00000000
_cell_angle_gamma   119.99999959
_symmetry_Int_Tables_number   1
_chemical_formula_structural   Cu3NiC2
_chemical_formula_sum   'Cu6 Ni2 C4'
_cell_volume   389.98564098
_cell_formula_units_Z   2
loop_
 _symmetry_equiv_pos_site_id
 _symmetry_equiv_pos_as_xyz
  1  'x, y, z'
loop_
 _atom_site_type_symbol
 _atom_site_label
 _atom_site_symmetry_multiplicity
 _atom_site_fract_x
 _atom_site_fract_y
 _atom_site_fract_z
 _atom_site_occupancy
  Ni  Ni0  1  0.66666700  0.33333300  0.42355500  1
  Ni  Ni1  1  0.66666700  0.33333300  0.51578900  1
  C  C2  1  0.33333300  0.66666700  0.09372000  1
  C  C3  1  0.33333300  0.66666700  0.46967500  1
  C  C4  1  0.66666700  0.33333300  0.27948600  1
  C  C5  1  0.66666700  0.33333300  0.66004700  1
  Cu  Cu6  1  0.33333300  0.66666700  0.31623300  1
  Cu  Cu7  1  0.33333300  0.66666700  0.69681200  1
  Cu  Cu8  1  0.66666700  0.33333300  0.05695800  1
  Cu  Cu9  1  0.66666700  0.33333300  0.13048600  1
  Cu  Cu10  1  0.33333300  0.66666700  0.24271300  1
  Cu  Cu11  1  0.33333300  0.66666700  0.62327600  1
