# generated using pymatgen
data_Cu6NiC2
_symmetry_space_group_name_H-M   'P 1'
_cell_length_a   5.16952391
_cell_length_b   5.16952391
_cell_length_c   5.84559700
_cell_angle_alpha   90.00000000
_cell_angle_beta   90.00000000
_cell_angle_gamma   119.99999879
_symmetry_Int_Tables_number   1
_chemical_formula_structural   Cu6NiC2
_chemical_formula_sum   'Cu6 Ni1 C2'
_cell_volume   135.28841364
_cell_formula_units_Z   1
loop_
 _symmetry_equiv_pos_site_id
 _symmetry_equiv_pos_as_xyz
  1  'x, y, z'
loop_
 _atom_site_type_symbol
 _atom_site_label
 _atom_site_symmetry_multiplicity
 _atom_site_fract_x
 _atom_site_fract_y
 _atom_site_fract_z
 _atom_site_occupancy
  C  C0  1  0.00000000  0.00000000  0.00000000  1
  C  C1  1  0.33333300  0.66666700  0.50000000  1
  Ni  Ni2  1  0.66666700  0.33333300  0.50000000  1
  Cu  Cu3  1  0.39146500  0.00798000  0.68714000  1
  Cu  Cu4  1  0.99202000  0.38348500  0.68714000  1
  Cu  Cu5  1  0.61651500  0.60853500  0.68714000  1
  Cu  Cu6  1  0.99202000  0.60853500  0.31286000  1
  Cu  Cu7  1  0.61651500  0.00798000  0.31286000  1
  Cu  Cu8  1  0.39146500  0.38348500  0.31286000  1
