# generated using pymatgen
data_Cu4Ni2C7
_symmetry_space_group_name_H-M   'P 1'
_cell_length_a   6.48647200
_cell_length_b   6.48647300
_cell_length_c   10.54203400
_cell_angle_alpha   90.00001427
_cell_angle_beta   89.99996603
_cell_angle_gamma   89.99996467
_symmetry_Int_Tables_number   1
_chemical_formula_structural   Cu4Ni2C7
_chemical_formula_sum   'Cu8 Ni4 C14'
_cell_volume   443.54896988
_cell_formula_units_Z   2
loop_
 _symmetry_equiv_pos_site_id
 _symmetry_equiv_pos_as_xyz
  1  'x, y, z'
loop_
 _atom_site_type_symbol
 _atom_site_label
 _atom_site_symmetry_multiplicity
 _atom_site_fract_x
 _atom_site_fract_y
 _atom_site_fract_z
 _atom_site_occupancy
  Ni  Ni0  1  0.31125700  0.68874300  0.99999900  1
  Ni  Ni1  1  0.68874800  0.31125000  0.00000000  1
  Ni  Ni2  1  0.81124900  0.81125200  0.50000100  1
  Ni  Ni3  1  0.18874500  0.18874700  0.50000000  1
  Cu  Cu4  1  0.00000400  0.99999600  0.22392500  1
  Cu  Cu5  1  0.00000400  0.99999500  0.77607600  1
  Cu  Cu6  1  0.49999800  0.49999600  0.72392500  1
  Cu  Cu7  1  0.49999700  0.49999600  0.27607500  1
  Cu  Cu8  1  0.00000300  0.49999900  0.25000000  1
  Cu  Cu9  1  0.00000300  0.49999800  0.75000000  1
  Cu  Cu10  1  0.49999700  0.99999900  0.25000000  1
  Cu  Cu11  1  0.49999700  0.99999800  0.75000000  1
  C  C12  1  0.79224500  0.79223200  0.99999800  1
  C  C13  1  0.70775100  0.29224200  0.50000000  1
  C  C14  1  0.20778900  0.20779600  0.00000000  1
  C  C15  1  0.29220800  0.70779300  0.49999900  1
  C  C16  1  0.00000000  0.00000000  0.00000000  1
  C  C17  1  0.49999800  0.49999700  0.50000000  1
  C  C18  1  0.29105400  0.29105000  0.16260500  1
  C  C19  1  0.70894500  0.70894200  0.83739300  1
  C  C20  1  0.70894500  0.70894300  0.16260800  1
  C  C21  1  0.20894800  0.79105000  0.66260400  1
  C  C22  1  0.20894900  0.79105100  0.33739600  1
  C  C23  1  0.29105400  0.29104900  0.83739500  1
  C  C24  1  0.79105500  0.20894300  0.33739300  1
  C  C25  1  0.79105500  0.20894300  0.66260700  1
