# generated using pymatgen
data_CuNi11C8
_symmetry_space_group_name_H-M   'P 1'
_cell_length_a   5.38678750
_cell_length_b   5.38678750
_cell_length_c   20.69065324
_cell_angle_alpha   87.39085386
_cell_angle_beta   87.39085386
_cell_angle_gamma   119.88077535
_symmetry_Int_Tables_number   1
_chemical_formula_structural   CuNi11C8
_chemical_formula_sum   'Cu2 Ni22 C16'
_cell_volume   518.42277500
_cell_formula_units_Z   2
loop_
 _symmetry_equiv_pos_site_id
 _symmetry_equiv_pos_as_xyz
  1  'x, y, z'
loop_
 _atom_site_type_symbol
 _atom_site_label
 _atom_site_symmetry_multiplicity
 _atom_site_fract_x
 _atom_site_fract_y
 _atom_site_fract_z
 _atom_site_occupancy
  C  C0  1  0.08449300  0.91015400  0.26305400  1
  C  C1  1  0.91015400  0.08449300  0.76305400  1
  C  C2  1  0.33574500  0.16899300  0.49797100  1
  C  C3  1  0.82701300  0.65868200  0.99980000  1
  C  C4  1  0.65868200  0.82701300  0.49980000  1
  C  C5  1  0.16899300  0.33574500  0.99797100  1
  C  C6  1  0.00039700  0.50077300  0.49960100  1
  C  C7  1  0.50077300  0.00039700  0.99960100  1
  C  C8  1  0.72556500  0.21155600  0.36601500  1
  C  C9  1  0.21155600  0.72556500  0.86601500  1
  C  C10  1  0.78894000  0.27911400  0.13377700  1
  C  C11  1  0.27911400  0.78894000  0.63377700  1
  C  C12  1  0.38999100  0.54885800  0.36323200  1
  C  C13  1  0.45677700  0.61232900  0.13380300  1
  C  C14  1  0.61232900  0.45677700  0.63380300  1
  C  C15  1  0.54885800  0.38999100  0.86323200  1
  Ni  Ni16  1  0.55941900  0.39194200  0.33575600  1
  Ni  Ni17  1  0.61286300  0.43550400  0.16323200  1
  Ni  Ni18  1  0.43550400  0.61286300  0.66323200  1
  Ni  Ni19  1  0.39194200  0.55941900  0.83575600  1
  Ni  Ni20  1  0.56749400  0.87951100  0.33339100  1
  Ni  Ni21  1  0.11279900  0.43229900  0.16212300  1
  Ni  Ni22  1  0.43229900  0.11279900  0.66212300  1
  Ni  Ni23  1  0.87951100  0.56749400  0.83339100  1
  Ni  Ni24  1  0.07992700  0.39821300  0.33356000  1
  Ni  Ni25  1  0.61346100  0.93555400  0.16235700  1
  Ni  Ni26  1  0.93555400  0.61346100  0.66235700  1
  Ni  Ni27  1  0.39821300  0.07992700  0.83356000  1
  Ni  Ni28  1  0.68878600  0.18207900  0.45189400  1
  Ni  Ni29  1  0.81138900  0.30721200  0.05513300  1
  Ni  Ni30  1  0.30721200  0.81138900  0.55513300  1
  Ni  Ni31  1  0.18207900  0.68878600  0.95189400  1
  Ni  Ni32  1  0.35725800  0.52348500  0.44435700  1
  Ni  Ni33  1  0.48384300  0.64126400  0.05511100  1
  Ni  Ni34  1  0.64126400  0.48384300  0.55511100  1
  Ni  Ni35  1  0.52348500  0.35725800  0.94435700  1
  Ni  Ni36  1  0.14811000  0.98059800  0.04489700  1
  Ni  Ni37  1  0.98059800  0.14811000  0.54489700  1
  Cu  Cu38  1  0.01564200  0.84196500  0.45093700  1
  Cu  Cu39  1  0.84196500  0.01564200  0.95093700  1
