# generated using pymatgen
data_Cu8Ni5C13
_symmetry_space_group_name_H-M   'P 1'
_cell_length_a   7.26113598
_cell_length_b   7.26113598
_cell_length_c   11.94602918
_cell_angle_alpha   91.78228200
_cell_angle_beta   91.78228200
_cell_angle_gamma   106.38020720
_symmetry_Int_Tables_number   1
_chemical_formula_structural   Cu8Ni5C13
_chemical_formula_sum   'Cu16 Ni10 C26'
_cell_volume   603.46448357
_cell_formula_units_Z   2
loop_
 _symmetry_equiv_pos_site_id
 _symmetry_equiv_pos_as_xyz
  1  'x, y, z'
loop_
 _atom_site_type_symbol
 _atom_site_label
 _atom_site_symmetry_multiplicity
 _atom_site_fract_x
 _atom_site_fract_y
 _atom_site_fract_z
 _atom_site_occupancy
  C  C0  1  0.71935900  0.28064100  0.75000000  1
  C  C1  1  0.28064100  0.71935900  0.25000000  1
  Ni  Ni2  1  0.78304700  0.21695300  0.25000000  1
  Ni  Ni3  1  0.21695300  0.78304700  0.75000000  1
  Ni  Ni4  1  0.99009300  0.25525900  0.42556400  1
  Ni  Ni5  1  0.74474100  0.00990700  0.07443600  1
  Ni  Ni6  1  0.00990700  0.74474100  0.57443600  1
  Ni  Ni7  1  0.25525900  0.99009300  0.92556400  1
  Ni  Ni8  1  0.65316300  0.22677200  0.44152800  1
  Ni  Ni9  1  0.77322800  0.34683700  0.05847200  1
  Ni  Ni10  1  0.34683700  0.77322800  0.55847200  1
  Ni  Ni11  1  0.22677200  0.65316300  0.94152800  1
  Cu  Cu12  1  0.20165400  0.39548400  0.74933100  1
  Cu  Cu13  1  0.60451600  0.79834600  0.75066900  1
  Cu  Cu14  1  0.79834600  0.60451600  0.25066900  1
  Cu  Cu15  1  0.39548400  0.20165400  0.24933100  1
  Cu  Cu16  1  0.19582200  0.17329700  0.74361400  1
  Cu  Cu17  1  0.82670300  0.80417800  0.75638600  1
  Cu  Cu18  1  0.80417800  0.82670300  0.25638600  1
  Cu  Cu19  1  0.17329700  0.19582200  0.24361400  1
  Cu  Cu20  1  0.16001000  0.27611200  0.56206300  1
  Cu  Cu21  1  0.72388800  0.83999000  0.93793700  1
  Cu  Cu22  1  0.83999000  0.72388800  0.43793700  1
  Cu  Cu23  1  0.27611200  0.16001000  0.06206300  1
  Cu  Cu24  1  0.38709400  0.23655000  0.48003400  1
  Cu  Cu25  1  0.76345000  0.61290600  0.01996600  1
  Cu  Cu26  1  0.61290600  0.76345000  0.51996600  1
  Cu  Cu27  1  0.23655000  0.38709400  0.98003400  1
  C  C28  1  0.83317300  0.24051800  0.49161600  1
  C  C29  1  0.75948200  0.16682700  0.00838400  1
  C  C30  1  0.16682700  0.75948200  0.50838400  1
  C  C31  1  0.24051800  0.83317300  0.99161600  1
  C  C32  1  0.62666000  0.21129900  0.32714300  1
  C  C33  1  0.78870100  0.37334000  0.17285700  1
  C  C34  1  0.37334000  0.78870100  0.67285700  1
  C  C35  1  0.21129900  0.62666000  0.82714300  1
  C  C36  1  0.97366800  0.25488600  0.31105200  1
  C  C37  1  0.74511400  0.02633200  0.18894800  1
  C  C38  1  0.02633200  0.74511400  0.68894800  1
  C  C39  1  0.25488600  0.97366800  0.81105200  1
  C  C40  1  0.16593900  0.27479900  0.47814100  1
  C  C41  1  0.72520100  0.83406100  0.02185900  1
  C  C42  1  0.83406100  0.72520100  0.52185900  1
  C  C43  1  0.27479900  0.16593900  0.97814100  1
  C  C44  1  0.51271000  0.23221900  0.51333600  1
  C  C45  1  0.76778100  0.48729000  0.98666400  1
  C  C46  1  0.48729000  0.76778100  0.48666400  1
  C  C47  1  0.23221900  0.51271000  0.01333600  1
  C  C48  1  0.15338900  0.27340200  0.70449900  1
  C  C49  1  0.72659800  0.84661100  0.79550100  1
  C  C50  1  0.84661100  0.72659800  0.29550100  1
  C  C51  1  0.27340200  0.15338900  0.20449900  1
