# generated using pymatgen
data_Cu2NiC6
_symmetry_space_group_name_H-M   'P 1'
_cell_length_a   6.89573400
_cell_length_b   7.52232600
_cell_length_c   10.00082569
_cell_angle_alpha   89.21832532
_cell_angle_beta   90.00000000
_cell_angle_gamma   90.00000000
_symmetry_Int_Tables_number   1
_chemical_formula_structural   Cu2NiC6
_chemical_formula_sum   'Cu8 Ni4 C24'
_cell_volume   518.71414502
_cell_formula_units_Z   4
loop_
 _symmetry_equiv_pos_site_id
 _symmetry_equiv_pos_as_xyz
  1  'x, y, z'
loop_
 _atom_site_type_symbol
 _atom_site_label
 _atom_site_symmetry_multiplicity
 _atom_site_fract_x
 _atom_site_fract_y
 _atom_site_fract_z
 _atom_site_occupancy
  Ni  Ni0  1  0.58203600  0.01911100  0.67246500  1
  Ni  Ni1  1  0.91796400  0.01911100  0.17246500  1
  Ni  Ni2  1  0.08203600  0.98088900  0.82753500  1
  Ni  Ni3  1  0.41796400  0.98088900  0.32753500  1
  Cu  Cu4  1  0.41202400  0.25516000  0.02036800  1
  Cu  Cu5  1  0.41770500  0.52175300  0.32386200  1
  Cu  Cu6  1  0.91770500  0.47824700  0.17613800  1
  Cu  Cu7  1  0.58229500  0.47824700  0.67613800  1
  Cu  Cu8  1  0.08229500  0.52175300  0.82386200  1
  Cu  Cu9  1  0.08797600  0.25516000  0.52036800  1
  Cu  Cu10  1  0.58797600  0.74484000  0.97963200  1
  Cu  Cu11  1  0.91202400  0.74484000  0.47963200  1
  C  C12  1  0.80662400  0.26031900  0.90323400  1
  C  C13  1  0.30662400  0.73968100  0.59676600  1
  C  C14  1  0.19337600  0.73968100  0.09676600  1
  C  C15  1  0.69337600  0.26031900  0.40323400  1
  C  C16  1  0.36809900  0.72342000  0.76566700  1
  C  C17  1  0.01337300  0.27813700  0.98958100  1
  C  C18  1  0.51337300  0.72186300  0.51041900  1
  C  C19  1  0.98662700  0.72186300  0.01041900  1
  C  C20  1  0.48662700  0.27813700  0.48958100  1
  C  C21  1  0.63190100  0.27658000  0.23433300  1
  C  C22  1  0.13190100  0.72342000  0.26566700  1
  C  C23  1  0.80645200  0.06962100  0.43753300  1
  C  C24  1  0.86809900  0.27658000  0.73433300  1
  C  C25  1  0.16420400  0.28324900  0.28632200  1
  C  C26  1  0.66420400  0.71675100  0.21367800  1
  C  C27  1  0.83579600  0.71675100  0.71367800  1
  C  C28  1  0.19354800  0.93037900  0.56246700  1
  C  C29  1  0.69354800  0.06962100  0.93753300  1
  C  C30  1  0.82064700  0.44002300  0.43450100  1
  C  C31  1  0.30645200  0.93037900  0.06246700  1
  C  C32  1  0.67935300  0.44002300  0.93450100  1
  C  C33  1  0.32064700  0.55997700  0.06549900  1
  C  C34  1  0.17935300  0.55997700  0.56549900  1
  C  C35  1  0.33579600  0.28324900  0.78632200  1
