# generated using pymatgen
data_Cu(Ni4C3)2
_symmetry_space_group_name_H-M   'P 1'
_cell_length_a   9.96293500
_cell_length_b   7.20004000
_cell_length_c   10.82372426
_cell_angle_alpha   72.00920996
_cell_angle_beta   90.00000000
_cell_angle_gamma   90.00000000
_symmetry_Int_Tables_number   1
_chemical_formula_structural   Cu(Ni4C3)2
_chemical_formula_sum   'Cu4 Ni32 C24'
_cell_volume   738.46161898
_cell_formula_units_Z   4
loop_
 _symmetry_equiv_pos_site_id
 _symmetry_equiv_pos_as_xyz
  1  'x, y, z'
loop_
 _atom_site_type_symbol
 _atom_site_label
 _atom_site_symmetry_multiplicity
 _atom_site_fract_x
 _atom_site_fract_y
 _atom_site_fract_z
 _atom_site_occupancy
  C  C0  1  0.60884000  0.47479200  0.30583900  1
  C  C1  1  0.39116000  0.52520800  0.69416100  1
  C  C2  1  0.10884000  0.52520800  0.19416100  1
  C  C3  1  0.89116000  0.47479200  0.80583900  1
  C  C4  1  0.87971900  0.65115100  0.42879600  1
  C  C5  1  0.12028100  0.34884900  0.57120400  1
  C  C6  1  0.37971900  0.34884900  0.07120400  1
  C  C7  1  0.62028100  0.65115100  0.92879600  1
  C  C8  1  0.60457000  0.97457900  0.29513300  1
  C  C9  1  0.39543000  0.02542100  0.70486700  1
  C  C10  1  0.10457000  0.02542100  0.20486700  1
  C  C11  1  0.89543000  0.97457900  0.79513300  1
  C  C12  1  0.37448800  0.86542600  0.05677500  1
  C  C13  1  0.62551200  0.13457400  0.94322500  1
  C  C14  1  0.87448800  0.13457400  0.44322500  1
  C  C15  1  0.12551200  0.86542600  0.55677500  1
  C  C16  1  0.83264000  0.32567500  0.12113800  1
  C  C17  1  0.16736000  0.67432500  0.87886200  1
  C  C18  1  0.33264000  0.67432500  0.37886200  1
  C  C19  1  0.66736000  0.32567500  0.62113800  1
  C  C20  1  0.83032900  0.77858500  0.12305400  1
  C  C21  1  0.16967100  0.22141500  0.87694600  1
  C  C22  1  0.33032900  0.22141500  0.37694600  1
  C  C23  1  0.66967100  0.77858500  0.62305400  1
  Ni  Ni24  1  0.26699200  0.80592200  0.23838900  1
  Ni  Ni25  1  0.73300800  0.19407800  0.76161100  1
  Ni  Ni26  1  0.76699200  0.19407800  0.26161100  1
  Ni  Ni27  1  0.23300800  0.80592200  0.73838900  1
  Ni  Ni28  1  0.98434600  0.82760600  0.15170100  1
  Ni  Ni29  1  0.01565400  0.17239400  0.84829900  1
  Ni  Ni30  1  0.48434600  0.17239400  0.34829900  1
  Ni  Ni31  1  0.51565400  0.82760600  0.65170100  1
  Ni  Ni32  1  0.47874400  0.96403900  0.88762300  1
  Ni  Ni33  1  0.52125600  0.03596100  0.11237700  1
  Ni  Ni34  1  0.97874400  0.03596100  0.61237700  1
  Ni  Ni35  1  0.02125600  0.96403900  0.38762300  1
  Ni  Ni36  1  0.82231400  0.55364500  0.11926800  1
  Ni  Ni37  1  0.17768600  0.44635500  0.88073200  1
  Ni  Ni38  1  0.32231400  0.44635500  0.38073200  1
  Ni  Ni39  1  0.67768600  0.55364500  0.61926800  1
  Ni  Ni40  1  0.48991900  0.73355700  0.38268700  1
  Ni  Ni41  1  0.51008100  0.26644300  0.61731300  1
  Ni  Ni42  1  0.98991900  0.26644300  0.11731300  1
  Ni  Ni43  1  0.01008100  0.73355700  0.88268700  1
  Ni  Ni44  1  0.73008500  0.91603000  0.48273000  1
  Ni  Ni45  1  0.26991500  0.08397000  0.51727000  1
  Ni  Ni46  1  0.23008500  0.08397000  0.01727000  1
  Ni  Ni47  1  0.76991500  0.91603000  0.98273000  1
  Ni  Ni48  1  0.25399600  0.68617400  0.00306400  1
  Ni  Ni49  1  0.74600400  0.31382600  0.99693600  1
  Ni  Ni50  1  0.75399600  0.31382600  0.49693600  1
  Ni  Ni51  1  0.24600400  0.68617400  0.50306400  1
  Ni  Ni52  1  0.73913800  0.78453900  0.24669600  1
  Ni  Ni53  1  0.26086200  0.21546100  0.75330400  1
  Ni  Ni54  1  0.23913800  0.21546100  0.25330400  1
  Ni  Ni55  1  0.76086200  0.78453900  0.74669600  1
  Cu  Cu56  1  0.49276700  0.62493100  0.11368600  1
  Cu  Cu57  1  0.50723300  0.37506900  0.88631400  1
  Cu  Cu58  1  0.99276700  0.37506900  0.38631400  1
  Cu  Cu59  1  0.00723300  0.62493100  0.61368600  1
