# generated using pymatgen
data_CuNi6C
_symmetry_space_group_name_H-M   'P 1'
_cell_length_a   4.82348100
_cell_length_b   6.29152800
_cell_length_c   10.38622000
_cell_angle_alpha   90.00000000
_cell_angle_beta   90.00000000
_cell_angle_gamma   90.00000000
_symmetry_Int_Tables_number   1
_chemical_formula_structural   CuNi6C
_chemical_formula_sum   'Cu2 Ni12 C2'
_cell_volume   315.19130143
_cell_formula_units_Z   2
loop_
 _symmetry_equiv_pos_site_id
 _symmetry_equiv_pos_as_xyz
  1  'x, y, z'
loop_
 _atom_site_type_symbol
 _atom_site_label
 _atom_site_symmetry_multiplicity
 _atom_site_fract_x
 _atom_site_fract_y
 _atom_site_fract_z
 _atom_site_occupancy
  C  C0  1  0.50000000  0.50000000  0.83557800  1
  C  C1  1  0.50000000  0.00000000  0.33557800  1
  Ni  Ni2  1  0.50000000  0.25072100  0.08506600  1
  Ni  Ni3  1  0.50000000  0.74927900  0.08506600  1
  Ni  Ni4  1  0.00000000  0.23752100  0.90885200  1
  Ni  Ni5  1  0.00000000  0.76247900  0.90885200  1
  Ni  Ni6  1  0.00000000  0.50000000  0.17361400  1
  Ni  Ni7  1  0.00000000  0.50000000  0.66771000  1
  Ni  Ni8  1  0.50000000  0.75072100  0.58506600  1
  Ni  Ni9  1  0.50000000  0.24927900  0.58506600  1
  Ni  Ni10  1  0.00000000  0.73752100  0.40885200  1
  Ni  Ni11  1  0.00000000  0.26247900  0.40885200  1
  Ni  Ni12  1  0.00000000  0.00000000  0.67361400  1
  Ni  Ni13  1  0.00000000  0.00000000  0.16771000  1
  Cu  Cu14  1  0.50000000  0.50000000  0.33526600  1
  Cu  Cu15  1  0.50000000  0.00000000  0.83526600  1
