# generated using pymatgen
data_Cu4NiC11
_symmetry_space_group_name_H-M   'P 1'
_cell_length_a   9.63330832
_cell_length_b   11.03184700
_cell_length_c   11.87078111
_cell_angle_alpha   90.00000000
_cell_angle_beta   98.93906340
_cell_angle_gamma   90.00000000
_symmetry_Int_Tables_number   1
_chemical_formula_structural   Cu4NiC11
_chemical_formula_sum   'Cu16 Ni4 C44'
_cell_volume   1246.22316241
_cell_formula_units_Z   4
loop_
 _symmetry_equiv_pos_site_id
 _symmetry_equiv_pos_as_xyz
  1  'x, y, z'
loop_
 _atom_site_type_symbol
 _atom_site_label
 _atom_site_symmetry_multiplicity
 _atom_site_fract_x
 _atom_site_fract_y
 _atom_site_fract_z
 _atom_site_occupancy
  C  C0  1  0.00000000  0.50000000  0.50000000  1
  C  C1  1  0.00000000  0.00000000  0.00000000  1
  C  C2  1  0.50000000  0.00000000  0.50000000  1
  C  C3  1  0.50000000  0.50000000  0.00000000  1
  C  C4  1  0.30912100  0.91787500  0.91840800  1
  C  C5  1  0.69087900  0.41787500  0.58159200  1
  C  C6  1  0.69087900  0.08212500  0.08159200  1
  C  C7  1  0.30912100  0.58212500  0.41840800  1
  C  C8  1  0.88541500  0.37095900  0.94053600  1
  C  C9  1  0.11458500  0.87095900  0.55946400  1
  C  C10  1  0.11458500  0.62904100  0.05946400  1
  C  C11  1  0.88541500  0.12904100  0.44053600  1
  Ni  Ni12  1  0.70574200  0.79431900  0.73515700  1
  Ni  Ni13  1  0.29425800  0.29431900  0.76484300  1
  Ni  Ni14  1  0.29425800  0.20568100  0.26484300  1
  Ni  Ni15  1  0.70574200  0.70568100  0.23515700  1
  Cu  Cu16  1  0.77266600  0.07805400  0.78090400  1
  Cu  Cu17  1  0.22733400  0.57805400  0.71909600  1
  Cu  Cu18  1  0.22733400  0.92194600  0.21909600  1
  Cu  Cu19  1  0.77266600  0.42194600  0.28090400  1
  Cu  Cu20  1  0.65244600  0.69258200  0.53719300  1
  Cu  Cu21  1  0.34755400  0.19258200  0.96280700  1
  Cu  Cu22  1  0.34755400  0.30741800  0.46280700  1
  Cu  Cu23  1  0.65244600  0.80741800  0.03719300  1
  Cu  Cu24  1  0.55659600  0.70235700  0.82684500  1
  Cu  Cu25  1  0.44340400  0.20235700  0.67315500  1
  Cu  Cu26  1  0.44340400  0.29764300  0.17315500  1
  Cu  Cu27  1  0.55659600  0.79764300  0.32684500  1
  Cu  Cu28  1  0.91449100  0.60854400  0.80748000  1
  Cu  Cu29  1  0.08550900  0.10854400  0.69252000  1
  Cu  Cu30  1  0.08550900  0.39145600  0.19252000  1
  Cu  Cu31  1  0.91449100  0.89145600  0.30748000  1
  C  C32  1  0.21834000  0.38013300  0.47146200  1
  C  C33  1  0.78166000  0.88013300  0.02853800  1
  C  C34  1  0.78166000  0.61986700  0.52853800  1
  C  C35  1  0.21834000  0.11986700  0.97146200  1
  C  C36  1  0.15274300  0.67296500  0.52083400  1
  C  C37  1  0.84725700  0.17296500  0.97916600  1
  C  C38  1  0.84725700  0.32703500  0.47916600  1
  C  C39  1  0.15274300  0.82703500  0.02083400  1
  C  C40  1  0.83720500  0.12911200  0.68069400  1
  C  C41  1  0.16279500  0.62911200  0.81930600  1
  C  C42  1  0.16279500  0.87088800  0.31930600  1
  C  C43  1  0.83720500  0.37088800  0.18069400  1
  C  C44  1  0.41251600  0.06607900  0.65101500  1
  C  C45  1  0.58748400  0.56607900  0.84898500  1
  C  C46  1  0.58748400  0.93392100  0.34898500  1
  C  C47  1  0.41251600  0.43392100  0.15101500  1
  C  C48  1  0.47078000  0.11245100  0.95535900  1
  C  C49  1  0.52922000  0.61245100  0.54464100  1
  C  C50  1  0.52922000  0.88754900  0.04464100  1
  C  C51  1  0.47078000  0.38754900  0.45535900  1
  C  C52  1  0.11180200  0.98824600  0.74977400  1
  C  C53  1  0.88819800  0.48824600  0.75022600  1
  C  C54  1  0.88819800  0.01175400  0.25022600  1
  C  C55  1  0.11180200  0.51175400  0.24977400  1
  C  C56  1  0.74966100  0.19034000  0.86640400  1
  C  C57  1  0.25033900  0.69034000  0.63359600  1
  C  C58  1  0.25033900  0.80966000  0.13359600  1
  C  C59  1  0.74966100  0.30966000  0.36640400  1
  C  C60  1  0.90699800  0.59722000  0.93171000  1
  C  C61  1  0.09300200  0.09722000  0.56829000  1
  C  C62  1  0.09300200  0.40278000  0.06829000  1
  C  C63  1  0.90699800  0.90278000  0.43171000  1
