# generated using pymatgen
data_CuNiC2
_symmetry_space_group_name_H-M   'P 1'
_cell_length_a   6.32370626
_cell_length_b   6.32370626
_cell_length_c   6.32370612
_cell_angle_alpha   26.95631889
_cell_angle_beta   26.95631889
_cell_angle_gamma   26.95632126
_symmetry_Int_Tables_number   1
_chemical_formula_structural   CuNiC2
_chemical_formula_sum   'Cu1 Ni1 C2'
_cell_volume   45.83200632
_cell_formula_units_Z   1
loop_
 _symmetry_equiv_pos_site_id
 _symmetry_equiv_pos_as_xyz
  1  'x, y, z'
loop_
 _atom_site_type_symbol
 _atom_site_label
 _atom_site_symmetry_multiplicity
 _atom_site_fract_x
 _atom_site_fract_y
 _atom_site_fract_z
 _atom_site_occupancy
  Ni  Ni0  1  0.99853900  0.99853900  0.99853900  1
  Cu  Cu1  1  0.16002900  0.16002900  0.16002900  1
  C  C2  1  0.27928700  0.27928700  0.27928700  1
  C  C3  1  0.72114400  0.72114400  0.72114400  1
