# generated using pymatgen
data_Cu14Ni2C5
_symmetry_space_group_name_H-M   'P 1'
_cell_length_a   5.31327200
_cell_length_b   7.93917842
_cell_length_c   8.20974028
_cell_angle_alpha   115.86377248
_cell_angle_beta   106.93806024
_cell_angle_gamma   85.73530585
_symmetry_Int_Tables_number   1
_chemical_formula_structural   Cu14Ni2C5
_chemical_formula_sum   'Cu14 Ni2 C5'
_cell_volume   297.54498729
_cell_formula_units_Z   1
loop_
 _symmetry_equiv_pos_site_id
 _symmetry_equiv_pos_as_xyz
  1  'x, y, z'
loop_
 _atom_site_type_symbol
 _atom_site_label
 _atom_site_symmetry_multiplicity
 _atom_site_fract_x
 _atom_site_fract_y
 _atom_site_fract_z
 _atom_site_occupancy
  C  C0  1  0.08457200  0.25202300  0.98370100  1
  C  C1  1  0.91542800  0.74797700  0.01629900  1
  C  C2  1  0.00000000  0.00000000  0.50000000  1
  C  C3  1  0.51704900  0.27153300  0.66127400  1
  C  C4  1  0.48295100  0.72846700  0.33872600  1
  Ni  Ni5  1  0.76742900  0.24578500  0.25015100  1
  Ni  Ni6  1  0.23257100  0.75421500  0.74984900  1
  Cu  Cu7  1  0.90275900  0.40575100  0.25542800  1
  Cu  Cu8  1  0.09724100  0.59424900  0.74457200  1
  Cu  Cu9  1  0.87113500  0.22619700  0.42867700  1
  Cu  Cu10  1  0.12886500  0.77380300  0.57132300  1
  Cu  Cu11  1  0.47966100  0.26994100  0.21552100  1
  Cu  Cu12  1  0.52033900  0.73005900  0.78447900  1
  Cu  Cu13  1  0.82384000  0.07613300  0.08788600  1
  Cu  Cu14  1  0.17616000  0.92386700  0.91211400  1
  Cu  Cu15  1  0.75297400  0.43779400  0.89525700  1
  Cu  Cu16  1  0.24702600  0.56220600  0.10474300  1
  Cu  Cu17  1  0.27632300  0.19174000  0.74969000  1
  Cu  Cu18  1  0.72367700  0.80826000  0.25031000  1
  Cu  Cu19  1  0.75227900  0.07731400  0.66728500  1
  Cu  Cu20  1  0.24772100  0.92268600  0.33271500  1
