# generated using pymatgen
data_Cu(NiC5)4
_symmetry_space_group_name_H-M   'P 1'
_cell_length_a   8.24133100
_cell_length_b   8.41830785
_cell_length_c   10.68154070
_cell_angle_alpha   108.00813745
_cell_angle_beta   95.93294057
_cell_angle_gamma   100.21841717
_symmetry_Int_Tables_number   1
_chemical_formula_structural   Cu(NiC5)4
_chemical_formula_sum   'Cu1 Ni4 C20'
_cell_volume   683.60219347
_cell_formula_units_Z   1
loop_
 _symmetry_equiv_pos_site_id
 _symmetry_equiv_pos_as_xyz
  1  'x, y, z'
loop_
 _atom_site_type_symbol
 _atom_site_label
 _atom_site_symmetry_multiplicity
 _atom_site_fract_x
 _atom_site_fract_y
 _atom_site_fract_z
 _atom_site_occupancy
  Ni  Ni0  1  0.40286800  0.59928600  0.79902100  1
  Ni  Ni1  1  0.59832100  0.39795700  0.20189000  1
  Ni  Ni2  1  0.80011700  0.20039300  0.60244400  1
  Ni  Ni3  1  0.00187500  0.00207600  0.99787500  1
  Cu  Cu4  1  0.26692500  0.78816500  0.42216500  1
  C  C5  1  0.36972800  0.93626000  0.12383100  1
  C  C6  1  0.77750500  0.53992900  0.92884500  1
  C  C7  1  0.97314300  0.33688100  0.32327800  1
  C  C8  1  0.58124400  0.73742800  0.52674500  1
  C  C9  1  0.17253200  0.13835500  0.72256800  1
  C  C10  1  0.57800000  0.64948200  0.70260800  1
  C  C11  1  0.77201800  0.44112800  0.10546300  1
  C  C12  1  0.97354400  0.25110800  0.50866600  1
  C  C13  1  0.17815300  0.04731300  0.90376300  1
  C  C14  1  0.37828900  0.84791400  0.30348600  1
  C  C15  1  0.78616600  0.96936800  0.59915700  1
  C  C16  1  0.99446100  0.77395400  0.99465900  1
  C  C17  1  0.19120800  0.56748800  0.39705100  1
  C  C18  1  0.39504300  0.37180300  0.79568300  1
  C  C19  1  0.59069100  0.17135200  0.19950500  1
  C  C20  1  0.67765900  0.53877600  0.38470400  1
  C  C21  1  0.88525200  0.33803500  0.78285800  1
  C  C22  1  0.08769000  0.14406100  0.17734200  1
  C  C23  1  0.28517000  0.94165900  0.58434500  1
  C  C24  1  0.48519900  0.73602700  0.97964600  1
