# generated using pymatgen
data_CuNi2C19
_symmetry_space_group_name_H-M   'P 1'
_cell_length_a   3.88458524
_cell_length_b   7.61837972
_cell_length_c   10.09738925
_cell_angle_alpha   76.00398614
_cell_angle_beta   88.58333979
_cell_angle_gamma   72.90061493
_symmetry_Int_Tables_number   1
_chemical_formula_structural   CuNi2C19
_chemical_formula_sum   'Cu1 Ni2 C19'
_cell_volume   276.78931618
_cell_formula_units_Z   1
loop_
 _symmetry_equiv_pos_site_id
 _symmetry_equiv_pos_as_xyz
  1  'x, y, z'
loop_
 _atom_site_type_symbol
 _atom_site_label
 _atom_site_symmetry_multiplicity
 _atom_site_fract_x
 _atom_site_fract_y
 _atom_site_fract_z
 _atom_site_occupancy
  Ni  Ni0  1  0.44558700  0.97003900  0.52258700  1
  Ni  Ni1  1  0.47568500  0.06302100  0.18249600  1
  Cu  Cu2  1  0.57008400  0.96194500  0.86261300  1
  C  C3  1  0.16415700  0.71928900  0.08020100  1
  C  C4  1  0.16888600  0.65406700  0.42131800  1
  C  C5  1  0.22011700  0.54861400  0.75822600  1
  C  C6  1  0.78485100  0.46481200  0.25824600  1
  C  C7  1  0.84898900  0.33996700  0.59697500  1
  C  C8  1  0.86664100  0.28176600  0.94938200  1
  C  C9  1  0.24364600  0.54085000  0.26469400  1
  C  C10  1  0.84106900  0.32902200  0.11966700  1
  C  C11  1  0.04166700  0.90824900  0.33878700  1
  C  C12  1  0.07440400  0.76305200  0.62041700  1
  C  C13  1  0.16432800  0.68348700  0.90440100  1
  C  C14  1  0.64540400  0.74372000  0.10652400  1
  C  C15  1  0.68596800  0.62647000  0.44885600  1
  C  C16  1  0.75767200  0.48179900  0.76734200  1
  C  C17  1  0.31478900  0.40231600  0.59007800  1
  C  C18  1  0.37569600  0.26894600  0.90811900  1
  C  C19  1  0.90673600  0.25905200  0.42905500  1
  C  C20  1  0.01540200  0.10442800  0.71145000  1
  C  C21  1  0.01221500  0.00343500  0.01326300  1
