# generated using pymatgen
data_Cu6NiC2
_symmetry_space_group_name_H-M   'P 1'
_cell_length_a   5.93807100
_cell_length_b   6.49742500
_cell_length_c   7.22162333
_cell_angle_alpha   69.48861371
_cell_angle_beta   90.00000000
_cell_angle_gamma   90.00000000
_symmetry_Int_Tables_number   1
_chemical_formula_structural   Cu6NiC2
_chemical_formula_sum   'Cu12 Ni2 C4'
_cell_volume   260.96174075
_cell_formula_units_Z   2
loop_
 _symmetry_equiv_pos_site_id
 _symmetry_equiv_pos_as_xyz
  1  'x, y, z'
loop_
 _atom_site_type_symbol
 _atom_site_label
 _atom_site_symmetry_multiplicity
 _atom_site_fract_x
 _atom_site_fract_y
 _atom_site_fract_z
 _atom_site_occupancy
  C  C0  1  0.25000000  0.34479200  0.23607400  1
  C  C1  1  0.75000000  0.65520800  0.76392600  1
  C  C2  1  0.25000000  0.77048000  0.45814800  1
  C  C3  1  0.75000000  0.22952000  0.54185200  1
  Ni  Ni4  1  0.25000000  0.26115300  0.85269200  1
  Ni  Ni5  1  0.75000000  0.73884700  0.14730800  1
  Cu  Cu6  1  0.46047800  0.74833700  0.59362100  1
  Cu  Cu7  1  0.53952200  0.25166300  0.40637900  1
  Cu  Cu8  1  0.96047800  0.25166300  0.40637900  1
  Cu  Cu9  1  0.03952200  0.74833700  0.59362100  1
  Cu  Cu10  1  0.25000000  0.59378100  0.36062900  1
  Cu  Cu11  1  0.75000000  0.40621900  0.63937100  1
  Cu  Cu12  1  0.55633800  0.65211000  0.04734600  1
  Cu  Cu13  1  0.44366200  0.34789000  0.95265400  1
  Cu  Cu14  1  0.05633800  0.34789000  0.95265400  1
  Cu  Cu15  1  0.94366200  0.65211000  0.04734600  1
  Cu  Cu16  1  0.25000000  0.00221300  0.29394000  1
  Cu  Cu17  1  0.75000000  0.99778700  0.70606000  1
