# generated using pymatgen
data_Cu5Ni2
_symmetry_space_group_name_H-M   'P 1'
_cell_length_a   2.68495300
_cell_length_b   2.68495300
_cell_length_c   25.88456200
_cell_angle_alpha   90.00000000
_cell_angle_beta   90.00000000
_cell_angle_gamma   90.00000000
_symmetry_Int_Tables_number   1
_chemical_formula_structural   Cu5Ni2
_chemical_formula_sum   'Cu10 Ni4'
_cell_volume   186.60109854
_cell_formula_units_Z   2
loop_
 _symmetry_equiv_pos_site_id
 _symmetry_equiv_pos_as_xyz
  1  'x, y, z'
loop_
 _atom_site_type_symbol
 _atom_site_label
 _atom_site_symmetry_multiplicity
 _atom_site_fract_x
 _atom_site_fract_y
 _atom_site_fract_z
 _atom_site_occupancy
  Ni  Ni0  1  0.00000000  0.00000000  0.20182200  1
  Ni  Ni1  1  0.00000000  0.00000000  0.40017800  1
  Ni  Ni2  1  0.00000000  0.00000000  0.59982200  1
  Ni  Ni3  1  0.00000000  0.00000000  0.79817800  1
  Cu  Cu4  1  0.50000000  0.50000000  0.14562800  1
  Cu  Cu5  1  0.50000000  0.50000000  0.34537000  1
  Cu  Cu6  1  0.50000000  0.50000000  0.54533900  1
  Cu  Cu7  1  0.50000000  0.50000000  0.74481900  1
  Cu  Cu8  1  0.50000000  0.50000000  0.94635100  1
  Cu  Cu9  1  0.50000000  0.50000000  0.05364900  1
  Cu  Cu10  1  0.50000000  0.50000000  0.25518100  1
  Cu  Cu11  1  0.50000000  0.50000000  0.45466100  1
  Cu  Cu12  1  0.50000000  0.50000000  0.65463000  1
  Cu  Cu13  1  0.50000000  0.50000000  0.85437200  1
