# generated using pymatgen
data_Cu2NiC7
_symmetry_space_group_name_H-M   'P 1'
_cell_length_a   5.17769000
_cell_length_b   5.17020200
_cell_length_c   9.48729898
_cell_angle_alpha   57.30715080
_cell_angle_beta   90.00000000
_cell_angle_gamma   90.00000000
_symmetry_Int_Tables_number   1
_chemical_formula_structural   Cu2NiC7
_chemical_formula_sum   'Cu4 Ni2 C14'
_cell_volume   213.73744829
_cell_formula_units_Z   2
loop_
 _symmetry_equiv_pos_site_id
 _symmetry_equiv_pos_as_xyz
  1  'x, y, z'
loop_
 _atom_site_type_symbol
 _atom_site_label
 _atom_site_symmetry_multiplicity
 _atom_site_fract_x
 _atom_site_fract_y
 _atom_site_fract_z
 _atom_site_occupancy
  Ni  Ni0  1  0.50000000  0.00000000  0.00000000  1
  Ni  Ni1  1  0.00000000  0.00000000  0.50000000  1
  Cu  Cu2  1  0.96832700  0.25093400  0.75409600  1
  Cu  Cu3  1  0.46832700  0.74906600  0.74590400  1
  Cu  Cu4  1  0.53167300  0.25093400  0.25409600  1
  Cu  Cu5  1  0.03167300  0.74906600  0.24590400  1
  C  C6  1  0.50000000  0.50000000  0.50000000  1
  C  C7  1  0.00000000  0.50000000  0.00000000  1
  C  C8  1  0.40933800  0.61085400  0.26823100  1
  C  C9  1  0.17694700  0.88783900  0.93803500  1
  C  C10  1  0.17783800  0.25404000  0.57379500  1
  C  C11  1  0.67783800  0.74596000  0.92620500  1
  C  C12  1  0.67694700  0.11216100  0.56196500  1
  C  C13  1  0.90933800  0.38914600  0.23176900  1
  C  C14  1  0.09066200  0.61085400  0.76823100  1
  C  C15  1  0.32305300  0.88783900  0.43803500  1
  C  C16  1  0.32216200  0.25404000  0.07379500  1
  C  C17  1  0.82305300  0.11216100  0.06196500  1
  C  C18  1  0.82216200  0.74596000  0.42620500  1
  C  C19  1  0.59066200  0.38914600  0.73176900  1
