# generated using pymatgen
data_Cu5Ni3C2
_symmetry_space_group_name_H-M   'P 1'
_cell_length_a   7.21669436
_cell_length_b   7.21669436
_cell_length_c   7.21669345
_cell_angle_alpha   53.30203719
_cell_angle_beta   53.30203719
_cell_angle_gamma   53.30203571
_symmetry_Int_Tables_number   1
_chemical_formula_structural   Cu5Ni3C2
_chemical_formula_sum   'Cu5 Ni3 C2'
_cell_volume   224.08503715
_cell_formula_units_Z   1
loop_
 _symmetry_equiv_pos_site_id
 _symmetry_equiv_pos_as_xyz
  1  'x, y, z'
loop_
 _atom_site_type_symbol
 _atom_site_label
 _atom_site_symmetry_multiplicity
 _atom_site_fract_x
 _atom_site_fract_y
 _atom_site_fract_z
 _atom_site_occupancy
  C  C0  1  0.44883200  0.44883200  0.44883200  1
  C  C1  1  0.98841200  0.98841200  0.98841200  1
  Ni  Ni2  1  0.61319200  0.33480000  0.97800700  1
  Ni  Ni3  1  0.97800700  0.61319200  0.33480000  1
  Ni  Ni4  1  0.33480000  0.97800700  0.61319200  1
  Cu  Cu5  1  0.93881600  0.11670000  0.35605500  1
  Cu  Cu6  1  0.35605500  0.93881600  0.11670000  1
  Cu  Cu7  1  0.11670000  0.35605500  0.93881600  1
  Cu  Cu8  1  0.15368000  0.15368000  0.15368000  1
  Cu  Cu9  1  0.71240700  0.71240700  0.71240700  1
