# generated using pymatgen
data_Cu2Ni9C35
_symmetry_space_group_name_H-M   'P 1'
_cell_length_a   10.37882400
_cell_length_b   9.89552900
_cell_length_c   19.58074251
_cell_angle_alpha   68.40563665
_cell_angle_beta   90.00000000
_cell_angle_gamma   90.00000000
_symmetry_Int_Tables_number   1
_chemical_formula_structural   Cu2Ni9C35
_chemical_formula_sum   'Cu8 Ni36 C140'
_cell_volume   1869.87162807
_cell_formula_units_Z   4
loop_
 _symmetry_equiv_pos_site_id
 _symmetry_equiv_pos_as_xyz
  1  'x, y, z'
loop_
 _atom_site_type_symbol
 _atom_site_label
 _atom_site_symmetry_multiplicity
 _atom_site_fract_x
 _atom_site_fract_y
 _atom_site_fract_z
 _atom_site_occupancy
  C  C0  1  0.17222400  0.24382600  0.52021700  1
  C  C1  1  0.32777600  0.24382600  0.02021700  1
  C  C2  1  0.82777600  0.75617400  0.47978300  1
  C  C3  1  0.67222400  0.75617400  0.97978300  1
  C  C4  1  0.34129600  0.26066700  0.52327200  1
  C  C5  1  0.15870400  0.26066700  0.02327200  1
  C  C6  1  0.65870400  0.73933300  0.47672800  1
  C  C7  1  0.84129600  0.73933300  0.97672800  1
  C  C8  1  0.24294100  0.48917200  0.44182300  1
  C  C9  1  0.25705900  0.48917200  0.94182300  1
  C  C10  1  0.75705900  0.51082800  0.55817700  1
  C  C11  1  0.74294100  0.51082800  0.05817700  1
  C  C12  1  0.14728600  0.50394700  0.51378600  1
  C  C13  1  0.35271400  0.50394700  0.01378600  1
  C  C14  1  0.85271400  0.49605300  0.48621400  1
  C  C15  1  0.64728600  0.49605300  0.98621400  1
  C  C16  1  0.31770000  0.52012100  0.51607100  1
  C  C17  1  0.18230000  0.52012100  0.01607100  1
  C  C18  1  0.68230000  0.47987900  0.48392900  1
  C  C19  1  0.81770000  0.47987900  0.98392900  1
  C  C20  1  0.33411600  0.42525700  0.63171000  1
  C  C21  1  0.16588400  0.42525700  0.13171000  1
  C  C22  1  0.66588400  0.57474300  0.36829000  1
  C  C23  1  0.83411600  0.57474300  0.86829000  1
  C  C24  1  0.34072300  0.26599300  0.71117300  1
  C  C25  1  0.15927700  0.26599300  0.21117300  1
  C  C26  1  0.65927700  0.73400700  0.28882700  1
  C  C27  1  0.84072300  0.73400700  0.78882700  1
  C  C28  1  0.55615400  0.33187600  0.65457900  1
  C  C29  1  0.94384600  0.33187600  0.15457900  1
  C  C30  1  0.44384600  0.66812400  0.34542100  1
  C  C31  1  0.05615400  0.66812400  0.84542100  1
  C  C32  1  0.51089000  0.16198200  0.65051000  1
  C  C33  1  0.98911000  0.16198200  0.15051000  1
  C  C34  1  0.48911000  0.83801800  0.34949000  1
  C  C35  1  0.01089000  0.83801800  0.84949000  1
  C  C36  1  0.50282900  0.32287000  0.57062700  1
  C  C37  1  0.99717100  0.32287000  0.07062700  1
  C  C38  1  0.49717100  0.67713000  0.42937300  1
  C  C39  1  0.00282900  0.67713000  0.92937300  1
  C  C40  1  0.18078300  0.03862500  0.62275100  1
  C  C41  1  0.31921700  0.03862500  0.12275100  1
  C  C42  1  0.81921700  0.96137500  0.37724900  1
  C  C43  1  0.68078300  0.96137500  0.87724900  1
  C  C44  1  0.34968100  0.05630500  0.62538000  1
  C  C45  1  0.15031900  0.05630500  0.12538000  1
  C  C46  1  0.65031900  0.94369500  0.37462000  1
  C  C47  1  0.84968100  0.94369500  0.87462000  1
  C  C48  1  0.26703800  0.88564600  0.74314100  1
  C  C49  1  0.23296200  0.88564600  0.24314100  1
  C  C50  1  0.73296200  0.11435400  0.25685900  1
  C  C51  1  0.76703800  0.11435400  0.75685900  1
  C  C52  1  0.33794900  0.03525600  0.75771200  1
  C  C53  1  0.16205100  0.03525600  0.25771200  1
  C  C54  1  0.66205100  0.96474400  0.24228800  1
  C  C55  1  0.83794900  0.96474400  0.74228800  1
  C  C56  1  0.16763800  0.02047000  0.75615300  1
  C  C57  1  0.33236200  0.02047000  0.25615300  1
  C  C58  1  0.83236200  0.97953000  0.24384700  1
  C  C59  1  0.66763800  0.97953000  0.74384700  1
  C  C60  1  0.11982200  0.40307000  0.62888300  1
  C  C61  1  0.38017800  0.40307000  0.12888300  1
  C  C62  1  0.88017800  0.59693000  0.37111700  1
  C  C63  1  0.61982200  0.59693000  0.87111700  1
  C  C64  1  0.12522200  0.24312600  0.70787800  1
  C  C65  1  0.37477800  0.24312600  0.20787800  1
  C  C66  1  0.87477800  0.75687400  0.29212200  1
  C  C67  1  0.62522200  0.75687400  0.79212200  1
  C  C68  1  0.91583700  0.26510300  0.64522900  1
  C  C69  1  0.58416300  0.26510300  0.14522900  1
  C  C70  1  0.08416300  0.73489700  0.35477100  1
  C  C71  1  0.41583700  0.73489700  0.85477100  1
  C  C72  1  0.98929700  0.27036100  0.56247400  1
  C  C73  1  0.51070300  0.27036100  0.06247400  1
  C  C74  1  0.01070300  0.72963900  0.43752600  1
  C  C75  1  0.48929700  0.72963900  0.93752600  1
  C  C76  1  0.99592200  0.10959100  0.64189600  1
  C  C77  1  0.50407800  0.10959100  0.14189600  1
  C  C78  1  0.00407800  0.89040900  0.35810400  1
  C  C79  1  0.49592200  0.89040900  0.85810400  1
  C  C80  1  0.12204700  0.53935500  0.74096000  1
  C  C81  1  0.37795300  0.53935500  0.24096000  1
  C  C82  1  0.87795300  0.46064500  0.25904000  1
  C  C83  1  0.62204700  0.46064500  0.75904000  1
  C  C84  1  0.20945900  0.67896700  0.67562000  1
  C  C85  1  0.29054100  0.67896700  0.17562000  1
  C  C86  1  0.79054100  0.32103300  0.32438000  1
  C  C87  1  0.70945900  0.32103300  0.82438000  1
  C  C88  1  0.90882000  0.50603400  0.72545500  1
  C  C89  1  0.59118000  0.50603400  0.22545500  1
  C  C90  1  0.09118000  0.49396600  0.27454500  1
  C  C91  1  0.40882000  0.49396600  0.77454500  1
  C  C92  1  0.81833200  0.64007900  0.65901700  1
  C  C93  1  0.68166800  0.64007900  0.15901700  1
  C  C94  1  0.18166800  0.35992100  0.34098300  1
  C  C95  1  0.31833200  0.35992100  0.84098300  1
  C  C96  1  0.72622300  0.07722700  0.99821500  1
  C  C97  1  0.77377700  0.07722700  0.49821500  1
  C  C98  1  0.27377700  0.92277300  0.00178500  1
  C  C99  1  0.22622300  0.92277300  0.50178500  1
  C  C100  1  0.84496000  0.99899700  0.05245800  1
  C  C101  1  0.65504000  0.99899700  0.55245800  1
  C  C102  1  0.15504000  0.00100300  0.94754200  1
  C  C103  1  0.34496000  0.00100300  0.44754200  1
  C  C104  1  0.90633100  0.19708200  0.96033900  1
  C  C105  1  0.59366900  0.19708200  0.46033900  1
  C  C106  1  0.09366900  0.80291800  0.03966100  1
  C  C107  1  0.40633100  0.80291800  0.53966100  1
  Ni  Ni108  1  0.25002900  0.29874900  0.53787400  1
  Ni  Ni109  1  0.24997100  0.29874900  0.03787400  1
  Ni  Ni110  1  0.74997100  0.70125100  0.46212600  1
  Ni  Ni111  1  0.75002900  0.70125100  0.96212600  1
  Ni  Ni112  1  0.23872700  0.46235400  0.50131800  1
  Ni  Ni113  1  0.26127300  0.46235400  0.00131800  1
  Ni  Ni114  1  0.76127300  0.53764600  0.49868200  1
  Ni  Ni115  1  0.73872700  0.53764600  0.99868200  1
  Ni  Ni116  1  0.35330400  0.30823100  0.65143100  1
  Ni  Ni117  1  0.14669600  0.30823100  0.15143100  1
  Ni  Ni118  1  0.64669600  0.69176900  0.34856900  1
  Ni  Ni119  1  0.85330400  0.69176900  0.84856900  1
  Ni  Ni120  1  0.48764000  0.27821600  0.63021700  1
  Ni  Ni121  1  0.01236000  0.27821600  0.13021700  1
  Ni  Ni122  1  0.51236000  0.72178400  0.36978300  1
  Ni  Ni123  1  0.98764000  0.72178400  0.86978300  1
  Ni  Ni124  1  0.25911000  0.07778500  0.64832000  1
  Ni  Ni125  1  0.24089000  0.07778500  0.14832000  1
  Ni  Ni126  1  0.74089000  0.92221500  0.35168000  1
  Ni  Ni127  1  0.75911000  0.92221500  0.85168000  1
  Ni  Ni128  1  0.25727900  0.00243600  0.73108900  1
  Ni  Ni129  1  0.24272100  0.00243600  0.23108900  1
  Ni  Ni130  1  0.74272100  0.99756400  0.26891100  1
  Ni  Ni131  1  0.75727900  0.99756400  0.76891100  1
  Ni  Ni132  1  0.11934500  0.28417100  0.64779300  1
  Ni  Ni133  1  0.38065500  0.28417100  0.14779300  1
  Ni  Ni134  1  0.88065500  0.71582900  0.35220700  1
  Ni  Ni135  1  0.61934500  0.71582900  0.85220700  1
  Ni  Ni136  1  0.99951100  0.22861500  0.62245300  1
  Ni  Ni137  1  0.50048900  0.22861500  0.12245300  1
  Ni  Ni138  1  0.00048900  0.77138500  0.37754700  1
  Ni  Ni139  1  0.49951100  0.77138500  0.87754700  1
  Ni  Ni140  1  0.01436500  0.68005900  0.65484800  1
  Ni  Ni141  1  0.48563500  0.68005900  0.15484800  1
  Ni  Ni142  1  0.98563500  0.31994100  0.34515200  1
  Ni  Ni143  1  0.51436500  0.31994100  0.84515200  1
  Cu  Cu144  1  0.01159600  0.83571200  0.57860800  1
  Cu  Cu145  1  0.48840400  0.83571200  0.07860800  1
  Cu  Cu146  1  0.98840400  0.16428800  0.42139200  1
  Cu  Cu147  1  0.51159600  0.16428800  0.92139200  1
  Cu  Cu148  1  0.01757900  0.27254200  0.85662200  1
  Cu  Cu149  1  0.48242100  0.27254200  0.35662200  1
  Cu  Cu150  1  0.98242100  0.72745800  0.14337800  1
  Cu  Cu151  1  0.51757900  0.72745800  0.64337800  1
  C  C152  1  0.24541000  0.24217100  0.62132800  1
  C  C153  1  0.25459000  0.24217100  0.12132800  1
  C  C154  1  0.75459000  0.75782900  0.37867200  1
  C  C155  1  0.74541000  0.75782900  0.87867200  1
  C  C156  1  0.12394800  0.62654500  0.69183500  1
  C  C157  1  0.37605200  0.62654500  0.19183500  1
  C  C158  1  0.87605200  0.37345500  0.30816500  1
  C  C159  1  0.62394800  0.37345500  0.80816500  1
  C  C160  1  0.90617600  0.60265000  0.68134000  1
  C  C161  1  0.59382400  0.60265000  0.18134000  1
  C  C162  1  0.09382400  0.39735000  0.31866000  1
  C  C163  1  0.40617600  0.39735000  0.81866000  1
  C  C164  1  0.81571500  0.08733100  0.01181800  1
  C  C165  1  0.68428500  0.08733100  0.51181800  1
  C  C166  1  0.18428500  0.91266900  0.98818200  1
  C  C167  1  0.31571500  0.91266900  0.48818200  1
  C  C168  1  0.97032800  0.28006900  0.93237300  1
  C  C169  1  0.52967200  0.28006900  0.43237300  1
  C  C170  1  0.02967200  0.71993100  0.06762700  1
  C  C171  1  0.47032800  0.71993100  0.56762700  1
  C  C172  1  0.90688000  0.31396100  0.80544400  1
  C  C173  1  0.59312000  0.31396100  0.30544400  1
  C  C174  1  0.09312000  0.68603900  0.19455600  1
  C  C175  1  0.40688000  0.68603900  0.69455600  1
  C  C176  1  0.06121900  0.12329600  0.87120200  1
  C  C177  1  0.43878100  0.12329600  0.37120200  1
  C  C178  1  0.93878100  0.87670400  0.12879800  1
  C  C179  1  0.56121900  0.87670400  0.62879800  1
  C  C180  1  0.12163100  0.38100100  0.83361400  1
  C  C181  1  0.37836900  0.38100100  0.33361400  1
  C  C182  1  0.87836900  0.61899900  0.16638600  1
  C  C183  1  0.62163100  0.61899900  0.66638600  1
