# generated using pymatgen
data_Cu3Ni12C7
_symmetry_space_group_name_H-M   'P 1'
_cell_length_a   6.34836360
_cell_length_b   6.34836360
_cell_length_c   9.06347600
_cell_angle_alpha   90.00000000
_cell_angle_beta   90.00000000
_cell_angle_gamma   91.07751281
_symmetry_Int_Tables_number   1
_chemical_formula_structural   Cu3Ni12C7
_chemical_formula_sum   'Cu6 Ni24 C14'
_cell_volume   365.20908411
_cell_formula_units_Z   2
loop_
 _symmetry_equiv_pos_site_id
 _symmetry_equiv_pos_as_xyz
  1  'x, y, z'
loop_
 _atom_site_type_symbol
 _atom_site_label
 _atom_site_symmetry_multiplicity
 _atom_site_fract_x
 _atom_site_fract_y
 _atom_site_fract_z
 _atom_site_occupancy
  C  C0  1  0.50063200  0.50063200  0.50000000  1
  C  C1  1  0.00063200  0.00063200  0.00000000  1
  Ni  Ni2  1  0.14109300  0.50184800  0.69059500  1
  Ni  Ni3  1  0.50184800  0.14109300  0.30940500  1
  Ni  Ni4  1  0.64109300  0.00184800  0.80940500  1
  Ni  Ni5  1  0.00184800  0.64109300  0.19059500  1
  Ni  Ni6  1  0.87147000  0.49340900  0.68157900  1
  Ni  Ni7  1  0.49340900  0.87147000  0.31842100  1
  Ni  Ni8  1  0.37147000  0.99340900  0.81842100  1
  Ni  Ni9  1  0.99340900  0.37147000  0.18157900  1
  Ni  Ni10  1  0.00663500  0.62816900  0.82061500  1
  Ni  Ni11  1  0.62816900  0.00663500  0.17938500  1
  Ni  Ni12  1  0.50663500  0.12816900  0.67938500  1
  Ni  Ni13  1  0.12816900  0.50663500  0.32061500  1
  Ni  Ni14  1  0.99843900  0.36006400  0.81159900  1
  Ni  Ni15  1  0.36006400  0.99843900  0.18840100  1
  Ni  Ni16  1  0.49843900  0.86006400  0.68840100  1
  Ni  Ni17  1  0.86006400  0.49843900  0.31159900  1
  Ni  Ni18  1  0.36730600  0.49428000  0.06346800  1
  Ni  Ni19  1  0.49428000  0.36730600  0.93653200  1
  Ni  Ni20  1  0.86730600  0.99428000  0.43653200  1
  Ni  Ni21  1  0.99428000  0.86730600  0.56346800  1
  Ni  Ni22  1  0.63122600  0.49967800  0.06571700  1
  Ni  Ni23  1  0.49967800  0.63122600  0.93428300  1
  Ni  Ni24  1  0.13122600  0.99967800  0.43428300  1
  Ni  Ni25  1  0.99967800  0.13122600  0.56571700  1
  Cu  Cu26  1  0.00169500  0.49881300  0.75075000  1
  Cu  Cu27  1  0.49881300  0.00169500  0.24925000  1
  Cu  Cu28  1  0.50169500  0.99881300  0.74925000  1
  Cu  Cu29  1  0.99881300  0.50169500  0.25075000  1
  Cu  Cu30  1  0.49989400  0.49989400  0.00000000  1
  Cu  Cu31  1  0.99989400  0.99989400  0.50000000  1
  C  C32  1  0.29552700  0.29552700  0.50000000  1
  C  C33  1  0.79552700  0.79552700  0.00000000  1
  C  C34  1  0.70607800  0.70607800  0.50000000  1
  C  C35  1  0.20607800  0.20607800  0.00000000  1
  C  C36  1  0.43805800  0.56346800  0.69272900  1
  C  C37  1  0.56346800  0.43805800  0.30727100  1
  C  C38  1  0.93805800  0.06346800  0.80727100  1
  C  C39  1  0.06346800  0.93805800  0.19272900  1
  C  C40  1  0.69380500  0.30841400  0.56263600  1
  C  C41  1  0.30841400  0.69380500  0.43736400  1
  C  C42  1  0.19380500  0.80841400  0.93736400  1
  C  C43  1  0.80841400  0.19380500  0.06263600  1
