# generated using pymatgen
data_Cu2NiC8
_symmetry_space_group_name_H-M   'P 1'
_cell_length_a   8.20012040
_cell_length_b   9.48457093
_cell_length_c   9.48457093
_cell_angle_alpha   65.00064109
_cell_angle_beta   77.62010210
_cell_angle_gamma   77.62010210
_symmetry_Int_Tables_number   1
_chemical_formula_structural   Cu2NiC8
_chemical_formula_sum   'Cu8 Ni4 C32'
_cell_volume   646.58810192
_cell_formula_units_Z   4
loop_
 _symmetry_equiv_pos_site_id
 _symmetry_equiv_pos_as_xyz
  1  'x, y, z'
loop_
 _atom_site_type_symbol
 _atom_site_label
 _atom_site_symmetry_multiplicity
 _atom_site_fract_x
 _atom_site_fract_y
 _atom_site_fract_z
 _atom_site_occupancy
  C  C0  1  0.25821200  0.01124400  0.40261100  1
  C  C1  1  0.25821200  0.40261100  0.01124400  1
  C  C2  1  0.74178800  0.98875600  0.59738900  1
  C  C3  1  0.74178800  0.59738900  0.98875600  1
  Ni  Ni4  1  0.47563200  0.31455900  0.31455900  1
  Ni  Ni5  1  0.52436800  0.68544100  0.68544100  1
  Ni  Ni6  1  0.97127400  0.19953500  0.19953500  1
  Ni  Ni7  1  0.02872600  0.80046500  0.80046500  1
  C  C8  1  0.41277400  0.40516300  0.40516300  1
  C  C9  1  0.58722600  0.59483700  0.59483700  1
  C  C10  1  0.85710100  0.14702400  0.14702400  1
  C  C11  1  0.14289900  0.85297600  0.85297600  1
  Cu  Cu12  1  0.09670400  0.75625600  0.30957000  1
  Cu  Cu13  1  0.09670400  0.30957000  0.75625600  1
  Cu  Cu14  1  0.90329600  0.24374400  0.69043000  1
  Cu  Cu15  1  0.90329600  0.69043000  0.24374400  1
  Cu  Cu16  1  0.09229900  0.21543500  0.66423000  1
  Cu  Cu17  1  0.09229900  0.66423000  0.21543500  1
  Cu  Cu18  1  0.90770100  0.78456500  0.33577000  1
  Cu  Cu19  1  0.90770100  0.33577000  0.78456500  1
  C  C20  1  0.31976100  0.27513300  0.27513300  1
  C  C21  1  0.68023900  0.72486700  0.72486700  1
  C  C22  1  0.57410100  0.41615500  0.16153500  1
  C  C23  1  0.57410100  0.16153500  0.41615500  1
  C  C24  1  0.42589900  0.58384500  0.83846500  1
  C  C25  1  0.42589900  0.83846500  0.58384500  1
  C  C26  1  0.20877600  0.79337800  0.35012400  1
  C  C27  1  0.20877600  0.35012400  0.79337800  1
  C  C28  1  0.79122400  0.20662200  0.64987600  1
  C  C29  1  0.79122400  0.64987600  0.20662200  1
  C  C30  1  0.15464900  0.14196700  0.14196700  1
  C  C31  1  0.84535100  0.85803300  0.85803300  1
  C  C32  1  0.95055900  0.38032800  0.12540700  1
  C  C33  1  0.95055900  0.12540700  0.38032800  1
  C  C34  1  0.04944100  0.61967200  0.87459300  1
  C  C35  1  0.04944100  0.87459300  0.61967200  1
  C  C36  1  0.19835600  0.14376600  0.59662400  1
  C  C37  1  0.19835600  0.59662400  0.14376600  1
  C  C38  1  0.80164400  0.85623400  0.40337600  1
  C  C39  1  0.80164400  0.40337600  0.85623400  1
  C  C40  1  0.49198200  0.99288300  0.20922900  1
  C  C41  1  0.49198200  0.20922900  0.99288300  1
  C  C42  1  0.50801800  0.00711700  0.79077100  1
  C  C43  1  0.50801800  0.79077100  0.00711700  1
