# generated using pymatgen
data_Cu11Ni2C9
_symmetry_space_group_name_H-M   'P 1'
_cell_length_a   3.88711305
_cell_length_b   7.79811733
_cell_length_c   9.38839001
_cell_angle_alpha   82.58404908
_cell_angle_beta   89.99174571
_cell_angle_gamma   75.55032854
_symmetry_Int_Tables_number   1
_chemical_formula_structural   Cu11Ni2C9
_chemical_formula_sum   'Cu11 Ni2 C9'
_cell_volume   273.12274378
_cell_formula_units_Z   1
loop_
 _symmetry_equiv_pos_site_id
 _symmetry_equiv_pos_as_xyz
  1  'x, y, z'
loop_
 _atom_site_type_symbol
 _atom_site_label
 _atom_site_symmetry_multiplicity
 _atom_site_fract_x
 _atom_site_fract_y
 _atom_site_fract_z
 _atom_site_occupancy
  C  C0  1  0.52960700  0.93839700  0.76657700  1
  C  C1  1  0.44505700  0.10594400  0.23045700  1
  C  C2  1  0.71157300  0.57331400  0.95830500  1
  C  C3  1  0.12400800  0.74841500  0.10156700  1
  C  C4  1  0.16233200  0.67152300  0.42351100  1
  C  C5  1  0.23369900  0.52934200  0.75152800  1
  C  C6  1  0.75977300  0.47681700  0.23918100  1
  C  C7  1  0.83140200  0.33415800  0.56177900  1
  C  C8  1  0.88192500  0.23285100  0.91869200  1
  Ni  Ni9  1  0.23065700  0.53513600  0.25459000  1
  Ni  Ni10  1  0.83140400  0.33380100  0.08877000  1
  Cu  Cu11  1  0.05888400  0.87825200  0.29556300  1
  Cu  Cu12  1  0.12728500  0.74145100  0.62823800  1
  Cu  Cu13  1  0.17431100  0.64795900  0.92075400  1
  Cu  Cu14  1  0.63035500  0.73571800  0.10732300  1
  Cu  Cu15  1  0.69174900  0.61289400  0.44213500  1
  Cu  Cu16  1  0.75933400  0.47806700  0.76633200  1
  Cu  Cu17  1  0.29825700  0.40022400  0.56898400  1
  Cu  Cu18  1  0.37081800  0.25510700  0.87249200  1
  Cu  Cu19  1  0.86986900  0.25705100  0.38407000  1
  Cu  Cu20  1  0.93306900  0.13114600  0.68499800  1
  Cu  Cu21  1  0.00195900  0.99244500  0.98885200  1
