# generated using pymatgen
data_Cu(NiC4)2
_symmetry_space_group_name_H-M   'P 1'
_cell_length_a   17.61562300
_cell_length_b   6.10214800
_cell_length_c   8.99376217
_cell_angle_alpha   73.58131131
_cell_angle_beta   90.00000000
_cell_angle_gamma   90.00000000
_symmetry_Int_Tables_number   1
_chemical_formula_structural   Cu(NiC4)2
_chemical_formula_sum   'Cu4 Ni8 C32'
_cell_volume   927.34470462
_cell_formula_units_Z   4
loop_
 _symmetry_equiv_pos_site_id
 _symmetry_equiv_pos_as_xyz
  1  'x, y, z'
loop_
 _atom_site_type_symbol
 _atom_site_label
 _atom_site_symmetry_multiplicity
 _atom_site_fract_x
 _atom_site_fract_y
 _atom_site_fract_z
 _atom_site_occupancy
  C  C0  1  0.59748000  0.35695200  0.14490500  1
  C  C1  1  0.90252000  0.35695200  0.64490500  1
  C  C2  1  0.40252000  0.64304800  0.85509500  1
  C  C3  1  0.09748000  0.64304800  0.35509500  1
  Ni  Ni4  1  0.52717200  0.90510300  0.04711100  1
  Ni  Ni5  1  0.97282800  0.90510300  0.54711100  1
  Ni  Ni6  1  0.47282800  0.09489700  0.95288900  1
  Ni  Ni7  1  0.02717200  0.09489700  0.45288900  1
  Ni  Ni8  1  0.57750600  0.77964000  0.56623700  1
  Ni  Ni9  1  0.92249400  0.77964000  0.06623700  1
  Ni  Ni10  1  0.42249400  0.22036000  0.43376300  1
  Ni  Ni11  1  0.07750600  0.22036000  0.93376300  1
  Cu  Cu12  1  0.79493800  0.37205100  0.02322400  1
  Cu  Cu13  1  0.70506200  0.37205100  0.52322400  1
  Cu  Cu14  1  0.20506200  0.62794900  0.97677600  1
  Cu  Cu15  1  0.29493800  0.62794900  0.47677600  1
  C  C16  1  0.51818200  0.70675600  0.02708800  1
  C  C17  1  0.98181800  0.70675600  0.52708800  1
  C  C18  1  0.48181800  0.29324400  0.97291200  1
  C  C19  1  0.01818200  0.29324400  0.47291200  1
  C  C20  1  0.61201100  0.86085900  0.45302300  1
  C  C21  1  0.88798900  0.86085900  0.95302300  1
  C  C22  1  0.38798900  0.13914100  0.54697700  1
  C  C23  1  0.11201100  0.13914100  0.04697700  1
  C  C24  1  0.57496100  0.95604500  0.13492700  1
  C  C25  1  0.92503900  0.95604500  0.63492700  1
  C  C26  1  0.42503900  0.04395500  0.86507300  1
  C  C27  1  0.07496100  0.04395500  0.36507300  1
  C  C28  1  0.45790200  0.29987900  0.31993400  1
  C  C29  1  0.04209800  0.29987900  0.81993400  1
  C  C30  1  0.54209800  0.70012100  0.68006600  1
  C  C31  1  0.95790200  0.70012100  0.18006600  1
  C  C32  1  0.66653000  0.37703700  0.92724800  1
  C  C33  1  0.83347000  0.37703700  0.42724800  1
  C  C34  1  0.33347000  0.62296300  0.07275200  1
  C  C35  1  0.16653000  0.62296300  0.57275200  1
  C  C36  1  0.71692400  0.52033900  0.11159400  1
  C  C37  1  0.78307600  0.52033900  0.61159400  1
  C  C38  1  0.28307600  0.47966100  0.88840600  1
  C  C39  1  0.21692400  0.47966100  0.38840600  1
  C  C40  1  0.62104800  0.34248200  0.40657400  1
  C  C41  1  0.87895200  0.34248200  0.90657400  1
  C  C42  1  0.37895200  0.65751800  0.59342600  1
  C  C43  1  0.12104800  0.65751800  0.09342600  1
