# generated using pymatgen
data_Cu12Ni6C37
_symmetry_space_group_name_H-M   'P 1'
_cell_length_a   6.87854356
_cell_length_b   9.66644865
_cell_length_c   19.22839806
_cell_angle_alpha   80.42262406
_cell_angle_beta   87.34651410
_cell_angle_gamma   89.87909875
_symmetry_Int_Tables_number   1
_chemical_formula_structural   Cu12Ni6C37
_chemical_formula_sum   'Cu24 Ni12 C74'
_cell_volume   1259.32486574
_cell_formula_units_Z   2
loop_
 _symmetry_equiv_pos_site_id
 _symmetry_equiv_pos_as_xyz
  1  'x, y, z'
loop_
 _atom_site_type_symbol
 _atom_site_label
 _atom_site_symmetry_multiplicity
 _atom_site_fract_x
 _atom_site_fract_y
 _atom_site_fract_z
 _atom_site_occupancy
  C  C0  1  0.76269400  0.65173800  0.89184600  1
  C  C1  1  0.23730600  0.34826200  0.10815400  1
  C  C2  1  0.02242200  0.32414900  0.63230800  1
  C  C3  1  0.97757800  0.67585100  0.36769200  1
  C  C4  1  0.00612100  0.27592100  0.92831000  1
  C  C5  1  0.99387900  0.72407900  0.07169000  1
  C  C6  1  0.53045400  0.53117300  0.63382700  1
  C  C7  1  0.46954600  0.46882700  0.36617300  1
  C  C8  1  0.26085200  0.90842800  0.88535500  1
  C  C9  1  0.73914800  0.09157200  0.11464500  1
  C  C10  1  0.76981500  0.09091000  0.78064500  1
  C  C11  1  0.23018500  0.90909000  0.21935500  1
  C  C12  1  0.50449200  0.26151800  0.92924300  1
  C  C13  1  0.49550800  0.73848200  0.07075700  1
  C  C14  1  0.27601200  0.53796500  0.79698800  1
  C  C15  1  0.72398800  0.46203500  0.20301200  1
  Ni  Ni16  1  0.25802200  0.59592300  0.95690200  1
  Ni  Ni17  1  0.74197800  0.40407700  0.04309800  1
  Ni  Ni18  1  0.24144400  0.82365000  0.70096800  1
  Ni  Ni19  1  0.75855600  0.17635000  0.29903200  1
  Ni  Ni20  1  0.27830800  0.22608700  0.76507200  1
  Ni  Ni21  1  0.72169200  0.77391300  0.23492800  1
  Ni  Ni22  1  0.26962400  0.61378800  0.50808100  1
  Ni  Ni23  1  0.73037600  0.38621200  0.49191900  1
  Ni  Ni24  1  0.75826800  0.98596400  0.94377900  1
  Ni  Ni25  1  0.24173200  0.01403600  0.05622100  1
  Ni  Ni26  1  0.77636000  0.43227100  0.79277000  1
  Ni  Ni27  1  0.22364000  0.56772900  0.20723000  1
  Cu  Cu28  1  0.86015100  0.77684800  0.64982000  1
  Cu  Cu29  1  0.13984900  0.22315200  0.35018000  1
  Cu  Cu30  1  0.93828100  0.01812000  0.65387300  1
  Cu  Cu31  1  0.06171900  0.98188000  0.34612700  1
  Cu  Cu32  1  0.31293100  0.09795100  0.59897100  1
  Cu  Cu33  1  0.68706900  0.90204900  0.40102900  1
  Cu  Cu34  1  0.75501500  0.07028500  0.61457500  1
  Cu  Cu35  1  0.24498500  0.92971500  0.38542500  1
  Cu  Cu36  1  0.93678400  0.82664300  0.77552600  1
  Cu  Cu37  1  0.06321600  0.17335700  0.22447400  1
  Cu  Cu38  1  0.41780800  0.01572800  0.70778800  1
  Cu  Cu39  1  0.58219200  0.98427200  0.29221200  1
  Cu  Cu40  1  0.99097300  0.69854100  0.54436700  1
  Cu  Cu41  1  0.00902700  0.30145900  0.45563300  1
  Cu  Cu42  1  0.37376300  0.23790400  0.54566200  1
  Cu  Cu43  1  0.62623700  0.76209600  0.45433800  1
  Cu  Cu44  1  0.79509000  0.07866900  0.49900600  1
  Cu  Cu45  1  0.20491000  0.92133100  0.50099400  1
  Cu  Cu46  1  0.75499700  0.91740900  0.51024500  1
  Cu  Cu47  1  0.24500300  0.08259100  0.48975500  1
  Cu  Cu48  1  0.73755500  0.78961500  0.74606800  1
  Cu  Cu49  1  0.26244500  0.21038500  0.25393200  1
  Cu  Cu50  1  0.63659500  0.81328400  0.64067000  1
  Cu  Cu51  1  0.36340500  0.18671600  0.35933000  1
  C  C52  1  0.26707600  0.24742800  0.84432800  1
  C  C53  1  0.73292400  0.75257200  0.15567200  1
  C  C54  1  0.46681500  0.67920600  0.51723900  1
  C  C55  1  0.53318500  0.32079400  0.48276100  1
  C  C56  1  0.32181800  0.68157900  0.68739700  1
  C  C57  1  0.67818200  0.31842100  0.31260300  1
  C  C58  1  0.41054800  0.93782900  0.67619800  1
  C  C59  1  0.58945200  0.06217100  0.32380200  1
  C  C60  1  0.08391200  0.16974800  0.74408000  1
  C  C61  1  0.91608800  0.83025200  0.25592000  1
  C  C62  1  0.22538100  0.49415200  0.56969800  1
  C  C63  1  0.77461900  0.50584800  0.43030200  1
  C  C64  1  0.94141200  0.00111700  0.89227900  1
  C  C65  1  0.05858800  0.99888300  0.10772100  1
  C  C66  1  0.05996900  0.86923700  0.66073200  1
  C  C67  1  0.94003100  0.13076300  0.33926800  1
  C  C68  1  0.43449800  0.68951700  0.92481900  1
  C  C69  1  0.56550200  0.31048300  0.07518100  1
  C  C70  1  0.20015800  0.81060100  0.78277400  1
  C  C71  1  0.79984200  0.18939900  0.21722600  1
  C  C72  1  0.44184400  0.11808600  0.75600900  1
  C  C73  1  0.55815600  0.88191400  0.24399100  1
  C  C74  1  0.75365400  0.84213300  0.99354200  1
  C  C75  1  0.24634600  0.15786700  0.00645800  1
  C  C76  1  0.79227700  0.41904200  0.71428100  1
  C  C77  1  0.20772300  0.58095800  0.28571900  1
  C  C78  1  0.31862800  0.37185200  0.71839100  1
  C  C79  1  0.68137200  0.62814800  0.28160900  1
  C  C80  1  0.73844700  0.00065600  0.53282100  1
  C  C81  1  0.26155300  0.99934400  0.46717900  1
  C  C82  1  0.10085000  0.73330100  0.51224100  1
  C  C83  1  0.89915000  0.26669900  0.48775900  1
  C  C84  1  0.24631800  0.57796200  0.43361400  1
  C  C85  1  0.75368200  0.42203800  0.56638600  1
  C  C86  1  0.83569400  0.09390200  0.65235300  1
  C  C87  1  0.16430600  0.90609800  0.34764700  1
  C  C88  1  0.60015900  0.52173000  0.81207100  1
  C  C89  1  0.39984100  0.47827000  0.18792900  1
  C  C90  1  0.26434300  0.18922600  0.57679000  1
  C  C91  1  0.73565700  0.81077400  0.42321000  1
  C  C92  1  0.26191800  0.45313800  0.93022000  1
  C  C93  1  0.73808200  0.54686200  0.06978000  1
  C  C94  1  0.07088300  0.67991800  0.93625700  1
  C  C95  1  0.92911700  0.32008200  0.06374300  1
  C  C96  1  0.95485500  0.50189200  0.82047800  1
  C  C97  1  0.04514500  0.49810800  0.17952200  1
  C  C98  1  0.57493500  0.00637600  0.89859900  1
  C  C99  1  0.42506500  0.99362400  0.10140100  1
  C  C100  1  0.76074200  0.10943600  0.98712600  1
  C  C101  1  0.23925800  0.89056400  0.01287400  1
  C  C102  1  0.26371900  0.57246800  0.03893600  1
  C  C103  1  0.73628100  0.42753200  0.96106400  1
  C  C104  1  0.79239500  0.82992400  0.78535000  1
  C  C105  1  0.20760500  0.17007600  0.21465000  1
  C  C106  1  0.75605300  0.28251800  0.83938600  1
  C  C107  1  0.24394700  0.71748200  0.16061400  1
  C  C108  1  0.72517100  0.73505700  0.65483100  1
  C  C109  1  0.27482900  0.26494300  0.34516900  1
