# generated using pymatgen
data_Cu5Ni9
_symmetry_space_group_name_H-M   'P 1'
_cell_length_a   7.24494200
_cell_length_b   7.31560893
_cell_length_c   12.35068944
_cell_angle_alpha   73.11895898
_cell_angle_beta   81.16341314
_cell_angle_gamma   61.47254657
_symmetry_Int_Tables_number   1
_chemical_formula_structural   Cu5Ni9
_chemical_formula_sum   'Cu10 Ni18'
_cell_volume   550.25561990
_cell_formula_units_Z   2
loop_
 _symmetry_equiv_pos_site_id
 _symmetry_equiv_pos_as_xyz
  1  'x, y, z'
loop_
 _atom_site_type_symbol
 _atom_site_label
 _atom_site_symmetry_multiplicity
 _atom_site_fract_x
 _atom_site_fract_y
 _atom_site_fract_z
 _atom_site_occupancy
  Ni  Ni0  1  0.21298100  0.83895800  0.35479300  1
  Ni  Ni1  1  0.87692000  0.12665800  0.53673200  1
  Ni  Ni2  1  0.01321500  0.50104700  0.35645400  1
  Ni  Ni3  1  0.39118900  0.37903600  0.53296000  1
  Ni  Ni4  1  0.66466900  0.06807000  0.35753100  1
  Ni  Ni5  1  0.61649500  0.66186200  0.50685600  1
  Ni  Ni6  1  0.39406700  0.20445000  0.82358400  1
  Ni  Ni7  1  0.23104200  0.97850300  0.03649500  1
  Ni  Ni8  1  0.94175300  0.46274500  0.87197800  1
  Ni  Ni9  1  0.02501300  0.70180800  0.01764000  1
  Ni  Ni10  1  0.45059800  0.59325100  0.90320200  1
  Ni  Ni11  1  0.74457000  0.14818700  0.98246700  1
  Ni  Ni12  1  0.03895200  0.32561400  0.65070200  1
  Ni  Ni13  1  0.61327400  0.83981500  0.18652100  1
  Ni  Ni14  1  0.21125200  0.71474800  0.68344300  1
  Ni  Ni15  1  0.90279100  0.32676400  0.15726200  1
  Ni  Ni16  1  0.58006300  0.86301400  0.68765400  1
  Ni  Ni17  1  0.39024800  0.50993000  0.18052400  1
  Cu  Cu18  1  0.13618900  0.98247900  0.83070300  1
  Cu  Cu19  1  0.29216900  0.07168100  0.49718200  1
  Cu  Cu20  1  0.96047900  0.72624100  0.52176500  1
  Cu  Cu21  1  0.96215800  0.88998900  0.19049500  1
  Cu  Cu22  1  0.82106800  0.97137400  0.79211000  1
  Cu  Cu23  1  0.29383500  0.17686500  0.26127000  1
  Cu  Cu24  1  0.30909500  0.30165400  0.03565900  1
  Cu  Cu25  1  0.64802100  0.77228800  0.97181200  1
  Cu  Cu26  1  0.63700600  0.46532000  0.34842200  1
  Cu  Cu27  1  0.64050300  0.39787700  0.72410600  1
