# generated using pymatgen
data_Cu(Ni2C9)2
_symmetry_space_group_name_H-M   'P 1'
_cell_length_a   3.89392000
_cell_length_b   8.79578200
_cell_length_c   8.84320814
_cell_angle_alpha   89.39368363
_cell_angle_beta   90.00000000
_cell_angle_gamma   90.00000000
_symmetry_Int_Tables_number   1
_chemical_formula_structural   Cu(Ni2C9)2
_chemical_formula_sum   'Cu1 Ni4 C18'
_cell_volume   302.86355202
_cell_formula_units_Z   1
loop_
 _symmetry_equiv_pos_site_id
 _symmetry_equiv_pos_as_xyz
  1  'x, y, z'
loop_
 _atom_site_type_symbol
 _atom_site_label
 _atom_site_symmetry_multiplicity
 _atom_site_fract_x
 _atom_site_fract_y
 _atom_site_fract_z
 _atom_site_occupancy
  Ni  Ni0  1  0.50000000  0.88769800  0.28459200  1
  Ni  Ni1  1  0.50000000  0.11679300  0.71724600  1
  Ni  Ni2  1  0.50000000  0.28033500  0.11750300  1
  Ni  Ni3  1  0.50000000  0.49617200  0.49715400  1
  Cu  Cu4  1  0.50000000  0.72203900  0.88303800  1
  C  C5  1  0.00000000  0.00262800  0.00094100  1
  C  C6  1  0.00000000  0.80330000  0.59201600  1
  C  C7  1  0.00000000  0.19630900  0.40551400  1
  C  C8  1  0.00000000  0.59590700  0.19370500  1
  C  C9  1  0.00000000  0.40312100  0.80681300  1
  C  C10  1  0.00000000  0.77627700  0.06010400  1
  C  C11  1  0.00000000  0.21782300  0.92772800  1
  C  C12  1  0.00000000  0.07115700  0.22546200  1
  C  C13  1  0.00000000  0.91961000  0.77816600  1
  C  C14  1  0.50000000  0.58481600  0.15264900  1
  C  C15  1  0.50000000  0.42826200  0.83995400  1
  C  C16  1  0.50000000  0.82839300  0.58539600  1
  C  C17  1  0.50000000  0.16728700  0.42303700  1
  C  C18  1  0.00000000  0.60798200  0.72559100  1
  C  C19  1  0.00000000  0.39949300  0.28680200  1
  C  C20  1  0.00000000  0.70791800  0.39718400  1
  C  C21  1  0.00000000  0.29448000  0.60204900  1
  C  C22  1  0.50000000  0.99219900  0.99735800  1
