# generated using pymatgen
data_Cu2Ni5C3
_symmetry_space_group_name_H-M   'P 1'
_cell_length_a   10.58027627
_cell_length_b   10.58027627
_cell_length_c   12.87460800
_cell_angle_alpha   90.00000000
_cell_angle_beta   90.00000000
_cell_angle_gamma   117.14702677
_symmetry_Int_Tables_number   1
_chemical_formula_structural   Cu2Ni5C3
_chemical_formula_sum   'Cu8 Ni20 C12'
_cell_volume   1282.44655259
_cell_formula_units_Z   4
loop_
 _symmetry_equiv_pos_site_id
 _symmetry_equiv_pos_as_xyz
  1  'x, y, z'
loop_
 _atom_site_type_symbol
 _atom_site_label
 _atom_site_symmetry_multiplicity
 _atom_site_fract_x
 _atom_site_fract_y
 _atom_site_fract_z
 _atom_site_occupancy
  C  C0  1  0.12259100  0.87740900  0.74302800  1
  C  C1  1  0.87740900  0.12259100  0.24302800  1
  C  C2  1  0.62129200  0.37870800  0.74893200  1
  C  C3  1  0.37870800  0.62129200  0.24893200  1
  Ni  Ni4  1  0.15437800  0.84562200  0.53943300  1
  Ni  Ni5  1  0.84562200  0.15437800  0.03943300  1
  Ni  Ni6  1  0.64563600  0.35436400  0.54217300  1
  Ni  Ni7  1  0.35436400  0.64563600  0.04217300  1
  Ni  Ni8  1  0.09245600  0.90754400  0.94955700  1
  Ni  Ni9  1  0.90754400  0.09245600  0.44955700  1
  Ni  Ni10  1  0.59528100  0.40471900  0.95616400  1
  Ni  Ni11  1  0.40471900  0.59528100  0.45616400  1
  Ni  Ni12  1  0.26981900  0.73018100  0.77601600  1
  Ni  Ni13  1  0.73018100  0.26981900  0.27601600  1
  Ni  Ni14  1  0.77083900  0.22916100  0.76702600  1
  Ni  Ni15  1  0.22916100  0.77083900  0.26702600  1
  Ni  Ni16  1  0.97548700  0.02451300  0.70587600  1
  Ni  Ni17  1  0.02451300  0.97548700  0.20587600  1
  Ni  Ni18  1  0.47356200  0.52643800  0.71641700  1
  Ni  Ni19  1  0.52643800  0.47356200  0.21641700  1
  Ni  Ni20  1  0.37026200  0.13108200  0.78514700  1
  Ni  Ni21  1  0.86891800  0.62973800  0.78514700  1
  Ni  Ni22  1  0.62973800  0.86891800  0.28514700  1
  Ni  Ni23  1  0.13108200  0.37026200  0.28514700  1
  Cu  Cu24  1  0.24934800  0.20874000  0.96246400  1
  Cu  Cu25  1  0.79126000  0.75065200  0.96246400  1
  Cu  Cu26  1  0.75065200  0.79126000  0.46246400  1
  Cu  Cu27  1  0.20874000  0.24934800  0.46246400  1
  Cu  Cu28  1  0.04707000  0.49853100  0.01809300  1
  Cu  Cu29  1  0.50146900  0.95293000  0.01809300  1
  Cu  Cu30  1  0.95293000  0.50146900  0.51809300  1
  Cu  Cu31  1  0.49853100  0.04707000  0.51809300  1
  C  C32  1  0.18409700  0.26940600  0.95038000  1
  C  C33  1  0.73059400  0.81590300  0.95038000  1
  C  C34  1  0.81590300  0.73059400  0.45038000  1
  C  C35  1  0.26940600  0.18409700  0.45038000  1
  C  C36  1  0.99003000  0.54990700  0.06490700  1
  C  C37  1  0.45009300  0.00997000  0.06490700  1
  C  C38  1  0.00997000  0.45009300  0.56490700  1
  C  C39  1  0.54990700  0.99003000  0.56490700  1
