# generated using pymatgen
data_Cu4NiC9
_symmetry_space_group_name_H-M   'P 1'
_cell_length_a   5.27896500
_cell_length_b   10.61940100
_cell_length_c   23.12241300
_cell_angle_alpha   90.00000000
_cell_angle_beta   90.00000000
_cell_angle_gamma   90.00000000
_symmetry_Int_Tables_number   1
_chemical_formula_structural   Cu4NiC9
_chemical_formula_sum   'Cu16 Ni4 C36'
_cell_volume   1296.22966759
_cell_formula_units_Z   4
loop_
 _symmetry_equiv_pos_site_id
 _symmetry_equiv_pos_as_xyz
  1  'x, y, z'
loop_
 _atom_site_type_symbol
 _atom_site_label
 _atom_site_symmetry_multiplicity
 _atom_site_fract_x
 _atom_site_fract_y
 _atom_site_fract_z
 _atom_site_occupancy
  C  C0  1  0.71818100  0.25000000  0.54344200  1
  C  C1  1  0.21818100  0.25000000  0.95655800  1
  C  C2  1  0.28181900  0.75000000  0.45655800  1
  C  C3  1  0.78181900  0.75000000  0.04344200  1
  Ni  Ni4  1  0.04024200  0.25000000  0.32684900  1
  Ni  Ni5  1  0.54024200  0.25000000  0.17315100  1
  Ni  Ni6  1  0.95975800  0.75000000  0.67315100  1
  Ni  Ni7  1  0.45975800  0.75000000  0.82684900  1
  Cu  Cu8  1  0.79234200  0.08447300  0.32193300  1
  Cu  Cu9  1  0.29234200  0.41552700  0.17806700  1
  Cu  Cu10  1  0.20765800  0.58447300  0.67806700  1
  Cu  Cu11  1  0.70765800  0.91552700  0.82193300  1
  Cu  Cu12  1  0.20765800  0.91552700  0.67806700  1
  Cu  Cu13  1  0.70765800  0.58447300  0.82193300  1
  Cu  Cu14  1  0.79234200  0.41552700  0.32193300  1
  Cu  Cu15  1  0.29234200  0.08447300  0.17806700  1
  Cu  Cu16  1  0.81400900  0.01049100  0.41015900  1
  Cu  Cu17  1  0.31400900  0.48950900  0.08984100  1
  Cu  Cu18  1  0.18599100  0.51049100  0.58984100  1
  Cu  Cu19  1  0.68599100  0.98950900  0.91015900  1
  Cu  Cu20  1  0.18599100  0.98950900  0.58984100  1
  Cu  Cu21  1  0.68599100  0.51049100  0.91015900  1
  Cu  Cu22  1  0.81400900  0.48950900  0.41015900  1
  Cu  Cu23  1  0.31400900  0.01049100  0.08984100  1
  C  C24  1  0.08284400  0.99499100  0.42341700  1
  C  C25  1  0.58284400  0.50500900  0.07658300  1
  C  C26  1  0.91715600  0.49499100  0.57658300  1
  C  C27  1  0.41715600  0.00500900  0.92341700  1
  C  C28  1  0.91715600  0.00500900  0.57658300  1
  C  C29  1  0.41715600  0.49499100  0.92341700  1
  C  C30  1  0.08284400  0.50500900  0.42341700  1
  C  C31  1  0.58284400  0.99499100  0.07658300  1
  C  C32  1  0.67861400  0.89079400  0.40177200  1
  C  C33  1  0.17861400  0.60920600  0.09822800  1
  C  C34  1  0.32138600  0.39079400  0.59822800  1
  C  C35  1  0.82138600  0.10920600  0.90177200  1
  C  C36  1  0.32138600  0.10920600  0.59822800  1
  C  C37  1  0.82138600  0.39079400  0.90177200  1
  C  C38  1  0.67861400  0.60920600  0.40177200  1
  C  C39  1  0.17861400  0.89079400  0.09822800  1
  C  C40  1  0.68243600  0.10099300  0.44676100  1
  C  C41  1  0.18243600  0.39900700  0.05323900  1
  C  C42  1  0.31756400  0.60099300  0.55323900  1
  C  C43  1  0.81756400  0.89900700  0.94676100  1
  C  C44  1  0.31756400  0.89900700  0.55323900  1
  C  C45  1  0.81756400  0.60099300  0.94676100  1
  C  C46  1  0.68243600  0.39900700  0.44676100  1
  C  C47  1  0.18243600  0.10099300  0.05323900  1
  C  C48  1  0.22514700  0.25000000  0.49700400  1
  C  C49  1  0.72514700  0.25000000  0.00299600  1
  C  C50  1  0.77485300  0.75000000  0.50299600  1
  C  C51  1  0.27485300  0.75000000  0.99700400  1
  C  C52  1  0.82849000  0.25000000  0.66489200  1
  C  C53  1  0.32849000  0.25000000  0.83510800  1
  C  C54  1  0.17151000  0.75000000  0.33510800  1
  C  C55  1  0.67151000  0.75000000  0.16489200  1
