# generated using pymatgen
data_Cu9NiC2
_symmetry_space_group_name_H-M   'P 1'
_cell_length_a   8.08136000
_cell_length_b   8.08136000
_cell_length_c   11.65938000
_cell_angle_alpha   90.00000000
_cell_angle_beta   90.00000000
_cell_angle_gamma   90.00000000
_symmetry_Int_Tables_number   1
_chemical_formula_structural   Cu9NiC2
_chemical_formula_sum   'Cu36 Ni4 C8'
_cell_volume   761.45521319
_cell_formula_units_Z   4
loop_
 _symmetry_equiv_pos_site_id
 _symmetry_equiv_pos_as_xyz
  1  'x, y, z'
loop_
 _atom_site_type_symbol
 _atom_site_label
 _atom_site_symmetry_multiplicity
 _atom_site_fract_x
 _atom_site_fract_y
 _atom_site_fract_z
 _atom_site_occupancy
  C  C0  1  0.79233900  0.50000000  0.75000000  1
  C  C1  1  0.20766100  0.50000000  0.25000000  1
  C  C2  1  0.50000000  0.79233900  0.50000000  1
  C  C3  1  0.50000000  0.20766100  0.00000000  1
  C  C4  1  0.00000000  0.84005900  0.00000000  1
  C  C5  1  0.00000000  0.15994100  0.50000000  1
  C  C6  1  0.15994100  0.00000000  0.75000000  1
  C  C7  1  0.84005900  0.00000000  0.25000000  1
  Ni  Ni8  1  0.61844200  0.50000000  0.25000000  1
  Ni  Ni9  1  0.38155800  0.50000000  0.75000000  1
  Ni  Ni10  1  0.50000000  0.61844200  0.00000000  1
  Ni  Ni11  1  0.50000000  0.38155800  0.50000000  1
  Cu  Cu12  1  0.50809500  0.50809500  0.62500000  1
  Cu  Cu13  1  0.49190500  0.49190500  0.12500000  1
  Cu  Cu14  1  0.49190500  0.50809500  0.37500000  1
  Cu  Cu15  1  0.50809500  0.49190500  0.87500000  1
  Cu  Cu16  1  0.03857300  0.75268100  0.23163400  1
  Cu  Cu17  1  0.96142700  0.24731900  0.73163400  1
  Cu  Cu18  1  0.24731900  0.03857300  0.98163400  1
  Cu  Cu19  1  0.75268100  0.96142700  0.48163400  1
  Cu  Cu20  1  0.96142700  0.75268100  0.76836600  1
  Cu  Cu21  1  0.03857300  0.24731900  0.26836600  1
  Cu  Cu22  1  0.75268100  0.03857300  0.01836600  1
  Cu  Cu23  1  0.24731900  0.96142700  0.51836600  1
  Cu  Cu24  1  0.94583500  0.51616800  0.53886300  1
  Cu  Cu25  1  0.05416500  0.48383200  0.03886300  1
  Cu  Cu26  1  0.48383200  0.94583500  0.28886300  1
  Cu  Cu27  1  0.51616800  0.05416500  0.78886300  1
  Cu  Cu28  1  0.05416500  0.51616800  0.46113700  1
  Cu  Cu29  1  0.94583500  0.48383200  0.96113700  1
  Cu  Cu30  1  0.51616800  0.94583500  0.71113700  1
  Cu  Cu31  1  0.48383200  0.05416500  0.21113700  1
  Cu  Cu32  1  0.65425600  0.70614400  0.00236600  1
  Cu  Cu33  1  0.34574400  0.29385600  0.50236600  1
  Cu  Cu34  1  0.29385600  0.65425600  0.75236600  1
  Cu  Cu35  1  0.70614400  0.34574400  0.25236600  1
  Cu  Cu36  1  0.34574400  0.70614400  0.99763400  1
  Cu  Cu37  1  0.65425600  0.29385600  0.49763400  1
  Cu  Cu38  1  0.70614400  0.65425600  0.24763400  1
  Cu  Cu39  1  0.29385600  0.34574400  0.74763400  1
  Cu  Cu40  1  0.83981600  0.83295500  0.44802900  1
  Cu  Cu41  1  0.16018400  0.16704500  0.94802900  1
  Cu  Cu42  1  0.16704500  0.83981600  0.19802900  1
  Cu  Cu43  1  0.83295500  0.16018400  0.69802900  1
  Cu  Cu44  1  0.16018400  0.83295500  0.55197100  1
  Cu  Cu45  1  0.83981600  0.16704500  0.05197100  1
  Cu  Cu46  1  0.83295500  0.83981600  0.80197100  1
  Cu  Cu47  1  0.16704500  0.16018400  0.30197100  1
