# generated using pymatgen
data_CuNi4C3
_symmetry_space_group_name_H-M   'P 1'
_cell_length_a   7.33879709
_cell_length_b   7.33879709
_cell_length_c   9.85242345
_cell_angle_alpha   63.97921273
_cell_angle_beta   63.97921273
_cell_angle_gamma   52.39445102
_symmetry_Int_Tables_number   1
_chemical_formula_structural   CuNi4C3
_chemical_formula_sum   'Cu4 Ni16 C12'
_cell_volume   366.71171997
_cell_formula_units_Z   4
loop_
 _symmetry_equiv_pos_site_id
 _symmetry_equiv_pos_as_xyz
  1  'x, y, z'
loop_
 _atom_site_type_symbol
 _atom_site_label
 _atom_site_symmetry_multiplicity
 _atom_site_fract_x
 _atom_site_fract_y
 _atom_site_fract_z
 _atom_site_occupancy
  C  C0  1  0.55681600  0.75447900  0.64349900  1
  C  C1  1  0.44318400  0.24552100  0.35650100  1
  C  C2  1  0.24552100  0.44318400  0.85650100  1
  C  C3  1  0.75447900  0.55681600  0.14349900  1
  C  C4  1  0.72084500  0.16711000  0.00163400  1
  C  C5  1  0.27915500  0.83289000  0.99836600  1
  C  C6  1  0.83289000  0.27915500  0.49836600  1
  C  C7  1  0.16711000  0.72084500  0.50163400  1
  C  C8  1  0.72809900  0.91761300  0.80836200  1
  C  C9  1  0.27190100  0.08238700  0.19163800  1
  C  C10  1  0.08238700  0.27190100  0.69163800  1
  C  C11  1  0.91761300  0.72809900  0.30836200  1
  Ni  Ni12  1  0.58324700  0.15091200  0.86329300  1
  Ni  Ni13  1  0.41675300  0.84908800  0.13670700  1
  Ni  Ni14  1  0.84908800  0.41675300  0.63670700  1
  Ni  Ni15  1  0.15091200  0.58324700  0.36329300  1
  Ni  Ni16  1  0.28207100  0.10811700  0.57909200  1
  Ni  Ni17  1  0.71792900  0.89188300  0.42090800  1
  Ni  Ni18  1  0.89188300  0.71792900  0.92090800  1
  Ni  Ni19  1  0.10811700  0.28207100  0.07909200  1
  Ni  Ni20  1  0.55914000  0.85700100  0.80840900  1
  Ni  Ni21  1  0.44086000  0.14299900  0.19159100  1
  Ni  Ni22  1  0.14299900  0.44086000  0.69159100  1
  Ni  Ni23  1  0.85700100  0.55914000  0.30840900  1
  Ni  Ni24  1  0.88018600  0.95706800  0.63999900  1
  Ni  Ni25  1  0.11981400  0.04293200  0.36000100  1
  Ni  Ni26  1  0.04293200  0.11981400  0.86000100  1
  Ni  Ni27  1  0.95706800  0.88018600  0.13999900  1
  Cu  Cu28  1  0.40851200  0.61768200  0.60846600  1
  Cu  Cu29  1  0.59148800  0.38231800  0.39153400  1
  Cu  Cu30  1  0.38231800  0.59148800  0.89153400  1
  Cu  Cu31  1  0.61768200  0.40851200  0.10846600  1
