# generated using pymatgen
data_Cu7(NiC5)3
_symmetry_space_group_name_H-M   'P 1'
_cell_length_a   8.01654439
_cell_length_b   8.23852586
_cell_length_c   9.54150141
_cell_angle_alpha   110.07549504
_cell_angle_beta   105.80587892
_cell_angle_gamma   82.37297497
_symmetry_Int_Tables_number   1
_chemical_formula_structural   Cu7(NiC5)3
_chemical_formula_sum   'Cu14 Ni6 C30'
_cell_volume   568.96019584
_cell_formula_units_Z   2
loop_
 _symmetry_equiv_pos_site_id
 _symmetry_equiv_pos_as_xyz
  1  'x, y, z'
loop_
 _atom_site_type_symbol
 _atom_site_label
 _atom_site_symmetry_multiplicity
 _atom_site_fract_x
 _atom_site_fract_y
 _atom_site_fract_z
 _atom_site_occupancy
  C  C0  1  0.78289700  0.30934500  0.81695000  1
  C  C1  1  0.21247200  0.68226800  0.16628600  1
  C  C2  1  0.48065200  0.19551700  0.51690400  1
  C  C3  1  0.64426100  0.13739500  0.44670700  1
  C  C4  1  0.34542900  0.85047600  0.54033000  1
  C  C5  1  0.46415700  0.92569600  0.47132000  1
  C  C6  1  0.52869900  0.64061600  0.74396100  1
  C  C7  1  0.44858200  0.46888300  0.62342600  1
  C  C8  1  0.49233600  0.37492400  0.25116500  1
  C  C9  1  0.55448000  0.56115800  0.36289400  1
  C  C10  1  0.88371500  0.51215800  0.61619300  1
  C  C11  1  0.01013400  0.34330600  0.59128700  1
  C  C12  1  0.99654600  0.63279900  0.39392500  1
  C  C13  1  0.13120300  0.47030000  0.36458700  1
  C  C14  1  0.07588800  0.02527200  0.71176100  1
  C  C15  1  0.89830400  0.95109000  0.60210700  1
  C  C16  1  0.90329200  0.96106200  0.26082900  1
  C  C17  1  0.07779900  0.00960200  0.38837500  1
  C  C18  1  0.38928200  0.37514000  0.84736500  1
  C  C19  1  0.43178900  0.17669500  0.83768600  1
  C  C20  1  0.60960600  0.66268400  0.14432000  1
  C  C21  1  0.54207400  0.85417500  0.14772200  1
  C  C22  1  0.74294700  0.31107100  0.14239100  1
  C  C23  1  0.88652700  0.44629100  0.17847500  1
  C  C24  1  0.12214600  0.53996800  0.80392800  1
  C  C25  1  0.26031000  0.68259100  0.84248300  1
  C  C26  1  0.78425700  0.91472700  0.80915600  1
  C  C27  1  0.72923400  0.02297700  0.96295300  1
  C  C28  1  0.20148100  0.08032100  0.20436000  1
  C  C29  1  0.22572000  0.00281200  0.03481800  1
  Ni  Ni30  1  0.85558500  0.67409600  0.97923400  1
  Ni  Ni31  1  0.14424100  0.31270100  0.99697600  1
  Ni  Ni32  1  0.33012000  0.88473500  0.77279300  1
  Ni  Ni33  1  0.65798300  0.11406300  0.20767400  1
  Ni  Ni34  1  0.21949500  0.27471600  0.45870600  1
  Ni  Ni35  1  0.79423500  0.70229400  0.51859600  1
  Cu  Cu36  1  0.60220800  0.14560000  0.53788200  1
  Cu  Cu37  1  0.36260600  0.85551700  0.44241800  1
  Cu  Cu38  1  0.55587200  0.51591000  0.69923600  1
  Cu  Cu39  1  0.45293300  0.49726100  0.28850200  1
  Cu  Cu40  1  0.94211100  0.42055600  0.66313500  1
  Cu  Cu41  1  0.06825300  0.56256100  0.32135000  1
  Cu  Cu42  1  0.95688700  0.06201700  0.66413400  1
  Cu  Cu43  1  0.01361700  0.91102200  0.31012400  1
  Cu  Cu44  1  0.47862200  0.27966800  0.83440200  1
  Cu  Cu45  1  0.50820900  0.74382700  0.14918600  1
  Cu  Cu46  1  0.77665700  0.39719600  0.10440000  1
  Cu  Cu47  1  0.23130600  0.59138100  0.87786200  1
  Cu  Cu48  1  0.76521200  0.03303800  0.87533000  1
  Cu  Cu49  1  0.20902900  0.97122400  0.12032500  1
