# generated using pymatgen
data_Cu5Ni3C28
_symmetry_space_group_name_H-M   'P 1'
_cell_length_a   11.19608539
_cell_length_b   15.44696459
_cell_length_c   11.33423657
_cell_angle_alpha   89.95411642
_cell_angle_beta   91.85262871
_cell_angle_gamma   90.79660241
_symmetry_Int_Tables_number   1
_chemical_formula_structural   Cu5Ni3C28
_chemical_formula_sum   'Cu20 Ni12 C112'
_cell_volume   1958.99150094
_cell_formula_units_Z   4
loop_
 _symmetry_equiv_pos_site_id
 _symmetry_equiv_pos_as_xyz
  1  'x, y, z'
loop_
 _atom_site_type_symbol
 _atom_site_label
 _atom_site_symmetry_multiplicity
 _atom_site_fract_x
 _atom_site_fract_y
 _atom_site_fract_z
 _atom_site_occupancy
  C  C0  1  0.97500235  0.12402055  0.53846333  1
  C  C1  1  0.97497370  0.12193414  0.03403117  1
  C  C2  1  0.97898265  0.62051654  0.53995822  1
  C  C3  1  0.97884508  0.62171610  0.01628020  1
  C  C4  1  0.54546987  0.12342677  0.47993673  1
  C  C5  1  0.54193606  0.12244266  0.98214810  1
  C  C6  1  0.54594215  0.62603970  0.47750810  1
  C  C7  1  0.55260515  0.62131792  0.97745844  1
  C  C8  1  0.52773205  0.37418932  0.98640775  1
  C  C9  1  0.51149063  0.37110725  0.48684289  1
  C  C10  1  0.52758874  0.86710121  0.97809586  1
  C  C11  1  0.51890089  0.87256042  0.47707538  1
  C  C12  1  0.95475803  0.38279259  0.01544314  1
  C  C13  1  0.95442334  0.38746791  0.51612358  1
  C  C14  1  0.95477379  0.87980186  0.01182241  1
  C  C15  1  0.95408076  0.87924299  0.51296443  1
  C  C16  1  0.24237547  0.38878684  0.26564291  1
  C  C17  1  0.24467959  0.39440091  0.71482713  1
  C  C18  1  0.24467165  0.88709860  0.26812384  1
  C  C19  1  0.24107285  0.89140556  0.74662933  1
  C  C20  1  0.73975336  0.37832668  0.25919693  1
  C  C21  1  0.74983068  0.37673788  0.76703390  1
  C  C22  1  0.73468186  0.86307732  0.24605696  1
  C  C23  1  0.73045746  0.85907861  0.74748867  1
  C  C24  1  0.22728377  0.12049182  0.22168522  1
  C  C25  1  0.22843389  0.12003244  0.73245645  1
  C  C26  1  0.23228294  0.62198587  0.21781441  1
  C  C27  1  0.21980296  0.61535536  0.73695634  1
  C  C28  1  0.75852998  0.12420968  0.25537242  1
  C  C29  1  0.75344032  0.12543672  0.75352440  1
  C  C30  1  0.77497642  0.61759125  0.25419148  1
  C  C31  1  0.76819096  0.61453200  0.75224941  1
  Ni  Ni32  1  0.98814277  0.99649960  0.27382751  1
  Ni  Ni33  1  0.98113752  0.99623377  0.76964243  1
  Ni  Ni34  1  0.00152061  0.50057972  0.27181719  1
  Ni  Ni35  1  0.24563851  0.97352310  0.01880607  1
  Ni  Ni36  1  0.23510006  0.98483727  0.51404602  1
  Ni  Ni37  1  0.24657014  0.46950587  0.01466330  1
  Ni  Ni38  1  0.26415834  0.24611153  0.94182106  1
  Ni  Ni39  1  0.26275408  0.23290347  0.44691563  1
  Ni  Ni40  1  0.26512054  0.74325995  0.94318378  1
  Ni  Ni41  1  0.99400564  0.25438333  0.28370696  1
  Ni  Ni42  1  0.99467133  0.25557313  0.78411360  1
  Ni  Ni43  1  0.00533992  0.75236980  0.27926447  1
  Cu  Cu44  1  0.99398228  0.49551256  0.76188841  1
  Cu  Cu45  1  0.50083655  0.99154769  0.22518410  1
  Cu  Cu46  1  0.49673850  0.99317103  0.72621281  1
  Cu  Cu47  1  0.50082621  0.50025562  0.23336607  1
  Cu  Cu48  1  0.49444306  0.49051120  0.72593213  1
  Cu  Cu49  1  0.22809877  0.52630595  0.50522990  1
  Cu  Cu50  1  0.74218205  0.99976547  0.99396752  1
  Cu  Cu51  1  0.74301170  0.99975842  0.49616636  1
  Cu  Cu52  1  0.75083714  0.50063471  0.00316838  1
  Cu  Cu53  1  0.74092849  0.50105909  0.50224521  1
  Cu  Cu54  1  0.27494618  0.73507085  0.44637349  1
  Cu  Cu55  1  0.74467449  0.24797665  0.00977858  1
  Cu  Cu56  1  0.74460410  0.25078543  0.50702250  1
  Cu  Cu57  1  0.75349539  0.74789503  0.99953295  1
  Cu  Cu58  1  0.75207278  0.74944660  0.50022152  1
  Cu  Cu59  1  0.99357200  0.75573583  0.77343067  1
  Cu  Cu60  1  0.49966211  0.25280776  0.25145807  1
  Cu  Cu61  1  0.50017033  0.25369107  0.75207785  1
  Cu  Cu62  1  0.50753077  0.74247851  0.24580730  1
  Cu  Cu63  1  0.49324199  0.74643775  0.74605050  1
  C  C64  1  0.56714140  0.25052977  0.09018448  1
  C  C65  1  0.56918603  0.25086809  0.59179398  1
  C  C66  1  0.59933042  0.75575954  0.09268952  1
  C  C67  1  0.55561530  0.75360927  0.58268155  1
  C  C68  1  0.38576361  0.17939995  0.36727240  1
  C  C69  1  0.38446944  0.18571338  0.87225283  1
  C  C70  1  0.39750536  0.66320094  0.34131438  1
  C  C71  1  0.39158494  0.68488024  0.88292417  1
  C  C72  1  0.92155529  0.23846551  0.41962956  1
  C  C73  1  0.91970762  0.23739354  0.91921350  1
  C  C74  1  0.93473780  0.73743427  0.41763628  1
  C  C75  1  0.90836085  0.74397448  0.92714469  1
  C  C76  1  0.17254889  0.25029393  0.30638869  1
  C  C77  1  0.17560809  0.25836700  0.80191529  1
  C  C78  1  0.17563302  0.75290407  0.28655019  1
  C  C79  1  0.18400435  0.75585098  0.80332327  1
  C  C80  1  0.65423020  0.23195250  0.34507190  1
  C  C81  1  0.65467543  0.23468139  0.84590713  1
  C  C82  1  0.66460474  0.72724380  0.34712924  1
  C  C83  1  0.65067745  0.72383023  0.83837898  1
  C  C84  1  0.87690183  0.26936100  0.16558031  1
  C  C85  1  0.88057844  0.26699518  0.66286185  1
  C  C86  1  0.88746034  0.78154260  0.16793105  1
  C  C87  1  0.85911429  0.77737615  0.64427698  1
  C  C88  1  0.35736830  0.52725647  0.10996199  1
  C  C89  1  0.34775307  0.51825288  0.64393890  1
  C  C90  1  0.35552642  0.03015473  0.11548294  1
  C  C91  1  0.35053952  0.03141225  0.61779673  1
  C  C92  1  0.87172861  0.47800440  0.16381840  1
  C  C93  1  0.84086421  0.47792661  0.64715239  1
  C  C94  1  0.86633988  0.97516374  0.16977161  1
  C  C95  1  0.85865068  0.97555806  0.66751978  1
  C  C96  1  0.19876503  0.01693070  0.36168860  1
  C  C97  1  0.22459182  0.01009767  0.86899376  1
  C  C98  1  0.17145316  0.51188711  0.33731743  1
  C  C99  1  0.21192357  0.50072060  0.86575463  1
  C  C100  1  0.62783251  0.03043305  0.34110677  1
  C  C101  1  0.62469232  0.03296228  0.84189505  1
  C  C102  1  0.64585889  0.52220300  0.34801317  1
  C  C103  1  0.62503826  0.51563873  0.83800026  1
  C  C104  1  0.90443117  0.01601926  0.41037589  1
  C  C105  1  0.89925476  0.01565113  0.90879170  1
  C  C106  1  0.91390514  0.51802041  0.40123596  1
  C  C107  1  0.89476342  0.51033513  0.90290686  1
  C  C108  1  0.11346638  0.46787028  0.10211197  1
  C  C109  1  0.09450933  0.47822305  0.62016666  1
  C  C110  1  0.11273356  0.97601731  0.10889432  1
  C  C111  1  0.10625135  0.97653406  0.61222478  1
  C  C112  1  0.60415563  0.49092852  0.09181763  1
  C  C113  1  0.57814389  0.49570825  0.58432014  1
  C  C114  1  0.59896204  0.98245044  0.08185201  1
  C  C115  1  0.59689835  0.98467390  0.58326404  1
  C  C116  1  0.01995511  0.37564929  0.30607056  1
  C  C117  1  0.01054534  0.37491028  0.80878792  1
  C  C118  1  0.03183801  0.88350811  0.31659839  1
  C  C119  1  0.03433523  0.88871616  0.81549071  1
  C  C120  1  0.44833577  0.37912506  0.29077119  1
  C  C121  1  0.44165275  0.37640512  0.79462097  1
  C  C122  1  0.45363345  0.86832201  0.28040878  1
  C  C123  1  0.44438174  0.87283509  0.78744009  1
  C  C124  1  0.01045979  0.12341055  0.23867820  1
  C  C125  1  0.01482245  0.12205574  0.74577148  1
  C  C126  1  0.00481360  0.62692981  0.22715872  1
  C  C127  1  0.99973573  0.62094407  0.74500154  1
  C  C128  1  0.17839116  0.17935715  0.03543410  1
  C  C129  1  0.17840102  0.16553285  0.54431615  1
  C  C130  1  0.17866924  0.67240020  0.02894605  1
  C  C131  1  0.18363779  0.65367951  0.54546262  1
  C  C132  1  0.75567423  0.12034075  0.04704069  1
  C  C133  1  0.75582819  0.12209095  0.54464389  1
  C  C134  1  0.76229192  0.62528654  0.04449246  1
  C  C135  1  0.75643724  0.62712517  0.54238281  1
  C  C136  1  0.29749018  0.33804252  0.51060748  1
  C  C137  1  0.29941047  0.35229186  0.02135386  1
  C  C138  1  0.28589721  0.87192477  0.49659136  1
  C  C139  1  0.29504753  0.85631810  0.01410546  1
  C  C140  1  0.74526744  0.37788619  0.46469445  1
  C  C141  1  0.74615315  0.37613797  0.97541319  1
  C  C142  1  0.74709449  0.87418373  0.45503901  1
  C  C143  1  0.74536967  0.87453938  0.95720039  1
