# generated using pymatgen
data_CuNiC7
_symmetry_space_group_name_H-M   'P 1'
_cell_length_a   11.56653040
_cell_length_b   11.74620290
_cell_length_c   17.57556491
_cell_angle_alpha   109.20626047
_cell_angle_beta   109.12364500
_cell_angle_gamma   89.80348760
_symmetry_Int_Tables_number   1
_chemical_formula_structural   CuNiC7
_chemical_formula_sum   'Cu16 Ni16 C112'
_cell_volume   2115.89621853
_cell_formula_units_Z   16
loop_
 _symmetry_equiv_pos_site_id
 _symmetry_equiv_pos_as_xyz
  1  'x, y, z'
loop_
 _atom_site_type_symbol
 _atom_site_label
 _atom_site_symmetry_multiplicity
 _atom_site_fract_x
 _atom_site_fract_y
 _atom_site_fract_z
 _atom_site_occupancy
  Ni  Ni0  1  0.30148662  0.06415376  0.11124205  1
  Ni  Ni1  1  0.30292430  0.55829160  0.11104082  1
  Ni  Ni2  1  0.80303177  0.05944055  0.11255385  1
  Ni  Ni3  1  0.80166588  0.55737801  0.10836846  1
  Ni  Ni4  1  0.19833206  0.93728745  0.38979436  1
  Ni  Ni5  1  0.19469464  0.92750442  0.87937282  1
  Ni  Ni6  1  0.69926710  0.44110204  0.39449532  1
  Ni  Ni7  1  0.68778525  0.42158111  0.87851134  1
  Ni  Ni8  1  0.69616498  0.93479856  0.39050922  1
  Ni  Ni9  1  0.05327251  0.29883763  0.10989615  1
  Ni  Ni10  1  0.05301472  0.79448555  0.10980118  1
  Ni  Ni11  1  0.54907794  0.29670592  0.10947545  1
  Ni  Ni12  1  0.55383608  0.79604361  0.10892625  1
  Ni  Ni13  1  0.45057189  0.70914453  0.39292650  1
  Ni  Ni14  1  0.44146760  0.70434129  0.88166692  1
  Ni  Ni15  1  0.94115082  0.70049593  0.87788844  1
  Cu  Cu16  1  0.30065558  0.07280941  0.60075118  1
  Cu  Cu17  1  0.30506325  0.56586388  0.60265378  1
  Cu  Cu18  1  0.80402247  0.06235402  0.59714971  1
  Cu  Cu19  1  0.81336555  0.56588186  0.60338630  1
  Cu  Cu20  1  0.19894739  0.44318122  0.40227456  1
  Cu  Cu21  1  0.19904477  0.43092289  0.89806040  1
  Cu  Cu22  1  0.70155768  0.93720761  0.89643677  1
  Cu  Cu23  1  0.05270422  0.27867219  0.59761131  1
  Cu  Cu24  1  0.06653649  0.78862369  0.60482444  1
  Cu  Cu25  1  0.55896772  0.28301430  0.60151087  1
  Cu  Cu26  1  0.55947692  0.78927317  0.60328058  1
  Cu  Cu27  1  0.44673499  0.21127999  0.40415112  1
  Cu  Cu28  1  0.44553405  0.21639299  0.89591202  1
  Cu  Cu29  1  0.94664060  0.21374581  0.40162557  1
  Cu  Cu30  1  0.95307897  0.21595807  0.89851414  1
  Cu  Cu31  1  0.94794317  0.71281254  0.40257488  1
  C  C32  1  0.09010711  0.08444162  0.74391620  1
  C  C33  1  0.12445980  0.57299739  0.74332752  1
  C  C34  1  0.57709886  0.07423324  0.74604810  1
  C  C35  1  0.59856865  0.58093379  0.74149102  1
  C  C36  1  0.32163393  0.41313065  0.74465586  1
  C  C37  1  0.37328826  0.92219622  0.74422219  1
  C  C38  1  0.86508387  0.39789927  0.74222804  1
  C  C39  1  0.85859339  0.92426177  0.74674455  1
  C  C40  1  0.00171792  0.99823665  0.99583404  1
  C  C41  1  0.01264197  0.00172223  0.50457271  1
  C  C42  1  0.00051873  0.49586700  0.99512534  1
  C  C43  1  0.01530976  0.50339412  0.50478817  1
  C  C44  1  0.50109947  0.99758881  0.99557346  1
  C  C45  1  0.51182241  0.00578929  0.50860125  1
  C  C46  1  0.49917638  0.49739504  0.99374044  1
  C  C47  1  0.51435202  0.50278249  0.50779711  1
  C  C48  1  0.25026159  0.24670501  0.99445904  1
  C  C49  1  0.26168686  0.25657273  0.50642689  1
  C  C50  1  0.24915965  0.74496075  0.99377057  1
  C  C51  1  0.26528025  0.75280149  0.50643667  1
  C  C52  1  0.74856439  0.24281483  0.99287450  1
  C  C53  1  0.76494280  0.25234461  0.50602966  1
  C  C54  1  0.74945073  0.74529091  0.99237211  1
  C  C55  1  0.76636395  0.75454528  0.50884302  1
  C  C56  1  0.10470136  0.10842968  0.25898264  1
  C  C57  1  0.09430787  0.61119033  0.25728792  1
  C  C58  1  0.60253258  0.10172312  0.25731802  1
  C  C59  1  0.60267979  0.60530298  0.25208377  1
  C  C60  1  0.34451405  0.39946772  0.25794817  1
  C  C61  1  0.36289382  0.89674292  0.25008584  1
  C  C62  1  0.85522609  0.40040189  0.25204590  1
  C  C63  1  0.86379435  0.89449068  0.25023202  1
  C  C64  1  0.12699569  0.12572697  0.49116827  1
  C  C65  1  0.11716493  0.11774319  0.98147211  1
  C  C66  1  0.13053563  0.62072185  0.48993096  1
  C  C67  1  0.11916309  0.61296239  0.98024838  1
  C  C68  1  0.63147350  0.12853701  0.49926117  1
  C  C69  1  0.61956786  0.11364427  0.98228523  1
  C  C70  1  0.63487348  0.62568203  0.49998669  1
  C  C71  1  0.61864677  0.61573888  0.98056562  1
  C  C72  1  0.12663256  0.37270880  0.99772802  1
  C  C73  1  0.14767235  0.38950880  0.52226182  1
  C  C74  1  0.12785992  0.87417846  0.00065987  1
  C  C75  1  0.14836723  0.88723476  0.52405538  1
  C  C76  1  0.62332004  0.36968726  0.99736332  1
  C  C77  1  0.65110149  0.38923619  0.52840381  1
  C  C78  1  0.62935544  0.87497757  0.99895876  1
  C  C79  1  0.64905528  0.88863557  0.52698371  1
  C  C80  1  0.38239034  0.12822467  0.49794046  1
  C  C81  1  0.37060673  0.11732970  0.98102401  1
  C  C82  1  0.38100300  0.61809045  0.49605644  1
  C  C83  1  0.36816001  0.61559836  0.98458361  1
  C  C84  1  0.88075139  0.11987724  0.49013396  1
  C  C85  1  0.86731819  0.11257439  0.97780102  1
  C  C86  1  0.88687023  0.62564840  0.49891455  1
  C  C87  1  0.86925712  0.61524701  0.98240234  1
  C  C88  1  0.37525187  0.37391549  0.99762515  1
  C  C89  1  0.40180929  0.38866621  0.52968103  1
  C  C90  1  0.37786790  0.87584686  0.00224018  1
  C  C91  1  0.39888199  0.88952121  0.52760250  1
  C  C92  1  0.87588762  0.36972497  0.99747662  1
  C  C93  1  0.90044834  0.38568345  0.52456178  1
  C  C94  1  0.87506326  0.87565348  0.99830374  1
  C  C95  1  0.90053919  0.88819073  0.52794735  1
  C  C96  1  0.06449457  0.08148341  0.13401820  1
  C  C97  1  0.07699215  0.10989233  0.64205533  1
  C  C98  1  0.06899068  0.56865470  0.13281225  1
  C  C99  1  0.09784706  0.61029102  0.64347773  1
  C  C100  1  0.56531597  0.07785075  0.13357891  1
  C  C101  1  0.57522663  0.10263735  0.64586127  1
  C  C102  1  0.57356632  0.57900466  0.13018999  1
  C  C103  1  0.58690267  0.61864397  0.64513107  1
  C  C104  1  0.44495303  0.39666011  0.37189843  1
  C  C105  1  0.42003063  0.41264881  0.85387797  1
  C  C106  1  0.44317927  0.92681483  0.37337292  1
  C  C107  1  0.43936561  0.91072664  0.85325017  1
  C  C108  1  0.95015932  0.39906084  0.36865470  1
  C  C109  1  0.93690005  0.40020956  0.85607407  1
  C  C110  1  0.94236062  0.90154173  0.37047795  1
  C  C111  1  0.93802714  0.90946261  0.85309435  1
  C  C112  1  0.31661590  0.30553224  0.13465877  1
  C  C113  1  0.31461086  0.28916620  0.64254315  1
  C  C114  1  0.31356411  0.79901677  0.13148117  1
  C  C115  1  0.34090882  0.78419722  0.64461628  1
  C  C116  1  0.82384912  0.29649520  0.13358828  1
  C  C117  1  0.84159073  0.26912010  0.64016495  1
  C  C118  1  0.81819163  0.79690853  0.13076888  1
  C  C119  1  0.84284384  0.78958721  0.64911096  1
  C  C120  1  0.20482955  0.22639833  0.36972229  1
  C  C121  1  0.17886068  0.19801285  0.85232927  1
  C  C122  1  0.20584452  0.70923578  0.37247040  1
  C  C123  1  0.18834190  0.69244008  0.85270004  1
  C  C124  1  0.70476528  0.21182252  0.37008013  1
  C  C125  1  0.67135730  0.18553862  0.85376772  1
  C  C126  1  0.70339392  0.70299949  0.37223235  1
  C  C127  1  0.67931597  0.69947068  0.84989252  1
  C  C128  1  0.45175133  0.07276725  0.27354699  1
  C  C129  1  0.40608303  0.09274731  0.74633458  1
  C  C130  1  0.45516491  0.53088647  0.25428995  1
  C  C131  1  0.43388598  0.53675597  0.73391233  1
  C  C132  1  0.95667959  0.06583890  0.27650939  1
  C  C133  1  0.91476609  0.08176258  0.74515262  1
  C  C134  1  0.94447176  0.56310944  0.27191801  1
  C  C135  1  0.94615017  0.53432020  0.73217432  1
  C  C136  1  0.19123390  0.44926794  0.26710366  1
  C  C137  1  0.14937790  0.40231537  0.74532170  1
  C  C138  1  0.20464236  0.96521247  0.24652768  1
  C  C139  1  0.19529279  0.95402176  0.73415173  1
  C  C140  1  0.69747785  0.45255965  0.25088222  1
  C  C141  1  0.69856238  0.44939409  0.73399771  1
  C  C142  1  0.70798700  0.96228693  0.24773183  1
  C  C143  1  0.69153473  0.94227183  0.74381550  1
