# generated using pymatgen
data_Cu(NiC2)6
_symmetry_space_group_name_H-M   'P 1'
_cell_length_a   16.46685800
_cell_length_b   6.65173200
_cell_length_c   7.21130596
_cell_angle_alpha   74.48582360
_cell_angle_beta   90.00000000
_cell_angle_gamma   90.00000000
_symmetry_Int_Tables_number   1
_chemical_formula_structural   Cu(NiC2)6
_chemical_formula_sum   'Cu4 Ni24 C48'
_cell_volume   761.09717147
_cell_formula_units_Z   4
loop_
 _symmetry_equiv_pos_site_id
 _symmetry_equiv_pos_as_xyz
  1  'x, y, z'
loop_
 _atom_site_type_symbol
 _atom_site_label
 _atom_site_symmetry_multiplicity
 _atom_site_fract_x
 _atom_site_fract_y
 _atom_site_fract_z
 _atom_site_occupancy
  Ni  Ni0  1  0.96695400  0.94568600  0.19342500  1
  Ni  Ni1  1  0.03304600  0.05431400  0.80657500  1
  Ni  Ni2  1  0.46695400  0.55431400  0.80657500  1
  Ni  Ni3  1  0.53304600  0.44568600  0.19342500  1
  Ni  Ni4  1  0.55555200  0.90256400  0.63457700  1
  Ni  Ni5  1  0.44444800  0.09743600  0.36542300  1
  Ni  Ni6  1  0.05555200  0.59743600  0.36542300  1
  Ni  Ni7  1  0.94444800  0.40256400  0.63457700  1
  Ni  Ni8  1  0.47359900  0.82759300  0.04372600  1
  Ni  Ni9  1  0.52640100  0.17240700  0.95627400  1
  Ni  Ni10  1  0.97359900  0.67240700  0.95627400  1
  Ni  Ni11  1  0.02640100  0.32759300  0.04372600  1
  Ni  Ni12  1  0.70742900  0.86413000  0.78730400  1
  Ni  Ni13  1  0.29257100  0.13587000  0.21269600  1
  Ni  Ni14  1  0.20742900  0.63587000  0.21269600  1
  Ni  Ni15  1  0.79257100  0.36413000  0.78730400  1
  Ni  Ni16  1  0.79631300  0.95853400  0.07114100  1
  Ni  Ni17  1  0.20368700  0.04146600  0.92885900  1
  Ni  Ni18  1  0.29631300  0.54146600  0.92885900  1
  Ni  Ni19  1  0.70368700  0.45853400  0.07114100  1
  Ni  Ni20  1  0.99427900  0.82149700  0.57405200  1
  Ni  Ni21  1  0.00572100  0.17850300  0.42594800  1
  Ni  Ni22  1  0.49427900  0.67850300  0.42594800  1
  Ni  Ni23  1  0.50572100  0.32149700  0.57405200  1
  Cu  Cu24  1  0.69042800  0.65370300  0.42299400  1
  Cu  Cu25  1  0.30957200  0.34629700  0.57700600  1
  Cu  Cu26  1  0.19042800  0.84629700  0.57700600  1
  Cu  Cu27  1  0.80957200  0.15370300  0.42299400  1
  C  C28  1  0.87900000  0.00183500  0.78624600  1
  C  C29  1  0.12100000  0.99816500  0.21375400  1
  C  C30  1  0.37900000  0.49816500  0.21375400  1
  C  C31  1  0.62100000  0.50183500  0.78624600  1
  C  C32  1  0.61764000  0.81247800  0.06268500  1
  C  C33  1  0.38236000  0.18752200  0.93731500  1
  C  C34  1  0.11764000  0.68752200  0.93731500  1
  C  C35  1  0.88236000  0.31247800  0.06268500  1
  C  C36  1  0.86414300  0.66192500  0.41697000  1
  C  C37  1  0.13585700  0.33807500  0.58303000  1
  C  C38  1  0.36414300  0.83807500  0.58303000  1
  C  C39  1  0.63585700  0.16192500  0.41697000  1
  C  C40  1  0.94662700  0.67583600  0.40959900  1
  C  C41  1  0.05337300  0.32416400  0.59040100  1
  C  C42  1  0.44662700  0.82416400  0.59040100  1
  C  C43  1  0.55337300  0.17583600  0.40959900  1
  C  C44  1  0.70084600  0.77165400  0.08448000  1
  C  C45  1  0.29915400  0.22834600  0.91552000  1
  C  C46  1  0.20084600  0.72834600  0.91552000  1
  C  C47  1  0.79915400  0.27165400  0.08448000  1
  C  C48  1  0.81354200  0.83606600  0.36320500  1
  C  C49  1  0.18645800  0.16393400  0.63679500  1
  C  C50  1  0.31354200  0.66393400  0.63679500  1
  C  C51  1  0.68645800  0.33606600  0.36320500  1
  C  C52  1  0.57078100  0.72809100  0.22618500  1
  C  C53  1  0.42921900  0.27190900  0.77381500  1
  C  C54  1  0.07078100  0.77190900  0.77381500  1
  C  C55  1  0.92921900  0.22809100  0.22618500  1
  C  C56  1  0.41295800  0.58496800  0.03707400  1
  C  C57  1  0.58704200  0.41503200  0.96292600  1
  C  C58  1  0.91295800  0.91503200  0.96292600  1
  C  C59  1  0.08704200  0.08496800  0.03707400  1
  C  C60  1  0.58143400  0.92434100  0.89455200  1
  C  C61  1  0.41856600  0.07565900  0.10544800  1
  C  C62  1  0.08143400  0.57565900  0.10544800  1
  C  C63  1  0.91856600  0.42434100  0.89455200  1
  C  C64  1  0.42538000  0.45316900  0.38172900  1
  C  C65  1  0.57462000  0.54683100  0.61827100  1
  C  C66  1  0.92538000  0.04683100  0.61827100  1
  C  C67  1  0.07462000  0.95316900  0.38172900  1
  C  C68  1  0.67474100  0.96931000  0.48924100  1
  C  C69  1  0.32525900  0.03069000  0.51075900  1
  C  C70  1  0.17474100  0.53069000  0.51075900  1
  C  C71  1  0.82525900  0.46931000  0.48924100  1
  C  C72  1  0.20258200  0.94159500  0.23976700  1
  C  C73  1  0.79741800  0.05840500  0.76023300  1
  C  C74  1  0.70258200  0.55840500  0.76023300  1
  C  C75  1  0.29741800  0.44159500  0.23976700  1
