# generated using pymatgen
data_Cu8NiC4
_symmetry_space_group_name_H-M   'P 1'
_cell_length_a   14.46274022
_cell_length_b   14.46274022
_cell_length_c   6.07007490
_cell_angle_alpha   77.91566602
_cell_angle_beta   77.91566602
_cell_angle_gamma   13.95925182
_symmetry_Int_Tables_number   1
_chemical_formula_structural   Cu8NiC4
_chemical_formula_sum   'Cu8 Ni1 C4'
_cell_volume   299.39774433
_cell_formula_units_Z   1
loop_
 _symmetry_equiv_pos_site_id
 _symmetry_equiv_pos_as_xyz
  1  'x, y, z'
loop_
 _atom_site_type_symbol
 _atom_site_label
 _atom_site_symmetry_multiplicity
 _atom_site_fract_x
 _atom_site_fract_y
 _atom_site_fract_z
 _atom_site_occupancy
  C  C0  1  0.12806600  0.12806600  0.86179100  1
  C  C1  1  0.62863900  0.62863900  0.38034100  1
  C  C2  1  0.87193400  0.87193400  0.13820900  1
  C  C3  1  0.37136100  0.37136100  0.61965900  1
  Ni  Ni4  1  0.50000000  0.50000000  0.50000000  1
  Cu  Cu5  1  0.56723200  0.56723200  0.76878300  1
  Cu  Cu6  1  0.06900300  0.06900300  0.26127000  1
  Cu  Cu7  1  0.93099700  0.93099700  0.73873000  1
  Cu  Cu8  1  0.43276800  0.43276800  0.23121700  1
  Cu  Cu9  1  0.81373100  0.81373100  0.85470200  1
  Cu  Cu10  1  0.31160800  0.31160800  0.35479300  1
  Cu  Cu11  1  0.68839200  0.68839200  0.64520700  1
  Cu  Cu12  1  0.18626900  0.18626900  0.14529800  1
