# generated using pymatgen
data_Cu6Ni8C
_symmetry_space_group_name_H-M   'P 1'
_cell_length_a   13.59913843
_cell_length_b   17.23019310
_cell_length_c   4.68291287
_cell_angle_alpha   90.82743444
_cell_angle_beta   89.47583070
_cell_angle_gamma   129.30904784
_symmetry_Int_Tables_number   1
_chemical_formula_structural   Cu6Ni8C
_chemical_formula_sum   'Cu18 Ni24 C3'
_cell_volume   848.92139274
_cell_formula_units_Z   3
loop_
 _symmetry_equiv_pos_site_id
 _symmetry_equiv_pos_as_xyz
  1  'x, y, z'
loop_
 _atom_site_type_symbol
 _atom_site_label
 _atom_site_symmetry_multiplicity
 _atom_site_fract_x
 _atom_site_fract_y
 _atom_site_fract_z
 _atom_site_occupancy
  C  C0  1  0.00000000  0.99091000  0.12708000  1
  C  C1  1  0.33715500  0.67290800  0.90467300  1
  C  C2  1  0.66284500  0.33575100  0.90467300  1
  Ni  Ni3  1  0.00000000  0.64427100  0.21041200  1
  Ni  Ni4  1  0.67263900  0.98420100  0.19642000  1
  Ni  Ni5  1  0.32736100  0.31156100  0.19642000  1
  Ni  Ni6  1  0.00000000  0.71958400  0.33476400  1
  Ni  Ni7  1  0.78011600  0.99260800  0.23519400  1
  Ni  Ni8  1  0.21988400  0.21249200  0.23519400  1
  Ni  Ni9  1  0.11183800  0.66076200  0.14136200  1
  Ni  Ni10  1  0.56060500  0.88838200  0.12834900  1
  Ni  Ni11  1  0.32425700  0.39213300  0.21215300  1
  Ni  Ni12  1  0.88816200  0.54892300  0.14136200  1
  Ni  Ni13  1  0.67574300  0.06787600  0.21215300  1
  Ni  Ni14  1  0.43939500  0.32777700  0.12834900  1
  Ni  Ni15  1  0.66979500  0.68771500  0.76233400  1
  Ni  Ni16  1  0.00000000  0.35499400  0.75599200  1
  Ni  Ni17  1  0.33020500  0.01792000  0.76233400  1
  Ni  Ni18  1  0.77881100  0.77860900  0.87068200  1
  Ni  Ni19  1  0.00000000  0.27296300  0.77429000  1
  Ni  Ni20  1  0.22118900  0.99979800  0.87068200  1
  Ni  Ni21  1  0.56135700  0.67925600  0.74967800  1
  Ni  Ni22  1  0.11267800  0.45373100  0.75349800  1
  Ni  Ni23  1  0.33156600  0.93943900  0.67712200  1
  Ni  Ni24  1  0.43864300  0.11790000  0.74967800  1
  Ni  Ni25  1  0.66843400  0.60787100  0.67712200  1
  Ni  Ni26  1  0.88732200  0.34105300  0.75349800  1
  Cu  Cu27  1  0.00000000  0.78183300  0.43833300  1
  Cu  Cu28  1  0.86447800  0.99213100  0.28223200  1
  Cu  Cu29  1  0.13552200  0.12765200  0.28223200  1
  Cu  Cu30  1  0.20016400  0.66685600  0.08205600  1
  Cu  Cu31  1  0.47020400  0.80649500  0.07474600  1
  Cu  Cu32  1  0.32293600  0.45937700  0.22392100  1
  Cu  Cu33  1  0.79983600  0.46669200  0.08205600  1
  Cu  Cu34  1  0.67706400  0.13644000  0.22392100  1
  Cu  Cu35  1  0.52979600  0.33629100  0.07474600  1
  Cu  Cu36  1  0.86437700  0.85566900  0.96879300  1
  Cu  Cu37  1  0.00000000  0.20524200  0.79100700  1
  Cu  Cu38  1  0.13562300  0.99129100  0.96879300  1
  Cu  Cu39  1  0.47585000  0.67985500  0.72831000  1
  Cu  Cu40  1  0.20397600  0.53804800  0.73867700  1
  Cu  Cu41  1  0.33409000  0.87537600  0.60513900  1
  Cu  Cu42  1  0.52415000  0.20400500  0.72831000  1
  Cu  Cu43  1  0.66591000  0.54128600  0.60513900  1
  Cu  Cu44  1  0.79602400  0.33407300  0.73867700  1
