# generated using pymatgen
data_CuNiC19
_symmetry_space_group_name_H-M   'P 1'
_cell_length_a   5.85701400
_cell_length_b   9.01372600
_cell_length_c   10.22218360
_cell_angle_alpha   64.82301752
_cell_angle_beta   90.00000000
_cell_angle_gamma   90.00000000
_symmetry_Int_Tables_number   1
_chemical_formula_structural   CuNiC19
_chemical_formula_sum   'Cu2 Ni2 C38'
_cell_volume   488.39580417
_cell_formula_units_Z   2
loop_
 _symmetry_equiv_pos_site_id
 _symmetry_equiv_pos_as_xyz
  1  'x, y, z'
loop_
 _atom_site_type_symbol
 _atom_site_label
 _atom_site_symmetry_multiplicity
 _atom_site_fract_x
 _atom_site_fract_y
 _atom_site_fract_z
 _atom_site_occupancy
  Ni  Ni0  1  0.25000000  0.61994700  0.14957700  1
  Ni  Ni1  1  0.75000000  0.38005300  0.85042300  1
  Cu  Cu2  1  0.25000000  0.19303100  0.43833100  1
  Cu  Cu3  1  0.75000000  0.80696900  0.56166900  1
  C  C4  1  0.00000000  0.50000000  0.50000000  1
  C  C5  1  0.50000000  0.50000000  0.50000000  1
  C  C6  1  0.25000000  0.92183500  0.77325500  1
  C  C7  1  0.75000000  0.07816500  0.22674500  1
  C  C8  1  0.00000000  0.00000000  0.00000000  1
  C  C9  1  0.50000000  0.00000000  0.00000000  1
  C  C10  1  0.25000000  0.30251000  0.04581500  1
  C  C11  1  0.75000000  0.69749000  0.95418500  1
  C  C12  1  0.25000000  0.86251200  0.33343400  1
  C  C13  1  0.75000000  0.13748800  0.66656600  1
  C  C14  1  0.25000000  0.58188000  0.73268800  1
  C  C15  1  0.75000000  0.41812000  0.26731200  1
  C  C16  1  0.25000000  0.49172800  0.91272400  1
  C  C17  1  0.75000000  0.50827200  0.08727600  1
  C  C18  1  0.01161900  0.21271800  0.03366200  1
  C  C19  1  0.98838100  0.78728200  0.96633800  1
  C  C20  1  0.51161900  0.78728200  0.96633800  1
  C  C21  1  0.48838100  0.21271800  0.03366200  1
  C  C22  1  0.25000000  0.66053400  0.41788100  1
  C  C23  1  0.75000000  0.33946600  0.58211900  1
  C  C24  1  0.25000000  0.07295000  0.86596400  1
  C  C25  1  0.75000000  0.92705000  0.13403600  1
  C  C26  1  0.25000000  0.32541000  0.19600000  1
  C  C27  1  0.75000000  0.67459000  0.80400000  1
  C  C28  1  0.25000000  0.77800400  0.67393500  1
  C  C29  1  0.75000000  0.22199600  0.32606500  1
  C  C30  1  0.02088800  0.52437600  0.67409500  1
  C  C31  1  0.97911200  0.47562400  0.32590500  1
  C  C32  1  0.52088800  0.47562400  0.32590500  1
  C  C33  1  0.47911200  0.52437600  0.67409500  1
  C  C34  1  0.25000000  0.35081600  0.54567000  1
  C  C35  1  0.75000000  0.64918400  0.45433000  1
  C  C36  1  0.25000000  0.89631500  0.16045100  1
  C  C37  1  0.75000000  0.10368500  0.83954900  1
  C  C38  1  0.02768300  0.94537000  0.37742200  1
  C  C39  1  0.97231700  0.05463000  0.62257800  1
  C  C40  1  0.52768300  0.05463000  0.62257800  1
  C  C41  1  0.47231700  0.94537000  0.37742200  1
