# generated using pymatgen
data_Cu3NiC
_symmetry_space_group_name_H-M   'P 1'
_cell_length_a   4.15617842
_cell_length_b   4.15617842
_cell_length_c   4.15617927
_cell_angle_alpha   76.22427256
_cell_angle_beta   76.22427256
_cell_angle_gamma   76.22427571
_symmetry_Int_Tables_number   1
_chemical_formula_structural   Cu3NiC
_chemical_formula_sum   'Cu3 Ni1 C1'
_cell_volume   66.45798054
_cell_formula_units_Z   1
loop_
 _symmetry_equiv_pos_site_id
 _symmetry_equiv_pos_as_xyz
  1  'x, y, z'
loop_
 _atom_site_type_symbol
 _atom_site_label
 _atom_site_symmetry_multiplicity
 _atom_site_fract_x
 _atom_site_fract_y
 _atom_site_fract_z
 _atom_site_occupancy
  C  C0  1  0.00000000  0.00000000  0.00000000  1
  Ni  Ni1  1  0.50000000  0.50000000  0.50000000  1
  Cu  Cu2  1  0.25292600  0.50000000  0.74707400  1
  Cu  Cu3  1  0.74707400  0.25292600  0.50000000  1
  Cu  Cu4  1  0.50000000  0.74707400  0.25292600  1
