# generated using pymatgen
data_Cu2(NiC)3
_symmetry_space_group_name_H-M   'P 1'
_cell_length_a   4.94782376
_cell_length_b   4.94782376
_cell_length_c   9.86622300
_cell_angle_alpha   90.00000000
_cell_angle_beta   90.00000000
_cell_angle_gamma   119.99999679
_symmetry_Int_Tables_number   1
_chemical_formula_structural   Cu2(NiC)3
_chemical_formula_sum   'Cu4 Ni6 C6'
_cell_volume   209.17511509
_cell_formula_units_Z   2
loop_
 _symmetry_equiv_pos_site_id
 _symmetry_equiv_pos_as_xyz
  1  'x, y, z'
loop_
 _atom_site_type_symbol
 _atom_site_label
 _atom_site_symmetry_multiplicity
 _atom_site_fract_x
 _atom_site_fract_y
 _atom_site_fract_z
 _atom_site_occupancy
  C  C0  1  0.00000000  0.00000000  0.50000000  1
  C  C1  1  0.00000000  0.00000000  0.00000000  1
  C  C2  1  0.66666700  0.33333300  0.75000000  1
  C  C3  1  0.33333300  0.66666700  0.25000000  1
  C  C4  1  0.33333300  0.66666700  0.75000000  1
  C  C5  1  0.66666700  0.33333300  0.25000000  1
  Ni  Ni6  1  0.31113500  0.93447800  0.75000000  1
  Ni  Ni7  1  0.62334300  0.68886500  0.75000000  1
  Ni  Ni8  1  0.93447800  0.62334300  0.25000000  1
  Ni  Ni9  1  0.37665700  0.31113500  0.25000000  1
  Ni  Ni10  1  0.06552200  0.37665700  0.75000000  1
  Ni  Ni11  1  0.68886500  0.06552200  0.25000000  1
  Cu  Cu12  1  0.66666700  0.33333300  0.95225100  1
  Cu  Cu13  1  0.33333300  0.66666700  0.45225100  1
  Cu  Cu14  1  0.66666700  0.33333300  0.54774900  1
  Cu  Cu15  1  0.33333300  0.66666700  0.04774900  1
