# generated using pymatgen
data_Cu2Ni3C7
_symmetry_space_group_name_H-M   'P 1'
_cell_length_a   9.62680021
_cell_length_b   9.62680021
_cell_length_c   5.12102000
_cell_angle_alpha   90.00000000
_cell_angle_beta   90.00000000
_cell_angle_gamma   148.84745925
_symmetry_Int_Tables_number   1
_chemical_formula_structural   Cu2Ni3C7
_chemical_formula_sum   'Cu4 Ni6 C14'
_cell_volume   245.51512105
_cell_formula_units_Z   2
loop_
 _symmetry_equiv_pos_site_id
 _symmetry_equiv_pos_as_xyz
  1  'x, y, z'
loop_
 _atom_site_type_symbol
 _atom_site_label
 _atom_site_symmetry_multiplicity
 _atom_site_fract_x
 _atom_site_fract_y
 _atom_site_fract_z
 _atom_site_occupancy
  Ni  Ni0  1  0.73931400  0.73931400  0.27824300  1
  Ni  Ni1  1  0.26068600  0.26068600  0.77824300  1
  Ni  Ni2  1  0.97855600  0.57716500  0.20940400  1
  Ni  Ni3  1  0.02144400  0.42283500  0.70940400  1
  Ni  Ni4  1  0.57716500  0.97855600  0.20940400  1
  Ni  Ni5  1  0.42283500  0.02144400  0.70940400  1
  Cu  Cu6  1  0.14976600  0.35350200  0.24521900  1
  Cu  Cu7  1  0.85023400  0.64649800  0.74521900  1
  Cu  Cu8  1  0.64649800  0.85023400  0.74521900  1
  Cu  Cu9  1  0.35350200  0.14976600  0.24521900  1
  C  C10  1  0.35189000  0.94664500  0.31994200  1
  C  C11  1  0.64811000  0.05335500  0.81994200  1
  C  C12  1  0.05335500  0.64811000  0.81994200  1
  C  C13  1  0.94664500  0.35189000  0.31994200  1
  C  C14  1  0.54625200  0.28902000  0.92916700  1
  C  C15  1  0.45374800  0.71098000  0.42916700  1
  C  C16  1  0.71098000  0.45374800  0.42916700  1
  C  C17  1  0.28902000  0.54625200  0.92916700  1
  C  C18  1  0.99685700  0.84357000  0.06139900  1
  C  C19  1  0.00314300  0.15643000  0.56139900  1
  C  C20  1  0.36164600  0.36164600  0.17149200  1
  C  C21  1  0.63835400  0.63835400  0.67149200  1
  C  C22  1  0.84357000  0.99685700  0.06139900  1
  C  C23  1  0.15643000  0.00314300  0.56139900  1
