# generated using pymatgen
data_CuNiC15
_symmetry_space_group_name_H-M   'P 1'
_cell_length_a   8.76467300
_cell_length_b   8.76467300
_cell_length_c   11.97602600
_cell_angle_alpha   90.00000000
_cell_angle_beta   90.00000000
_cell_angle_gamma   90.00000000
_symmetry_Int_Tables_number   1
_chemical_formula_structural   CuNiC15
_chemical_formula_sum   'Cu4 Ni4 C60'
_cell_volume   919.99224304
_cell_formula_units_Z   4
loop_
 _symmetry_equiv_pos_site_id
 _symmetry_equiv_pos_as_xyz
  1  'x, y, z'
loop_
 _atom_site_type_symbol
 _atom_site_label
 _atom_site_symmetry_multiplicity
 _atom_site_fract_x
 _atom_site_fract_y
 _atom_site_fract_z
 _atom_site_occupancy
  Ni  Ni0  1  0.22936900  0.77063100  0.50000000  1
  Ni  Ni1  1  0.77063100  0.22936900  0.50000000  1
  Ni  Ni2  1  0.27063100  0.27063100  0.00000000  1
  Ni  Ni3  1  0.72936900  0.72936900  0.00000000  1
  Cu  Cu4  1  0.64377900  0.64377900  0.50000000  1
  Cu  Cu5  1  0.35622100  0.35622100  0.50000000  1
  Cu  Cu6  1  0.85622100  0.14377900  0.00000000  1
  Cu  Cu7  1  0.14377900  0.85622100  0.00000000  1
  C  C8  1  0.93424000  0.72454700  0.37293000  1
  C  C9  1  0.06576000  0.27545300  0.37293000  1
  C  C10  1  0.56576000  0.22454700  0.87293000  1
  C  C11  1  0.43424000  0.77545300  0.87293000  1
  C  C12  1  0.06576000  0.27545300  0.62707000  1
  C  C13  1  0.93424000  0.72454700  0.62707000  1
  C  C14  1  0.43424000  0.77545300  0.12707000  1
  C  C15  1  0.56576000  0.22454700  0.12707000  1
  C  C16  1  0.72454700  0.93424000  0.37293000  1
  C  C17  1  0.27545300  0.06576000  0.37293000  1
  C  C18  1  0.22454700  0.56576000  0.87293000  1
  C  C19  1  0.77545300  0.43424000  0.87293000  1
  C  C20  1  0.27545300  0.06576000  0.62707000  1
  C  C21  1  0.72454700  0.93424000  0.62707000  1
  C  C22  1  0.77545300  0.43424000  0.12707000  1
  C  C23  1  0.22454700  0.56576000  0.12707000  1
  C  C24  1  0.14049300  0.53763900  0.32492400  1
  C  C25  1  0.85950700  0.46236100  0.32492400  1
  C  C26  1  0.35950700  0.03763900  0.82492400  1
  C  C27  1  0.64049300  0.96236100  0.82492400  1
  C  C28  1  0.85950700  0.46236100  0.67507600  1
  C  C29  1  0.14049300  0.53763900  0.67507600  1
  C  C30  1  0.64049300  0.96236100  0.17507600  1
  C  C31  1  0.35950700  0.03763900  0.17507600  1
  C  C32  1  0.53763900  0.14049300  0.32492400  1
  C  C33  1  0.46236100  0.85950700  0.32492400  1
  C  C34  1  0.03763900  0.35950700  0.82492400  1
  C  C35  1  0.96236100  0.64049300  0.82492400  1
  C  C36  1  0.46236100  0.85950700  0.67507600  1
  C  C37  1  0.53763900  0.14049300  0.67507600  1
  C  C38  1  0.96236100  0.64049300  0.17507600  1
  C  C39  1  0.03763900  0.35950700  0.17507600  1
  C  C40  1  0.18284500  0.81715500  0.25522600  1
  C  C41  1  0.81715500  0.18284500  0.25522600  1
  C  C42  1  0.31715500  0.31715500  0.75522600  1
  C  C43  1  0.68284500  0.68284500  0.75522600  1
  C  C44  1  0.81715500  0.18284500  0.74477400  1
  C  C45  1  0.18284500  0.81715500  0.74477400  1
  C  C46  1  0.68284500  0.68284500  0.24477400  1
  C  C47  1  0.31715500  0.31715500  0.24477400  1
  C  C48  1  0.40212100  0.59787900  0.29771100  1
  C  C49  1  0.59787900  0.40212100  0.29771100  1
  C  C50  1  0.09787900  0.09787900  0.79771100  1
  C  C51  1  0.90212100  0.90212100  0.79771100  1
  C  C52  1  0.59787900  0.40212100  0.70228900  1
  C  C53  1  0.40212100  0.59787900  0.70228900  1
  C  C54  1  0.90212100  0.90212100  0.20228900  1
  C  C55  1  0.09787900  0.09787900  0.20228900  1
  C  C56  1  0.50000000  0.50000000  0.11477200  1
  C  C57  1  0.00000000  0.00000000  0.61477200  1
  C  C58  1  0.50000000  0.50000000  0.88522800  1
  C  C59  1  0.00000000  0.00000000  0.38522800  1
  C  C60  1  0.00000000  0.50000000  0.50000000  1
  C  C61  1  0.50000000  0.00000000  0.00000000  1
  C  C62  1  0.50000000  0.00000000  0.50000000  1
  C  C63  1  0.00000000  0.50000000  0.00000000  1
  C  C64  1  0.87679000  0.87679000  0.50000000  1
  C  C65  1  0.12321000  0.12321000  0.50000000  1
  C  C66  1  0.62321000  0.37679000  0.00000000  1
  C  C67  1  0.37679000  0.62321000  0.00000000  1
