# generated using pymatgen
data_CuNiC11
_symmetry_space_group_name_H-M   'P 1'
_cell_length_a   14.67153300
_cell_length_b   5.24095700
_cell_length_c   9.32509744
_cell_angle_alpha   74.96650553
_cell_angle_beta   90.00000000
_cell_angle_gamma   90.00000000
_symmetry_Int_Tables_number   1
_chemical_formula_structural   CuNiC11
_chemical_formula_sum   'Cu4 Ni4 C44'
_cell_volume   692.49260586
_cell_formula_units_Z   4
loop_
 _symmetry_equiv_pos_site_id
 _symmetry_equiv_pos_as_xyz
  1  'x, y, z'
loop_
 _atom_site_type_symbol
 _atom_site_label
 _atom_site_symmetry_multiplicity
 _atom_site_fract_x
 _atom_site_fract_y
 _atom_site_fract_z
 _atom_site_occupancy
  C  C0  1  0.32312100  0.17616600  0.18026600  1
  C  C1  1  0.82312100  0.82383400  0.31973400  1
  C  C2  1  0.67687900  0.82383400  0.81973400  1
  C  C3  1  0.17687900  0.17616600  0.68026600  1
  Ni  Ni4  1  0.04910200  0.24135700  0.03346300  1
  Ni  Ni5  1  0.54910200  0.75864300  0.46653700  1
  Ni  Ni6  1  0.95089800  0.75864300  0.96653700  1
  Ni  Ni7  1  0.45089800  0.24135700  0.53346300  1
  Cu  Cu8  1  0.12807800  0.77327400  0.38310200  1
  Cu  Cu9  1  0.62807800  0.22672600  0.11689800  1
  Cu  Cu10  1  0.87192200  0.22672600  0.61689800  1
  Cu  Cu11  1  0.37192200  0.77327400  0.88310200  1
  C  C12  1  0.17282400  0.74412200  0.03720900  1
  C  C13  1  0.67282400  0.25587800  0.46279100  1
  C  C14  1  0.82717600  0.25587800  0.96279100  1
  C  C15  1  0.32717600  0.74412200  0.53720900  1
  C  C16  1  0.00680300  0.30985900  0.31929600  1
  C  C17  1  0.50680300  0.69014100  0.18070400  1
  C  C18  1  0.99319700  0.69014100  0.68070400  1
  C  C19  1  0.49319700  0.30985900  0.81929600  1
  C  C20  1  0.24385500  0.88513500  0.44509600  1
  C  C21  1  0.74385500  0.11486500  0.05490400  1
  C  C22  1  0.75614500  0.11486500  0.55490400  1
  C  C23  1  0.25614500  0.88513500  0.94509600  1
  C  C24  1  0.18943900  0.76619500  0.19778100  1
  C  C25  1  0.68943900  0.23380500  0.30221900  1
  C  C26  1  0.81056100  0.23380500  0.80221900  1
  C  C27  1  0.31056100  0.76619500  0.69778100  1
  C  C28  1  0.08704500  0.91235000  0.97091800  1
  C  C29  1  0.58704500  0.08765000  0.52908200  1
  C  C30  1  0.91295500  0.08765000  0.02908200  1
  C  C31  1  0.41295500  0.91235000  0.47091800  1
  C  C32  1  0.16641100  0.45448400  0.03126700  1
  C  C33  1  0.66641100  0.54551600  0.46873300  1
  C  C34  1  0.83358900  0.54551600  0.96873300  1
  C  C35  1  0.33358900  0.45448400  0.53126700  1
  C  C36  1  0.98729600  0.50123500  0.16669400  1
  C  C37  1  0.48729600  0.49876500  0.33330600  1
  C  C38  1  0.01270400  0.49876500  0.83330600  1
  C  C39  1  0.51270400  0.50123500  0.66669400  1
  C  C40  1  0.04841500  0.06102600  0.27618100  1
  C  C41  1  0.54841500  0.93897400  0.22381900  1
  C  C42  1  0.95158500  0.93897400  0.72381900  1
  C  C43  1  0.45158500  0.06102600  0.77618100  1
  C  C44  1  0.07846200  0.41773600  0.41113700  1
  C  C45  1  0.57846200  0.58226400  0.08886300  1
  C  C46  1  0.92153800  0.58226400  0.58886300  1
  C  C47  1  0.42153800  0.41773600  0.91113700  1
  C  C48  1  0.91906300  0.22936000  0.41096300  1
  C  C49  1  0.41906300  0.77064000  0.08903700  1
  C  C50  1  0.08093700  0.77064000  0.58903700  1
  C  C51  1  0.58093700  0.22936000  0.91096300  1
