# generated using pymatgen
data_CuNiC8
_symmetry_space_group_name_H-M   'P 1'
_cell_length_a   8.52421793
_cell_length_b   8.50802834
_cell_length_c   8.49412241
_cell_angle_alpha   90.00000000
_cell_angle_beta   90.00000000
_cell_angle_gamma   90.00000000
_symmetry_Int_Tables_number   1
_chemical_formula_structural   CuNiC8
_chemical_formula_sum   'Cu4 Ni4 C32'
_cell_volume   616.03017763
_cell_formula_units_Z   4
loop_
 _symmetry_equiv_pos_site_id
 _symmetry_equiv_pos_as_xyz
  1  'x, y, z'
loop_
 _atom_site_type_symbol
 _atom_site_label
 _atom_site_symmetry_multiplicity
 _atom_site_fract_x
 _atom_site_fract_y
 _atom_site_fract_z
 _atom_site_occupancy
  C  C0  1  -0.00000000  -0.00000000  -0.00000000  1
  C  C1  1  0.50000000  0.50000000  0.50000000  1
  C  C2  1  -0.00000000  0.50000000  0.50000000  1
  C  C3  1  0.50000000  -0.00000000  -0.00000000  1
  Ni  Ni4  1  0.50000000  -0.00000000  0.50000000  1
  Ni  Ni5  1  0.50000000  0.50000000  -0.00000000  1
  Ni  Ni6  1  -0.00000000  0.50000000  -0.00000000  1
  Ni  Ni7  1  -0.00000000  -0.00000000  0.50000000  1
  Cu  Cu8  1  0.75000000  0.75000000  0.75000000  1
  Cu  Cu9  1  0.25000000  0.25000000  0.75000000  1
  Cu  Cu10  1  0.25000000  0.75000000  0.25000000  1
  Cu  Cu11  1  0.75000000  0.25000000  0.25000000  1
  C  C12  1  0.25000000  0.25000000  0.25000000  1
  C  C13  1  0.75000000  0.75000000  0.25000000  1
  C  C14  1  0.75000000  0.25000000  0.75000000  1
  C  C15  1  0.25000000  0.75000000  0.75000000  1
  C  C16  1  0.02372235  0.22332459  0.28807422  1
  C  C17  1  0.97627765  0.77667541  0.28807422  1
  C  C18  1  0.97627765  0.22332459  0.71192578  1
  C  C19  1  0.02372235  0.77667541  0.71192578  1
  C  C20  1  0.26944284  0.02283516  0.21817202  1
  C  C21  1  0.26944284  0.97716484  0.78182798  1
  C  C22  1  0.73055716  0.97716484  0.21817202  1
  C  C23  1  0.73055716  0.02283516  0.78182798  1
  C  C24  1  0.20873639  0.27048812  0.02396691  1
  C  C25  1  0.79126361  0.27048812  0.97603309  1
  C  C26  1  0.20873639  0.72951188  0.97603309  1
  C  C27  1  0.79126361  0.72951188  0.02396691  1
  C  C28  1  0.47627765  0.27667541  0.21192578  1
  C  C29  1  0.52372235  0.72332459  0.21192578  1
  C  C30  1  0.52372235  0.27667541  0.78807422  1
  C  C31  1  0.47627765  0.72332459  0.78807422  1
  C  C32  1  0.23055716  0.47716484  0.28182798  1
  C  C33  1  0.23055716  0.52283516  0.71817202  1
  C  C34  1  0.76944284  0.52283516  0.28182798  1
  C  C35  1  0.76944284  0.47716484  0.71817202  1
  C  C36  1  0.29126361  0.22951188  0.47603309  1
  C  C37  1  0.70873639  0.22951188  0.52396691  1
  C  C38  1  0.29126361  0.77048812  0.52396691  1
  C  C39  1  0.70873639  0.77048812  0.47603309  1
