# generated using pymatgen
data_Cu4NiC
_symmetry_space_group_name_H-M   'P 1'
_cell_length_a   8.37699400
_cell_length_b   9.03181000
_cell_length_c   12.80883757
_cell_angle_alpha   69.35592221
_cell_angle_beta   90.00000000
_cell_angle_gamma   90.00000000
_symmetry_Int_Tables_number   1
_chemical_formula_structural   Cu4NiC
_chemical_formula_sum   'Cu32 Ni8 C8'
_cell_volume   906.88132632
_cell_formula_units_Z   8
loop_
 _symmetry_equiv_pos_site_id
 _symmetry_equiv_pos_as_xyz
  1  'x, y, z'
loop_
 _atom_site_type_symbol
 _atom_site_label
 _atom_site_symmetry_multiplicity
 _atom_site_fract_x
 _atom_site_fract_y
 _atom_site_fract_z
 _atom_site_occupancy
  C  C0  1  0.07783900  0.19179300  0.61641500  1
  C  C1  1  0.92216100  0.80820700  0.38358500  1
  C  C2  1  0.57783900  0.30820700  0.38358500  1
  C  C3  1  0.42216100  0.69179300  0.61641500  1
  C  C4  1  0.22914100  0.46258200  0.07483600  1
  C  C5  1  0.77085900  0.53741800  0.92516400  1
  C  C6  1  0.72914100  0.03741800  0.92516400  1
  C  C7  1  0.27085900  0.96258200  0.07483600  1
  Ni  Ni8  1  0.25000000  0.84029000  0.81942000  1
  Ni  Ni9  1  0.75000000  0.65971000  0.18058000  1
  Ni  Ni10  1  0.75000000  0.15971000  0.18058000  1
  Ni  Ni11  1  0.25000000  0.34029000  0.81942000  1
  Ni  Ni12  1  0.25000000  0.03742400  0.42515100  1
  Ni  Ni13  1  0.75000000  0.46257600  0.57484900  1
  Ni  Ni14  1  0.75000000  0.96257600  0.57484900  1
  Ni  Ni15  1  0.25000000  0.53742400  0.42515100  1
  Cu  Cu16  1  0.08972100  0.11284400  0.21978300  1
  Cu  Cu17  1  0.91027900  0.33262700  0.78021700  1
  Cu  Cu18  1  0.58972100  0.83262700  0.78021700  1
  Cu  Cu19  1  0.41027900  0.61284400  0.21978300  1
  Cu  Cu20  1  0.91027900  0.88715600  0.78021700  1
  Cu  Cu21  1  0.08972100  0.66737300  0.21978300  1
  Cu  Cu22  1  0.41027900  0.16737300  0.21978300  1
  Cu  Cu23  1  0.58972100  0.38715600  0.78021700  1
  Cu  Cu24  1  0.09206900  0.85689600  0.60410800  1
  Cu  Cu25  1  0.90793100  0.46100500  0.39589200  1
  Cu  Cu26  1  0.59206900  0.96100500  0.39589200  1
  Cu  Cu27  1  0.40793100  0.35689600  0.60410800  1
  Cu  Cu28  1  0.90793100  0.14310400  0.39589200  1
  Cu  Cu29  1  0.09206900  0.53899500  0.60410800  1
  Cu  Cu30  1  0.40793100  0.03899500  0.60410800  1
  Cu  Cu31  1  0.59206900  0.64310400  0.39589200  1
  Cu  Cu32  1  0.08145700  0.06004500  0.87990900  1
  Cu  Cu33  1  0.91854300  0.93995500  0.12009100  1
  Cu  Cu34  1  0.58145700  0.43995500  0.12009100  1
  Cu  Cu35  1  0.41854300  0.56004500  0.87990900  1
  Cu  Cu36  1  0.42168800  0.08805600  0.82388800  1
  Cu  Cu37  1  0.57831200  0.91194400  0.17611200  1
  Cu  Cu38  1  0.92168800  0.41194400  0.17611200  1
  Cu  Cu39  1  0.07831200  0.58805600  0.82388800  1
  Cu  Cu40  1  0.19519000  0.34141800  0.31716400  1
  Cu  Cu41  1  0.80481000  0.65858200  0.68283600  1
  Cu  Cu42  1  0.69519000  0.15858200  0.68283600  1
  Cu  Cu43  1  0.30481000  0.84141800  0.31716400  1
  Cu  Cu44  1  0.00000000  0.73502800  0.00000000  1
  Cu  Cu45  1  0.50000000  0.23502800  0.00000000  1
  Cu  Cu46  1  0.00000000  0.26497200  0.00000000  1
  Cu  Cu47  1  0.50000000  0.76497200  0.00000000  1
