# generated using pymatgen
data_Cu2NiC2
_symmetry_space_group_name_H-M   'P 1'
_cell_length_a   5.68551900
_cell_length_b   5.56571600
_cell_length_c   9.64199589
_cell_angle_alpha   55.06868788
_cell_angle_beta   90.00000000
_cell_angle_gamma   90.00000000
_symmetry_Int_Tables_number   1
_chemical_formula_structural   Cu2NiC2
_chemical_formula_sum   'Cu8 Ni4 C8'
_cell_volume   250.14205499
_cell_formula_units_Z   4
loop_
 _symmetry_equiv_pos_site_id
 _symmetry_equiv_pos_as_xyz
  1  'x, y, z'
loop_
 _atom_site_type_symbol
 _atom_site_label
 _atom_site_symmetry_multiplicity
 _atom_site_fract_x
 _atom_site_fract_y
 _atom_site_fract_z
 _atom_site_occupancy
  C  C0  1  0.45867600  0.76735000  0.74559100  1
  C  C1  1  0.95867600  0.23265000  0.75440900  1
  C  C2  1  0.54132400  0.23265000  0.25440900  1
  C  C3  1  0.04132400  0.76735000  0.24559100  1
  C  C4  1  0.00000000  0.50000000  0.00000000  1
  C  C5  1  0.50000000  0.50000000  0.50000000  1
  C  C6  1  0.00000000  0.00000000  0.50000000  1
  C  C7  1  0.50000000  0.00000000  0.00000000  1
  Ni  Ni8  1  0.21131600  0.83274600  0.95713400  1
  Ni  Ni9  1  0.71131600  0.16725400  0.54286600  1
  Ni  Ni10  1  0.78868400  0.16725400  0.04286600  1
  Ni  Ni11  1  0.28868400  0.83274600  0.45713400  1
  Cu  Cu12  1  0.02242000  0.66180400  0.75026900  1
  Cu  Cu13  1  0.52242000  0.33819600  0.74973100  1
  Cu  Cu14  1  0.97758000  0.33819600  0.24973100  1
  Cu  Cu15  1  0.47758000  0.66180400  0.25026900  1
  Cu  Cu16  1  0.79039500  0.75749100  0.45121900  1
  Cu  Cu17  1  0.29039500  0.24250900  0.04878100  1
  Cu  Cu18  1  0.20960500  0.24250900  0.54878100  1
  Cu  Cu19  1  0.70960500  0.75749100  0.95121900  1
