# generated using pymatgen
data_Cu2NiC
_symmetry_space_group_name_H-M   'P 1'
_cell_length_a   10.03277075
_cell_length_b   10.71663861
_cell_length_c   12.11867125
_cell_angle_alpha   90.00000000
_cell_angle_beta   105.33355575
_cell_angle_gamma   90.00000000
_symmetry_Int_Tables_number   1
_chemical_formula_structural   Cu2NiC
_chemical_formula_sum   'Cu32 Ni16 C16'
_cell_volume   1256.58798261
_cell_formula_units_Z   16
loop_
 _symmetry_equiv_pos_site_id
 _symmetry_equiv_pos_as_xyz
  1  'x, y, z'
loop_
 _atom_site_type_symbol
 _atom_site_label
 _atom_site_symmetry_multiplicity
 _atom_site_fract_x
 _atom_site_fract_y
 _atom_site_fract_z
 _atom_site_occupancy
  C  C0  1  0.00000000  0.50000000  0.50000000  1
  C  C1  1  0.00000000  -0.00000000  0.00000000  1
  C  C2  1  0.50000000  -0.00000000  0.50000000  1
  C  C3  1  0.50000000  0.50000000  0.00000000  1
  C  C4  1  0.29975225  0.90186121  0.93792127  1
  C  C5  1  0.70024775  0.40186121  0.56207873  1
  C  C6  1  0.70024775  0.09813879  0.06207873  1
  C  C7  1  0.29975225  0.59813879  0.43792127  1
  C  C8  1  0.83653973  0.39983873  0.94676511  1
  C  C9  1  0.16346027  0.89983873  0.55323489  1
  C  C10  1  0.16346027  0.60016127  0.05323489  1
  C  C11  1  0.83653973  0.10016127  0.44676511  1
  C  C12  1  0.73595266  0.74961146  0.73082820  1
  C  C13  1  0.26404734  0.24961146  0.76917180  1
  C  C14  1  0.26404734  0.25038854  0.26917180  1
  C  C15  1  0.73595266  0.75038854  0.23082820  1
  Ni  Ni16  1  0.71955666  0.06851515  0.75816617  1
  Ni  Ni17  1  0.28044334  0.56851515  0.74183383  1
  Ni  Ni18  1  0.28044334  0.93148485  0.24183383  1
  Ni  Ni19  1  0.71955666  0.43148485  0.25816617  1
  Ni  Ni20  1  0.66775867  0.69762839  0.50980703  1
  Ni  Ni21  1  0.33224133  0.19762839  0.99019297  1
  Ni  Ni22  1  0.33224133  0.30237161  0.49019297  1
  Ni  Ni23  1  0.66775867  0.80237161  0.00980703  1
  Ni  Ni24  1  0.59038825  0.65082815  0.81076539  1
  Ni  Ni25  1  0.40961175  0.15082815  0.68923461  1
  Ni  Ni26  1  0.40961175  0.34917185  0.18923461  1
  Ni  Ni27  1  0.59038825  0.84917185  0.31076539  1
  Ni  Ni28  1  0.92575272  0.58605667  0.77947198  1
  Ni  Ni29  1  0.07424728  0.08605667  0.72052802  1
  Ni  Ni30  1  0.07424728  0.41394333  0.22052802  1
  Ni  Ni31  1  0.92575272  0.91394333  0.27947198  1
  Cu  Cu32  1  0.22456645  0.39562148  0.49995164  1
  Cu  Cu33  1  0.77543355  0.89562148  0.00004836  1
  Cu  Cu34  1  0.77543355  0.60437852  0.50004836  1
  Cu  Cu35  1  0.22456645  0.10437852  -0.00004836  1
  Cu  Cu36  1  0.16131698  0.67360863  0.55465771  1
  Cu  Cu37  1  0.83868302  0.17360863  0.94534229  1
  Cu  Cu38  1  0.83868302  0.32639137  0.44534229  1
  Cu  Cu39  1  0.16131698  0.82639137  0.05465771  1
  Cu  Cu40  1  0.69522101  0.09228264  0.63161635  1
  Cu  Cu41  1  0.30477899  0.59228264  0.86838365  1
  Cu  Cu42  1  0.30477899  0.90771736  0.36838365  1
  Cu  Cu43  1  0.69522101  0.40771736  0.13161635  1
  Cu  Cu44  1  0.37147968  0.01996717  0.63538024  1
  Cu  Cu45  1  0.62852032  0.51996717  0.86461976  1
  Cu  Cu46  1  0.62852032  0.98003283  0.36461976  1
  Cu  Cu47  1  0.37147968  0.48003283  0.13538024  1
  Cu  Cu48  1  0.47149068  0.13948953  0.01075362  1
  Cu  Cu49  1  0.52850932  0.63948953  0.48924638  1
  Cu  Cu50  1  0.52850932  0.86051047  0.98924638  1
  Cu  Cu51  1  0.47149068  0.36051047  0.51075362  1
  Cu  Cu52  1  0.14566753  0.96576193  0.76666517  1
  Cu  Cu53  1  0.85433247  0.46576193  0.73333483  1
  Cu  Cu54  1  0.85433247  0.03423807  0.23333483  1
  Cu  Cu55  1  0.14566753  0.53423807  0.26666517  1
  Cu  Cu56  1  0.80572120  0.19315606  0.82187294  1
  Cu  Cu57  1  0.19427880  0.69315606  0.67812706  1
  Cu  Cu58  1  0.19427880  0.80684394  0.17812706  1
  Cu  Cu59  1  0.80572120  0.30684394  0.32187294  1
  Cu  Cu60  1  0.95633168  0.58741919  0.90758866  1
  Cu  Cu61  1  0.04366832  0.08741919  0.59241134  1
  Cu  Cu62  1  0.04366832  0.41258081  0.09241134  1
  Cu  Cu63  1  0.95633168  0.91258081  0.40758866  1
