# generated using pymatgen
data_Cu4Ni2C9
_symmetry_space_group_name_H-M   'P 1'
_cell_length_a   5.95267500
_cell_length_b   8.17087300
_cell_length_c   10.54497700
_cell_angle_alpha   90.00000000
_cell_angle_beta   90.00000000
_cell_angle_gamma   90.00000000
_symmetry_Int_Tables_number   1
_chemical_formula_structural   Cu4Ni2C9
_chemical_formula_sum   'Cu16 Ni8 C36'
_cell_volume   512.89240620
_cell_formula_units_Z   4
loop_
 _symmetry_equiv_pos_site_id
 _symmetry_equiv_pos_as_xyz
  1  'x, y, z'
loop_
 _atom_site_type_symbol
 _atom_site_label
 _atom_site_symmetry_multiplicity
 _atom_site_fract_x
 _atom_site_fract_y
 _atom_site_fract_z
 _atom_site_occupancy
  C  C0  1  0.75000000  0.44239500  0.55117700  1
  C  C1  1  0.75000000  0.94239500  0.94882300  1
  C  C2  1  0.25000000  0.55760500  0.44882300  1
  C  C3  1  0.25000000  0.05760500  0.05117700  1
  C  C4  1  0.75000000  0.33844300  0.69015000  1
  C  C5  1  0.75000000  0.83844300  0.80985000  1
  C  C6  1  0.25000000  0.66155700  0.30985000  1
  C  C7  1  0.25000000  0.16155700  0.19015000  1
  C  C8  1  0.75000000  0.06984900  0.21218600  1
  C  C9  1  0.75000000  0.56984900  0.28781400  1
  C  C10  1  0.25000000  0.93015100  0.78781400  1
  C  C11  1  0.25000000  0.43015100  0.71218600  1
  C  C12  1  0.75000000  0.39212900  0.20781800  1
  C  C13  1  0.75000000  0.89212900  0.29218200  1
  C  C14  1  0.25000000  0.60787100  0.79218200  1
  C  C15  1  0.25000000  0.10787100  0.70781800  1
  C  C16  1  0.89427600  0.26876600  0.56537800  1
  C  C17  1  0.60572400  0.76876600  0.93462200  1
  C  C18  1  0.39427600  0.73123400  0.43462200  1
  C  C19  1  0.10572400  0.23123400  0.06537800  1
  C  C20  1  0.10572400  0.73123400  0.43462200  1
  C  C21  1  0.39427600  0.23123400  0.06537800  1
  C  C22  1  0.60572400  0.26876600  0.56537800  1
  C  C23  1  0.89427600  0.76876600  0.93462200  1
  C  C24  1  0.89121000  0.05415400  0.35033600  1
  C  C25  1  0.60879000  0.55415400  0.14966400  1
  C  C26  1  0.39121000  0.94584600  0.64966400  1
  C  C27  1  0.10879000  0.44584600  0.85033600  1
  C  C28  1  0.10879000  0.94584600  0.64966400  1
  C  C29  1  0.39121000  0.44584600  0.85033600  1
  C  C30  1  0.60879000  0.05415400  0.35033600  1
  C  C31  1  0.89121000  0.55415400  0.14966400  1
  C  C32  1  0.75000000  0.26226400  0.91966100  1
  C  C33  1  0.75000000  0.76226400  0.58033900  1
  C  C34  1  0.25000000  0.73773600  0.08033900  1
  C  C35  1  0.25000000  0.23773600  0.41966100  1
  Ni  Ni36  1  0.75000000  0.32854500  0.59272000  1
  Ni  Ni37  1  0.75000000  0.82854500  0.90728000  1
  Ni  Ni38  1  0.25000000  0.67145500  0.40728000  1
  Ni  Ni39  1  0.25000000  0.17145500  0.09272000  1
  Ni  Ni40  1  0.75000000  0.01704000  0.30139100  1
  Ni  Ni41  1  0.75000000  0.51704000  0.19860900  1
  Ni  Ni42  1  0.25000000  0.98296000  0.69860900  1
  Ni  Ni43  1  0.25000000  0.48296000  0.80139100  1
  Cu  Cu44  1  0.75000000  0.44481900  0.91381700  1
  Cu  Cu45  1  0.75000000  0.94481900  0.58618300  1
  Cu  Cu46  1  0.25000000  0.55518100  0.08618300  1
  Cu  Cu47  1  0.25000000  0.05518100  0.41381700  1
  Cu  Cu48  1  0.75000000  0.20640600  0.05713200  1
  Cu  Cu49  1  0.75000000  0.70640600  0.44286800  1
  Cu  Cu50  1  0.25000000  0.79359400  0.94286800  1
  Cu  Cu51  1  0.25000000  0.29359400  0.55713200  1
  Cu  Cu52  1  0.95579300  0.19763100  0.85729700  1
  Cu  Cu53  1  0.54420700  0.69763100  0.64270300  1
  Cu  Cu54  1  0.45579300  0.80236900  0.14270300  1
  Cu  Cu55  1  0.04420700  0.30236900  0.35729700  1
  Cu  Cu56  1  0.04420700  0.80236900  0.14270300  1
  Cu  Cu57  1  0.45579300  0.30236900  0.35729700  1
  Cu  Cu58  1  0.54420700  0.19763100  0.85729700  1
  Cu  Cu59  1  0.95579300  0.69763100  0.64270300  1
