# generated using pymatgen
data_Cu3Ni3C34
_symmetry_space_group_name_H-M   'P 1'
_cell_length_a   10.84326159
_cell_length_b   10.84326159
_cell_length_c   10.84326159
_cell_angle_alpha   109.47122063
_cell_angle_beta   109.47122063
_cell_angle_gamma   109.47122063
_symmetry_Int_Tables_number   1
_chemical_formula_structural   Cu3Ni3C34
_chemical_formula_sum   'Cu6 Ni6 C68'
_cell_volume   981.42680417
_cell_formula_units_Z   2
loop_
 _symmetry_equiv_pos_site_id
 _symmetry_equiv_pos_as_xyz
  1  'x, y, z'
loop_
 _atom_site_type_symbol
 _atom_site_label
 _atom_site_symmetry_multiplicity
 _atom_site_fract_x
 _atom_site_fract_y
 _atom_site_fract_z
 _atom_site_occupancy
  C  C0  1  0.12502800  0.37502800  0.75000000  1
  C  C1  1  0.37497200  0.12497200  0.25000000  1
  C  C2  1  0.25000000  0.37497200  0.12497200  1
  C  C3  1  0.75000000  0.12502800  0.37502800  1
  C  C4  1  0.12497200  0.25000000  0.37497200  1
  C  C5  1  0.37502800  0.75000000  0.12502800  1
  C  C6  1  0.87502800  0.62502800  0.25000000  1
  C  C7  1  0.62497200  0.87497200  0.75000000  1
  C  C8  1  0.75000000  0.62497200  0.87497200  1
  C  C9  1  0.25000000  0.87502800  0.62502800  1
  C  C10  1  0.87497200  0.75000000  0.62497200  1
  C  C11  1  0.62502800  0.25000000  0.87502800  1
  Ni  Ni12  1  0.12500000  0.87500000  0.25000000  1
  Ni  Ni13  1  0.37500000  0.62500000  0.75000000  1
  Ni  Ni14  1  0.75000000  0.37500000  0.62500000  1
  Ni  Ni15  1  0.25000000  0.12500000  0.87500000  1
  Ni  Ni16  1  0.62500000  0.75000000  0.37500000  1
  Ni  Ni17  1  0.87500000  0.25000000  0.12500000  1
  Cu  Cu18  1  0.87500000  0.12500000  0.75000000  1
  Cu  Cu19  1  0.62500000  0.37500000  0.25000000  1
  Cu  Cu20  1  0.25000000  0.62500000  0.37500000  1
  Cu  Cu21  1  0.75000000  0.87500000  0.12500000  1
  Cu  Cu22  1  0.37500000  0.25000000  0.62500000  1
  Cu  Cu23  1  0.12500000  0.75000000  0.87500000  1
  C  C24  1  0.49843500  0.50000000  0.00000000  1
  C  C25  1  0.00000000  0.49843500  0.50000000  1
  C  C26  1  0.00156500  0.00156500  0.00156500  1
  C  C27  1  0.50000000  0.00000000  0.49843500  1
  C  C28  1  0.99843500  0.50000000  0.00000000  1
  C  C29  1  0.50156500  0.50156500  0.50156500  1
  C  C30  1  0.00000000  0.99843500  0.50000000  1
  C  C31  1  0.50000000  0.00000000  0.99843500  1
  C  C32  1  0.38563800  0.57580100  0.89494900  1
  C  C33  1  0.18085200  0.49068900  0.60505100  1
  C  C34  1  0.11436200  0.00931100  0.19016300  1
  C  C35  1  0.31914800  0.92419900  0.30983700  1
  C  C36  1  0.19016300  0.11436200  0.00931100  1
  C  C37  1  0.30983700  0.31914800  0.92419900  1
  C  C38  1  0.89494900  0.38563800  0.57580100  1
  C  C39  1  0.60505100  0.18085200  0.49068900  1
  C  C40  1  0.92419900  0.30983700  0.31914800  1
  C  C41  1  0.00931100  0.19016300  0.11436200  1
  C  C42  1  0.49068900  0.60505100  0.18085200  1
  C  C43  1  0.57580100  0.89494900  0.38563800  1
  C  C44  1  0.61451200  0.42538600  0.09852200  1
  C  C45  1  0.82686400  0.51599000  0.40147800  1
  C  C46  1  0.88548800  0.98401000  0.81087300  1
  C  C47  1  0.67313600  0.07461400  0.68912700  1
  C  C48  1  0.81087300  0.88548800  0.98401000  1
  C  C49  1  0.68912700  0.67313600  0.07461400  1
  C  C50  1  0.09852200  0.61451200  0.42538600  1
  C  C51  1  0.40147800  0.82686400  0.51599000  1
  C  C52  1  0.07461400  0.68912700  0.67313600  1
  C  C53  1  0.98401000  0.81087300  0.88548800  1
  C  C54  1  0.51599000  0.40147800  0.82686400  1
  C  C55  1  0.42538600  0.09852200  0.61451200  1
  C  C56  1  0.80983700  0.42419900  0.81914800  1
  C  C57  1  0.69016300  0.50931100  0.61436200  1
  C  C58  1  0.10505100  0.99068900  0.68085200  1
  C  C59  1  0.39494900  0.07580100  0.88563800  1
  C  C60  1  0.07580100  0.88563800  0.39494900  1
  C  C61  1  0.99068900  0.68085200  0.10505100  1
  C  C62  1  0.50931100  0.61436200  0.69016300  1
  C  C63  1  0.42419900  0.81914800  0.80983700  1
  C  C64  1  0.61436200  0.69016300  0.50931100  1
  C  C65  1  0.81914800  0.80983700  0.42419900  1
  C  C66  1  0.88563800  0.39494900  0.07580100  1
  C  C67  1  0.68085200  0.10505100  0.99068900  1
  C  C68  1  0.18912700  0.57461400  0.17313600  1
  C  C69  1  0.31087300  0.48401000  0.38548800  1
  C  C70  1  0.90147800  0.01599000  0.32686400  1
  C  C71  1  0.59852200  0.92538600  0.11451200  1
  C  C72  1  0.92538600  0.11451200  0.59852200  1
  C  C73  1  0.01599000  0.32686400  0.90147800  1
  C  C74  1  0.48401000  0.38548800  0.31087300  1
  C  C75  1  0.57461400  0.17313600  0.18912700  1
  C  C76  1  0.38548800  0.31087300  0.48401000  1
  C  C77  1  0.17313600  0.18912700  0.57461400  1
  C  C78  1  0.11451200  0.59852200  0.92538600  1
  C  C79  1  0.32686400  0.90147800  0.01599000  1
