# generated using pymatgen
data_Cu3Ni3C2
_symmetry_space_group_name_H-M   'P 1'
_cell_length_a   8.52789367
_cell_length_b   8.52789367
_cell_length_c   8.52789346
_cell_angle_alpha   33.51471662
_cell_angle_beta   33.51471662
_cell_angle_gamma   33.51471870
_symmetry_Int_Tables_number   1
_chemical_formula_structural   Cu3Ni3C2
_chemical_formula_sum   'Cu3 Ni3 C2'
_cell_volume   168.40455455
_cell_formula_units_Z   1
loop_
 _symmetry_equiv_pos_site_id
 _symmetry_equiv_pos_as_xyz
  1  'x, y, z'
loop_
 _atom_site_type_symbol
 _atom_site_label
 _atom_site_symmetry_multiplicity
 _atom_site_fract_x
 _atom_site_fract_y
 _atom_site_fract_z
 _atom_site_occupancy
  C  C0  1  0.99360200  0.99360200  0.99360200  1
  C  C1  1  0.50555500  0.50555500  0.50555500  1
  Ni  Ni2  1  0.75348700  0.75348700  0.75348700  1
  Ni  Ni3  1  0.24749100  0.24749100  0.24749100  1
  Ni  Ni4  1  0.37658500  0.37658500  0.37658500  1
  Cu  Cu5  1  0.87386800  0.87386800  0.87386800  1
  Cu  Cu6  1  0.12000000  0.12000000  0.12000000  1
  Cu  Cu7  1  0.62941300  0.62941300  0.62941300  1
