# generated using pymatgen
data_CuNiC8
_symmetry_space_group_name_H-M   'P 1'
_cell_length_a   5.90087140
_cell_length_b   5.90087140
_cell_length_c   8.57154374
_cell_angle_alpha   90.00000000
_cell_angle_beta   90.00000000
_cell_angle_gamma   90.00000000
_symmetry_Int_Tables_number   1
_chemical_formula_structural   CuNiC8
_chemical_formula_sum   'Cu2 Ni2 C16'
_cell_volume   298.46358117
_cell_formula_units_Z   2
loop_
 _symmetry_equiv_pos_site_id
 _symmetry_equiv_pos_as_xyz
  1  'x, y, z'
loop_
 _atom_site_type_symbol
 _atom_site_label
 _atom_site_symmetry_multiplicity
 _atom_site_fract_x
 _atom_site_fract_y
 _atom_site_fract_z
 _atom_site_occupancy
  Ni  Ni0  1  0.50000000  -0.00000000  0.25000000  1
  Ni  Ni1  1  0.00000000  0.50000000  0.75000000  1
  Cu  Cu2  1  0.00000000  0.50000000  0.25000000  1
  Cu  Cu3  1  0.50000000  0.00000000  0.75000000  1
  C  C4  1  -0.00000000  -0.00000000  0.00000000  1
  C  C5  1  0.50000000  0.50000000  0.50000000  1
  C  C6  1  0.00000000  -0.00000000  0.50000000  1
  C  C7  1  0.50000000  0.50000000  -0.00000000  1
  C  C8  1  -0.00000000  0.00000000  0.26626122  1
  C  C9  1  0.50000000  0.50000000  0.23373878  1
  C  C10  1  -0.00000000  0.00000000  0.73373878  1
  C  C11  1  0.50000000  0.50000000  0.76626122  1
  C  C12  1  0.34510412  0.19586987  0.99001449  1
  C  C13  1  0.65489588  0.80413013  0.99001449  1
  C  C14  1  0.80413013  0.34510412  0.00998551  1
  C  C15  1  0.19586987  0.65489588  0.00998551  1
  C  C16  1  0.84510412  0.30413013  0.49001449  1
  C  C17  1  0.15489588  0.69586987  0.49001449  1
  C  C18  1  0.30413013  0.15489588  0.50998551  1
  C  C19  1  0.69586987  0.84510412  0.50998551  1
