# generated using pymatgen
data_Cu7(NiC)4
_symmetry_space_group_name_H-M   'P 1'
_cell_length_a   17.79520506
_cell_length_b   17.79443280
_cell_length_c   17.79443280
_cell_angle_alpha   89.99992465
_cell_angle_beta   90.00009878
_cell_angle_gamma   90.00009878
_symmetry_Int_Tables_number   1
_chemical_formula_structural   Cu7(NiC)4
_chemical_formula_sum   'Cu84 Ni48 C48'
_cell_volume   5634.70644976
_cell_formula_units_Z   12
loop_
 _symmetry_equiv_pos_site_id
 _symmetry_equiv_pos_as_xyz
  1  'x, y, z'
loop_
 _atom_site_type_symbol
 _atom_site_label
 _atom_site_symmetry_multiplicity
 _atom_site_fract_x
 _atom_site_fract_y
 _atom_site_fract_z
 _atom_site_occupancy
  C  C0  1  0.60714674  0.18266947  0.89288452  1
  C  C1  1  0.60714859  0.31733158  0.60711297  1
  C  C2  1  0.89285057  0.18266898  0.60711590  1
  C  C3  1  0.89284998  0.31733239  0.89288528  1
  C  C4  1  0.60714859  0.60711297  0.31733158  1
  C  C5  1  0.60714674  0.89288452  0.18266947  1
  C  C6  1  0.89285057  0.60711590  0.18266898  1
  C  C7  1  0.89284998  0.89288528  0.31733239  1
  C  C8  1  0.31831726  0.60495663  0.60495663  1
  C  C9  1  0.18167798  0.60495559  0.89504694  1
  C  C10  1  0.18167798  0.89504694  0.60495559  1
  C  C11  1  0.31832527  0.89504144  0.89504144  1
  C  C12  1  0.39520511  0.81830027  0.10498796  1
  C  C13  1  0.39520415  0.68170041  0.39500920  1
  C  C14  1  0.10479545  0.81830165  0.39501254  1
  C  C15  1  0.10479242  0.68169819  0.10498823  1
  C  C16  1  0.39520415  0.39500920  0.68170041  1
  C  C17  1  0.39520511  0.10498796  0.81830027  1
  C  C18  1  0.10479545  0.39501254  0.81830165  1
  C  C19  1  0.10479242  0.10498823  0.68169819  1
  C  C20  1  0.68175967  0.39513034  0.39513034  1
  C  C21  1  0.81824332  0.39513231  0.10486645  1
  C  C22  1  0.81824332  0.10486645  0.39513231  1
  C  C23  1  0.68175564  0.10486818  0.10486818  1
  C  C24  1  0.02237232  0.75000121  0.75000121  1
  C  C25  1  0.47762294  0.74999720  0.74999720  1
  C  C26  1  0.75000098  0.02459877  0.74999669  1
  C  C27  1  0.75000078  0.47540228  0.74999923  1
  C  C28  1  0.75000098  0.74999669  0.02459877  1
  C  C29  1  0.75000078  0.74999923  0.47540228  1
  C  C30  1  0.97743735  0.24999864  0.24999864  1
  C  C31  1  0.52257190  0.24999845  0.24999845  1
  C  C32  1  0.24999910  0.97751521  0.25000223  1
  C  C33  1  0.25000099  0.52248073  0.25000084  1
  C  C34  1  0.24999910  0.25000223  0.97751521  1
  C  C35  1  0.25000099  0.25000084  0.52248073  1
  C  C36  1  0.75000008  0.25000337  0.25000337  1
  C  C37  1  0.25000225  0.74999981  0.25000307  1
  C  C38  1  0.25000225  0.25000307  0.74999981  1
  C  C39  1  0.24999526  0.75000156  0.75000156  1
  C  C40  1  0.84509142  0.84516248  0.65483803  1
  C  C41  1  0.84509142  0.65483803  0.84516248  1
  C  C42  1  0.65490956  0.84516389  0.84516389  1
  C  C43  1  0.65490784  0.65483663  0.65483663  1
  C  C44  1  0.15488079  0.15488083  0.34512366  1
  C  C45  1  0.15488079  0.34512366  0.15488083  1
  C  C46  1  0.34511634  0.15487802  0.15487802  1
  C  C47  1  0.34512160  0.34511876  0.34511876  1
  Ni  Ni48  1  0.10521551  0.50648129  0.39486524  1
  Ni  Ni49  1  0.10521571  0.99351877  0.10513599  1
  Ni  Ni50  1  0.39478125  0.50648101  0.10513491  1
  Ni  Ni51  1  0.39478528  0.99351873  0.39486203  1
  Ni  Ni52  1  0.10521571  0.10513599  0.99351877  1
  Ni  Ni53  1  0.10521551  0.39486524  0.50648129  1
  Ni  Ni54  1  0.39478125  0.10513491  0.50648101  1
  Ni  Ni55  1  0.39478528  0.39486203  0.99351873  1
  Ni  Ni56  1  0.99360184  0.10507623  0.10507623  1
  Ni  Ni57  1  0.50639539  0.10509240  0.39490843  1
  Ni  Ni58  1  0.50639539  0.39490843  0.10509240  1
  Ni  Ni59  1  0.99360364  0.39491898  0.39491898  1
  Ni  Ni60  1  0.89512989  0.49354564  0.60508356  1
  Ni  Ni61  1  0.89512851  0.00645433  0.89491824  1
  Ni  Ni62  1  0.60487191  0.49354666  0.89491794  1
  Ni  Ni63  1  0.60487093  0.00645423  0.60508414  1
  Ni  Ni64  1  0.89512851  0.89491824  0.00645433  1
  Ni  Ni65  1  0.89512989  0.60508356  0.49354564  1
  Ni  Ni66  1  0.60487191  0.89491794  0.49354666  1
  Ni  Ni67  1  0.60487093  0.60508414  0.00645423  1
  Ni  Ni68  1  0.00673974  0.89496295  0.89496295  1
  Ni  Ni69  1  0.49324920  0.89492134  0.60507931  1
  Ni  Ni70  1  0.49324920  0.60507931  0.89492134  1
  Ni  Ni71  1  0.00674297  0.60504517  0.60504517  1
  Ni  Ni72  1  0.04403174  0.63555616  0.45605821  1
  Ni  Ni73  1  0.04403215  0.86444211  0.04394194  1
  Ni  Ni74  1  0.45597237  0.63554898  0.04394112  1
  Ni  Ni75  1  0.45596879  0.86444747  0.45606052  1
  Ni  Ni76  1  0.04403215  0.04394194  0.86444211  1
  Ni  Ni77  1  0.04403174  0.45605821  0.63555616  1
  Ni  Ni78  1  0.45597237  0.04394112  0.63554898  1
  Ni  Ni79  1  0.45596879  0.45606052  0.86444747  1
  Ni  Ni80  1  0.86449674  0.04397730  0.04397730  1
  Ni  Ni81  1  0.63550485  0.04397728  0.45602124  1
  Ni  Ni82  1  0.63550485  0.45602124  0.04397728  1
  Ni  Ni83  1  0.86449505  0.45602313  0.45602313  1
  Ni  Ni84  1  0.95617855  0.36458832  0.54378995  1
  Ni  Ni85  1  0.95617985  0.13541308  0.95621001  1
  Ni  Ni86  1  0.54381980  0.36458668  0.95621023  1
  Ni  Ni87  1  0.54382415  0.13540928  0.54379318  1
  Ni  Ni88  1  0.95617985  0.95621001  0.13541308  1
  Ni  Ni89  1  0.95617855  0.54378995  0.36458832  1
  Ni  Ni90  1  0.54381980  0.95621023  0.36458668  1
  Ni  Ni91  1  0.54382415  0.54379318  0.13540928  1
  Ni  Ni92  1  0.13540730  0.95606457  0.95606457  1
  Ni  Ni93  1  0.36459181  0.95606267  0.54393423  1
  Ni  Ni94  1  0.36459181  0.54393423  0.95606267  1
  Ni  Ni95  1  0.13540905  0.54393615  0.54393615  1
  Cu  Cu96  1  0.64042388  0.64036591  0.85963388  1
  Cu  Cu97  1  0.64042388  0.85963388  0.64036591  1
  Cu  Cu98  1  0.85957653  0.64036622  0.64036622  1
  Cu  Cu99  1  0.85957667  0.85963397  0.85963397  1
  Cu  Cu100  1  0.35948578  0.35959598  0.14040436  1
  Cu  Cu101  1  0.35948578  0.14040436  0.35959598  1
  Cu  Cu102  1  0.14051464  0.35959605  0.35959605  1
  Cu  Cu103  1  0.14051458  0.14040450  0.14040450  1
  Cu  Cu104  1  0.49990555  0.49998085  0.00001950  1
  Cu  Cu105  1  0.49990555  0.00001950  0.49998085  1
  Cu  Cu106  1  0.00009490  0.49998084  0.49998084  1
  Cu  Cu107  1  0.00009502  0.00001938  0.00001938  1
  Cu  Cu108  1  0.53648841  0.74078836  0.96341767  1
  Cu  Cu109  1  0.53648839  0.75921175  0.53658249  1
  Cu  Cu110  1  0.96351182  0.74078874  0.53658298  1
  Cu  Cu111  1  0.96351176  0.75921149  0.96341778  1
  Cu  Cu112  1  0.53648839  0.53658249  0.75921175  1
  Cu  Cu113  1  0.53648841  0.96341767  0.74078836  1
  Cu  Cu114  1  0.96351182  0.53658298  0.74078874  1
  Cu  Cu115  1  0.96351176  0.96341778  0.75921149  1
  Cu  Cu116  1  0.75954624  0.53653548  0.53653548  1
  Cu  Cu117  1  0.74045270  0.53653396  0.96346369  1
  Cu  Cu118  1  0.74045270  0.96346369  0.53653396  1
  Cu  Cu119  1  0.75954900  0.96346561  0.96346561  1
  Cu  Cu120  1  0.46324117  0.25893217  0.03665198  1
  Cu  Cu121  1  0.46324164  0.24106674  0.46334592  1
  Cu  Cu122  1  0.03675869  0.25893308  0.46334552  1
  Cu  Cu123  1  0.03675875  0.24106674  0.03665436  1
  Cu  Cu124  1  0.46324164  0.46334592  0.24106674  1
  Cu  Cu125  1  0.46324117  0.03665198  0.25893217  1
  Cu  Cu126  1  0.03675869  0.46334552  0.25893308  1
  Cu  Cu127  1  0.03675875  0.03665436  0.24106674  1
  Cu  Cu128  1  0.24109695  0.46322913  0.46322913  1
  Cu  Cu129  1  0.25890342  0.46322912  0.03677160  1
  Cu  Cu130  1  0.25890342  0.03677160  0.46322912  1
  Cu  Cu131  1  0.24109385  0.03676775  0.03676775  1
  Cu  Cu132  1  0.57268849  0.12903697  0.69799256  1
  Cu  Cu133  1  0.57268893  0.37096307  0.80200747  1
  Cu  Cu134  1  0.92731187  0.12903661  0.80200780  1
  Cu  Cu135  1  0.92731165  0.37096340  0.69799276  1
  Cu  Cu136  1  0.57268893  0.80200747  0.37096307  1
  Cu  Cu137  1  0.57268849  0.69799256  0.12903697  1
  Cu  Cu138  1  0.92731187  0.80200780  0.12903661  1
  Cu  Cu139  1  0.92731165  0.69799276  0.37096340  1
  Cu  Cu140  1  0.69776250  0.57278601  0.12908103  1
  Cu  Cu141  1  0.80223771  0.57278628  0.37091890  1
  Cu  Cu142  1  0.80223770  0.92721397  0.12908116  1
  Cu  Cu143  1  0.69776262  0.92721394  0.37091893  1
  Cu  Cu144  1  0.37091824  0.57286706  0.80200899  1
  Cu  Cu145  1  0.12908241  0.57286751  0.69799127  1
  Cu  Cu146  1  0.12908268  0.92713283  0.80200853  1
  Cu  Cu147  1  0.37091796  0.92713304  0.69799112  1
  Cu  Cu148  1  0.12908241  0.69799127  0.57286751  1
  Cu  Cu149  1  0.37091824  0.80200899  0.57286706  1
  Cu  Cu150  1  0.12908268  0.80200853  0.92713283  1
  Cu  Cu151  1  0.37091796  0.69799112  0.92713304  1
  Cu  Cu152  1  0.80223771  0.37091890  0.57278628  1
  Cu  Cu153  1  0.69776250  0.12908103  0.57278601  1
  Cu  Cu154  1  0.80223770  0.12908116  0.92721397  1
  Cu  Cu155  1  0.69776262  0.37091893  0.92721394  1
  Cu  Cu156  1  0.42714186  0.87105071  0.30230001  1
  Cu  Cu157  1  0.42714157  0.62894978  0.19770041  1
  Cu  Cu158  1  0.07285890  0.87105053  0.19770034  1
  Cu  Cu159  1  0.07285889  0.62895015  0.30229991  1
  Cu  Cu160  1  0.42714157  0.19770041  0.62894978  1
  Cu  Cu161  1  0.42714186  0.30230001  0.87105071  1
  Cu  Cu162  1  0.07285890  0.19770034  0.87105053  1
  Cu  Cu163  1  0.07285889  0.30229991  0.62895015  1
  Cu  Cu164  1  0.30199047  0.42723335  0.87104679  1
  Cu  Cu165  1  0.19801045  0.42723342  0.62895335  1
  Cu  Cu166  1  0.19801051  0.07276688  0.87104658  1
  Cu  Cu167  1  0.30199020  0.07276689  0.62895333  1
  Cu  Cu168  1  0.62886971  0.42724865  0.19774174  1
  Cu  Cu169  1  0.87113044  0.42724816  0.30225807  1
  Cu  Cu170  1  0.87113025  0.07275192  0.19774181  1
  Cu  Cu171  1  0.62886989  0.07275159  0.30225853  1
  Cu  Cu172  1  0.87113044  0.30225807  0.42724816  1
  Cu  Cu173  1  0.62886971  0.19774174  0.42724865  1
  Cu  Cu174  1  0.87113025  0.19774181  0.07275192  1
  Cu  Cu175  1  0.62886989  0.30225853  0.07275159  1
  Cu  Cu176  1  0.19801045  0.62895335  0.42723342  1
  Cu  Cu177  1  0.30199047  0.87104679  0.42723335  1
  Cu  Cu178  1  0.19801051  0.87104658  0.07276688  1
  Cu  Cu179  1  0.30199020  0.62895333  0.07276689  1
