# generated using pymatgen
data_CuNiC2
_symmetry_space_group_name_H-M   'P 1'
_cell_length_a   3.76822425
_cell_length_b   3.76822425
_cell_length_c   11.56532500
_cell_angle_alpha   90.00000000
_cell_angle_beta   90.00000000
_cell_angle_gamma   120.00000439
_symmetry_Int_Tables_number   1
_chemical_formula_structural   CuNiC2
_chemical_formula_sum   'Cu2 Ni2 C4'
_cell_volume   142.22041258
_cell_formula_units_Z   2
loop_
 _symmetry_equiv_pos_site_id
 _symmetry_equiv_pos_as_xyz
  1  'x, y, z'
loop_
 _atom_site_type_symbol
 _atom_site_label
 _atom_site_symmetry_multiplicity
 _atom_site_fract_x
 _atom_site_fract_y
 _atom_site_fract_z
 _atom_site_occupancy
  C  C0  1  0.33333300  0.66666700  0.79182800  1
  C  C1  1  0.66666700  0.33333300  0.29182800  1
  C  C2  1  0.00000000  0.00000000  0.05836500  1
  C  C3  1  0.00000000  0.00000000  0.55836500  1
  Ni  Ni4  1  0.66666700  0.33333300  0.97369400  1
  Ni  Ni5  1  0.33333300  0.66666700  0.47369400  1
  Cu  Cu6  1  0.00000000  0.00000000  0.22507300  1
  Cu  Cu7  1  0.00000000  0.00000000  0.72507300  1
