# generated using pymatgen
data_CuNi7C5
_symmetry_space_group_name_H-M   'P 1'
_cell_length_a   10.05072645
_cell_length_b   10.05072645
_cell_length_c   13.87625596
_cell_angle_alpha   64.32071313
_cell_angle_beta   64.32071313
_cell_angle_gamma   23.90747616
_symmetry_Int_Tables_number   1
_chemical_formula_structural   CuNi7C5
_chemical_formula_sum   'Cu2 Ni14 C10'
_cell_volume   509.30437527
_cell_formula_units_Z   2
loop_
 _symmetry_equiv_pos_site_id
 _symmetry_equiv_pos_as_xyz
  1  'x, y, z'
loop_
 _atom_site_type_symbol
 _atom_site_label
 _atom_site_symmetry_multiplicity
 _atom_site_fract_x
 _atom_site_fract_y
 _atom_site_fract_z
 _atom_site_occupancy
  C  C0  1  0.46105900  0.46105900  0.34227600  1
  C  C1  1  0.88767200  0.88767200  0.56012200  1
  C  C2  1  0.22360500  0.22360500  0.89012100  1
  C  C3  1  0.40587500  0.40587500  0.12898200  1
  C  C4  1  0.77262300  0.77262300  0.35567400  1
  C  C5  1  0.22737700  0.22737700  0.64432600  1
  C  C6  1  0.59412500  0.59412500  0.87101800  1
  C  C7  1  0.77639500  0.77639500  0.10987900  1
  C  C8  1  0.11232800  0.11232800  0.43987800  1
  C  C9  1  0.53894100  0.53894100  0.65772400  1
  Ni  Ni10  1  0.93656900  0.93656900  0.39255500  1
  Ni  Ni11  1  0.39273100  0.39273100  0.50312400  1
  Ni  Ni12  1  0.29101000  0.29101000  0.72304100  1
  Ni  Ni13  1  0.38089500  0.38089500  0.28903100  1
  Ni  Ni14  1  0.69497200  0.69497200  0.87322900  1
  Ni  Ni15  1  0.78006200  0.78006200  0.58730800  1
  Ni  Ni16  1  0.86020300  0.86020300  0.17608100  1
  Ni  Ni17  1  0.13979700  0.13979700  0.82391900  1
  Ni  Ni18  1  0.21993800  0.21993800  0.41269200  1
  Ni  Ni19  1  0.30502800  0.30502800  0.12677100  1
  Ni  Ni20  1  0.61910500  0.61910500  0.71096900  1
  Ni  Ni21  1  0.70899000  0.70899000  0.27695900  1
  Ni  Ni22  1  0.60726900  0.60726900  0.49687600  1
  Ni  Ni23  1  0.06343100  0.06343100  0.60744500  1
  Cu  Cu24  1  0.88592000  0.88592000  0.97836900  1
  Cu  Cu25  1  0.11408000  0.11408000  0.02163100  1
