# generated using pymatgen
data_CuNiC9
_symmetry_space_group_name_H-M   'P 1'
_cell_length_a   6.62699437
_cell_length_b   6.62699437
_cell_length_c   6.62699437
_cell_angle_alpha   120.81728044
_cell_angle_beta   118.77618471
_cell_angle_gamma   90.36146455
_symmetry_Int_Tables_number   1
_chemical_formula_structural   CuNiC9
_chemical_formula_sum   'Cu2 Ni2 C18'
_cell_volume   206.34159050
_cell_formula_units_Z   2
loop_
 _symmetry_equiv_pos_site_id
 _symmetry_equiv_pos_as_xyz
  1  'x, y, z'
loop_
 _atom_site_type_symbol
 _atom_site_label
 _atom_site_symmetry_multiplicity
 _atom_site_fract_x
 _atom_site_fract_y
 _atom_site_fract_z
 _atom_site_occupancy
  Ni  Ni0  1  0.50000000  0.00000000  0.00000000  1
  Ni  Ni1  1  0.50000000  0.50000000  0.50000000  1
  Cu  Cu2  1  0.50000000  0.00000000  0.50000000  1
  Cu  Cu3  1  0.00000000  0.00000000  0.00000000  1
  C  C4  1  0.00000000  0.50000000  0.00000000  1
  C  C5  1  0.00000000  0.00000000  0.50000000  1
  C  C6  1  0.00000000  0.50000000  0.50000000  1
  C  C7  1  0.50000000  0.50000000  0.00000000  1
  C  C8  1  0.92580300  0.17580300  0.75000000  1
  C  C9  1  0.32479100  0.57479100  0.75000000  1
  C  C10  1  0.93479500  0.58148000  0.76079900  1
  C  C11  1  0.32068100  0.17399500  0.73920100  1
  C  C12  1  0.93479500  0.17399500  0.35331400  1
  C  C13  1  0.32068100  0.58148100  0.14668600  1
  C  C14  1  0.07419700  0.82419700  0.25000000  1
  C  C15  1  0.67520900  0.42520900  0.25000000  1
  C  C16  1  0.06520500  0.41852000  0.23920100  1
  C  C17  1  0.67931900  0.82600500  0.26079900  1
  C  C18  1  0.06520500  0.82600500  0.64668600  1
  C  C19  1  0.67931900  0.41851900  0.85331400  1
  C  C20  1  0.62313700  0.87313700  0.75000000  1
  C  C21  1  0.37686300  0.12686300  0.25000000  1
