# generated using pymatgen
data_CuNiC9
_symmetry_space_group_name_H-M   'P 1'
_cell_length_a   7.40381326
_cell_length_b   7.40381326
_cell_length_c   7.40381326
_cell_angle_alpha   120.16163106
_cell_angle_beta   119.46422455
_cell_angle_gamma   90.32538021
_symmetry_Int_Tables_number   1
_chemical_formula_structural   CuNiC9
_chemical_formula_sum   'Cu2 Ni2 C18'
_cell_volume   287.77303389
_cell_formula_units_Z   2
loop_
 _symmetry_equiv_pos_site_id
 _symmetry_equiv_pos_as_xyz
  1  'x, y, z'
loop_
 _atom_site_type_symbol
 _atom_site_label
 _atom_site_symmetry_multiplicity
 _atom_site_fract_x
 _atom_site_fract_y
 _atom_site_fract_z
 _atom_site_occupancy
  Ni  Ni0  1  0.00000000  0.50000000  0.50000000  1
  Ni  Ni1  1  0.50000000  0.50000000  0.00000000  1
  Cu  Cu2  1  0.00000000  0.50000000  0.00000000  1
  Cu  Cu3  1  0.00000000  0.00000000  0.50000000  1
  C  C4  1  0.50000000  0.00000000  0.00000000  1
  C  C5  1  0.50000000  0.50000000  0.50000000  1
  C  C6  1  0.50000000  0.00000000  0.50000000  1
  C  C7  1  0.00000000  0.00000000  0.00000000  1
  C  C8  1  0.88172600  0.63172600  0.25000000  1
  C  C9  1  0.11827400  0.36827400  0.75000000  1
  C  C10  1  0.82365900  0.07365900  0.75000000  1
  C  C11  1  0.40227700  0.65227700  0.75000000  1
  C  C12  1  0.84432600  0.67421300  0.77047100  1
  C  C13  1  0.40374200  0.07385500  0.72952900  1
  C  C14  1  0.84432600  0.07385500  0.17011200  1
  C  C15  1  0.40374200  0.67421300  0.32988800  1
  C  C16  1  0.17634100  0.92634100  0.25000000  1
  C  C17  1  0.59772300  0.34772300  0.25000000  1
  C  C18  1  0.15567400  0.32578700  0.22952900  1
  C  C19  1  0.59625800  0.92614500  0.27047100  1
  C  C20  1  0.15567400  0.92614500  0.82988800  1
  C  C21  1  0.59625800  0.32578700  0.67011200  1
