# generated using pymatgen
data_Cu3NiC16
_symmetry_space_group_name_H-M   'P 1'
_cell_length_a   3.95490200
_cell_length_b   3.95490200
_cell_length_c   15.15114700
_cell_angle_alpha   90.00000000
_cell_angle_beta   90.00000000
_cell_angle_gamma   90.00000000
_symmetry_Int_Tables_number   1
_chemical_formula_structural   Cu3NiC16
_chemical_formula_sum   'Cu3 Ni1 C16'
_cell_volume   236.98287543
_cell_formula_units_Z   1
loop_
 _symmetry_equiv_pos_site_id
 _symmetry_equiv_pos_as_xyz
  1  'x, y, z'
loop_
 _atom_site_type_symbol
 _atom_site_label
 _atom_site_symmetry_multiplicity
 _atom_site_fract_x
 _atom_site_fract_y
 _atom_site_fract_z
 _atom_site_occupancy
  C  C0  1  0.50000000  0.50000000  0.24569000  1
  C  C1  1  0.50000000  0.50000000  0.75076100  1
  C  C2  1  0.50000000  0.50000000  0.99929500  1
  C  C3  1  0.50000000  0.50000000  0.50421600  1
  Ni  Ni4  1  0.00000000  0.00000000  0.37858600  1
  Cu  Cu5  1  0.00000000  0.00000000  0.87967100  1
  Cu  Cu6  1  0.00000000  0.00000000  0.11974200  1
  Cu  Cu7  1  0.00000000  0.00000000  0.62377800  1
  C  C8  1  0.50000000  0.00000000  0.39200500  1
  C  C9  1  0.50000000  0.00000000  0.89183900  1
  C  C10  1  0.00000000  0.50000000  0.39200500  1
  C  C11  1  0.00000000  0.50000000  0.89183900  1
  C  C12  1  0.50000000  0.00000000  0.10631100  1
  C  C13  1  0.50000000  0.00000000  0.60921800  1
  C  C14  1  0.00000000  0.50000000  0.10631100  1
  C  C15  1  0.00000000  0.50000000  0.60921800  1
  C  C16  1  0.00000000  0.00000000  0.24409100  1
  C  C17  1  0.00000000  0.00000000  0.74740200  1
  C  C18  1  0.00000000  0.00000000  0.00131200  1
  C  C19  1  0.00000000  0.00000000  0.50670800  1
