# generated using pymatgen
data_Cu2Ni
_symmetry_space_group_name_H-M   'P 1'
_cell_length_a   5.10161300
_cell_length_b   5.10161300
_cell_length_c   18.62802800
_cell_angle_alpha   90.00000000
_cell_angle_beta   90.00000000
_cell_angle_gamma   90.00000000
_symmetry_Int_Tables_number   1
_chemical_formula_structural   Cu2Ni
_chemical_formula_sum   'Cu16 Ni8'
_cell_volume   484.82153624
_cell_formula_units_Z   8
loop_
 _symmetry_equiv_pos_site_id
 _symmetry_equiv_pos_as_xyz
  1  'x, y, z'
loop_
 _atom_site_type_symbol
 _atom_site_label
 _atom_site_symmetry_multiplicity
 _atom_site_fract_x
 _atom_site_fract_y
 _atom_site_fract_z
 _atom_site_occupancy
  Ni  Ni0  1  0.34590500  0.86396100  0.44930600  1
  Ni  Ni1  1  0.65409500  0.13603900  0.94930600  1
  Ni  Ni2  1  0.86396100  0.34590500  0.55069400  1
  Ni  Ni3  1  0.36396100  0.15409500  0.69930600  1
  Ni  Ni4  1  0.63603900  0.84590500  0.19930600  1
  Ni  Ni5  1  0.15409500  0.36396100  0.30069400  1
  Ni  Ni6  1  0.84590500  0.63603900  0.80069400  1
  Ni  Ni7  1  0.13603900  0.65409500  0.05069400  1
  Cu  Cu8  1  0.99048600  0.01880000  0.37592400  1
  Cu  Cu9  1  0.00951400  0.98120000  0.87592400  1
  Cu  Cu10  1  0.01880000  0.99048600  0.62407600  1
  Cu  Cu11  1  0.51880000  0.50951400  0.62592400  1
  Cu  Cu12  1  0.48120000  0.49048600  0.12592400  1
  Cu  Cu13  1  0.50951400  0.51880000  0.37407600  1
  Cu  Cu14  1  0.49048600  0.48120000  0.87407600  1
  Cu  Cu15  1  0.98120000  0.00951400  0.12407600  1
  Cu  Cu16  1  0.80175400  0.31839600  0.05951500  1
  Cu  Cu17  1  0.18160400  0.30175400  0.80951500  1
  Cu  Cu18  1  0.81839600  0.69824600  0.30951500  1
  Cu  Cu19  1  0.30175400  0.18160400  0.19048500  1
  Cu  Cu20  1  0.69824600  0.81839600  0.69048500  1
  Cu  Cu21  1  0.19824600  0.68160400  0.55951500  1
  Cu  Cu22  1  0.31839600  0.80175400  0.94048500  1
  Cu  Cu23  1  0.68160400  0.19824600  0.44048500  1
