# generated using pymatgen
data_Cu2NiC4
_symmetry_space_group_name_H-M   'P 1'
_cell_length_a   3.50356000
_cell_length_b   10.54317700
_cell_length_c   12.26724100
_cell_angle_alpha   90.00000000
_cell_angle_beta   90.00000000
_cell_angle_gamma   90.00000000
_symmetry_Int_Tables_number   1
_chemical_formula_structural   Cu2NiC4
_chemical_formula_sum   'Cu8 Ni4 C16'
_cell_volume   453.13536114
_cell_formula_units_Z   4
loop_
 _symmetry_equiv_pos_site_id
 _symmetry_equiv_pos_as_xyz
  1  'x, y, z'
loop_
 _atom_site_type_symbol
 _atom_site_label
 _atom_site_symmetry_multiplicity
 _atom_site_fract_x
 _atom_site_fract_y
 _atom_site_fract_z
 _atom_site_occupancy
  Ni  Ni0  1  0.75000000  0.74686300  0.85135400  1
  Ni  Ni1  1  0.25000000  0.25313700  0.14864600  1
  Ni  Ni2  1  0.75000000  0.24686300  0.64864600  1
  Ni  Ni3  1  0.25000000  0.75313700  0.35135400  1
  Cu  Cu4  1  0.25000000  0.42583700  0.38893400  1
  Cu  Cu5  1  0.75000000  0.57416300  0.61106600  1
  Cu  Cu6  1  0.25000000  0.92583700  0.11106600  1
  Cu  Cu7  1  0.75000000  0.07416300  0.88893400  1
  Cu  Cu8  1  0.75000000  0.07756600  0.39046400  1
  Cu  Cu9  1  0.25000000  0.92243400  0.60953600  1
  Cu  Cu10  1  0.75000000  0.57756600  0.10953600  1
  Cu  Cu11  1  0.25000000  0.42243400  0.89046400  1
  C  C12  1  0.25000000  0.42949700  0.57426700  1
  C  C13  1  0.75000000  0.57050300  0.42573300  1
  C  C14  1  0.25000000  0.92949700  0.92573300  1
  C  C15  1  0.75000000  0.07050300  0.07426700  1
  C  C16  1  0.25000000  0.51880300  0.21723100  1
  C  C17  1  0.75000000  0.48119700  0.78276900  1
  C  C18  1  0.25000000  0.01880300  0.28276900  1
  C  C19  1  0.75000000  0.98119700  0.71723100  1
  C  C20  1  0.25000000  0.11586500  0.51848100  1
  C  C21  1  0.75000000  0.88413500  0.48151900  1
  C  C22  1  0.25000000  0.61586500  0.98151900  1
  C  C23  1  0.75000000  0.38413500  0.01848100  1
  C  C24  1  0.75000000  0.29050800  0.33986000  1
  C  C25  1  0.25000000  0.70949200  0.66014000  1
  C  C26  1  0.75000000  0.79050800  0.16014000  1
  C  C27  1  0.25000000  0.20949200  0.83986000  1
