# generated using pymatgen
data_Cu2NiC9
_symmetry_space_group_name_H-M   'P 1'
_cell_length_a   7.81051700
_cell_length_b   7.81243400
_cell_length_c   11.04468500
_cell_angle_alpha   90.00000000
_cell_angle_beta   90.00000000
_cell_angle_gamma   90.00000000
_symmetry_Int_Tables_number   1
_chemical_formula_structural   Cu2NiC9
_chemical_formula_sum   'Cu8 Ni4 C36'
_cell_volume   673.93727491
_cell_formula_units_Z   4
loop_
 _symmetry_equiv_pos_site_id
 _symmetry_equiv_pos_as_xyz
  1  'x, y, z'
loop_
 _atom_site_type_symbol
 _atom_site_label
 _atom_site_symmetry_multiplicity
 _atom_site_fract_x
 _atom_site_fract_y
 _atom_site_fract_z
 _atom_site_occupancy
  C  C0  1  0.53065900  0.52018900  0.99962300  1
  C  C1  1  0.46934100  0.02018900  0.00037700  1
  C  C2  1  0.96934100  0.02018900  0.99962300  1
  C  C3  1  0.03065900  0.52018900  0.00037700  1
  Ni  Ni4  1  0.49550900  0.52625700  0.51265400  1
  Ni  Ni5  1  0.50449100  0.02625700  0.48734600  1
  Ni  Ni6  1  0.00449100  0.02625700  0.51265400  1
  Ni  Ni7  1  0.99550900  0.52625700  0.48734600  1
  Cu  Cu8  1  0.79122600  0.67207500  0.75271700  1
  Cu  Cu9  1  0.20877400  0.17207500  0.24728300  1
  Cu  Cu10  1  0.70877400  0.17207500  0.75271700  1
  Cu  Cu11  1  0.29122600  0.67207500  0.24728300  1
  Cu  Cu12  1  0.26430800  0.76599600  0.71345200  1
  Cu  Cu13  1  0.73569200  0.26599600  0.28654800  1
  Cu  Cu14  1  0.23569200  0.26599600  0.71345200  1
  Cu  Cu15  1  0.76430800  0.76599600  0.28654800  1
  C  C16  1  0.58277800  0.59260700  0.82806300  1
  C  C17  1  0.41722200  0.09260700  0.17193700  1
  C  C18  1  0.91722200  0.09260700  0.82806300  1
  C  C19  1  0.08277800  0.59260700  0.17193700  1
  C  C20  1  0.52011900  0.28391900  0.96343000  1
  C  C21  1  0.47988100  0.78391900  0.03657000  1
  C  C22  1  0.97988100  0.78391900  0.96343000  1
  C  C23  1  0.02011900  0.28391900  0.03657000  1
  C  C24  1  0.75566300  0.53337400  0.05166900  1
  C  C25  1  0.24433700  0.03337400  0.94833100  1
  C  C26  1  0.74433700  0.03337400  0.05166900  1
  C  C27  1  0.25566300  0.53337400  0.94833100  1
  C  C28  1  0.93148900  0.49841300  0.82390300  1
  C  C29  1  0.06851100  0.99841300  0.17609700  1
  C  C30  1  0.56851100  0.99841300  0.82390300  1
  C  C31  1  0.43148900  0.49841300  0.17609700  1
  C  C32  1  0.74844900  0.54308500  0.60364700  1
  C  C33  1  0.25155100  0.04308500  0.39635300  1
  C  C34  1  0.75155100  0.04308500  0.60364700  1
  C  C35  1  0.24844900  0.54308500  0.39635300  1
  C  C36  1  0.05292600  0.72576300  0.62479000  1
  C  C37  1  0.94707400  0.22576300  0.37521000  1
  C  C38  1  0.44707400  0.22576300  0.62479000  1
  C  C39  1  0.55292600  0.72576300  0.37521000  1
  C  C40  1  0.31390500  0.51470600  0.66200400  1
  C  C41  1  0.68609500  0.01470600  0.33799600  1
  C  C42  1  0.18609500  0.01470600  0.66200400  1
  C  C43  1  0.81390500  0.51470600  0.33799600  1
  C  C44  1  0.43691300  0.79714600  0.59018100  1
  C  C45  1  0.56308700  0.29714600  0.40981900  1
  C  C46  1  0.06308700  0.29714600  0.59018100  1
  C  C47  1  0.93691300  0.79714600  0.40981900  1
