# generated using pymatgen
data_Cu3NiC4
_symmetry_space_group_name_H-M   'P 1'
_cell_length_a   4.92015369
_cell_length_b   4.92015369
_cell_length_c   10.13364400
_cell_angle_alpha   90.00000000
_cell_angle_beta   90.00000000
_cell_angle_gamma   119.99999587
_symmetry_Int_Tables_number   1
_chemical_formula_structural   Cu3NiC4
_chemical_formula_sum   'Cu6 Ni2 C8'
_cell_volume   212.44848159
_cell_formula_units_Z   2
loop_
 _symmetry_equiv_pos_site_id
 _symmetry_equiv_pos_as_xyz
  1  'x, y, z'
loop_
 _atom_site_type_symbol
 _atom_site_label
 _atom_site_symmetry_multiplicity
 _atom_site_fract_x
 _atom_site_fract_y
 _atom_site_fract_z
 _atom_site_occupancy
  C  C0  1  0.00000000  0.00000000  0.50000000  1
  C  C1  1  0.00000000  0.00000000  0.00000000  1
  C  C2  1  0.66666700  0.33333300  0.75000000  1
  C  C3  1  0.33333300  0.66666700  0.25000000  1
  Ni  Ni4  1  0.33333300  0.66666700  0.75000000  1
  Ni  Ni5  1  0.66666700  0.33333300  0.25000000  1
  Cu  Cu6  1  0.89686900  0.62070900  0.25000000  1
  Cu  Cu7  1  0.27616000  0.89686900  0.75000000  1
  Cu  Cu8  1  0.72384000  0.10313100  0.25000000  1
  Cu  Cu9  1  0.10313100  0.37929100  0.75000000  1
  Cu  Cu10  1  0.37929100  0.27616000  0.25000000  1
  Cu  Cu11  1  0.62070900  0.72384000  0.75000000  1
  C  C12  1  0.33333300  0.66666700  0.45208500  1
  C  C13  1  0.66666700  0.33333300  0.95208500  1
  C  C14  1  0.33333300  0.66666700  0.04791500  1
  C  C15  1  0.66666700  0.33333300  0.54791500  1
