# generated using pymatgen
data_Cu5Ni2C3
_symmetry_space_group_name_H-M   'P 1'
_cell_length_a   17.46910838
_cell_length_b   17.46910838
_cell_length_c   17.46910865
_cell_angle_alpha   13.92332022
_cell_angle_beta   13.92332022
_cell_angle_gamma   13.92332125
_symmetry_Int_Tables_number   1
_chemical_formula_structural   Cu5Ni2C3
_chemical_formula_sum   'Cu10 Ni4 C6'
_cell_volume   268.62683372
_cell_formula_units_Z   2
loop_
 _symmetry_equiv_pos_site_id
 _symmetry_equiv_pos_as_xyz
  1  'x, y, z'
loop_
 _atom_site_type_symbol
 _atom_site_label
 _atom_site_symmetry_multiplicity
 _atom_site_fract_x
 _atom_site_fract_y
 _atom_site_fract_z
 _atom_site_occupancy
  Ni  Ni0  1  0.59997400  0.59997400  0.59997400  1
  Ni  Ni1  1  0.19998700  0.19998700  0.19998700  1
  Ni  Ni2  1  0.80001300  0.80001300  0.80001300  1
  Ni  Ni3  1  0.40002600  0.40002600  0.40002600  1
  C  C4  1  0.00000000  0.00000000  0.00000000  1
  Cu  Cu5  1  0.05001300  0.05001300  0.05001300  1
  Cu  Cu6  1  0.85001200  0.85001200  0.85001200  1
  Cu  Cu7  1  0.44999700  0.44999700  0.44999700  1
  Cu  Cu8  1  0.65002400  0.65002400  0.65002400  1
  Cu  Cu9  1  0.25001100  0.25001100  0.25001100  1
  Cu  Cu10  1  0.34997600  0.34997600  0.34997600  1
  Cu  Cu11  1  0.14998800  0.14998800  0.14998800  1
  Cu  Cu12  1  0.74998900  0.74998900  0.74998900  1
  Cu  Cu13  1  0.94998700  0.94998700  0.94998700  1
  Cu  Cu14  1  0.55000300  0.55000300  0.55000300  1
  C  C15  1  0.69996600  0.69996600  0.69996600  1
  C  C16  1  0.50000000  0.50000000  0.50000000  1
  C  C17  1  0.10002200  0.10002200  0.10002200  1
  C  C18  1  0.30003400  0.30003400  0.30003400  1
  C  C19  1  0.89997800  0.89997800  0.89997800  1
