# generated using pymatgen
data_CuNiC7
_symmetry_space_group_name_H-M   'P 1'
_cell_length_a   5.17312700
_cell_length_b   5.92753549
_cell_length_c   8.08577481
_cell_angle_alpha   110.22356497
_cell_angle_beta   104.80370217
_cell_angle_gamma   96.18271282
_symmetry_Int_Tables_number   1
_chemical_formula_structural   CuNiC7
_chemical_formula_sum   'Cu2 Ni2 C14'
_cell_volume   219.61973240
_cell_formula_units_Z   2
loop_
 _symmetry_equiv_pos_site_id
 _symmetry_equiv_pos_as_xyz
  1  'x, y, z'
loop_
 _atom_site_type_symbol
 _atom_site_label
 _atom_site_symmetry_multiplicity
 _atom_site_fract_x
 _atom_site_fract_y
 _atom_site_fract_z
 _atom_site_occupancy
  C  C0  1  0.25009200  0.60088400  0.82407200  1
  C  C1  1  0.74990800  0.39911600  0.17592800  1
  Ni  Ni2  1  0.00000000  0.00000000  0.50000000  1
  Ni  Ni3  1  0.00000000  0.00000000  0.00000000  1
  Cu  Cu4  1  0.35032500  0.64537100  0.22026300  1
  Cu  Cu5  1  0.64967500  0.35462900  0.77973700  1
  C  C6  1  0.62767700  0.95208900  0.30020900  1
  C  C7  1  0.37232300  0.04791100  0.69979100  1
  C  C8  1  0.18008700  0.93485200  0.76068100  1
  C  C9  1  0.32273000  0.78351500  0.35291100  1
  C  C10  1  0.64327100  0.62366300  0.69139600  1
  C  C11  1  0.63726700  0.75912800  0.04964400  1
  C  C12  1  0.11026500  0.66389300  0.13594700  1
  C  C13  1  0.88973500  0.33610700  0.86405300  1
  C  C14  1  0.36273300  0.24087200  0.95035600  1
  C  C15  1  0.35672900  0.37633700  0.30860400  1
  C  C16  1  0.67727000  0.21648500  0.64708900  1
  C  C17  1  0.81991300  0.06514800  0.23931900  1
