# generated using pymatgen
data_CuNi2C9
_symmetry_space_group_name_H-M   'P 1'
_cell_length_a   5.39028562
_cell_length_b   8.07249852
_cell_length_c   8.16454625
_cell_angle_alpha   114.24904021
_cell_angle_beta   101.81865785
_cell_angle_gamma   104.68081360
_symmetry_Int_Tables_number   1
_chemical_formula_structural   CuNi2C9
_chemical_formula_sum   'Cu2 Ni4 C18'
_cell_volume   293.49832717
_cell_formula_units_Z   2
loop_
 _symmetry_equiv_pos_site_id
 _symmetry_equiv_pos_as_xyz
  1  'x, y, z'
loop_
 _atom_site_type_symbol
 _atom_site_label
 _atom_site_symmetry_multiplicity
 _atom_site_fract_x
 _atom_site_fract_y
 _atom_site_fract_z
 _atom_site_occupancy
  C  C0  1  0.23508500  0.73508500  0.47017000  1
  C  C1  1  0.76491500  0.26491500  0.52983000  1
  C  C2  1  0.26166300  0.13095100  0.76977600  1
  C  C3  1  0.49188700  0.36117500  0.23022400  1
  C  C4  1  0.73833700  0.86904900  0.23022400  1
  C  C5  1  0.50811300  0.63882500  0.76977600  1
  Ni  Ni6  1  0.66096800  0.18153800  0.00000000  1
  Ni  Ni7  1  0.33903200  0.81846200  0.00000000  1
  Ni  Ni8  1  0.66608900  0.40233000  0.00000000  1
  Ni  Ni9  1  0.33391100  0.59767000  0.00000000  1
  Cu  Cu10  1  0.53809400  0.27213900  0.00000000  1
  Cu  Cu11  1  0.46190600  0.72786100  0.00000000  1
  C  C12  1  0.40417200  0.10671000  0.61689400  1
  C  C13  1  0.78727800  0.48981600  0.38310600  1
  C  C14  1  0.59582800  0.89329000  0.38310600  1
  C  C15  1  0.21272200  0.51018400  0.61689400  1
  C  C16  1  0.12344500  0.91731700  0.72504400  1
  C  C17  1  0.39840000  0.19227300  0.27495600  1
  C  C18  1  0.87655500  0.08268300  0.27495600  1
  C  C19  1  0.60160000  0.80772700  0.72504400  1
  C  C20  1  0.06294500  0.23635000  0.75755400  1
  C  C21  1  0.30539100  0.47879600  0.24244600  1
  C  C22  1  0.93705500  0.76365000  0.24244600  1
  C  C23  1  0.69460900  0.52120400  0.75755400  1
