# generated using pymatgen
data_CuNiC8
_symmetry_space_group_name_H-M   'P 1'
_cell_length_a   4.10017100
_cell_length_b   12.09187000
_cell_length_c   19.89935400
_cell_angle_alpha   90.00000000
_cell_angle_beta   90.00000000
_cell_angle_gamma   90.00000000
_symmetry_Int_Tables_number   1
_chemical_formula_structural   CuNiC8
_chemical_formula_sum   'Cu4 Ni4 C32'
_cell_volume   986.58479286
_cell_formula_units_Z   4
loop_
 _symmetry_equiv_pos_site_id
 _symmetry_equiv_pos_as_xyz
  1  'x, y, z'
loop_
 _atom_site_type_symbol
 _atom_site_label
 _atom_site_symmetry_multiplicity
 _atom_site_fract_x
 _atom_site_fract_y
 _atom_site_fract_z
 _atom_site_occupancy
  Ni  Ni0  1  0.50000000  0.31869200  0.08006100  1
  Ni  Ni1  1  0.50000000  0.81869200  0.91993900  1
  Ni  Ni2  1  0.50000000  0.75384300  0.35984200  1
  Ni  Ni3  1  0.50000000  0.25384300  0.64015800  1
  Cu  Cu4  1  0.50000000  0.68356700  0.11820400  1
  Cu  Cu5  1  0.50000000  0.18356700  0.88179600  1
  Cu  Cu6  1  0.50000000  0.87292700  0.58170000  1
  Cu  Cu7  1  0.50000000  0.37292700  0.41830000  1
  C  C8  1  0.50000000  0.10127000  0.25308800  1
  C  C9  1  0.50000000  0.60127000  0.74691200  1
  C  C10  1  0.00000000  0.99509500  0.09213500  1
  C  C11  1  0.00000000  0.49509500  0.90786500  1
  C  C12  1  0.00000000  0.49920500  0.24845900  1
  C  C13  1  0.00000000  0.99920500  0.75154100  1
  C  C14  1  0.00000000  0.54871500  0.57564400  1
  C  C15  1  0.00000000  0.04871500  0.42435600  1
  C  C16  1  0.50000000  0.06240300  0.01475600  1
  C  C17  1  0.50000000  0.56240300  0.98524400  1
  C  C18  1  0.50000000  0.92003300  0.16677000  1
  C  C19  1  0.50000000  0.42003300  0.83323000  1
  C  C20  1  0.50000000  0.59541000  0.50854000  1
  C  C21  1  0.50000000  0.09541000  0.49146000  1
  C  C22  1  0.50000000  0.88098300  0.74056600  1
  C  C23  1  0.50000000  0.38098300  0.25943400  1
  C  C24  1  0.00000000  0.79267300  0.04331800  1
  C  C25  1  0.00000000  0.29267300  0.95668200  1
  C  C26  1  0.00000000  0.50773700  0.11935800  1
  C  C27  1  0.00000000  0.00773700  0.88064200  1
  C  C28  1  0.00000000  0.17144000  0.16382300  1
  C  C29  1  0.00000000  0.67144000  0.83617700  1
  C  C30  1  0.00000000  0.70190300  0.23074500  1
  C  C31  1  0.00000000  0.20190300  0.76925500  1
  C  C32  1  0.00000000  0.95244100  0.31669400  1
  C  C33  1  0.00000000  0.45244100  0.68330600  1
  C  C34  1  0.00000000  0.53332300  0.37555000  1
  C  C35  1  0.00000000  0.03332300  0.62445000  1
  C  C36  1  0.00000000  0.85173500  0.47831100  1
  C  C37  1  0.00000000  0.35173500  0.52168900  1
  C  C38  1  0.00000000  0.73451400  0.63713200  1
  C  C39  1  0.00000000  0.23451400  0.36286800  1
