# generated using pymatgen
data_Cu8Ni4C3
_symmetry_space_group_name_H-M   'P 1'
_cell_length_a   13.69265900
_cell_length_b   7.96940400
_cell_length_c   9.89017112
_cell_angle_alpha   84.78161597
_cell_angle_beta   90.00000000
_cell_angle_gamma   90.00000000
_symmetry_Int_Tables_number   1
_chemical_formula_structural   Cu8Ni4C3
_chemical_formula_sum   'Cu32 Ni16 C12'
_cell_volume   1074.76537491
_cell_formula_units_Z   4
loop_
 _symmetry_equiv_pos_site_id
 _symmetry_equiv_pos_as_xyz
  1  'x, y, z'
loop_
 _atom_site_type_symbol
 _atom_site_label
 _atom_site_symmetry_multiplicity
 _atom_site_fract_x
 _atom_site_fract_y
 _atom_site_fract_z
 _atom_site_occupancy
  C  C0  1  0.16520500  0.58747300  0.75506200  1
  C  C1  1  0.14389000  0.49839800  0.26805400  1
  C  C2  1  0.35611000  0.99839800  0.26805400  1
  C  C3  1  0.66520500  0.91252700  0.24493800  1
  C  C4  1  0.64389000  0.00160200  0.73194600  1
  C  C5  1  0.33479500  0.08747300  0.75506200  1
  C  C6  1  0.85611000  0.50160200  0.73194600  1
  C  C7  1  0.83479500  0.41252700  0.24493800  1
  C  C8  1  0.50000000  0.50000000  0.50000000  1
  C  C9  1  0.00000000  0.00000000  0.00000000  1
  C  C10  1  0.50000000  0.50000000  0.00000000  1
  C  C11  1  0.00000000  0.00000000  0.50000000  1
  Ni  Ni12  1  0.51991800  0.73848200  0.05634700  1
  Ni  Ni13  1  0.14449100  0.99713100  0.05816400  1
  Ni  Ni14  1  0.64289500  0.50307000  0.43925500  1
  Ni  Ni15  1  0.51708300  0.73533900  0.56646500  1
  Ni  Ni16  1  0.14289500  0.99693000  0.56074500  1
  Ni  Ni17  1  0.35710500  0.49693000  0.56074500  1
  Ni  Ni18  1  0.01991800  0.76151800  0.94365300  1
  Ni  Ni19  1  0.48008200  0.26151800  0.94365300  1
  Ni  Ni20  1  0.64449100  0.50286900  0.94183600  1
  Ni  Ni21  1  0.85550900  0.00286900  0.94183600  1
  Ni  Ni22  1  0.98008200  0.23848200  0.05634700  1
  Ni  Ni23  1  0.35550900  0.49713100  0.05816400  1
  Ni  Ni24  1  0.48291700  0.26466100  0.43353500  1
  Ni  Ni25  1  0.85710500  0.00307000  0.43925500  1
  Ni  Ni26  1  0.01708300  0.76466100  0.43353500  1
  Ni  Ni27  1  0.98291700  0.23533900  0.56646500  1
  Cu  Cu28  1  0.28953100  0.47743800  0.97329200  1
  Cu  Cu29  1  0.57426400  0.83892000  0.50366700  1
  Cu  Cu30  1  0.16481000  0.92946100  0.67632200  1
  Cu  Cu31  1  0.79179000  0.93655400  0.51466600  1
  Cu  Cu32  1  0.92382100  0.33844100  0.98880600  1
  Cu  Cu33  1  0.83434000  0.99071800  0.82015000  1
  Cu  Cu34  1  0.02559800  0.27529700  0.67071800  1
  Cu  Cu35  1  0.07617900  0.66155900  0.01119400  1
  Cu  Cu36  1  0.33434000  0.50928200  0.17985000  1
  Cu  Cu37  1  0.47440200  0.77529700  0.67071800  1
  Cu  Cu38  1  0.92573600  0.33892000  0.50366700  1
  Cu  Cu39  1  0.51825700  0.21711100  0.83732900  1
  Cu  Cu40  1  0.42382100  0.16155900  0.01119400  1
  Cu  Cu41  1  0.78953100  0.02256200  0.02670800  1
  Cu  Cu42  1  0.07426400  0.66108000  0.49633300  1
  Cu  Cu43  1  0.71046900  0.52256200  0.02670800  1
  Cu  Cu44  1  0.98174300  0.71711100  0.83732900  1
  Cu  Cu45  1  0.83519000  0.07053900  0.32367800  1
  Cu  Cu46  1  0.66481000  0.57053900  0.32367800  1
  Cu  Cu47  1  0.97440200  0.72470300  0.32928200  1
  Cu  Cu48  1  0.16566000  0.00928200  0.17985000  1
  Cu  Cu49  1  0.42573600  0.16108000  0.49633300  1
  Cu  Cu50  1  0.57617900  0.83844100  0.98880600  1
  Cu  Cu51  1  0.48174300  0.78288900  0.16267100  1
  Cu  Cu52  1  0.20821000  0.06344600  0.48533400  1
  Cu  Cu53  1  0.33519000  0.42946100  0.67632200  1
  Cu  Cu54  1  0.29179000  0.56344600  0.48533400  1
  Cu  Cu55  1  0.01825700  0.28288900  0.16267100  1
  Cu  Cu56  1  0.21046900  0.97743800  0.97329200  1
  Cu  Cu57  1  0.52559700  0.22470300  0.32928200  1
  Cu  Cu58  1  0.66566000  0.49071800  0.82015000  1
  Cu  Cu59  1  0.70821000  0.43655400  0.51466600  1
