# generated using pymatgen
data_Cu2NiC60
_symmetry_space_group_name_H-M   'P 1'
_cell_length_a   10.60489878
_cell_length_b   11.09175441
_cell_length_c   11.27502969
_cell_angle_alpha   85.50216605
_cell_angle_beta   64.91234321
_cell_angle_gamma   74.71839824
_symmetry_Int_Tables_number   1
_chemical_formula_structural   Cu2NiC60
_chemical_formula_sum   'Cu4 Ni2 C120'
_cell_volume   1157.81627115
_cell_formula_units_Z   2
loop_
 _symmetry_equiv_pos_site_id
 _symmetry_equiv_pos_as_xyz
  1  'x, y, z'
loop_
 _atom_site_type_symbol
 _atom_site_label
 _atom_site_symmetry_multiplicity
 _atom_site_fract_x
 _atom_site_fract_y
 _atom_site_fract_z
 _atom_site_occupancy
  C  C0  1  0.74559600  0.38317100  0.97302700  1
  C  C1  1  0.25440400  0.61682900  0.02697300  1
  C  C2  1  0.73027400  0.37992900  0.67019000  1
  C  C3  1  0.26972600  0.62007100  0.32981000  1
  C  C4  1  0.44613800  0.05910900  0.90582500  1
  C  C5  1  0.55386200  0.94089100  0.09417500  1
  Ni  Ni6  1  0.48211600  0.33868900  0.94184000  1
  Ni  Ni7  1  0.51788400  0.66131100  0.05816000  1
  C  C8  1  0.91338200  0.37376400  0.74411200  1
  C  C9  1  0.08661800  0.62623600  0.25588800  1
  C  C10  1  0.10236900  0.80284600  0.95158900  1
  C  C11  1  0.89763100  0.19715400  0.04841100  1
  C  C12  1  0.93916700  0.16421600  0.89779000  1
  C  C13  1  0.06083300  0.83578400  0.10221000  1
  C  C14  1  0.30459800  0.54812500  0.78787500  1
  C  C15  1  0.69540200  0.45187500  0.21212500  1
  C  C16  1  0.34420500  0.67937000  0.77572800  1
  C  C17  1  0.65579500  0.32063000  0.22427200  1
  C  C18  1  0.00661100  0.40843000  0.90285200  1
  C  C19  1  0.99338900  0.59157000  0.09714800  1
  C  C20  1  0.89605300  0.54334300  0.91540400  1
  C  C21  1  0.10394700  0.45665700  0.08459600  1
  C  C22  1  0.87182800  0.49594000  0.47330400  1
  C  C23  1  0.12817200  0.50406000  0.52669600  1
  C  C24  1  0.98672800  0.36641100  0.47513500  1
  C  C25  1  0.01327200  0.63358900  0.52486500  1
  C  C26  1  0.82887600  0.16951200  0.53381800  1
  C  C27  1  0.17112400  0.83048800  0.46618200  1
  C  C28  1  0.85203200  0.13642500  0.66614300  1
  C  C29  1  0.14796800  0.86357500  0.33385700  1
  C  C30  1  0.73034800  0.61535700  0.67419200  1
  C  C31  1  0.26965200  0.38464300  0.32580800  1
  C  C32  1  0.59011600  0.58639600  0.79206200  1
  C  C33  1  0.40988400  0.41360400  0.20793800  1
  C  C34  1  0.53101700  0.40263700  0.59769500  1
  C  C35  1  0.46898300  0.59736300  0.40230500  1
  C  C36  1  0.65749800  0.44245200  0.47458100  1
  C  C37  1  0.34250200  0.55754800  0.52541900  1
  C  C38  1  0.71811800  0.99296800  0.86064700  1
  C  C39  1  0.28188200  0.00703200  0.13935300  1
  C  C40  1  0.47832500  0.14776300  0.68218500  1
  C  C41  1  0.52167500  0.85223700  0.31781500  1
  C  C42  1  0.60838100  0.01860200  0.65699200  1
  C  C43  1  0.39161900  0.98139800  0.34300800  1
  C  C44  1  0.23308100  0.20539300  0.86957200  1
  C  C45  1  0.76691900  0.79460700  0.13042800  1
  C  C46  1  0.21598300  0.06624300  0.87557400  1
  C  C47  1  0.78401700  0.93375700  0.12442600  1
  C  C48  1  0.43310300  0.87185900  0.77219000  1
  C  C49  1  0.56689700  0.12814100  0.22781000  1
  C  C50  1  0.42364800  0.82693200  0.91362500  1
  C  C51  1  0.57635200  0.17306800  0.08637500  1
  C  C52  1  0.93216100  0.74509100  0.85504700  1
  C  C53  1  0.06783900  0.25490900  0.14495300  1
  C  C54  1  0.77217600  0.72799300  0.92485700  1
  C  C55  1  0.22782400  0.27200700  0.07514300  1
  C  C56  1  0.76238100  0.95507800  0.47631400  1
  C  C57  1  0.23761900  0.04492200  0.52368600  1
  C  C58  1  0.68052700  0.16831900  0.35903000  1
  C  C59  1  0.31947300  0.83168100  0.64097000  1
  C  C60  1  0.51425100  0.23464100  0.41999100  1
  C  C61  1  0.48574900  0.76535900  0.58000900  1
  C  C62  1  0.85482700  0.70913300  0.71323700  1
  C  C63  1  0.14517300  0.29086700  0.28676300  1
  C  C64  1  0.80667300  0.78106200  0.60042200  1
  C  C65  1  0.19332700  0.21893800  0.39957800  1
  Cu  Cu66  1  0.04224100  0.95496300  0.74672100  1
  Cu  Cu67  1  0.95775900  0.04503700  0.25327900  1
  Cu  Cu68  1  0.25909200  0.35622100  0.67110900  1
  Cu  Cu69  1  0.74090800  0.64377900  0.32889100  1
  C  C70  1  0.41473300  0.22728500  0.95946400  1
  C  C71  1  0.58526700  0.77271500  0.04053600  1
  C  C72  1  0.55876900  0.36276700  0.79617800  1
  C  C73  1  0.44123100  0.63723300  0.20382200  1
  C  C74  1  0.59206500  0.30814100  0.00568600  1
  C  C75  1  0.40793500  0.69185900  0.99431400  1
  C  C76  1  0.63815400  0.54653300  0.98269400  1
  C  C77  1  0.36184600  0.45346700  0.01730600  1
  C  C78  1  0.81563900  0.36324700  0.78779300  1
  C  C79  1  0.18436100  0.63675300  0.21220700  1
  C  C80  1  0.86911900  0.22143600  0.97485400  1
  C  C81  1  0.13088100  0.77856400  0.02514600  1
  C  C82  1  0.30711000  0.61544400  0.83924100  1
  C  C83  1  0.69289000  0.38455600  0.16075900  1
  C  C84  1  0.90377100  0.45538400  0.94634700  1
  C  C85  1  0.09622900  0.54461600  0.05365300  1
  C  C86  1  0.88699300  0.42142400  0.52707800  1
  C  C87  1  0.11300700  0.57857600  0.47292200  1
  C  C88  1  0.82378200  0.20593400  0.61345600  1
  C  C89  1  0.17621800  0.79406600  0.38654400  1
  C  C90  1  0.65631800  0.56441600  0.70000900  1
  C  C91  1  0.34368200  0.43558400  0.29999100  1
  C  C92  1  0.63705900  0.38716700  0.55136400  1
  C  C93  1  0.36294100  0.61283300  0.44863600  1
  C  C94  1  0.61916800  0.99374200  0.92157700  1
  C  C95  1  0.38083200  0.00625800  0.07842300  1
  C  C96  1  0.53498100  0.09013900  0.72412200  1
  C  C97  1  0.46501900  0.90986100  0.27587800  1
  C  C98  1  0.25649200  0.12011100  0.90642800  1
  C  C99  1  0.74350800  0.87988900  0.09357200  1
  C  C100  1  0.44089100  0.89625300  0.85124600  1
  C  C101  1  0.55910900  0.10374700  0.14875400  1
  C  C102  1  0.90160700  0.00175000  0.73896600  1
  C  C103  1  0.09839300  0.99825000  0.26103400  1
  C  C104  1  0.04086900  0.84442100  0.83153000  1
  C  C105  1  0.95913100  0.15557900  0.16847000  1
  C  C106  1  0.07779900  0.05486600  0.79835300  1
  C  C107  1  0.92220100  0.94513400  0.20164700  1
  C  C108  1  0.16072300  0.91210400  0.61207400  1
  C  C109  1  0.83927700  0.08789600  0.38792600  1
  C  C110  1  0.18951100  0.33574400  0.81470700  1
  C  C111  1  0.81048800  0.66425600  0.18529300  1
  C  C112  1  0.33043800  0.46231700  0.65221200  1
  C  C113  1  0.66956200  0.53768300  0.34778800  1
  C  C114  1  0.37318800  0.24228000  0.60157800  1
  C  C115  1  0.62681200  0.75772000  0.39842200  1
  C  C116  1  0.14734700  0.39022400  0.61999600  1
  C  C117  1  0.85265300  0.60977600  0.38000400  1
  C  C118  1  0.87082300  0.68968900  0.85823600  1
  C  C119  1  0.12917700  0.31031100  0.14176400  1
  C  C120  1  0.72197500  0.91745800  0.56201300  1
  C  C121  1  0.27802500  0.08254200  0.43798700  1
  C  C122  1  0.59944200  0.21009900  0.33573700  1
  C  C123  1  0.40055800  0.78990100  0.66426300  1
  C  C124  1  0.84901000  0.69763500  0.62850400  1
  C  C125  1  0.15099000  0.30236500  0.37149600  1
