# generated using pymatgen
data_Cu3(NiC6)2
_symmetry_space_group_name_H-M   'P 1'
_cell_length_a   9.42917237
_cell_length_b   9.42917237
_cell_length_c   8.35085430
_cell_angle_alpha   78.47801624
_cell_angle_beta   78.47801624
_cell_angle_gamma   42.68373456
_symmetry_Int_Tables_number   1
_chemical_formula_structural   Cu3(NiC6)2
_chemical_formula_sum   'Cu6 Ni4 C24'
_cell_volume   491.64670966
_cell_formula_units_Z   2
loop_
 _symmetry_equiv_pos_site_id
 _symmetry_equiv_pos_as_xyz
  1  'x, y, z'
loop_
 _atom_site_type_symbol
 _atom_site_label
 _atom_site_symmetry_multiplicity
 _atom_site_fract_x
 _atom_site_fract_y
 _atom_site_fract_z
 _atom_site_occupancy
  Ni  Ni0  1  0.54888400  0.75157900  0.44986000  1
  Ni  Ni1  1  0.24842100  0.45111600  0.05014000  1
  Ni  Ni2  1  0.45111600  0.24842100  0.55014000  1
  Ni  Ni3  1  0.75157900  0.54888400  0.94986000  1
  Cu  Cu4  1  0.09670100  0.27592100  0.30881400  1
  Cu  Cu5  1  0.72407900  0.90329900  0.19118600  1
  Cu  Cu6  1  0.90329900  0.72407900  0.69118600  1
  Cu  Cu7  1  0.27592100  0.09670100  0.80881400  1
  Cu  Cu8  1  0.57454300  0.42545700  0.25000000  1
  Cu  Cu9  1  0.42545700  0.57454300  0.75000000  1
  C  C10  1  0.90872700  0.39167900  0.42514000  1
  C  C11  1  0.60832100  0.09127300  0.07486000  1
  C  C12  1  0.09127300  0.60832100  0.57486000  1
  C  C13  1  0.39167900  0.90872700  0.92514000  1
  C  C14  1  0.21782100  0.32130400  0.32299400  1
  C  C15  1  0.67869600  0.78217900  0.17700600  1
  C  C16  1  0.78217900  0.67869600  0.67700600  1
  C  C17  1  0.32130400  0.21782100  0.82299400  1
  C  C18  1  0.04321100  0.34661300  0.13248000  1
  C  C19  1  0.65338700  0.95678900  0.36752000  1
  C  C20  1  0.95678900  0.65338700  0.86752000  1
  C  C21  1  0.34661300  0.04321100  0.63248000  1
  C  C22  1  0.23075300  0.04789500  0.33633500  1
  C  C23  1  0.95210500  0.76924700  0.16366500  1
  C  C24  1  0.76924700  0.95210500  0.66366500  1
  C  C25  1  0.04789500  0.23075300  0.83633500  1
  C  C26  1  0.51973400  0.62069300  0.25259500  1
  C  C27  1  0.37930700  0.48026600  0.24740500  1
  C  C28  1  0.48026600  0.37930700  0.74740500  1
  C  C29  1  0.62069300  0.51973400  0.75259500  1
  C  C30  1  0.67278500  0.28523500  0.40211200  1
  C  C31  1  0.71476500  0.32721500  0.09788800  1
  C  C32  1  0.32721500  0.71476500  0.59788800  1
  C  C33  1  0.28523500  0.67278500  0.90211200  1
