# generated using pymatgen
data_CuNiC15
_symmetry_space_group_name_H-M   'P 1'
_cell_length_a   8.61334300
_cell_length_b   8.61334300
_cell_length_c   11.72177700
_cell_angle_alpha   90.00000000
_cell_angle_beta   90.00000000
_cell_angle_gamma   90.00000000
_symmetry_Int_Tables_number   1
_chemical_formula_structural   CuNiC15
_chemical_formula_sum   'Cu4 Ni4 C60'
_cell_volume   869.63485695
_cell_formula_units_Z   4
loop_
 _symmetry_equiv_pos_site_id
 _symmetry_equiv_pos_as_xyz
  1  'x, y, z'
loop_
 _atom_site_type_symbol
 _atom_site_label
 _atom_site_symmetry_multiplicity
 _atom_site_fract_x
 _atom_site_fract_y
 _atom_site_fract_z
 _atom_site_occupancy
  Ni  Ni0  1  0.64341100  0.64341100  0.50000000  1
  Ni  Ni1  1  0.35658900  0.35658900  0.50000000  1
  Ni  Ni2  1  0.85658900  0.14341100  0.00000000  1
  Ni  Ni3  1  0.14341100  0.85658900  0.00000000  1
  Cu  Cu4  1  0.22402200  0.77597800  0.50000000  1
  Cu  Cu5  1  0.77597800  0.22402200  0.50000000  1
  Cu  Cu6  1  0.27597800  0.27597800  0.00000000  1
  Cu  Cu7  1  0.72402200  0.72402200  0.00000000  1
  C  C8  1  0.40092700  0.59907300  0.29555900  1
  C  C9  1  0.59907300  0.40092700  0.29555900  1
  C  C10  1  0.09907300  0.09907300  0.79555900  1
  C  C11  1  0.90092700  0.90092700  0.79555900  1
  C  C12  1  0.59907300  0.40092700  0.70444100  1
  C  C13  1  0.40092700  0.59907300  0.70444100  1
  C  C14  1  0.90092700  0.90092700  0.20444100  1
  C  C15  1  0.09907300  0.09907300  0.20444100  1
  C  C16  1  0.18224600  0.81775400  0.25466300  1
  C  C17  1  0.81775400  0.18224600  0.25466300  1
  C  C18  1  0.31775400  0.31775400  0.75466300  1
  C  C19  1  0.68224600  0.68224600  0.75466300  1
  C  C20  1  0.81775400  0.18224600  0.74533700  1
  C  C21  1  0.18224600  0.81775400  0.74533700  1
  C  C22  1  0.68224600  0.68224600  0.24533700  1
  C  C23  1  0.31775400  0.31775400  0.24533700  1
  C  C24  1  0.00000000  0.50000000  0.50000000  1
  C  C25  1  0.50000000  0.00000000  0.00000000  1
  C  C26  1  0.50000000  0.00000000  0.50000000  1
  C  C27  1  0.00000000  0.50000000  0.00000000  1
  C  C28  1  0.14033100  0.53747300  0.32204600  1
  C  C29  1  0.85966900  0.46252700  0.32204600  1
  C  C30  1  0.35966900  0.03747300  0.82204600  1
  C  C31  1  0.64033100  0.96252700  0.82204600  1
  C  C32  1  0.85966900  0.46252700  0.67795400  1
  C  C33  1  0.14033100  0.53747300  0.67795400  1
  C  C34  1  0.64033100  0.96252700  0.17795400  1
  C  C35  1  0.35966900  0.03747300  0.17795400  1
  C  C36  1  0.53747300  0.14033100  0.32204600  1
  C  C37  1  0.46252700  0.85966900  0.32204600  1
  C  C38  1  0.03747300  0.35966900  0.82204600  1
  C  C39  1  0.96252700  0.64033100  0.82204600  1
  C  C40  1  0.46252700  0.85966900  0.67795400  1
  C  C41  1  0.53747300  0.14033100  0.67795400  1
  C  C42  1  0.96252700  0.64033100  0.17795400  1
  C  C43  1  0.03747300  0.35966900  0.17795400  1
  C  C44  1  0.93193100  0.72406100  0.37387100  1
  C  C45  1  0.06806900  0.27593900  0.37387100  1
  C  C46  1  0.56806900  0.22406100  0.87387100  1
  C  C47  1  0.43193100  0.77593900  0.87387100  1
  C  C48  1  0.06806900  0.27593900  0.62612900  1
  C  C49  1  0.93193100  0.72406100  0.62612900  1
  C  C50  1  0.43193100  0.77593900  0.12612900  1
  C  C51  1  0.56806900  0.22406100  0.12612900  1
  C  C52  1  0.72406100  0.93193100  0.37387100  1
  C  C53  1  0.27593900  0.06806900  0.37387100  1
  C  C54  1  0.22406100  0.56806900  0.87387100  1
  C  C55  1  0.77593900  0.43193100  0.87387100  1
  C  C56  1  0.27593900  0.06806900  0.62612900  1
  C  C57  1  0.72406100  0.93193100  0.62612900  1
  C  C58  1  0.77593900  0.43193100  0.12612900  1
  C  C59  1  0.22406100  0.56806900  0.12612900  1
  C  C60  1  0.50000000  0.50000000  0.11559200  1
  C  C61  1  0.00000000  0.00000000  0.61559200  1
  C  C62  1  0.50000000  0.50000000  0.88440800  1
  C  C63  1  0.00000000  0.00000000  0.38440800  1
  C  C64  1  0.87731600  0.87731600  0.50000000  1
  C  C65  1  0.12268400  0.12268400  0.50000000  1
  C  C66  1  0.62268400  0.37731600  0.00000000  1
  C  C67  1  0.37731600  0.62268400  0.00000000  1
