# generated using pymatgen
data_Cu6Ni5C14
_symmetry_space_group_name_H-M   'P 1'
_cell_length_a   7.97970400
_cell_length_b   6.98273900
_cell_length_c   17.94836133
_cell_angle_alpha   90.00000000
_cell_angle_beta   95.59918161
_cell_angle_gamma   90.00000000
_symmetry_Int_Tables_number   1
_chemical_formula_structural   Cu6Ni5C14
_chemical_formula_sum   'Cu24 Ni20 C56'
_cell_volume   995.31449252
_cell_formula_units_Z   4
loop_
 _symmetry_equiv_pos_site_id
 _symmetry_equiv_pos_as_xyz
  1  'x, y, z'
loop_
 _atom_site_type_symbol
 _atom_site_label
 _atom_site_symmetry_multiplicity
 _atom_site_fract_x
 _atom_site_fract_y
 _atom_site_fract_z
 _atom_site_occupancy
  C  C0  1  0.73768100  0.60818100  0.41477600  1
  C  C1  1  0.26231900  0.10818100  0.08522400  1
  C  C2  1  0.26231900  0.39181900  0.58522400  1
  C  C3  1  0.73768100  0.89181900  0.91477600  1
  C  C4  1  0.71157400  0.38128800  0.30433200  1
  C  C5  1  0.28842600  0.88128800  0.19566800  1
  C  C6  1  0.28842600  0.61871200  0.69566800  1
  C  C7  1  0.71157400  0.11871200  0.80433200  1
  C  C8  1  0.64939800  0.59442900  0.27430700  1
  C  C9  1  0.35060200  0.09442900  0.22569300  1
  C  C10  1  0.35060200  0.40557100  0.72569300  1
  C  C11  1  0.64939800  0.90557100  0.77430700  1
  C  C12  1  0.85242600  0.54593600  0.28957200  1
  C  C13  1  0.14757400  0.04593600  0.21042800  1
  C  C14  1  0.14757400  0.45406400  0.71042800  1
  C  C15  1  0.85242600  0.95406400  0.78957200  1
  C  C16  1  0.46159400  0.77152900  0.42244200  1
  C  C17  1  0.53840600  0.27152900  0.07755800  1
  C  C18  1  0.53840600  0.22847100  0.57755800  1
  C  C19  1  0.46159400  0.72847100  0.92244200  1
  C  C20  1  0.60023400  0.93431700  0.40203600  1
  C  C21  1  0.39976600  0.43431700  0.09796400  1
  C  C22  1  0.39976600  0.06568300  0.59796400  1
  C  C23  1  0.60023400  0.56568300  0.90203600  1
  C  C24  1  0.50675300  0.79038700  0.33611800  1
  C  C25  1  0.49324700  0.29038700  0.16388200  1
  C  C26  1  0.49324700  0.20961300  0.66388200  1
  C  C27  1  0.50675300  0.70961300  0.83611800  1
  C  C28  1  0.90719800  0.91416300  0.43060100  1
  C  C29  1  0.09280200  0.41416300  0.06939900  1
  C  C30  1  0.09280200  0.08583700  0.56939900  1
  C  C31  1  0.90719800  0.58583700  0.93060100  1
  C  C32  1  0.03201900  0.72811300  0.41800700  1
  C  C33  1  0.96798100  0.22811300  0.08199300  1
  C  C34  1  0.96798100  0.27188700  0.58199300  1
  C  C35  1  0.03201900  0.77188700  0.91800700  1
  C  C36  1  0.92114300  0.82833300  0.34533000  1
  C  C37  1  0.07885700  0.32833300  0.15467000  1
  C  C38  1  0.07885700  0.17166700  0.65467000  1
  C  C39  1  0.92114300  0.67166700  0.84533000  1
  C  C40  1  0.74746000  0.83548700  0.52451700  1
  C  C41  1  0.25254000  0.33548700  0.97548300  1
  C  C42  1  0.25254000  0.16451300  0.47548300  1
  C  C43  1  0.74746000  0.66451300  0.02451700  1
  C  C44  1  0.63878800  0.64176600  0.54285700  1
  C  C45  1  0.36121200  0.14176600  0.95714300  1
  C  C46  1  0.36121200  0.35823400  0.45714300  1
  C  C47  1  0.63878800  0.85823400  0.04285700  1
  C  C48  1  0.85055600  0.63531500  0.54928000  1
  C  C49  1  0.14944400  0.13531500  0.95072000  1
  C  C50  1  0.14944400  0.36468500  0.45072000  1
  C  C51  1  0.85055600  0.86468500  0.04928000  1
  C  C52  1  0.73094300  0.28672700  0.45319200  1
  C  C53  1  0.26905700  0.78672700  0.04680800  1
  C  C54  1  0.26905700  0.71327300  0.54680800  1
  C  C55  1  0.73094300  0.21327300  0.95319200  1
  Ni  Ni56  1  0.73757100  0.52439500  0.30927500  1
  Ni  Ni57  1  0.26242900  0.02439500  0.19072500  1
  Ni  Ni58  1  0.26242900  0.47560500  0.69072500  1
  Ni  Ni59  1  0.73757100  0.97560500  0.80927500  1
  Ni  Ni60  1  0.55817900  0.79722100  0.39029700  1
  Ni  Ni61  1  0.44182100  0.29722100  0.10970300  1
  Ni  Ni62  1  0.44182100  0.20277900  0.60970300  1
  Ni  Ni63  1  0.55817900  0.70277900  0.89029700  1
  Ni  Ni64  1  0.91911800  0.79065000  0.40064200  1
  Ni  Ni65  1  0.08088200  0.29065000  0.09935800  1
  Ni  Ni66  1  0.08088200  0.20935000  0.59935800  1
  Ni  Ni67  1  0.91911800  0.70935000  0.90064200  1
  Ni  Ni68  1  0.74423600  0.68921200  0.51988100  1
  Ni  Ni69  1  0.25576400  0.18921200  0.98011900  1
  Ni  Ni70  1  0.25576400  0.31078800  0.48011900  1
  Ni  Ni71  1  0.74423600  0.81078800  0.01988100  1
  Ni  Ni72  1  0.76875900  0.02268600  0.21650300  1
  Ni  Ni73  1  0.23124100  0.52268600  0.28349700  1
  Ni  Ni74  1  0.23124100  0.97731400  0.78349700  1
  Ni  Ni75  1  0.76875900  0.47731400  0.71650300  1
  Cu  Cu76  1  0.59595400  0.39290600  0.43436100  1
  Cu  Cu77  1  0.40404600  0.89290600  0.06563900  1
  Cu  Cu78  1  0.40404600  0.60709400  0.56563900  1
  Cu  Cu79  1  0.59595400  0.10709400  0.93436100  1
  Cu  Cu80  1  0.87013000  0.38377600  0.44555500  1
  Cu  Cu81  1  0.12987000  0.88377600  0.05444500  1
  Cu  Cu82  1  0.12987000  0.61622400  0.55444500  1
  Cu  Cu83  1  0.87013000  0.11622400  0.94555500  1
  Cu  Cu84  1  0.72653500  0.11684700  0.47569200  1
  Cu  Cu85  1  0.27346500  0.61684700  0.02430800  1
  Cu  Cu86  1  0.27346500  0.88315300  0.52430800  1
  Cu  Cu87  1  0.72653500  0.38315300  0.97569200  1
  Cu  Cu88  1  0.65195000  0.06113800  0.25819500  1
  Cu  Cu89  1  0.34805000  0.56113800  0.24180500  1
  Cu  Cu90  1  0.34805000  0.93886200  0.74180500  1
  Cu  Cu91  1  0.65195000  0.43886200  0.75819500  1
  Cu  Cu92  1  0.87231700  0.88817100  0.23457100  1
  Cu  Cu93  1  0.12768300  0.38817100  0.26542900  1
  Cu  Cu94  1  0.12768300  0.11182900  0.76542900  1
  Cu  Cu95  1  0.87231700  0.61182900  0.73457100  1
  Cu  Cu96  1  0.78092700  0.11813500  0.15754600  1
  Cu  Cu97  1  0.21907300  0.61813500  0.34245400  1
  Cu  Cu98  1  0.21907300  0.88186500  0.84245400  1
  Cu  Cu99  1  0.78092700  0.38186500  0.65754600  1
