# generated using pymatgen
data_Cu32NiC31
_symmetry_space_group_name_H-M   'P 1'
_cell_length_a   8.53397000
_cell_length_b   8.53397000
_cell_length_c   8.66545500
_cell_angle_alpha   90.00000000
_cell_angle_beta   90.00000000
_cell_angle_gamma   90.00000000
_symmetry_Int_Tables_number   1
_chemical_formula_structural   Cu32NiC31
_chemical_formula_sum   'Cu32 Ni1 C31'
_cell_volume   631.09333695
_cell_formula_units_Z   1
loop_
 _symmetry_equiv_pos_site_id
 _symmetry_equiv_pos_as_xyz
  1  'x, y, z'
loop_
 _atom_site_type_symbol
 _atom_site_label
 _atom_site_symmetry_multiplicity
 _atom_site_fract_x
 _atom_site_fract_y
 _atom_site_fract_z
 _atom_site_occupancy
  C  C0  1  0.00000000  0.50000000  0.00000000  1
  C  C1  1  0.00000000  0.50000000  0.50000000  1
  C  C2  1  0.50000000  0.00000000  0.00000000  1
  C  C3  1  0.50000000  0.00000000  0.50000000  1
  C  C4  1  0.50000000  0.50000000  0.00000000  1
  C  C5  1  0.50000000  0.50000000  0.50000000  1
  C  C6  1  0.00000000  0.25114700  0.25974100  1
  C  C7  1  0.00000000  0.25114700  0.74025900  1
  C  C8  1  0.00000000  0.74885300  0.25974100  1
  C  C9  1  0.00000000  0.74885300  0.74025900  1
  C  C10  1  0.50000000  0.24982000  0.25165100  1
  C  C11  1  0.50000000  0.24982000  0.74834900  1
  C  C12  1  0.50000000  0.75018000  0.25165100  1
  C  C13  1  0.50000000  0.75018000  0.74834900  1
  C  C14  1  0.25114700  0.00000000  0.25974100  1
  C  C15  1  0.25114700  0.00000000  0.74025900  1
  C  C16  1  0.24982000  0.50000000  0.25165100  1
  C  C17  1  0.24982000  0.50000000  0.74834900  1
  C  C18  1  0.74885300  0.00000000  0.25974100  1
  C  C19  1  0.74885300  0.00000000  0.74025900  1
  C  C20  1  0.75018000  0.50000000  0.25165100  1
  C  C21  1  0.75018000  0.50000000  0.74834900  1
  C  C22  1  0.25289400  0.25289400  0.00000000  1
  C  C23  1  0.24762600  0.24762600  0.50000000  1
  C  C24  1  0.25289400  0.74710600  0.00000000  1
  C  C25  1  0.24762600  0.75237400  0.50000000  1
  C  C26  1  0.74710600  0.25289400  0.00000000  1
  C  C27  1  0.75237400  0.24762600  0.50000000  1
  C  C28  1  0.74710600  0.74710600  0.00000000  1
  C  C29  1  0.75237400  0.75237400  0.50000000  1
  C  C30  1  0.00000000  0.00000000  0.00000000  1
  Ni  Ni31  1  0.00000000  0.00000000  0.50000000  1
  Cu  Cu32  1  0.25466400  0.00000000  0.00000000  1
  Cu  Cu33  1  0.26623500  0.00000000  0.50000000  1
  Cu  Cu34  1  0.25074600  0.50000000  0.00000000  1
  Cu  Cu35  1  0.25199000  0.50000000  0.50000000  1
  Cu  Cu36  1  0.74533600  0.00000000  0.00000000  1
  Cu  Cu37  1  0.73376500  0.00000000  0.50000000  1
  Cu  Cu38  1  0.74925400  0.50000000  0.00000000  1
  Cu  Cu39  1  0.74801000  0.50000000  0.50000000  1
  Cu  Cu40  1  0.24860300  0.24860300  0.25000500  1
  Cu  Cu41  1  0.24860300  0.24860300  0.74999500  1
  Cu  Cu42  1  0.24860300  0.75139700  0.25000500  1
  Cu  Cu43  1  0.24860300  0.75139700  0.74999500  1
  Cu  Cu44  1  0.75139700  0.24860300  0.25000500  1
  Cu  Cu45  1  0.75139700  0.24860300  0.74999500  1
  Cu  Cu46  1  0.75139700  0.75139700  0.25000500  1
  Cu  Cu47  1  0.75139700  0.75139700  0.74999500  1
  Cu  Cu48  1  0.00000000  0.00000000  0.22841700  1
  Cu  Cu49  1  0.00000000  0.00000000  0.77158300  1
  Cu  Cu50  1  0.00000000  0.50000000  0.24712900  1
  Cu  Cu51  1  0.00000000  0.50000000  0.75287100  1
  Cu  Cu52  1  0.50000000  0.00000000  0.24712900  1
  Cu  Cu53  1  0.50000000  0.00000000  0.75287100  1
  Cu  Cu54  1  0.50000000  0.50000000  0.24863000  1
  Cu  Cu55  1  0.50000000  0.50000000  0.75137000  1
  Cu  Cu56  1  0.00000000  0.25466400  0.00000000  1
  Cu  Cu57  1  0.00000000  0.26623500  0.50000000  1
  Cu  Cu58  1  0.00000000  0.74533600  0.00000000  1
  Cu  Cu59  1  0.00000000  0.73376500  0.50000000  1
  Cu  Cu60  1  0.50000000  0.25074600  0.00000000  1
  Cu  Cu61  1  0.50000000  0.25199000  0.50000000  1
  Cu  Cu62  1  0.50000000  0.74925400  0.00000000  1
  Cu  Cu63  1  0.50000000  0.74801000  0.50000000  1
