# generated using pymatgen
data_Cu2NiC10
_symmetry_space_group_name_H-M   'P 1'
_cell_length_a   6.36598803
_cell_length_b   6.36598803
_cell_length_c   6.67946099
_cell_angle_alpha   75.04787291
_cell_angle_beta   75.04787291
_cell_angle_gamma   47.55047584
_symmetry_Int_Tables_number   1
_chemical_formula_structural   Cu2NiC10
_chemical_formula_sum   'Cu2 Ni1 C10'
_cell_volume   191.63224013
_cell_formula_units_Z   1
loop_
 _symmetry_equiv_pos_site_id
 _symmetry_equiv_pos_as_xyz
  1  'x, y, z'
loop_
 _atom_site_type_symbol
 _atom_site_label
 _atom_site_symmetry_multiplicity
 _atom_site_fract_x
 _atom_site_fract_y
 _atom_site_fract_z
 _atom_site_occupancy
  C  C0  1  0.82943200  0.82943200  0.21669900  1
  C  C1  1  0.17056800  0.17056800  0.78330100  1
  Ni  Ni2  1  0.50000000  0.50000000  0.50000000  1
  Cu  Cu3  1  0.14249300  0.14249300  0.28987200  1
  Cu  Cu4  1  0.85750700  0.85750700  0.71012800  1
  C  C5  1  0.11440400  0.62414800  0.56350400  1
  C  C6  1  0.37585200  0.88559600  0.43649600  1
  C  C7  1  0.88559600  0.37585200  0.43649600  1
  C  C8  1  0.62414800  0.11440400  0.56350400  1
  C  C9  1  0.27129700  0.27129700  0.14154300  1
  C  C10  1  0.95031800  0.95031800  0.83234900  1
  C  C11  1  0.04968200  0.04968200  0.16765100  1
  C  C12  1  0.72870300  0.72870300  0.85845700  1
