# generated using pymatgen
data_CuNi2C
_symmetry_space_group_name_H-M   'P 1'
_cell_length_a   14.75093326
_cell_length_b   13.76872443
_cell_length_c   13.76872462
_cell_angle_alpha   58.35471034
_cell_angle_beta   57.61076933
_cell_angle_gamma   57.61076684
_symmetry_Int_Tables_number   1
_chemical_formula_structural   CuNi2C
_chemical_formula_sum   'Cu1 Ni2 C1'
_cell_volume   1879.96257984
_cell_formula_units_Z   1
loop_
 _symmetry_equiv_pos_site_id
 _symmetry_equiv_pos_as_xyz
  1  'x, y, z'
loop_
 _atom_site_type_symbol
 _atom_site_label
 _atom_site_symmetry_multiplicity
 _atom_site_fract_x
 _atom_site_fract_y
 _atom_site_fract_z
 _atom_site_occupancy
  Ni  Ni0  1  0.75337356  0.00000000  1.00000000  1
  Ni  Ni1  1  0.24662644  1.00000000  0.00000000  1
  Cu  Cu2  1  0.00000000  0.00000000  -0.00000000  1
  C  C3  1  0.50000000  0.00000000  -0.00000000  1
