# generated using pymatgen
data_CuNi12C31
_symmetry_space_group_name_H-M   'P 1'
_cell_length_a   6.36659935
_cell_length_b   6.36659935
_cell_length_c   12.67907576
_cell_angle_alpha   87.83416756
_cell_angle_beta   87.83416756
_cell_angle_gamma   91.85064175
_symmetry_Int_Tables_number   1
_chemical_formula_structural   CuNi12C31
_chemical_formula_sum   'Cu1 Ni12 C31'
_cell_volume   512.90169575
_cell_formula_units_Z   1
loop_
 _symmetry_equiv_pos_site_id
 _symmetry_equiv_pos_as_xyz
  1  'x, y, z'
loop_
 _atom_site_type_symbol
 _atom_site_label
 _atom_site_symmetry_multiplicity
 _atom_site_fract_x
 _atom_site_fract_y
 _atom_site_fract_z
 _atom_site_occupancy
  Ni  Ni0  1  0.12271000  0.87729000  0.00000000  1
  Ni  Ni1  1  0.11724000  0.88276000  0.50000000  1
  Ni  Ni2  1  0.75540400  0.62073000  0.18845800  1
  Ni  Ni3  1  0.74550700  0.62010400  0.68136900  1
  Ni  Ni4  1  0.37989600  0.25449300  0.31863100  1
  Ni  Ni5  1  0.37927000  0.24459600  0.81154200  1
  Ni  Ni6  1  0.24967600  0.38897600  0.07088900  1
  Ni  Ni7  1  0.24919800  0.38407400  0.56432800  1
  Ni  Ni8  1  0.61102400  0.75032400  0.92911100  1
  Ni  Ni9  1  0.61592600  0.75080200  0.43567200  1
  Ni  Ni10  1  0.88654500  0.11600900  0.25743600  1
  Ni  Ni11  1  0.88399200  0.11345500  0.74256400  1
  Cu  Cu12  1  0.74891800  0.25108200  0.00000000  1
  C  C13  1  0.49867400  0.00026500  0.12559600  1
  C  C14  1  0.50310400  0.00194000  0.62345300  1
  C  C15  1  0.99973500  0.50132600  0.87440400  1
  C  C16  1  0.99806000  0.49689600  0.37654700  1
  C  C17  1  0.74464300  0.25535700  0.50000000  1
  C  C18  1  0.25027900  0.74502900  0.25312500  1
  C  C19  1  0.25497100  0.74972100  0.74687500  1
  C  C20  1  0.78726400  0.95734700  0.08075900  1
  C  C21  1  0.79129100  0.96151000  0.57909500  1
  C  C22  1  0.58794900  0.29199900  0.14615100  1
  C  C23  1  0.59499300  0.29077300  0.64070600  1
  C  C24  1  0.45775100  0.08830900  0.98101700  1
  C  C25  1  0.46052500  0.08732000  0.47845000  1
  C  C26  1  0.08041600  0.44854900  0.23052300  1
  C  C27  1  0.08127500  0.45408600  0.73513300  1
  C  C28  1  0.28390700  0.58400100  0.89777000  1
  C  C29  1  0.28816000  0.58413400  0.39605600  1
  C  C30  1  0.95220900  0.78575100  0.33069000  1
  C  C31  1  0.95440200  0.78113800  0.83725700  1
  C  C32  1  0.21886200  0.04559800  0.16274300  1
  C  C33  1  0.21424900  0.04779100  0.66931000  1
  C  C34  1  0.41599900  0.71609300  0.10223000  1
  C  C35  1  0.41586600  0.71184000  0.60394400  1
  C  C36  1  0.54591400  0.91872500  0.26486700  1
  C  C37  1  0.55145100  0.91958400  0.76947700  1
  C  C38  1  0.91169100  0.54224900  0.01898300  1
  C  C39  1  0.91268000  0.53947500  0.52155000  1
  C  C40  1  0.70922700  0.40500700  0.35929400  1
  C  C41  1  0.70800100  0.41205100  0.85384900  1
  C  C42  1  0.04265300  0.21273600  0.91924100  1
  C  C43  1  0.03849000  0.20870900  0.42090500  1
