# generated using pymatgen
data_CuNiC6
_symmetry_space_group_name_H-M   'P 1'
_cell_length_a   4.87279800
_cell_length_b   6.26882900
_cell_length_c   10.67469500
_cell_angle_alpha   90.00000000
_cell_angle_beta   90.00000000
_cell_angle_gamma   90.00000000
_symmetry_Int_Tables_number   1
_chemical_formula_structural   CuNiC6
_chemical_formula_sum   'Cu2 Ni2 C12'
_cell_volume   326.07710513
_cell_formula_units_Z   2
loop_
 _symmetry_equiv_pos_site_id
 _symmetry_equiv_pos_as_xyz
  1  'x, y, z'
loop_
 _atom_site_type_symbol
 _atom_site_label
 _atom_site_symmetry_multiplicity
 _atom_site_fract_x
 _atom_site_fract_y
 _atom_site_fract_z
 _atom_site_occupancy
  C  C0  1  0.50000000  0.24827900  0.58432300  1
  C  C1  1  0.50000000  0.75172100  0.58432300  1
  C  C2  1  0.00000000  0.26610300  0.41331400  1
  C  C3  1  0.00000000  0.73389700  0.41331400  1
  C  C4  1  0.00000000  0.00000000  0.67460300  1
  C  C5  1  0.00000000  0.00000000  0.16446000  1
  C  C6  1  0.50000000  0.74827900  0.08432300  1
  C  C7  1  0.50000000  0.25172100  0.08432300  1
  C  C8  1  0.00000000  0.76610300  0.91331400  1
  C  C9  1  0.00000000  0.23389700  0.91331400  1
  C  C10  1  0.00000000  0.50000000  0.17460300  1
  C  C11  1  0.00000000  0.50000000  0.66446000  1
  Ni  Ni12  1  0.50000000  0.00000000  0.83317300  1
  Ni  Ni13  1  0.50000000  0.50000000  0.33317300  1
  Cu  Cu14  1  0.50000000  0.00000000  0.33249500  1
  Cu  Cu15  1  0.50000000  0.50000000  0.83249500  1
