# generated using pymatgen
data_CuNiC16
_symmetry_space_group_name_H-M   'P 1'
_cell_length_a   6.28550212
_cell_length_b   9.18445251
_cell_length_c   9.14207601
_cell_angle_alpha   72.60780269
_cell_angle_beta   81.69628820
_cell_angle_gamma   83.89208407
_symmetry_Int_Tables_number   1
_chemical_formula_structural   CuNiC16
_chemical_formula_sum   'Cu2 Ni2 C32'
_cell_volume   497.23474389
_cell_formula_units_Z   2
loop_
 _symmetry_equiv_pos_site_id
 _symmetry_equiv_pos_as_xyz
  1  'x, y, z'
loop_
 _atom_site_type_symbol
 _atom_site_label
 _atom_site_symmetry_multiplicity
 _atom_site_fract_x
 _atom_site_fract_y
 _atom_site_fract_z
 _atom_site_occupancy
  Ni  Ni0  1  0.00000000  0.00000000  0.00000000  1
  Ni  Ni1  1  0.00000000  0.50000000  0.00000000  1
  Cu  Cu2  1  0.50000000  0.50000000  0.00000000  1
  Cu  Cu3  1  0.50000000  0.00000000  0.00000000  1
  C  C4  1  0.31761000  0.09997700  0.60589700  1
  C  C5  1  0.68239000  0.90002300  0.39410300  1
  C  C6  1  0.31558200  0.59866700  0.60709300  1
  C  C7  1  0.68441800  0.40133300  0.39290700  1
  C  C8  1  0.18949500  0.15371600  0.21751200  1
  C  C9  1  0.81050500  0.84628400  0.78248800  1
  C  C10  1  0.18953100  0.65384900  0.21810600  1
  C  C11  1  0.81046900  0.34615100  0.78189400  1
  C  C12  1  0.43608800  0.05088800  0.19026600  1
  C  C13  1  0.56391200  0.94911200  0.80973400  1
  C  C14  1  0.21056500  0.32916100  0.08675200  1
  C  C15  1  0.78943500  0.67083900  0.91324800  1
  C  C16  1  0.21121700  0.82934900  0.08744200  1
  C  C17  1  0.78878300  0.17065100  0.91255800  1
  C  C18  1  0.13524500  0.17685100  0.39822900  1
  C  C19  1  0.86475500  0.82314900  0.60177100  1
  C  C20  1  0.25461300  0.60469900  0.91982400  1
  C  C21  1  0.74538700  0.39530100  0.08017600  1
  C  C22  1  0.43599400  0.55093300  0.19044600  1
  C  C23  1  0.56400600  0.44906700  0.80955400  1
  C  C24  1  0.61450900  0.62835700  0.44963700  1
  C  C25  1  0.38549100  0.37164300  0.55036300  1
  C  C26  1  0.97651000  0.05992200  0.19592600  1
  C  C27  1  0.02349000  0.94007800  0.80407400  1
  C  C28  1  0.61616200  0.12804900  0.44909200  1
  C  C29  1  0.38383800  0.87195100  0.55090800  1
  C  C30  1  0.13299900  0.67584900  0.39910100  1
  C  C31  1  0.86700100  0.32415100  0.60089900  1
  C  C32  1  0.97699700  0.56026600  0.19548900  1
  C  C33  1  0.02300300  0.43973400  0.80451100  1
  C  C34  1  0.25460500  0.10487900  0.92043900  1
  C  C35  1  0.74539500  0.89512100  0.07956100  1
