# generated using pymatgen
data_Cu2NiC9
_symmetry_space_group_name_H-M   'P 1'
_cell_length_a   10.49981494
_cell_length_b   10.49981494
_cell_length_c   10.49981494
_cell_angle_alpha   158.21641718
_cell_angle_beta   158.21641718
_cell_angle_gamma   30.99809812
_symmetry_Int_Tables_number   1
_chemical_formula_structural   Cu2NiC9
_chemical_formula_sum   'Cu2 Ni1 C9'
_cell_volume   159.30635797
_cell_formula_units_Z   1
loop_
 _symmetry_equiv_pos_site_id
 _symmetry_equiv_pos_as_xyz
  1  'x, y, z'
loop_
 _atom_site_type_symbol
 _atom_site_label
 _atom_site_symmetry_multiplicity
 _atom_site_fract_x
 _atom_site_fract_y
 _atom_site_fract_z
 _atom_site_occupancy
  Ni  Ni0  1  0.50000000  0.50000000  0.00000000  1
  Cu  Cu1  1  0.68342600  0.68342600  0.00000000  1
  Cu  Cu2  1  0.31657400  0.31657400  0.00000000  1
  C  C3  1  0.89920900  0.89920900  0.00000000  1
  C  C4  1  0.10079100  0.10079100  0.00000000  1
  C  C5  1  0.00000000  0.00000000  0.00000000  1
  C  C6  1  0.20167800  0.20167800  0.00000000  1
  C  C7  1  0.79832200  0.79832200  0.00000000  1
  C  C8  1  0.39359600  0.89359600  0.50000000  1
  C  C9  1  0.10640400  0.60640400  0.50000000  1
  C  C10  1  0.60640400  0.10640400  0.50000000  1
  C  C11  1  0.89359600  0.39359600  0.50000000  1
