# generated using pymatgen
data_CuNi5C18
_symmetry_space_group_name_H-M   'P 1'
_cell_length_a   5.06238532
_cell_length_b   5.06515068
_cell_length_c   20.28986946
_cell_angle_alpha   82.39220804
_cell_angle_beta   84.16667100
_cell_angle_gamma   65.90800007
_symmetry_Int_Tables_number   1
_chemical_formula_structural   CuNi5C18
_chemical_formula_sum   'Cu2 Ni10 C36'
_cell_volume   470.11541957
_cell_formula_units_Z   2
loop_
 _symmetry_equiv_pos_site_id
 _symmetry_equiv_pos_as_xyz
  1  'x, y, z'
loop_
 _atom_site_type_symbol
 _atom_site_label
 _atom_site_symmetry_multiplicity
 _atom_site_fract_x
 _atom_site_fract_y
 _atom_site_fract_z
 _atom_site_occupancy
  C  C0  1  0.37101600  0.03681400  0.37929000  1
  C  C1  1  0.37205300  0.04154100  0.88116600  1
  C  C2  1  0.62782200  0.95853500  0.11888000  1
  C  C3  1  0.62911600  0.96303900  0.62067000  1
  C  C4  1  0.04050000  0.71203900  0.37997000  1
  C  C5  1  0.03710500  0.70768200  0.88114700  1
  C  C6  1  0.96278300  0.29239100  0.11889500  1
  C  C7  1  0.95972700  0.28789400  0.61998900  1
  C  C8  1  0.23673000  0.68119200  0.12286300  1
  C  C9  1  0.28690400  0.63245200  0.62013300  1
  C  C10  1  0.71338300  0.36735200  0.37980900  1
  C  C11  1  0.76300500  0.31903200  0.87717700  1
  Ni  Ni12  1  0.50354900  0.99754800  0.24928400  1
  Ni  Ni13  1  0.49625200  0.00258200  0.75071000  1
  Ni  Ni14  1  0.33320200  0.33203300  0.49987300  1
  Ni  Ni15  1  0.33072000  0.33042400  0.00000200  1
  Ni  Ni16  1  0.66918500  0.66949300  0.00009600  1
  Ni  Ni17  1  0.66719500  0.66777600  0.50001400  1
  Ni  Ni18  1  0.17165600  0.66104600  0.25127000  1
  Ni  Ni19  1  0.16329300  0.66930800  0.75063400  1
  Ni  Ni20  1  0.83666400  0.33074200  0.24935000  1
  Ni  Ni21  1  0.82813000  0.33910500  0.74874600  1
  Cu  Cu22  1  0.00004700  0.99989200  0.00009200  1
  Cu  Cu23  1  0.00007900  0.00002100  0.49994800  1
  C  C24  1  0.19005800  0.94046800  0.30638200  1
  C  C25  1  0.18187300  0.94596000  0.80776700  1
  C  C26  1  0.81807300  0.05408100  0.19225600  1
  C  C27  1  0.80975900  0.05966700  0.69358300  1
  C  C28  1  0.05145700  0.31369100  0.44372700  1
  C  C29  1  0.04981200  0.31974300  0.94304000  1
  C  C30  1  0.95011700  0.68026700  0.05703100  1
  C  C31  1  0.94874400  0.68621000  0.55620800  1
  C  C32  1  0.14712300  0.39232300  0.19332400  1
  C  C33  1  0.14340700  0.39494900  0.69314800  1
  C  C34  1  0.85639700  0.60521400  0.30682500  1
  C  C35  1  0.85280000  0.60770800  0.80669100  1
  C  C36  1  0.28201100  0.01205900  0.05703500  1
  C  C37  1  0.27737100  0.01313600  0.55623600  1
  C  C38  1  0.72292500  0.98679300  0.44370000  1
  C  C39  1  0.71785100  0.98789900  0.94302800  1
  C  C40  1  0.52475900  0.27120000  0.30612000  1
  C  C41  1  0.52078000  0.27590500  0.80676100  1
  C  C42  1  0.47909500  0.72412700  0.19327100  1
  C  C43  1  0.47509600  0.72899600  0.69385500  1
  C  C44  1  0.38316700  0.65425600  0.44341500  1
  C  C45  1  0.33617300  0.69561600  0.95211000  1
  C  C46  1  0.66384400  0.30424700  0.04799400  1
  C  C47  1  0.61717000  0.34558900  0.55649100  1
