# generated using pymatgen
data_Cu(NiC4)2
_symmetry_space_group_name_H-M   'P 1'
_cell_length_a   6.27106000
_cell_length_b   7.61388000
_cell_length_c   14.01933900
_cell_angle_alpha   90.00000000
_cell_angle_beta   90.00000000
_cell_angle_gamma   90.00000000
_symmetry_Int_Tables_number   1
_chemical_formula_structural   Cu(NiC4)2
_chemical_formula_sum   'Cu4 Ni8 C32'
_cell_volume   669.38275751
_cell_formula_units_Z   4
loop_
 _symmetry_equiv_pos_site_id
 _symmetry_equiv_pos_as_xyz
  1  'x, y, z'
loop_
 _atom_site_type_symbol
 _atom_site_label
 _atom_site_symmetry_multiplicity
 _atom_site_fract_x
 _atom_site_fract_y
 _atom_site_fract_z
 _atom_site_occupancy
  C  C0  1  0.25000000  0.74690100  0.23916000  1
  C  C1  1  0.75000000  0.25309900  0.76084000  1
  C  C2  1  0.75000000  0.24690100  0.26084000  1
  C  C3  1  0.25000000  0.75309900  0.73916000  1
  Ni  Ni4  1  0.25000000  0.27781500  0.11871700  1
  Ni  Ni5  1  0.75000000  0.72218500  0.88128300  1
  Ni  Ni6  1  0.75000000  0.77781500  0.38128300  1
  Ni  Ni7  1  0.25000000  0.22218500  0.61871700  1
  Ni  Ni8  1  0.25000000  0.18254300  0.41520600  1
  Ni  Ni9  1  0.75000000  0.81745700  0.58479400  1
  Ni  Ni10  1  0.75000000  0.68254300  0.08479400  1
  Ni  Ni11  1  0.25000000  0.31745700  0.91520600  1
  Cu  Cu12  1  0.00000000  0.00000000  0.00000000  1
  Cu  Cu13  1  0.00000000  0.50000000  0.50000000  1
  Cu  Cu14  1  0.50000000  0.00000000  0.00000000  1
  Cu  Cu15  1  0.50000000  0.50000000  0.50000000  1
  C  C16  1  0.25000000  0.03654900  0.34353500  1
  C  C17  1  0.75000000  0.96345100  0.65646500  1
  C  C18  1  0.75000000  0.53654900  0.15646500  1
  C  C19  1  0.25000000  0.46345100  0.84353500  1
  C  C20  1  0.25000000  0.39895200  0.02309100  1
  C  C21  1  0.75000000  0.60104800  0.97690900  1
  C  C22  1  0.75000000  0.89895200  0.47690900  1
  C  C23  1  0.25000000  0.10104800  0.52309100  1
  C  C24  1  0.25000000  0.39731700  0.20434300  1
  C  C25  1  0.75000000  0.60268300  0.79565700  1
  C  C26  1  0.75000000  0.89731700  0.29565700  1
  C  C27  1  0.25000000  0.10268300  0.70434300  1
  C  C28  1  0.04281300  0.29459500  0.40802900  1
  C  C29  1  0.95718700  0.70540500  0.59197100  1
  C  C30  1  0.95718700  0.79459500  0.09197100  1
  C  C31  1  0.54281300  0.70540500  0.59197100  1
  C  C32  1  0.04281300  0.20540500  0.90802900  1
  C  C33  1  0.45718700  0.29459500  0.40802900  1
  C  C34  1  0.45718700  0.20540500  0.90802900  1
  C  C35  1  0.54281300  0.79459500  0.09197100  1
  C  C36  1  0.04476700  0.16244000  0.11569500  1
  C  C37  1  0.95523300  0.83756000  0.88430500  1
  C  C38  1  0.95523300  0.66244000  0.38430500  1
  C  C39  1  0.54476700  0.83756000  0.88430500  1
  C  C40  1  0.04476700  0.33756000  0.61569500  1
  C  C41  1  0.45523300  0.16244000  0.11569500  1
  C  C42  1  0.45523300  0.33756000  0.61569500  1
  C  C43  1  0.54476700  0.66244000  0.38430500  1
