# generated using pymatgen
data_Cu3Ni3C28
_symmetry_space_group_name_H-M   'P 1'
_cell_length_a   5.25691000
_cell_length_b   15.23995300
_cell_length_c   26.22030200
_cell_angle_alpha   90.00000000
_cell_angle_beta   90.00000000
_cell_angle_gamma   90.00000000
_symmetry_Int_Tables_number   1
_chemical_formula_structural   Cu3Ni3C28
_chemical_formula_sum   'Cu12 Ni12 C112'
_cell_volume   2100.64110270
_cell_formula_units_Z   4
loop_
 _symmetry_equiv_pos_site_id
 _symmetry_equiv_pos_as_xyz
  1  'x, y, z'
loop_
 _atom_site_type_symbol
 _atom_site_label
 _atom_site_symmetry_multiplicity
 _atom_site_fract_x
 _atom_site_fract_y
 _atom_site_fract_z
 _atom_site_occupancy
  C  C0  1  0.19125400  0.35547000  0.07196900  1
  C  C1  1  0.69125400  0.14453000  0.42803100  1
  C  C2  1  0.80874600  0.85547000  0.92803100  1
  C  C3  1  0.30874600  0.64453000  0.57196900  1
  C  C4  1  0.80874600  0.64453000  0.92803100  1
  C  C5  1  0.30874600  0.85547000  0.57196900  1
  C  C6  1  0.19125400  0.14453000  0.07196900  1
  C  C7  1  0.69125400  0.35547000  0.42803100  1
  C  C8  1  0.19814300  0.93215600  0.28497300  1
  C  C9  1  0.69814300  0.56784400  0.21502700  1
  C  C10  1  0.80185700  0.43215600  0.71502700  1
  C  C11  1  0.30185700  0.06784400  0.78497300  1
  C  C12  1  0.80185700  0.06784400  0.71502700  1
  C  C13  1  0.30185700  0.43215600  0.78497300  1
  C  C14  1  0.19814300  0.56784400  0.28497300  1
  C  C15  1  0.69814300  0.93215600  0.21502700  1
  C  C16  1  0.30729300  0.96270700  0.89205100  1
  C  C17  1  0.80729300  0.53729300  0.60794900  1
  C  C18  1  0.69270700  0.46270700  0.10794900  1
  C  C19  1  0.19270700  0.03729300  0.39205100  1
  C  C20  1  0.69270700  0.03729300  0.10794900  1
  C  C21  1  0.19270700  0.46270700  0.39205100  1
  C  C22  1  0.30729300  0.53729300  0.89205100  1
  C  C23  1  0.80729300  0.96270700  0.60794900  1
  C  C24  1  0.58610100  0.75000000  0.75005200  1
  C  C25  1  0.08610100  0.75000000  0.74994800  1
  C  C26  1  0.41389900  0.25000000  0.24994800  1
  C  C27  1  0.91389900  0.25000000  0.25005200  1
  Ni  Ni28  1  0.74951600  0.44164600  0.97957600  1
  Ni  Ni29  1  0.24951600  0.05835400  0.52042400  1
  Ni  Ni30  1  0.25048400  0.94164600  0.02042400  1
  Ni  Ni31  1  0.75048400  0.55835400  0.47957600  1
  Ni  Ni32  1  0.25048400  0.55835400  0.02042400  1
  Ni  Ni33  1  0.75048400  0.94164600  0.47957600  1
  Ni  Ni34  1  0.74951600  0.05835400  0.97957600  1
  Ni  Ni35  1  0.24951600  0.44164600  0.52042400  1
  Ni  Ni36  1  0.72228000  0.75000000  0.29027400  1
  Ni  Ni37  1  0.22228000  0.75000000  0.20972600  1
  Ni  Ni38  1  0.27772000  0.25000000  0.70972600  1
  Ni  Ni39  1  0.77772000  0.25000000  0.79027400  1
  Cu  Cu40  1  0.81450300  0.75000000  0.62667300  1
  Cu  Cu41  1  0.31450300  0.75000000  0.87332700  1
  Cu  Cu42  1  0.18549700  0.25000000  0.37332700  1
  Cu  Cu43  1  0.68549700  0.25000000  0.12667300  1
  Cu  Cu44  1  0.68686000  0.06555200  0.31174600  1
  Cu  Cu45  1  0.18686000  0.43444800  0.18825400  1
  Cu  Cu46  1  0.31314000  0.56555200  0.68825400  1
  Cu  Cu47  1  0.81314000  0.93444800  0.81174600  1
  Cu  Cu48  1  0.31314000  0.93444800  0.68825400  1
  Cu  Cu49  1  0.81314000  0.56555200  0.81174600  1
  Cu  Cu50  1  0.68686000  0.43444800  0.31174600  1
  Cu  Cu51  1  0.18686000  0.06555200  0.18825400  1
  C  C52  1  0.36391500  0.13112600  0.87790900  1
  C  C53  1  0.86391500  0.36887400  0.62209100  1
  C  C54  1  0.63608500  0.63112600  0.12209100  1
  C  C55  1  0.13608500  0.86887400  0.37790900  1
  C  C56  1  0.63608500  0.86887400  0.12209100  1
  C  C57  1  0.13608500  0.63112600  0.37790900  1
  C  C58  1  0.36391500  0.36887400  0.87790900  1
  C  C59  1  0.86391500  0.13112600  0.62209100  1
  C  C60  1  0.37769200  0.75000000  0.49420200  1
  C  C61  1  0.87769200  0.75000000  0.00579800  1
  C  C62  1  0.62230800  0.25000000  0.50579800  1
  C  C63  1  0.12230800  0.25000000  0.99420200  1
  C  C64  1  0.05049500  0.52911200  0.95451300  1
  C  C65  1  0.55049500  0.97088800  0.54548700  1
  C  C66  1  0.94950500  0.02911200  0.04548700  1
  C  C67  1  0.44950500  0.47088800  0.45451300  1
  C  C68  1  0.94950500  0.47088800  0.04548700  1
  C  C69  1  0.44950500  0.02911200  0.45451300  1
  C  C70  1  0.05049500  0.97088800  0.95451300  1
  C  C71  1  0.55049500  0.52911200  0.54548700  1
  C  C72  1  0.46934900  0.83451500  0.25309300  1
  C  C73  1  0.96934900  0.66548500  0.24690700  1
  C  C74  1  0.53065100  0.33451500  0.74690700  1
  C  C75  1  0.03065100  0.16548500  0.75309300  1
  C  C76  1  0.53065100  0.16548500  0.74690700  1
  C  C77  1  0.03065100  0.33451500  0.75309300  1
  C  C78  1  0.46934900  0.66548500  0.25309300  1
  C  C79  1  0.96934900  0.83451500  0.24690700  1
  C  C80  1  0.54912700  0.55547900  0.96353200  1
  C  C81  1  0.04912700  0.94452100  0.53646800  1
  C  C82  1  0.45087300  0.05547900  0.03646800  1
  C  C83  1  0.95087300  0.44452100  0.46353200  1
  C  C84  1  0.45087300  0.44452100  0.03646800  1
  C  C85  1  0.95087300  0.05547900  0.46353200  1
  C  C86  1  0.54912700  0.94452100  0.96353200  1
  C  C87  1  0.04912700  0.55547900  0.53646800  1
  C  C88  1  0.83579400  0.75000000  0.68665100  1
  C  C89  1  0.33579400  0.75000000  0.81334900  1
  C  C90  1  0.16420600  0.25000000  0.31334900  1
  C  C91  1  0.66420600  0.25000000  0.18665100  1
  C  C92  1  0.66356800  0.83170200  0.60832400  1
  C  C93  1  0.16356800  0.66829800  0.89167600  1
  C  C94  1  0.33643200  0.33170200  0.39167600  1
  C  C95  1  0.83643200  0.16829800  0.10832400  1
  C  C96  1  0.33643200  0.16829800  0.39167600  1
  C  C97  1  0.83643200  0.33170200  0.10832400  1
  C  C98  1  0.66356800  0.66829800  0.60832400  1
  C  C99  1  0.16356800  0.83170200  0.89167600  1
  C  C100  1  0.08242500  0.75000000  0.60172600  1
  C  C101  1  0.58242500  0.75000000  0.89827400  1
  C  C102  1  0.91757500  0.25000000  0.39827400  1
  C  C103  1  0.41757500  0.25000000  0.10172600  1
  C  C104  1  0.41776700  0.02761700  0.32381300  1
  C  C105  1  0.91776700  0.47238300  0.17618700  1
  C  C106  1  0.58223300  0.52761700  0.67618700  1
  C  C107  1  0.08223300  0.97238300  0.82381300  1
  C  C108  1  0.58223300  0.97238300  0.67618700  1
  C  C109  1  0.08223300  0.52761700  0.82381300  1
  C  C110  1  0.41776700  0.47238300  0.32381300  1
  C  C111  1  0.91776700  0.02761700  0.17618700  1
  C  C112  1  0.83694700  0.99739100  0.27998600  1
  C  C113  1  0.33694700  0.50260900  0.22001400  1
  C  C114  1  0.16305300  0.49739100  0.72001400  1
  C  C115  1  0.66305300  0.00260900  0.77998600  1
  C  C116  1  0.16305300  0.00260900  0.72001400  1
  C  C117  1  0.66305300  0.49739100  0.77998600  1
  C  C118  1  0.83694700  0.50260900  0.27998600  1
  C  C119  1  0.33694700  0.99739100  0.22001400  1
  C  C120  1  0.83644400  0.07841000  0.36220500  1
  C  C121  1  0.33644400  0.42159000  0.13779500  1
  C  C122  1  0.16355600  0.57841000  0.63779500  1
  C  C123  1  0.66355600  0.92159000  0.86220500  1
  C  C124  1  0.16355600  0.92159000  0.63779500  1
  C  C125  1  0.66355600  0.57841000  0.86220500  1
  C  C126  1  0.83644400  0.42159000  0.36220500  1
  C  C127  1  0.33644400  0.07841000  0.13779500  1
  C  C128  1  0.66397800  0.15505900  0.28211800  1
  C  C129  1  0.16397800  0.34494100  0.21788200  1
  C  C130  1  0.33602200  0.65505900  0.71788200  1
  C  C131  1  0.83602200  0.84494100  0.78211800  1
  C  C132  1  0.33602200  0.84494100  0.71788200  1
  C  C133  1  0.83602200  0.65505900  0.78211800  1
  C  C134  1  0.66397800  0.34494100  0.28211800  1
  C  C135  1  0.16397800  0.15505900  0.21788200  1
