# generated using pymatgen
data_Cu6NiC7
_symmetry_space_group_name_H-M   'P 1'
_cell_length_a   4.83251401
_cell_length_b   11.43152137
_cell_length_c   9.01457331
_cell_angle_alpha   89.97048133
_cell_angle_beta   90.00417995
_cell_angle_gamma   90.00334813
_symmetry_Int_Tables_number   1
_chemical_formula_structural   Cu6NiC7
_chemical_formula_sum   'Cu24 Ni4 C28'
_cell_volume   497.99188936
_cell_formula_units_Z   4
loop_
 _symmetry_equiv_pos_site_id
 _symmetry_equiv_pos_as_xyz
  1  'x, y, z'
loop_
 _atom_site_type_symbol
 _atom_site_label
 _atom_site_symmetry_multiplicity
 _atom_site_fract_x
 _atom_site_fract_y
 _atom_site_fract_z
 _atom_site_occupancy
  C  C0  1  0.50883000  0.74943400  0.02359600  1
  C  C1  1  0.00894200  0.50063200  0.97638600  1
  C  C2  1  0.50538300  0.24995100  0.02321200  1
  C  C3  1  0.00568300  0.00006800  0.97661600  1
  Ni  Ni4  1  0.07277400  0.25119000  0.80450800  1
  Ni  Ni5  1  0.07755600  0.75141600  0.80364400  1
  Ni  Ni6  1  0.57283200  0.99881200  0.19547700  1
  Ni  Ni7  1  0.57748100  0.49858200  0.19634100  1
  Cu  Cu8  1  0.80995200  0.25035300  0.54205700  1
  Cu  Cu9  1  0.81175000  0.74935600  0.54206800  1
  Cu  Cu10  1  0.30996200  0.99964800  0.45794500  1
  Cu  Cu11  1  0.31172400  0.50066700  0.45795700  1
  Cu  Cu12  1  0.45098800  0.25067800  0.54556600  1
  Cu  Cu13  1  0.45320300  0.74943100  0.54681000  1
  Cu  Cu14  1  0.95097400  0.99931500  0.45444900  1
  Cu  Cu15  1  0.95316300  0.50059300  0.45321300  1
  Cu  Cu16  1  0.62492900  0.32412800  0.41089500  1
  Cu  Cu17  1  0.62487600  0.82362500  0.41199300  1
  Cu  Cu18  1  0.62347600  0.17524900  0.41258200  1
  Cu  Cu19  1  0.62522300  0.67403700  0.41365500  1
  Cu  Cu20  1  0.12486100  0.42638200  0.58802400  1
  Cu  Cu21  1  0.12495000  0.92586000  0.58910400  1
  Cu  Cu22  1  0.12351600  0.07474900  0.58742300  1
  Cu  Cu23  1  0.12524400  0.57596200  0.58638600  1
  Cu  Cu24  1  0.06851900  0.31839400  0.19058700  1
  Cu  Cu25  1  0.06681700  0.81682300  0.19165000  1
  Cu  Cu26  1  0.07323000  0.18128700  0.19055800  1
  Cu  Cu27  1  0.07982500  0.67981000  0.19388800  1
  Cu  Cu28  1  0.56660900  0.43316200  0.80838600  1
  Cu  Cu29  1  0.56837700  0.93159400  0.80948200  1
  Cu  Cu30  1  0.57327400  0.06870700  0.80945600  1
  Cu  Cu31  1  0.57973800  0.57016400  0.80611500  1
  C  C32  1  0.62749800  0.25022900  0.47710200  1
  C  C33  1  0.62929600  0.74947400  0.47776900  1
  C  C34  1  0.12751500  0.99976800  0.52290500  1
  C  C35  1  0.12928000  0.50053600  0.52225100  1
  C  C36  1  0.76142200  0.24957300  0.83636600  1
  C  C37  1  0.76618800  0.75045900  0.83419100  1
  C  C38  1  0.26145300  0.00040300  0.16357600  1
  C  C39  1  0.26609900  0.49954400  0.16584100  1
  C  C40  1  0.12202900  0.24949800  0.63380500  1
  C  C41  1  0.12902700  0.74478400  0.63322100  1
  C  C42  1  0.62197300  0.00049900  0.36620600  1
  C  C43  1  0.62900500  0.50528900  0.36674700  1
  C  C44  1  0.19371500  0.25046000  0.20284000  1
  C  C45  1  0.19475800  0.75043800  0.20646600  1
  C  C46  1  0.69366500  0.99950900  0.79719400  1
  C  C47  1  0.69462500  0.49952600  0.79354100  1
  C  C48  1  0.21563500  0.36260600  0.87398900  1
  C  C49  1  0.21989300  0.86410400  0.86829900  1
  C  C50  1  0.22479600  0.14434700  0.87887100  1
  C  C51  1  0.22813500  0.64655100  0.88442300  1
  C  C52  1  0.71964200  0.38585000  0.13172500  1
  C  C53  1  0.71564700  0.88737800  0.12604300  1
  C  C54  1  0.72481300  0.10567400  0.12111300  1
  C  C55  1  0.72803800  0.60344300  0.11548500  1
