# generated using pymatgen
data_CuNiC15
_symmetry_space_group_name_H-M   'P 1'
_cell_length_a   8.59368800
_cell_length_b   8.59368800
_cell_length_c   11.70697700
_cell_angle_alpha   90.00000000
_cell_angle_beta   90.00000000
_cell_angle_gamma   90.00000000
_symmetry_Int_Tables_number   1
_chemical_formula_structural   CuNiC15
_chemical_formula_sum   'Cu4 Ni4 C60'
_cell_volume   864.57750099
_cell_formula_units_Z   4
loop_
 _symmetry_equiv_pos_site_id
 _symmetry_equiv_pos_as_xyz
  1  'x, y, z'
loop_
 _atom_site_type_symbol
 _atom_site_label
 _atom_site_symmetry_multiplicity
 _atom_site_fract_x
 _atom_site_fract_y
 _atom_site_fract_z
 _atom_site_occupancy
  Ni  Ni0  1  0.22398800  0.77601200  0.50000000  1
  Ni  Ni1  1  0.77601200  0.22398800  0.50000000  1
  Ni  Ni2  1  0.27601200  0.27601200  0.00000000  1
  Ni  Ni3  1  0.72398800  0.72398800  0.00000000  1
  Cu  Cu4  1  0.64344800  0.64344800  0.50000000  1
  Cu  Cu5  1  0.35655200  0.35655200  0.50000000  1
  Cu  Cu6  1  0.85655200  0.14344800  0.00000000  1
  Cu  Cu7  1  0.14344800  0.85655200  0.00000000  1
  C  C8  1  0.40095800  0.59904200  0.29543300  1
  C  C9  1  0.59904200  0.40095800  0.29543300  1
  C  C10  1  0.09904200  0.09904200  0.79543300  1
  C  C11  1  0.90095800  0.90095800  0.79543300  1
  C  C12  1  0.59904200  0.40095800  0.70456700  1
  C  C13  1  0.40095800  0.59904200  0.70456700  1
  C  C14  1  0.90095800  0.90095800  0.20456700  1
  C  C15  1  0.09904200  0.09904200  0.20456700  1
  C  C16  1  0.18222800  0.81777200  0.25460000  1
  C  C17  1  0.81777200  0.18222800  0.25460000  1
  C  C18  1  0.31777200  0.31777200  0.75460000  1
  C  C19  1  0.68222800  0.68222800  0.75460000  1
  C  C20  1  0.81777200  0.18222800  0.74540000  1
  C  C21  1  0.18222800  0.81777200  0.74540000  1
  C  C22  1  0.68222800  0.68222800  0.24540000  1
  C  C23  1  0.31777200  0.31777200  0.24540000  1
  C  C24  1  0.00000000  0.50000000  0.50000000  1
  C  C25  1  0.50000000  0.00000000  0.00000000  1
  C  C26  1  0.50000000  0.00000000  0.50000000  1
  C  C27  1  0.00000000  0.50000000  0.00000000  1
  C  C28  1  0.14034000  0.53750800  0.32199300  1
  C  C29  1  0.85966000  0.46249200  0.32199300  1
  C  C30  1  0.35966000  0.03750800  0.82199300  1
  C  C31  1  0.64034000  0.96249200  0.82199300  1
  C  C32  1  0.85966000  0.46249200  0.67800700  1
  C  C33  1  0.14034000  0.53750800  0.67800700  1
  C  C34  1  0.64034000  0.96249200  0.17800700  1
  C  C35  1  0.35966000  0.03750800  0.17800700  1
  C  C36  1  0.53750800  0.14034000  0.32199300  1
  C  C37  1  0.46249200  0.85966000  0.32199300  1
  C  C38  1  0.03750800  0.35966000  0.82199300  1
  C  C39  1  0.96249200  0.64034000  0.82199300  1
  C  C40  1  0.46249200  0.85966000  0.67800700  1
  C  C41  1  0.53750800  0.14034000  0.67800700  1
  C  C42  1  0.96249200  0.64034000  0.17800700  1
  C  C43  1  0.03750800  0.35966000  0.17800700  1
  C  C44  1  0.93189900  0.72409700  0.37382600  1
  C  C45  1  0.06810100  0.27590300  0.37382600  1
  C  C46  1  0.56810100  0.22409700  0.87382600  1
  C  C47  1  0.43189900  0.77590300  0.87382600  1
  C  C48  1  0.06810100  0.27590300  0.62617400  1
  C  C49  1  0.93189900  0.72409700  0.62617400  1
  C  C50  1  0.43189900  0.77590300  0.12617400  1
  C  C51  1  0.56810100  0.22409700  0.12617400  1
  C  C52  1  0.72409700  0.93189900  0.37382600  1
  C  C53  1  0.27590300  0.06810100  0.37382600  1
  C  C54  1  0.22409700  0.56810100  0.87382600  1
  C  C55  1  0.77590300  0.43189900  0.87382600  1
  C  C56  1  0.27590300  0.06810100  0.62617400  1
  C  C57  1  0.72409700  0.93189900  0.62617400  1
  C  C58  1  0.77590300  0.43189900  0.12617400  1
  C  C59  1  0.22409700  0.56810100  0.12617400  1
  C  C60  1  0.50000000  0.50000000  0.11563300  1
  C  C61  1  0.00000000  0.00000000  0.61563300  1
  C  C62  1  0.50000000  0.50000000  0.88436700  1
  C  C63  1  0.00000000  0.00000000  0.38436700  1
  C  C64  1  0.87731500  0.87731500  0.50000000  1
  C  C65  1  0.12268500  0.12268500  0.50000000  1
  C  C66  1  0.62268500  0.37731500  0.00000000  1
  C  C67  1  0.37731500  0.62268500  0.00000000  1
