# generated using pymatgen
data_Cu2Ni
_symmetry_space_group_name_H-M   'P 1'
_cell_length_a   4.88257668
_cell_length_b   3.35092546
_cell_length_c   16.48685831
_cell_angle_alpha   90.00000000
_cell_angle_beta   90.00000000
_cell_angle_gamma   90.00000000
_symmetry_Int_Tables_number   1
_chemical_formula_structural   Cu2Ni
_chemical_formula_sum   'Cu8 Ni4'
_cell_volume   269.74397020
_cell_formula_units_Z   4
loop_
 _symmetry_equiv_pos_site_id
 _symmetry_equiv_pos_as_xyz
  1  'x, y, z'
loop_
 _atom_site_type_symbol
 _atom_site_label
 _atom_site_symmetry_multiplicity
 _atom_site_fract_x
 _atom_site_fract_y
 _atom_site_fract_z
 _atom_site_occupancy
  Ni  Ni0  1  0.50000000  0.50000000  0.38942657  1
  Ni  Ni1  1  0.50000000  -0.00000000  0.21954180  1
  Ni  Ni2  1  0.50000000  0.00000000  0.88942657  1
  Ni  Ni3  1  0.50000000  0.50000000  0.71954180  1
  Cu  Cu4  1  -0.00000000  0.00000000  0.99891728  1
  Cu  Cu5  1  -0.00000000  0.50000000  0.16941473  1
  Cu  Cu6  1  -0.00000000  0.00000000  0.33268081  1
  Cu  Cu7  1  0.50000000  0.50000000  0.05668581  1
  Cu  Cu8  1  -0.00000000  0.50000000  0.49891728  1
  Cu  Cu9  1  -0.00000000  0.00000000  0.66941473  1
  Cu  Cu10  1  -0.00000000  0.50000000  0.83268081  1
  Cu  Cu11  1  0.50000000  0.00000000  0.55668581  1
