# generated using pymatgen
data_Cu15Ni3C
_symmetry_space_group_name_H-M   'P 1'
_cell_length_a   9.09463367
_cell_length_b   11.70079589
_cell_length_c   7.07305071
_cell_angle_alpha   91.50830444
_cell_angle_beta   115.14060858
_cell_angle_gamma   109.12863527
_symmetry_Int_Tables_number   1
_chemical_formula_structural   Cu15Ni3C
_chemical_formula_sum   'Cu30 Ni6 C2'
_cell_volume   631.57781819
_cell_formula_units_Z   2
loop_
 _symmetry_equiv_pos_site_id
 _symmetry_equiv_pos_as_xyz
  1  'x, y, z'
loop_
 _atom_site_type_symbol
 _atom_site_label
 _atom_site_symmetry_multiplicity
 _atom_site_fract_x
 _atom_site_fract_y
 _atom_site_fract_z
 _atom_site_occupancy
  C  C0  1  0.86679500  0.71164200  0.86246300  1
  C  C1  1  0.13320500  0.28835800  0.13753700  1
  Ni  Ni2  1  0.65798500  0.83574500  0.92253800  1
  Ni  Ni3  1  0.34201500  0.16425500  0.07746200  1
  Ni  Ni4  1  0.66280400  0.48083100  0.92684700  1
  Ni  Ni5  1  0.33719600  0.51916900  0.07315300  1
  Ni  Ni6  1  0.76051700  0.18091000  0.83652900  1
  Ni  Ni7  1  0.23948300  0.81909000  0.16347100  1
  Cu  Cu8  1  0.56895500  0.88054900  0.96088200  1
  Cu  Cu9  1  0.43104500  0.11945100  0.03911800  1
  Cu  Cu10  1  0.81205900  0.84255600  0.07041100  1
  Cu  Cu11  1  0.18794100  0.15744400  0.92958900  1
  Cu  Cu12  1  0.61238700  0.77723100  0.73681300  1
  Cu  Cu13  1  0.38761300  0.22276900  0.26318700  1
  Cu  Cu14  1  0.82059100  0.55470200  0.06706300  1
  Cu  Cu15  1  0.17940900  0.44529800  0.93293700  1
  Cu  Cu16  1  0.61052400  0.50717300  0.73938300  1
  Cu  Cu17  1  0.38947600  0.49282700  0.26061700  1
  Cu  Cu18  1  0.57426500  0.39537900  0.97416500  1
  Cu  Cu19  1  0.42573500  0.60462100  0.02583500  1
  Cu  Cu20  1  0.84483900  0.29914700  0.91212400  1
  Cu  Cu21  1  0.15516100  0.70085300  0.08787600  1
  Cu  Cu22  1  0.61224400  0.13804000  0.69219600  1
  Cu  Cu23  1  0.38775600  0.86196000  0.30780400  1
  Cu  Cu24  1  0.85015300  0.11330500  0.92529700  1
  Cu  Cu25  1  0.14984700  0.88669500  0.07470300  1
  Cu  Cu26  1  0.83372300  0.94181300  0.53329200  1
  Cu  Cu27  1  0.16627700  0.05818700  0.46670800  1
  Cu  Cu28  1  0.84866900  0.71419500  0.44131800  1
  Cu  Cu29  1  0.15133100  0.28580500  0.55868200  1
  Cu  Cu30  1  0.83641600  0.45629500  0.53824800  1
  Cu  Cu31  1  0.16358400  0.54370500  0.46175200  1
  Cu  Cu32  1  0.99250900  0.25319900  0.42566600  1
  Cu  Cu33  1  0.00749100  0.74680100  0.57433400  1
  Cu  Cu34  1  0.76142400  0.00625400  0.42631200  1
  Cu  Cu35  1  0.23857600  0.99374600  0.57368800  1
  Cu  Cu36  1  0.77889100  0.35327000  0.43079700  1
  Cu  Cu37  1  0.22110900  0.64673000  0.56920200  1
