# generated using pymatgen
data_Cu18NiC8
_symmetry_space_group_name_H-M   'P 1'
_cell_length_a   8.33249900
_cell_length_b   16.74041100
_cell_length_c   12.98790289
_cell_angle_alpha   90.00000000
_cell_angle_beta   129.91240163
_cell_angle_gamma   90.00000000
_symmetry_Int_Tables_number   1
_chemical_formula_structural   Cu18NiC8
_chemical_formula_sum   'Cu72 Ni4 C32'
_cell_volume   1389.60276761
_cell_formula_units_Z   4
loop_
 _symmetry_equiv_pos_site_id
 _symmetry_equiv_pos_as_xyz
  1  'x, y, z'
loop_
 _atom_site_type_symbol
 _atom_site_label
 _atom_site_symmetry_multiplicity
 _atom_site_fract_x
 _atom_site_fract_y
 _atom_site_fract_z
 _atom_site_occupancy
  C  C0  1  0.01702300  0.70408800  0.28091000  1
  C  C1  1  0.01702300  0.79591200  0.78091000  1
  C  C2  1  0.98297700  0.29591200  0.71909000  1
  C  C3  1  0.98297700  0.20408800  0.21909000  1
  C  C4  1  0.49784300  0.69964400  0.66148800  1
  C  C5  1  0.49784300  0.80035600  0.16148800  1
  C  C6  1  0.50215700  0.30035600  0.33851200  1
  C  C7  1  0.50215700  0.19964400  0.83851200  1
  C  C8  1  0.39654400  0.70890200  0.28101900  1
  C  C9  1  0.39654400  0.79109800  0.78101900  1
  C  C10  1  0.60345600  0.29109800  0.71898100  1
  C  C11  1  0.60345600  0.20890200  0.21898100  1
  C  C12  1  0.76048200  0.71507000  0.92065600  1
  C  C13  1  0.76048200  0.78493000  0.42065600  1
  C  C14  1  0.23951800  0.28493000  0.07934400  1
  C  C15  1  0.23951800  0.21507000  0.57934400  1
  C  C16  1  0.59319200  0.75810200  0.02056400  1
  C  C17  1  0.59319200  0.74189800  0.52056400  1
  C  C18  1  0.40680800  0.24189800  0.97943600  1
  C  C19  1  0.40680800  0.25810200  0.47943600  1
  C  C20  1  0.12514900  0.73655600  0.55326200  1
  C  C21  1  0.12514900  0.76344400  0.05326200  1
  C  C22  1  0.87485100  0.26344400  0.44673800  1
  C  C23  1  0.87485100  0.23655600  0.94673800  1
  C  C24  1  0.29293800  0.56391000  0.23453400  1
  C  C25  1  0.29293800  0.93609000  0.73453400  1
  C  C26  1  0.70706200  0.43609000  0.76546600  1
  C  C27  1  0.70706200  0.06391000  0.26546600  1
  C  C28  1  0.69131500  0.58525900  0.81078100  1
  C  C29  1  0.69131500  0.91474100  0.31078100  1
  C  C30  1  0.30868500  0.41474100  0.18921900  1
  C  C31  1  0.30868500  0.08525900  0.68921900  1
  Ni  Ni32  1  0.17052500  0.92020600  0.31242100  1
  Ni  Ni33  1  0.17052500  0.57979400  0.81242100  1
  Ni  Ni34  1  0.82947500  0.07979400  0.68757900  1
  Ni  Ni35  1  0.82947500  0.42020600  0.18757900  1
  Cu  Cu36  1  0.76224000  0.73335900  0.03267400  1
  Cu  Cu37  1  0.76224000  0.76664100  0.53267400  1
  Cu  Cu38  1  0.23776000  0.26664100  0.96732600  1
  Cu  Cu39  1  0.23776000  0.23335900  0.46732600  1
  Cu  Cu40  1  0.27329100  0.71086900  0.54505600  1
  Cu  Cu41  1  0.27329100  0.78913100  0.04505600  1
  Cu  Cu42  1  0.72670900  0.28913100  0.45494400  1
  Cu  Cu43  1  0.72670900  0.21086900  0.95494400  1
  Cu  Cu44  1  0.41263900  0.71699000  0.40031700  1
  Cu  Cu45  1  0.41263900  0.78301000  0.90031700  1
  Cu  Cu46  1  0.58736100  0.28301000  0.59968300  1
  Cu  Cu47  1  0.58736100  0.21699000  0.09968300  1
  Cu  Cu48  1  0.18017700  0.73500300  0.17101200  1
  Cu  Cu49  1  0.18017700  0.76499700  0.67101200  1
  Cu  Cu50  1  0.81982300  0.26499700  0.82898800  1
  Cu  Cu51  1  0.81982300  0.23500300  0.32898800  1
  Cu  Cu52  1  0.54808500  0.61666100  0.68461900  1
  Cu  Cu53  1  0.54808500  0.88333900  0.18461900  1
  Cu  Cu54  1  0.45191500  0.38333900  0.31538100  1
  Cu  Cu55  1  0.45191500  0.11666100  0.81538100  1
  Cu  Cu56  1  0.92309900  0.73511500  0.43436500  1
  Cu  Cu57  1  0.92309900  0.76488500  0.93436500  1
  Cu  Cu58  1  0.07690100  0.26488500  0.56563500  1
  Cu  Cu59  1  0.07690100  0.23511500  0.06563500  1
  Cu  Cu60  1  0.54818900  0.73855400  0.78792100  1
  Cu  Cu61  1  0.54818900  0.76144600  0.28792100  1
  Cu  Cu62  1  0.45181100  0.26144600  0.21207900  1
  Cu  Cu63  1  0.45181100  0.23855400  0.71207900  1
  Cu  Cu64  1  0.62805300  0.75698200  0.13880200  1
  Cu  Cu65  1  0.62805300  0.74301800  0.63880200  1
  Cu  Cu66  1  0.37194700  0.24301800  0.86119800  1
  Cu  Cu67  1  0.37194700  0.25698200  0.36119800  1
  Cu  Cu68  1  0.16991200  0.58424400  0.26754100  1
  Cu  Cu69  1  0.16991200  0.91575600  0.76754100  1
  Cu  Cu70  1  0.83008800  0.41575600  0.73245900  1
  Cu  Cu71  1  0.83008800  0.08424400  0.23245900  1
  Cu  Cu72  1  0.42692100  0.62526400  0.26408300  1
  Cu  Cu73  1  0.42692100  0.87473600  0.76408300  1
  Cu  Cu74  1  0.57307900  0.37473600  0.73591700  1
  Cu  Cu75  1  0.57307900  0.12526400  0.23591700  1
  Cu  Cu76  1  0.07852400  0.55400000  0.40318100  1
  Cu  Cu77  1  0.07852400  0.94600000  0.90318100  1
  Cu  Cu78  1  0.92147600  0.44600000  0.59681900  1
  Cu  Cu79  1  0.92147600  0.05400000  0.09681900  1
  Cu  Cu80  1  0.05533000  0.85184200  0.31260000  1
  Cu  Cu81  1  0.05533000  0.64815800  0.81260000  1
  Cu  Cu82  1  0.94467000  0.14815800  0.68740000  1
  Cu  Cu83  1  0.94467000  0.35184200  0.18740000  1
  Cu  Cu84  1  0.78754700  0.59275000  0.22118800  1
  Cu  Cu85  1  0.78754700  0.90725000  0.72118800  1
  Cu  Cu86  1  0.21245300  0.40725000  0.77881200  1
  Cu  Cu87  1  0.21245300  0.09275000  0.27881200  1
  Cu  Cu88  1  0.14300700  0.98823400  0.36999700  1
  Cu  Cu89  1  0.14300700  0.51176600  0.86999700  1
  Cu  Cu90  1  0.85699300  0.01176600  0.63000300  1
  Cu  Cu91  1  0.85699300  0.48823400  0.13000300  1
  Cu  Cu92  1  0.38696400  0.90003100  0.38855200  1
  Cu  Cu93  1  0.38696400  0.59996900  0.88855200  1
  Cu  Cu94  1  0.61303600  0.09996900  0.61144800  1
  Cu  Cu95  1  0.61303600  0.40003100  0.11144800  1
  Cu  Cu96  1  0.07218400  0.93595800  0.17071500  1
  Cu  Cu97  1  0.07218400  0.56404200  0.67071500  1
  Cu  Cu98  1  0.92781600  0.06404200  0.82928500  1
  Cu  Cu99  1  0.92781600  0.43595800  0.32928500  1
  Cu  Cu100  1  0.80092900  0.63198700  0.92309900  1
  Cu  Cu101  1  0.80092900  0.86801300  0.42309900  1
  Cu  Cu102  1  0.19907100  0.36801300  0.07690100  1
  Cu  Cu103  1  0.19907100  0.13198700  0.57690100  1
  Cu  Cu104  1  0.27696900  0.49592500  0.17333100  1
  Cu  Cu105  1  0.27696900  0.00407500  0.67333100  1
  Cu  Cu106  1  0.72303100  0.50407500  0.82666900  1
  Cu  Cu107  1  0.72303100  0.99592500  0.32666900  1
