# generated using pymatgen
data_Cu2Ni6C35
_symmetry_space_group_name_H-M   'P 1'
_cell_length_a   6.48232245
_cell_length_b   9.36443628
_cell_length_c   8.35081385
_cell_angle_alpha   91.02245847
_cell_angle_beta   104.19212554
_cell_angle_gamma   107.37749255
_symmetry_Int_Tables_number   1
_chemical_formula_structural   Cu2Ni6C35
_chemical_formula_sum   'Cu2 Ni6 C35'
_cell_volume   466.74175718
_cell_formula_units_Z   1
loop_
 _symmetry_equiv_pos_site_id
 _symmetry_equiv_pos_as_xyz
  1  'x, y, z'
loop_
 _atom_site_type_symbol
 _atom_site_label
 _atom_site_symmetry_multiplicity
 _atom_site_fract_x
 _atom_site_fract_y
 _atom_site_fract_z
 _atom_site_occupancy
  C  C0  1  0.49527331  0.99686022  0.99991325  1
  Ni  Ni1  1  0.24415629  0.69018313  0.31159921  1
  Ni  Ni2  1  0.62056457  0.54876568  0.87128581  1
  Ni  Ni3  1  0.14219840  0.90120371  0.57052028  1
  Ni  Ni4  1  0.37976433  0.45126210  0.12865720  1
  Ni  Ni5  1  0.85744747  0.09912114  0.42913375  1
  Ni  Ni6  1  0.75607525  0.30939415  0.68944237  1
  Cu  Cu7  1  0.20958917  0.46851551  0.52261952  1
  Cu  Cu8  1  0.79045067  0.53107465  0.47733701  1
  C  C9  1  0.24575210  0.21515469  0.79192767  1
  C  C10  1  0.75449499  0.78471208  0.20809129  1
  C  C11  1  0.37986515  0.16928658  0.36374669  1
  C  C12  1  0.13451977  0.63471123  0.85023393  1
  C  C13  1  0.62006577  0.83063947  0.63636834  1
  C  C14  1  0.86582489  0.36567739  0.14929965  1
  C  C15  1  0.28622661  0.15251451  0.09235739  1
  C  C16  1  0.03874554  0.77725119  0.01656615  1
  C  C17  1  0.71441787  0.84770160  0.90777158  1
  C  C18  1  0.96238574  0.22351928  0.98367722  1
  C  C19  1  0.32449158  0.56589657  0.90547587  1
  C  C20  1  0.18472806  0.76968611  0.99605447  1
  C  C21  1  0.63872257  0.90837971  0.81937574  1
  C  C22  1  0.81660412  0.23212136  0.00292126  1
  C  C23  1  0.38841886  0.33266573  0.33712198  1
  C  C24  1  0.13289658  0.71090968  0.69145930  1
  C  C25  1  0.61201893  0.66726849  0.66271231  1
  C  C26  1  0.86647827  0.28917437  0.30791401  1
  C  C27  1  0.17353439  0.08466381  0.42311010  1
  C  C28  1  0.36043789  0.09104504  0.18081842  1
  C  C29  1  0.78727426  0.75156504  0.03004355  1
  C  C30  1  0.71165778  0.94131862  0.20170343  1
  C  C31  1  0.21406823  0.24842159  0.97022514  1
  C  C32  1  0.28704339  0.05806478  0.79780782  1
  C  C33  1  0.54958273  0.66723961  0.24536445  1
  C  C34  1  0.97057328  0.77905416  0.33394642  1
  C  C35  1  0.45086731  0.33238470  0.75463146  1
  C  C36  1  0.82618746  0.91571281  0.57700326  1
  C  C37  1  0.90672151  0.51421561  0.83795876  1
  C  C38  1  0.59171639  0.15486800  0.48585207  1
  C  C39  1  0.09416203  0.48649628  0.16288735  1
  C  C40  1  0.40807263  0.84499028  0.51433091  1
  C  C41  1  0.67614561  0.43488862  0.09441901  1
  C  C42  1  0.02977527  0.22142077  0.66631261  1
