# generated using pymatgen
data_Cu4NiC5
_symmetry_space_group_name_H-M   'P 1'
_cell_length_a   6.03818500
_cell_length_b   10.66154200
_cell_length_c   18.91911000
_cell_angle_alpha   90.00000000
_cell_angle_beta   90.00000000
_cell_angle_gamma   90.00000000
_symmetry_Int_Tables_number   1
_chemical_formula_structural   Cu4NiC5
_chemical_formula_sum   'Cu32 Ni8 C40'
_cell_volume   1217.94349264
_cell_formula_units_Z   8
loop_
 _symmetry_equiv_pos_site_id
 _symmetry_equiv_pos_as_xyz
  1  'x, y, z'
loop_
 _atom_site_type_symbol
 _atom_site_label
 _atom_site_symmetry_multiplicity
 _atom_site_fract_x
 _atom_site_fract_y
 _atom_site_fract_z
 _atom_site_occupancy
  Ni  Ni0  1  0.40973400  0.34239900  0.50235300  1
  Ni  Ni1  1  0.90973400  0.65760100  0.99764700  1
  Ni  Ni2  1  0.09026600  0.84239900  0.49764700  1
  Ni  Ni3  1  0.59026600  0.15760100  0.00235300  1
  Ni  Ni4  1  0.59026600  0.65760100  0.49764700  1
  Ni  Ni5  1  0.09026600  0.34239900  0.00235300  1
  Ni  Ni6  1  0.90973400  0.15760100  0.50235300  1
  Ni  Ni7  1  0.40973400  0.84239900  0.99764700  1
  Cu  Cu8  1  0.43895900  0.92967700  0.25308300  1
  Cu  Cu9  1  0.93895900  0.07032300  0.24691700  1
  Cu  Cu10  1  0.06104100  0.42967700  0.74691700  1
  Cu  Cu11  1  0.56104100  0.57032300  0.75308300  1
  Cu  Cu12  1  0.56104100  0.07032300  0.74691700  1
  Cu  Cu13  1  0.06104100  0.92967700  0.75308300  1
  Cu  Cu14  1  0.93895900  0.57032300  0.25308300  1
  Cu  Cu15  1  0.43895900  0.42967700  0.24691700  1
  Cu  Cu16  1  0.42254100  0.67629300  0.32244100  1
  Cu  Cu17  1  0.57745900  0.82370700  0.82244100  1
  Cu  Cu18  1  0.07745900  0.17629300  0.67755900  1
  Cu  Cu19  1  0.07745900  0.67629300  0.82244100  1
  Cu  Cu20  1  0.57745900  0.32370700  0.67755900  1
  Cu  Cu21  1  0.42254100  0.17629300  0.17755900  1
  Cu  Cu22  1  0.92254100  0.82370700  0.32244100  1
  Cu  Cu23  1  0.61056600  0.19474800  0.35318400  1
  Cu  Cu24  1  0.11056600  0.80525200  0.14681600  1
  Cu  Cu25  1  0.88943400  0.69474800  0.64681600  1
  Cu  Cu26  1  0.38943400  0.80525200  0.64681600  1
  Cu  Cu27  1  0.88943400  0.19474800  0.85318400  1
  Cu  Cu28  1  0.11056600  0.30525200  0.35318400  1
  Cu  Cu29  1  0.61056600  0.69474800  0.14681600  1
  Cu  Cu30  1  0.90429500  0.44545500  0.56672700  1
  Cu  Cu31  1  0.40429500  0.55454500  0.93327300  1
  Cu  Cu32  1  0.59570500  0.94545500  0.43327300  1
  Cu  Cu33  1  0.09570500  0.05454500  0.06672700  1
  Cu  Cu34  1  0.09570500  0.55454500  0.43327300  1
  Cu  Cu35  1  0.59570500  0.44545500  0.06672700  1
  Cu  Cu36  1  0.40429500  0.05454500  0.56672700  1
  Cu  Cu37  1  0.90429500  0.94545500  0.93327300  1
  Cu  Cu38  1  0.92254100  0.32370700  0.17755900  1
  Cu  Cu39  1  0.38943400  0.30525200  0.85318400  1
  C  C40  1  0.69979200  0.46262500  0.37186800  1
  C  C41  1  0.19979200  0.53737500  0.12813200  1
  C  C42  1  0.80020800  0.96262500  0.62813200  1
  C  C43  1  0.30020800  0.03737500  0.87186800  1
  C  C44  1  0.30020800  0.53737500  0.62813200  1
  C  C45  1  0.80020800  0.46262500  0.87186800  1
  C  C46  1  0.19979200  0.03737500  0.37186800  1
  C  C47  1  0.69979200  0.96262500  0.12813200  1
  C  C48  1  0.29088900  0.12904200  0.29046700  1
  C  C49  1  0.79088900  0.87095800  0.20953300  1
  C  C50  1  0.20911100  0.62904200  0.70953300  1
  C  C51  1  0.70911100  0.37095800  0.79046700  1
  C  C52  1  0.70911100  0.87095800  0.70953300  1
  C  C53  1  0.20911100  0.12904200  0.79046700  1
  C  C54  1  0.79088900  0.37095800  0.29046700  1
  C  C55  1  0.29088900  0.62904200  0.20953300  1
  C  C56  1  0.70168900  0.63216800  0.86399800  1
  C  C57  1  0.20168900  0.36783200  0.63600200  1
  C  C58  1  0.20168900  0.86783200  0.86399800  1
  C  C59  1  0.70168900  0.13216800  0.63600200  1
  C  C60  1  0.29831100  0.36783200  0.13600200  1
  C  C61  1  0.79831100  0.63216800  0.36399800  1
  C  C62  1  0.38770300  0.46427200  0.37398800  1
  C  C63  1  0.88770300  0.53572800  0.12601200  1
  C  C64  1  0.11229700  0.96427200  0.62601200  1
  C  C65  1  0.61229700  0.03572800  0.87398800  1
  C  C66  1  0.61229700  0.53572800  0.62601200  1
  C  C67  1  0.11229700  0.46427200  0.87398800  1
  C  C68  1  0.79831100  0.13216800  0.13600200  1
  C  C69  1  0.88770300  0.03572800  0.37398800  1
  C  C70  1  0.38770300  0.96427200  0.12601200  1
  C  C71  1  0.33400100  0.61421700  0.04929700  1
  C  C72  1  0.83400100  0.38578300  0.45070300  1
  C  C73  1  0.16599900  0.11421700  0.95070300  1
  C  C74  1  0.66599900  0.88578300  0.54929700  1
  C  C75  1  0.66599900  0.38578300  0.95070300  1
  C  C76  1  0.16599900  0.61421700  0.54929700  1
  C  C77  1  0.83400100  0.88578300  0.04929700  1
  C  C78  1  0.33400100  0.11421700  0.45070300  1
  C  C79  1  0.29831100  0.86783200  0.36399800  1
