# generated using pymatgen
data_Cu3NiC17
_symmetry_space_group_name_H-M   'P 1'
_cell_length_a   9.68743405
_cell_length_b   9.68743405
_cell_length_c   7.20672600
_cell_angle_alpha   90.00000000
_cell_angle_beta   90.00000000
_cell_angle_gamma   120.00000035
_symmetry_Int_Tables_number   1
_chemical_formula_structural   Cu3NiC17
_chemical_formula_sum   'Cu6 Ni2 C34'
_cell_volume   585.71474681
_cell_formula_units_Z   2
loop_
 _symmetry_equiv_pos_site_id
 _symmetry_equiv_pos_as_xyz
  1  'x, y, z'
loop_
 _atom_site_type_symbol
 _atom_site_label
 _atom_site_symmetry_multiplicity
 _atom_site_fract_x
 _atom_site_fract_y
 _atom_site_fract_z
 _atom_site_occupancy
  Ni  Ni0  1  0.66666700  0.33333300  0.98462800  1
  Ni  Ni1  1  0.33333300  0.66666700  0.01537200  1
  Cu  Cu2  1  0.98087500  0.24042500  0.76188100  1
  Cu  Cu3  1  0.25955000  0.01912500  0.76188100  1
  Cu  Cu4  1  0.75957500  0.74045000  0.76188100  1
  Cu  Cu5  1  0.01912500  0.75957500  0.23811900  1
  Cu  Cu6  1  0.74045000  0.98087500  0.23811900  1
  Cu  Cu7  1  0.24042500  0.25955000  0.23811900  1
  C  C8  1  0.66666700  0.33333300  0.48260000  1
  C  C9  1  0.33333300  0.66666700  0.51740000  1
  C  C10  1  0.96685500  0.37432300  0.26116200  1
  C  C11  1  0.40746700  0.03314500  0.26116200  1
  C  C12  1  0.62567700  0.59253300  0.26116200  1
  C  C13  1  0.03314500  0.62567700  0.73883800  1
  C  C14  1  0.59253300  0.96685500  0.73883800  1
  C  C15  1  0.37432300  0.40746700  0.73883800  1
  C  C16  1  0.14756600  0.49779400  0.28089200  1
  C  C17  1  0.35022700  0.85243400  0.28089200  1
  C  C18  1  0.50220600  0.64977300  0.28089200  1
  C  C19  1  0.85243400  0.50220600  0.71910800  1
  C  C20  1  0.64977300  0.14756600  0.71910800  1
  C  C21  1  0.49779400  0.35022700  0.71910800  1
  C  C22  1  0.86904700  0.46007400  0.23270000  1
  C  C23  1  0.59102700  0.13095300  0.23270000  1
  C  C24  1  0.53992600  0.40897300  0.23270000  1
  C  C25  1  0.13095300  0.53992600  0.76730000  1
  C  C26  1  0.40897300  0.86904700  0.76730000  1
  C  C27  1  0.46007400  0.59102700  0.76730000  1
  C  C28  1  0.94452200  0.26017400  0.09912700  1
  C  C29  1  0.31565200  0.05547800  0.09912700  1
  C  C30  1  0.73982600  0.68434800  0.09912700  1
  C  C31  1  0.05547800  0.73982600  0.90087300  1
  C  C32  1  0.68434800  0.94452200  0.90087300  1
  C  C33  1  0.26017400  0.31565200  0.90087300  1
  C  C34  1  0.89488000  0.27105000  0.43986700  1
  C  C35  1  0.37616900  0.10512000  0.43986700  1
  C  C36  1  0.72895000  0.62383100  0.43986700  1
  C  C37  1  0.10512000  0.72895000  0.56013300  1
  C  C38  1  0.62383100  0.89488000  0.56013300  1
  C  C39  1  0.27105000  0.37616900  0.56013300  1
  C  C40  1  0.00000000  0.00000000  0.73739000  1
  C  C41  1  0.00000000  0.00000000  0.26261000  1
