# generated using pymatgen
data_CuNi4C19
_symmetry_space_group_name_H-M   'P 1'
_cell_length_a   5.15687725
_cell_length_b   9.74621687
_cell_length_c   8.65715187
_cell_angle_alpha   90.00298252
_cell_angle_beta   89.99822969
_cell_angle_gamma   98.29782544
_symmetry_Int_Tables_number   1
_chemical_formula_structural   CuNi4C19
_chemical_formula_sum   'Cu2 Ni8 C38'
_cell_volume   430.55379550
_cell_formula_units_Z   2
loop_
 _symmetry_equiv_pos_site_id
 _symmetry_equiv_pos_as_xyz
  1  'x, y, z'
loop_
 _atom_site_type_symbol
 _atom_site_label
 _atom_site_symmetry_multiplicity
 _atom_site_fract_x
 _atom_site_fract_y
 _atom_site_fract_z
 _atom_site_occupancy
  C  C0  1  0.50002400  0.49999900  0.33358000  1
  C  C1  1  0.49997800  0.99998500  0.83044600  1
  C  C2  1  0.24480900  0.24132000  0.83043100  1
  C  C3  1  0.26067400  0.74073700  0.33544700  1
  C  C4  1  0.75522200  0.75866800  0.83055300  1
  C  C5  1  0.73935700  0.25923000  0.33549300  1
  C  C6  1  0.75807700  0.25398200  0.99619100  1
  C  C7  1  0.76328600  0.75338500  0.50048100  1
  C  C8  1  0.75044000  0.74839000  0.17106900  1
  C  C9  1  0.75843000  0.25205600  0.66706400  1
  C  C10  1  0.24946200  0.25163600  0.17100400  1
  C  C11  1  0.24152400  0.74789000  0.66712900  1
  C  C12  1  0.24208600  0.74610400  0.99623000  1
  C  C13  1  0.23673100  0.24653500  0.50034500  1
  Ni  Ni14  1  0.00000600  0.49998600  0.50058300  1
  Ni  Ni15  1  0.00002200  0.00002900  0.99691400  1
  Ni  Ni16  1  0.00003300  0.50002600  0.16644000  1
  Ni  Ni17  1  0.99987600  0.99994700  0.66629200  1
  Ni  Ni18  1  0.50003200  0.49997500  0.66339800  1
  Ni  Ni19  1  0.49999600  0.00005600  0.16170000  1
  Ni  Ni20  1  0.50002900  0.50002000  0.00298000  1
  Ni  Ni21  1  0.49985900  0.99991300  0.50259500  1
  Cu  Cu22  1  0.99997300  0.00001600  0.33621700  1
  Cu  Cu23  1  0.00002500  0.50000300  0.83379200  1
  C  C24  1  0.89806600  0.61550700  0.33295400  1
  C  C25  1  0.89323100  0.11334000  0.83555900  1
  C  C26  1  0.10197200  0.38451200  0.33293500  1
  C  C27  1  0.10672600  0.88664800  0.83559100  1
  C  C28  1  0.35752600  0.60642200  0.83342200  1
  C  C29  1  0.38806900  0.11425300  0.32829500  1
  C  C30  1  0.64250500  0.39358200  0.83342200  1
  C  C31  1  0.61187000  0.88583500  0.32832400  1
  C  C32  1  0.89367900  0.61617900  0.00116300  1
  C  C33  1  0.88666900  0.11978200  0.51245000  1
  C  C34  1  0.89389200  0.61480300  0.66721700  1
  C  C35  1  0.84999700  0.10974100  0.15490300  1
  C  C36  1  0.10638600  0.38386500  0.00117000  1
  C  C37  1  0.11311200  0.88009400  0.51245800  1
  C  C38  1  0.10615000  0.38516900  0.66721200  1
  C  C39  1  0.15012300  0.89040200  0.15492200  1
  C  C40  1  0.34932400  0.11137200  0.01057300  1
  C  C41  1  0.34975400  0.60812000  0.50769700  1
  C  C42  1  0.35040900  0.60859000  0.15879200  1
  C  C43  1  0.35016300  0.11079600  0.65870400  1
  C  C44  1  0.64963700  0.39148000  0.15874100  1
  C  C45  1  0.64970800  0.88905700  0.65881100  1
  C  C46  1  0.65075800  0.88870500  0.01065700  1
  C  C47  1  0.65032000  0.39185700  0.50765100  1
