# generated using pymatgen
data_Cu2NiC11
_symmetry_space_group_name_H-M   'P 1'
_cell_length_a   6.36497800
_cell_length_b   7.45689300
_cell_length_c   14.33888800
_cell_angle_alpha   90.00000000
_cell_angle_beta   90.00000000
_cell_angle_gamma   90.00000000
_symmetry_Int_Tables_number   1
_chemical_formula_structural   Cu2NiC11
_chemical_formula_sum   'Cu8 Ni4 C44'
_cell_volume   680.56606606
_cell_formula_units_Z   4
loop_
 _symmetry_equiv_pos_site_id
 _symmetry_equiv_pos_as_xyz
  1  'x, y, z'
loop_
 _atom_site_type_symbol
 _atom_site_label
 _atom_site_symmetry_multiplicity
 _atom_site_fract_x
 _atom_site_fract_y
 _atom_site_fract_z
 _atom_site_occupancy
  Ni  Ni0  1  0.75000000  0.92927400  0.77150600  1
  Ni  Ni1  1  0.75000000  0.57072600  0.27150600  1
  Ni  Ni2  1  0.25000000  0.42927400  0.72849400  1
  Ni  Ni3  1  0.25000000  0.07072600  0.22849400  1
  Cu  Cu4  1  0.75000000  0.35270600  0.88191700  1
  Cu  Cu5  1  0.25000000  0.64729400  0.11808300  1
  Cu  Cu6  1  0.25000000  0.85270600  0.61808300  1
  Cu  Cu7  1  0.75000000  0.14729400  0.38191700  1
  Cu  Cu8  1  0.50000000  0.00000000  0.00000000  1
  Cu  Cu9  1  0.50000000  0.50000000  0.50000000  1
  Cu  Cu10  1  0.00000000  0.50000000  0.50000000  1
  Cu  Cu11  1  0.00000000  0.00000000  0.00000000  1
  C  C12  1  0.25000000  0.36564600  0.92663100  1
  C  C13  1  0.75000000  0.63435400  0.07336900  1
  C  C14  1  0.75000000  0.86564600  0.57336900  1
  C  C15  1  0.25000000  0.13435400  0.42663100  1
  C  C16  1  0.75000000  0.38090700  0.69506000  1
  C  C17  1  0.75000000  0.11909300  0.19506000  1
  C  C18  1  0.25000000  0.88090700  0.80494000  1
  C  C19  1  0.25000000  0.61909300  0.30494000  1
  C  C20  1  0.04155200  0.60814500  0.36263100  1
  C  C21  1  0.54155200  0.39185500  0.63736900  1
  C  C22  1  0.95844800  0.10814500  0.13736900  1
  C  C23  1  0.45844800  0.89185500  0.86263100  1
  C  C24  1  0.95844800  0.39185500  0.63736900  1
  C  C25  1  0.45844800  0.60814500  0.36263100  1
  C  C26  1  0.04155200  0.89185500  0.86263100  1
  C  C27  1  0.54155200  0.10814500  0.13736900  1
  C  C28  1  0.25000000  0.32309300  0.47299900  1
  C  C29  1  0.75000000  0.67690700  0.52700100  1
  C  C30  1  0.75000000  0.82309300  0.02700100  1
  C  C31  1  0.25000000  0.17690700  0.97299900  1
  C  C32  1  0.75000000  0.12873600  0.94197400  1
  C  C33  1  0.25000000  0.87126400  0.05802600  1
  C  C34  1  0.25000000  0.62873600  0.55802600  1
  C  C35  1  0.75000000  0.37126400  0.44197400  1
  C  C36  1  0.75000000  0.20283900  0.75309400  1
  C  C37  1  0.25000000  0.79716100  0.24690600  1
  C  C38  1  0.25000000  0.70283900  0.74690600  1
  C  C39  1  0.75000000  0.29716100  0.25309400  1
  C  C40  1  0.43632800  0.12000000  0.35749700  1
  C  C41  1  0.93632800  0.88000000  0.64250300  1
  C  C42  1  0.56367200  0.62000000  0.14250300  1
  C  C43  1  0.06367200  0.38000000  0.85749700  1
  C  C44  1  0.56367200  0.88000000  0.64250300  1
  C  C45  1  0.06367200  0.12000000  0.35749700  1
  C  C46  1  0.43632800  0.38000000  0.85749700  1
  C  C47  1  0.93632800  0.62000000  0.14250300  1
  C  C48  1  0.75000000  0.49304600  0.99806700  1
  C  C49  1  0.25000000  0.03355400  0.73141900  1
  C  C50  1  0.25000000  0.46644600  0.23141900  1
  C  C51  1  0.75000000  0.53355400  0.76858100  1
  C  C52  1  0.75000000  0.00695400  0.49806700  1
  C  C53  1  0.25000000  0.99304600  0.50193300  1
  C  C54  1  0.25000000  0.50695400  0.00193300  1
  C  C55  1  0.75000000  0.96644600  0.26858100  1
