# generated using pymatgen
data_Cu2NiC7
_symmetry_space_group_name_H-M   'P 1'
_cell_length_a   9.22407400
_cell_length_b   5.38266600
_cell_length_c   9.73803504
_cell_angle_alpha   78.77353538
_cell_angle_beta   90.00000000
_cell_angle_gamma   90.00000000
_symmetry_Int_Tables_number   1
_chemical_formula_structural   Cu2NiC7
_chemical_formula_sum   'Cu8 Ni4 C28'
_cell_volume   474.24300057
_cell_formula_units_Z   4
loop_
 _symmetry_equiv_pos_site_id
 _symmetry_equiv_pos_as_xyz
  1  'x, y, z'
loop_
 _atom_site_type_symbol
 _atom_site_label
 _atom_site_symmetry_multiplicity
 _atom_site_fract_x
 _atom_site_fract_y
 _atom_site_fract_z
 _atom_site_occupancy
  C  C0  1  0.49237000  0.55976200  0.24651600  1
  C  C1  1  0.99237000  0.94023800  0.75348400  1
  C  C2  1  0.50763000  0.44023800  0.75348400  1
  C  C3  1  0.00763000  0.05976200  0.24651600  1
  Ni  Ni4  1  0.64924300  0.04921100  0.24178300  1
  Ni  Ni5  1  0.14924300  0.45078900  0.75821700  1
  Ni  Ni6  1  0.35075700  0.95078900  0.75821700  1
  Ni  Ni7  1  0.85075700  0.54921100  0.24178300  1
  Cu  Cu8  1  0.34039600  0.15813800  0.05804100  1
  Cu  Cu9  1  0.84039600  0.34186200  0.94195900  1
  Cu  Cu10  1  0.65960400  0.84186200  0.94195900  1
  Cu  Cu11  1  0.15960400  0.65813800  0.05804100  1
  Cu  Cu12  1  0.34334100  0.76554200  0.46488500  1
  Cu  Cu13  1  0.84334100  0.73445800  0.53511500  1
  Cu  Cu14  1  0.65665900  0.23445800  0.53511500  1
  Cu  Cu15  1  0.15665900  0.26554200  0.46488500  1
  C  C16  1  0.28707400  0.49817900  0.39110200  1
  C  C17  1  0.78707400  0.00182100  0.60889800  1
  C  C18  1  0.71292600  0.50182100  0.60889800  1
  C  C19  1  0.21292600  0.99817900  0.39110200  1
  C  C20  1  0.31974100  0.81633400  0.11162000  1
  C  C21  1  0.81974100  0.68366600  0.88838000  1
  C  C22  1  0.68025900  0.18366600  0.88838000  1
  C  C23  1  0.18025900  0.31633400  0.11162000  1
  C  C24  1  0.98811000  0.30285700  0.38508600  1
  C  C25  1  0.48811000  0.19714300  0.61491400  1
  C  C26  1  0.01189000  0.69714300  0.61491400  1
  C  C27  1  0.51189000  0.80285700  0.38508600  1
  C  C28  1  0.01599700  0.77150000  0.14198400  1
  C  C29  1  0.51599700  0.72850000  0.85801600  1
  C  C30  1  0.98400300  0.22850000  0.85801600  1
  C  C31  1  0.48400300  0.27150000  0.14198400  1
  C  C32  1  0.35028000  0.21988900  0.87290100  1
  C  C33  1  0.85028000  0.28011100  0.12709900  1
  C  C34  1  0.64972000  0.78011100  0.12709900  1
  C  C35  1  0.14972000  0.71988900  0.87290100  1
  C  C36  1  0.33773600  0.67693500  0.65045100  1
  C  C37  1  0.83773600  0.82306500  0.34954900  1
  C  C38  1  0.66226400  0.32306500  0.34954900  1
  C  C39  1  0.16226400  0.17693500  0.65045100  1
