# generated using pymatgen
data_Cu8Ni5C2
_symmetry_space_group_name_H-M   'P 1'
_cell_length_a   9.44846900
_cell_length_b   12.83358400
_cell_length_c   16.03507900
_cell_angle_alpha   90.00000000
_cell_angle_beta   90.00000000
_cell_angle_gamma   90.00000000
_symmetry_Int_Tables_number   1
_chemical_formula_structural   Cu8Ni5C2
_chemical_formula_sum   'Cu32 Ni20 C8'
_cell_volume   1944.37712891
_cell_formula_units_Z   4
loop_
 _symmetry_equiv_pos_site_id
 _symmetry_equiv_pos_as_xyz
  1  'x, y, z'
loop_
 _atom_site_type_symbol
 _atom_site_label
 _atom_site_symmetry_multiplicity
 _atom_site_fract_x
 _atom_site_fract_y
 _atom_site_fract_z
 _atom_site_occupancy
  C  C0  1  0.50000000  0.12682900  0.88025100  1
  C  C1  1  0.50000000  0.87317100  0.11974900  1
  C  C2  1  0.50000000  0.37317100  0.38025100  1
  C  C3  1  0.50000000  0.62682900  0.61974900  1
  C  C4  1  0.00000000  0.18571900  0.48779500  1
  C  C5  1  0.00000000  0.81428100  0.51220500  1
  C  C6  1  0.00000000  0.31428100  0.98779500  1
  C  C7  1  0.00000000  0.68571900  0.01220500  1
  Ni  Ni8  1  0.00000000  0.99691500  0.61913500  1
  Ni  Ni9  1  0.00000000  0.00308500  0.38086500  1
  Ni  Ni10  1  0.00000000  0.50308500  0.11913500  1
  Ni  Ni11  1  0.00000000  0.49691500  0.88086500  1
  Ni  Ni12  1  0.69799300  0.21968600  0.50549600  1
  Ni  Ni13  1  0.69799300  0.78031400  0.49450400  1
  Ni  Ni14  1  0.30200700  0.28031400  0.00549600  1
  Ni  Ni15  1  0.30200700  0.71968600  0.99450400  1
  Ni  Ni16  1  0.30200700  0.78031400  0.49450400  1
  Ni  Ni17  1  0.30200700  0.21968600  0.50549600  1
  Ni  Ni18  1  0.69799300  0.71968600  0.99450400  1
  Ni  Ni19  1  0.69799300  0.28031400  0.00549600  1
  Ni  Ni20  1  0.00000000  0.30612700  0.63257500  1
  Ni  Ni21  1  0.00000000  0.69387300  0.36742500  1
  Ni  Ni22  1  0.00000000  0.19387300  0.13257500  1
  Ni  Ni23  1  0.00000000  0.80612700  0.86742500  1
  Ni  Ni24  1  0.00000000  0.34304800  0.37602200  1
  Ni  Ni25  1  0.00000000  0.65695200  0.62397800  1
  Ni  Ni26  1  0.00000000  0.15695200  0.87602200  1
  Ni  Ni27  1  0.00000000  0.84304800  0.12397800  1
  Cu  Cu28  1  0.64562900  0.99556400  0.95986800  1
  Cu  Cu29  1  0.64562900  0.00443600  0.04013200  1
  Cu  Cu30  1  0.35437100  0.50443600  0.45986800  1
  Cu  Cu31  1  0.35437100  0.49556400  0.54013200  1
  Cu  Cu32  1  0.35437100  0.00443600  0.04013200  1
  Cu  Cu33  1  0.35437100  0.99556400  0.95986800  1
  Cu  Cu34  1  0.64562900  0.49556400  0.54013200  1
  Cu  Cu35  1  0.64562900  0.50443600  0.45986800  1
  Cu  Cu36  1  0.50000000  0.28829200  0.95145000  1
  Cu  Cu37  1  0.50000000  0.71170800  0.04855000  1
  Cu  Cu38  1  0.50000000  0.21170800  0.45145000  1
  Cu  Cu39  1  0.50000000  0.78829200  0.54855000  1
  Cu  Cu40  1  0.50000000  0.00801100  0.53790300  1
  Cu  Cu41  1  0.50000000  0.99198900  0.46209700  1
  Cu  Cu42  1  0.50000000  0.49198900  0.03790300  1
  Cu  Cu43  1  0.50000000  0.50801100  0.96209700  1
  Cu  Cu44  1  0.67472400  0.16951100  0.74925200  1
  Cu  Cu45  1  0.67472400  0.83048900  0.25074800  1
  Cu  Cu46  1  0.32527600  0.33048900  0.24925200  1
  Cu  Cu47  1  0.32527600  0.66951100  0.75074800  1
  Cu  Cu48  1  0.32527600  0.83048900  0.25074800  1
  Cu  Cu49  1  0.32527600  0.16951100  0.74925200  1
  Cu  Cu50  1  0.67472400  0.66951100  0.75074800  1
  Cu  Cu51  1  0.67472400  0.33048900  0.24925200  1
  Cu  Cu52  1  0.71472900  0.75930100  0.76847500  1
  Cu  Cu53  1  0.71472900  0.24069900  0.23152500  1
  Cu  Cu54  1  0.28527100  0.74069900  0.26847500  1
  Cu  Cu55  1  0.28527100  0.25930100  0.73152500  1
  Cu  Cu56  1  0.28527100  0.24069900  0.23152500  1
  Cu  Cu57  1  0.28527100  0.75930100  0.76847500  1
  Cu  Cu58  1  0.71472900  0.25930100  0.73152500  1
  Cu  Cu59  1  0.71472900  0.74069900  0.26847500  1
