# generated using pymatgen
data_Cu20Ni49C18
_symmetry_space_group_name_H-M   'P 1'
_cell_length_a   8.79716220
_cell_length_b   8.79716220
_cell_length_c   21.53326200
_cell_angle_alpha   90.00000000
_cell_angle_beta   90.00000000
_cell_angle_gamma   120.00000148
_symmetry_Int_Tables_number   1
_chemical_formula_structural   Cu20Ni49C18
_chemical_formula_sum   'Cu20 Ni49 C18'
_cell_volume   1443.19710292
_cell_formula_units_Z   1
loop_
 _symmetry_equiv_pos_site_id
 _symmetry_equiv_pos_as_xyz
  1  'x, y, z'
loop_
 _atom_site_type_symbol
 _atom_site_label
 _atom_site_symmetry_multiplicity
 _atom_site_fract_x
 _atom_site_fract_y
 _atom_site_fract_z
 _atom_site_occupancy
  C  C0  1  0.46983400  0.53016600  0.23487200  1
  C  C1  1  0.80358500  0.19641500  0.90188700  1
  C  C2  1  0.13650900  0.86349100  0.56826100  1
  C  C3  1  0.19641500  0.39282900  0.09811300  1
  C  C4  1  0.53016600  0.06033200  0.76512800  1
  C  C5  1  0.86349100  0.72698200  0.43173900  1
  C  C6  1  0.06033200  0.53016600  0.23487200  1
  C  C7  1  0.39282900  0.19641500  0.90188700  1
  C  C8  1  0.72698200  0.86349100  0.56826100  1
  C  C9  1  0.19641500  0.80358500  0.09811300  1
  C  C10  1  0.53016600  0.46983400  0.76512800  1
  C  C11  1  0.86349100  0.13650900  0.43173900  1
  C  C12  1  0.46983400  0.93966800  0.23487200  1
  C  C13  1  0.80358500  0.60717100  0.90188700  1
  C  C14  1  0.13650900  0.27301800  0.56826100  1
  C  C15  1  0.60717100  0.80358500  0.09811300  1
  C  C16  1  0.93966800  0.46983400  0.76512800  1
  C  C17  1  0.27301800  0.13650900  0.43173900  1
  Ni  Ni18  1  0.82714100  0.65428200  0.29308400  1
  Ni  Ni19  1  0.16135100  0.32270300  0.95982900  1
  Ni  Ni20  1  0.49381200  0.98762500  0.62660700  1
  Ni  Ni21  1  0.82714100  0.17285900  0.29308400  1
  Ni  Ni22  1  0.16135100  0.83864900  0.95982900  1
  Ni  Ni23  1  0.49381200  0.50618800  0.62660700  1
  Ni  Ni24  1  0.00000000  0.00000000  0.12086600  1
  Ni  Ni25  1  0.33333300  0.66666700  0.78700200  1
  Ni  Ni26  1  0.66666700  0.33333300  0.45355700  1
  Ni  Ni27  1  0.34571800  0.17285900  0.29308400  1
  Ni  Ni28  1  0.67729700  0.83864900  0.95982900  1
  Ni  Ni29  1  0.01237500  0.50618800  0.62660700  1
  Ni  Ni30  1  0.83864900  0.67729700  0.04017100  1
  Ni  Ni31  1  0.17285900  0.34571800  0.70691600  1
  Ni  Ni32  1  0.50618800  0.01237500  0.37339300  1
  Ni  Ni33  1  0.83864900  0.16135100  0.04017100  1
  Ni  Ni34  1  0.17285900  0.82714100  0.70691600  1
  Ni  Ni35  1  0.50618800  0.49381200  0.37339300  1
  Ni  Ni36  1  0.66666700  0.33333300  0.21299800  1
  Ni  Ni37  1  0.00000000  0.00000000  0.87913400  1
  Ni  Ni38  1  0.33333300  0.66666700  0.54644300  1
  Ni  Ni39  1  0.32270300  0.16135100  0.04017100  1
  Ni  Ni40  1  0.65428200  0.82714100  0.70691600  1
  Ni  Ni41  1  0.98762500  0.49381200  0.37339300  1
  Ni  Ni42  1  0.09680700  0.19361400  0.22560800  1
  Ni  Ni43  1  0.43046800  0.86093600  0.89254300  1
  Ni  Ni44  1  0.76345600  0.52691300  0.55915600  1
  Ni  Ni45  1  0.09680700  0.90319300  0.22560800  1
  Ni  Ni46  1  0.43046800  0.56953200  0.89254300  1
  Ni  Ni47  1  0.76345600  0.23654400  0.55915600  1
  Ni  Ni48  1  0.00000000  0.00000000  0.32267100  1
  Ni  Ni49  1  0.33333300  0.66666700  0.98949700  1
  Ni  Ni50  1  0.66666700  0.33333300  0.65599900  1
  Ni  Ni51  1  0.80638600  0.90319300  0.22560800  1
  Ni  Ni52  1  0.13906400  0.56953200  0.89254300  1
  Ni  Ni53  1  0.47308700  0.23654400  0.55915600  1
  Ni  Ni54  1  0.56953200  0.13906400  0.10745700  1
  Ni  Ni55  1  0.90319300  0.80638600  0.77439200  1
  Ni  Ni56  1  0.23654400  0.47308700  0.44084400  1
  Ni  Ni57  1  0.56953200  0.43046800  0.10745700  1
  Ni  Ni58  1  0.90319300  0.09680700  0.77439200  1
  Ni  Ni59  1  0.23654400  0.76345600  0.44084400  1
  Ni  Ni60  1  0.66666700  0.33333300  0.01050300  1
  Ni  Ni61  1  0.00000000  0.00000000  0.67732900  1
  Ni  Ni62  1  0.33333300  0.66666700  0.34400100  1
  Ni  Ni63  1  0.86093600  0.43046800  0.10745700  1
  Ni  Ni64  1  0.19361400  0.09680700  0.77439200  1
  Ni  Ni65  1  0.52691300  0.76345600  0.44084400  1
  Ni  Ni66  1  0.00000000  0.00000000  0.00000000  1
  Cu  Cu67  1  0.16659400  0.83340600  0.33323800  1
  Cu  Cu68  1  0.50000000  0.50000000  0.00000000  1
  Cu  Cu69  1  0.83340600  0.16659400  0.66676200  1
  Cu  Cu70  1  0.83327100  0.66654100  0.16653300  1
  Cu  Cu71  1  0.16672900  0.33345900  0.83346700  1
  Cu  Cu72  1  0.50000000  0.00000000  0.50000000  1
  Cu  Cu73  1  0.66681200  0.83340600  0.33323800  1
  Cu  Cu74  1  0.00000000  0.50000000  0.00000000  1
  Cu  Cu75  1  0.33318800  0.16659400  0.66676200  1
  Cu  Cu76  1  0.83327100  0.16672900  0.16653300  1
  Cu  Cu77  1  0.16672900  0.83327100  0.83346700  1
  Cu  Cu78  1  0.50000000  0.50000000  0.50000000  1
  Cu  Cu79  1  0.50000000  0.00000000  0.00000000  1
  Cu  Cu80  1  0.83340600  0.66681200  0.66676200  1
  Cu  Cu81  1  0.16659400  0.33318800  0.33323800  1
  Cu  Cu82  1  0.33345900  0.16672900  0.16653300  1
  Cu  Cu83  1  0.66654100  0.83327100  0.83346700  1
  Cu  Cu84  1  0.00000000  0.50000000  0.50000000  1
  Cu  Cu85  1  0.33333300  0.66666700  0.66680300  1
  Cu  Cu86  1  0.66666700  0.33333300  0.33319700  1
