# generated using pymatgen
data_Cu2Ni3C7
_symmetry_space_group_name_H-M   'P 1'
_cell_length_a   14.22797007
_cell_length_b   14.22797007
_cell_length_c   14.22797007
_cell_angle_alpha   158.09512325
_cell_angle_beta   158.09512325
_cell_angle_gamma   31.17291947
_symmetry_Int_Tables_number   1
_chemical_formula_structural   Cu2Ni3C7
_chemical_formula_sum   'Cu2 Ni3 C7'
_cell_volume   400.58729338
_cell_formula_units_Z   1
loop_
 _symmetry_equiv_pos_site_id
 _symmetry_equiv_pos_as_xyz
  1  'x, y, z'
loop_
 _atom_site_type_symbol
 _atom_site_label
 _atom_site_symmetry_multiplicity
 _atom_site_fract_x
 _atom_site_fract_y
 _atom_site_fract_z
 _atom_site_occupancy
  Ni  Ni0  1  0.31674800  0.31674800  0.00000000  1
  Ni  Ni1  1  0.68325200  0.68325200  0.00000000  1
  Ni  Ni2  1  0.50000000  0.50000000  0.00000000  1
  Cu  Cu3  1  0.09966500  0.09966500  0.00000000  1
  Cu  Cu4  1  0.90033500  0.90033500  0.00000000  1
  C  C5  1  0.59626700  0.09626700  0.50000000  1
  C  C6  1  0.40373300  0.90373300  0.50000000  1
  C  C7  1  0.09626700  0.59626700  0.50000000  1
  C  C8  1  0.90373300  0.40373300  0.50000000  1
  C  C9  1  0.19807700  0.19807700  0.00000000  1
  C  C10  1  0.80192300  0.80192300  0.00000000  1
  C  C11  1  0.00000000  0.00000000  0.00000000  1
