# generated using pymatgen
data_CuNiC3
_symmetry_space_group_name_H-M   'P 1'
_cell_length_a   9.65559012
_cell_length_b   10.19567215
_cell_length_c   10.50062916
_cell_angle_alpha   88.81757558
_cell_angle_beta   96.66938364
_cell_angle_gamma   87.76435528
_symmetry_Int_Tables_number   1
_chemical_formula_structural   CuNiC3
_chemical_formula_sum   'Cu16 Ni16 C48'
_cell_volume   1025.63001343
_cell_formula_units_Z   16
loop_
 _symmetry_equiv_pos_site_id
 _symmetry_equiv_pos_as_xyz
  1  'x, y, z'
loop_
 _atom_site_type_symbol
 _atom_site_label
 _atom_site_symmetry_multiplicity
 _atom_site_fract_x
 _atom_site_fract_y
 _atom_site_fract_z
 _atom_site_occupancy
  Ni  Ni0  1  0.83989145  0.87642873  0.49220314  1
  Ni  Ni1  1  0.66779882  0.33062339  0.93932273  1
  Ni  Ni2  1  0.76551263  0.21929025  0.18223611  1
  Ni  Ni3  1  0.58636933  0.46192213  0.27861835  1
  Ni  Ni4  1  0.91038147  0.13005944  0.70423650  1
  Ni  Ni5  1  0.21663547  0.56882096  0.18208691  1
  Ni  Ni6  1  0.98778654  0.80671307  0.74382025  1
  Ni  Ni7  1  0.14115060  0.32405753  0.61362472  1
  Ni  Ni8  1  0.04771345  0.08324128  0.37463425  1
  Ni  Ni9  1  0.79717108  0.65096473  0.27638689  1
  Ni  Ni10  1  0.37510068  0.47599451  0.72888395  1
  Ni  Ni11  1  0.78822675  0.37234569  0.50800217  1
  Ni  Ni12  1  0.75179730  0.56138704  0.76546053  1
  Ni  Ni13  1  0.19829778  0.15710251  0.12284279  1
  Ni  Ni14  1  0.56129885  0.94093648  0.40969460  1
  Ni  Ni15  1  0.30598515  0.01318898  0.54226284  1
  Cu  Cu16  1  0.59194571  0.60555927  0.97116224  1
  Cu  Cu17  1  0.46776971  0.76107871  0.15348486  1
  Cu  Cu18  1  0.14935519  0.87905014  0.01120540  1
  Cu  Cu19  1  0.87570456  0.94300954  0.16629796  1
  Cu  Cu20  1  0.46284446  0.29141399  0.51999769  1
  Cu  Cu21  1  0.71922713  0.93364998  0.87859159  1
  Cu  Cu22  1  0.38970697  0.34827348  0.04743800  1
  Cu  Cu23  1  0.37377860  0.82393724  0.82923814  1
  Cu  Cu24  1  0.48569491  0.66835736  0.56944118  1
  Cu  Cu25  1  0.90050978  0.68472653  0.98517804  1
  Cu  Cu26  1  0.96267844  0.40338839  0.05766526  1
  Cu  Cu27  1  0.48462447  0.05522119  0.06451573  1
  Cu  Cu28  1  0.02558398  0.39838339  0.31819364  1
  Cu  Cu29  1  0.26716196  0.87438196  0.30190570  1
  Cu  Cu30  1  0.14829166  0.57155178  0.84752896  1
  Cu  Cu31  1  0.33185862  0.14470350  0.82108509  1
  C  C32  1  0.24223825  0.75207749  0.15665682  1
  C  C33  1  0.97860893  0.39754494  0.49249031  1
  C  C34  1  0.05869361  0.22239271  0.74385244  1
  C  C35  1  0.70153540  0.94994470  0.55848268  1
  C  C36  1  0.71087388  0.80328234  0.37112331  1
  C  C37  1  0.79544759  0.49063366  0.94491829  1
  C  C38  1  0.69590665  0.06058193  0.14515478  1
  C  C39  1  0.42564460  0.70317422  0.97516492  1
  C  C40  1  0.62419294  0.62329236  0.16485058  1
  C  C41  1  0.44659510  0.09287201  0.47513434  1
  C  C42  1  0.08237862  0.56850501  0.02930912  1
  C  C43  1  0.88784306  0.75357351  0.15182684  1
  C  C44  1  0.34393164  0.28706612  0.68123862  1
  C  C45  1  0.39527943  0.67889588  0.71925315  1
  C  C46  1  0.96673608  0.97455143  0.65019585  1
  C  C47  1  0.83296572  0.19147981  0.55882264  1
  C  C48  1  0.56914072  0.47533075  0.82695156  1
  C  C49  1  0.50070548  0.21814550  0.93825444  1
  C  C50  1  0.38642529  0.18673905  0.16234502  1
  C  C51  1  0.71925702  0.53362111  0.39978832  1
  C  C52  1  0.94683385  0.75233080  0.56092948  1
  C  C53  1  0.78842892  0.10721208  0.80746091  1
  C  C54  1  0.14873570  0.55234758  0.32569445  1
  C  C55  1  0.67377111  0.67417841  0.64381089  1
  C  C56  1  0.84059838  0.24432130  0.03136311  1
  C  C57  1  0.26224175  0.04064213  0.98394767  1
  C  C58  1  0.16860044  0.16964763  0.50369545  1
  C  C59  1  0.17206002  0.76995086  0.83970929  1
  C  C60  1  0.42512050  0.83646213  0.48161588  1
  C  C61  1  0.62092932  0.31576347  0.40950348  1
  C  C62  1  0.88356406  0.49170751  0.21327214  1
  C  C63  1  0.30436972  0.45678678  0.90341170  1
  C  C64  1  0.77687796  0.41320078  0.67158086  1
  C  C65  1  0.43962937  0.48917953  0.55128281  1
  C  C66  1  0.90954614  0.22998761  0.30659159  1
  C  C67  1  0.12775507  0.32541615  0.17981481  1
  C  C68  1  0.63018510  0.34893433  0.12789928  1
  C  C69  1  0.31701721  0.97966203  0.71241998  1
  C  C70  1  0.16862591  0.49808734  0.68149549  1
  C  C71  1  0.89630039  0.96865329  0.36151906  1
  C  C72  1  0.08823626  0.02202711  0.19339428  1
  C  C73  1  0.93768543  0.86756793  0.91627963  1
  C  C74  1  0.45437837  0.93084394  0.23297270  1
  C  C75  1  0.94414727  0.62822060  0.80061451  1
  C  C76  1  0.70951061  0.72467561  0.89325747  1
  C  C77  1  0.16966415  0.93553157  0.44225886  1
  C  C78  1  0.52212671  0.94398519  0.92088369  1
  C  C79  1  0.38821876  0.48377862  0.19130225  1
