# generated using pymatgen
data_Cu5(Ni2C27)2
_symmetry_space_group_name_H-M   'P 1'
_cell_length_a   9.08943706
_cell_length_b   15.52156616
_cell_length_c   20.95514476
_cell_angle_alpha   90.00000000
_cell_angle_beta   90.00000000
_cell_angle_gamma   90.00000000
_symmetry_Int_Tables_number   1
_chemical_formula_structural   Cu5(Ni2C27)2
_chemical_formula_sum   'Cu20 Ni16 C216'
_cell_volume   2956.39999200
_cell_formula_units_Z   4
loop_
 _symmetry_equiv_pos_site_id
 _symmetry_equiv_pos_as_xyz
  1  'x, y, z'
loop_
 _atom_site_type_symbol
 _atom_site_label
 _atom_site_symmetry_multiplicity
 _atom_site_fract_x
 _atom_site_fract_y
 _atom_site_fract_z
 _atom_site_occupancy
  C  C0  1  0.53479258  0.26122955  0.90092490  1
  C  C1  1  0.46520742  0.73877045  0.40092490  1
  C  C2  1  0.53479258  0.23877045  0.09907510  1
  C  C3  1  0.46520742  0.76122955  0.59907510  1
  C  C4  1  0.46520742  0.73877045  0.09907510  1
  C  C5  1  0.53479258  0.26122955  0.59907510  1
  C  C6  1  0.46520742  0.76122955  0.90092490  1
  C  C7  1  0.53479258  0.23877045  0.40092490  1
  C  C8  1  0.91873384  0.25000000  0.00000000  1
  C  C9  1  0.08126616  0.75000000  0.50000000  1
  C  C10  1  0.08126616  0.75000000  0.00000000  1
  C  C11  1  0.91873384  0.25000000  0.50000000  1
  C  C12  1  0.97623708  0.44177802  0.64574644  1
  C  C13  1  0.02376292  0.55822198  0.14574644  1
  C  C14  1  0.97623708  0.05822198  0.35425356  1
  C  C15  1  0.02376292  0.94177802  0.85425356  1
  C  C16  1  0.02376292  0.55822198  0.35425356  1
  C  C17  1  0.97623708  0.44177802  0.85425356  1
  C  C18  1  0.02376292  0.94177802  0.64574644  1
  C  C19  1  0.97623708  0.05822198  0.14574644  1
  C  C20  1  0.81191467  0.42048459  0.68993841  1
  C  C21  1  0.18808533  0.57951541  0.18993841  1
  C  C22  1  0.81191467  0.07951541  0.31006159  1
  C  C23  1  0.18808533  0.92048459  0.81006159  1
  C  C24  1  0.18808533  0.57951541  0.31006159  1
  C  C25  1  0.81191467  0.42048459  0.81006159  1
  C  C26  1  0.18808533  0.92048459  0.68993841  1
  C  C27  1  0.81191467  0.07951541  0.18993841  1
  C  C28  1  0.98619990  0.57005552  0.58450284  1
  C  C29  1  0.01380010  0.42994448  0.08450284  1
  C  C30  1  0.98619990  0.92994448  0.41549716  1
  C  C31  1  0.01380010  0.07005552  0.91549716  1
  C  C32  1  0.01380010  0.42994448  0.41549716  1
  C  C33  1  0.98619990  0.57005552  0.91549716  1
  C  C34  1  0.01380010  0.07005552  0.58450284  1
  C  C35  1  0.98619990  0.92994448  0.08450284  1
  C  C36  1  0.83532992  0.63602994  0.58197485  1
  C  C37  1  0.16467008  0.36397006  0.08197485  1
  C  C38  1  0.83532992  0.86397006  0.41802515  1
  C  C39  1  0.16467008  0.13602994  0.91802515  1
  C  C40  1  0.16467008  0.36397006  0.41802515  1
  C  C41  1  0.83532992  0.63602994  0.91802515  1
  C  C42  1  0.16467008  0.13602994  0.58197485  1
  C  C43  1  0.83532992  0.86397006  0.08197485  1
  C  C44  1  0.61458714  0.50526863  0.68156866  1
  C  C45  1  0.38541286  0.49473137  0.18156866  1
  C  C46  1  0.61458714  0.99473137  0.31843134  1
  C  C47  1  0.38541286  0.00526863  0.81843134  1
  C  C48  1  0.38541286  0.49473137  0.31843134  1
  C  C49  1  0.61458714  0.50526863  0.81843134  1
  C  C50  1  0.38541286  0.00526863  0.68156866  1
  C  C51  1  0.61458714  0.99473137  0.18156866  1
  C  C52  1  0.60792023  0.58849213  0.62569429  1
  C  C53  1  0.39207977  0.41150787  0.12569429  1
  C  C54  1  0.60792023  0.91150787  0.37430571  1
  C  C55  1  0.39207977  0.08849213  0.87430571  1
  C  C56  1  0.39207977  0.41150787  0.37430571  1
  C  C57  1  0.60792023  0.58849213  0.87430571  1
  C  C58  1  0.39207977  0.08849213  0.62569429  1
  C  C59  1  0.60792023  0.91150787  0.12569429  1
  C  C60  1  0.21449638  0.23859547  0.79188602  1
  C  C61  1  0.78550362  0.76140453  0.29188602  1
  C  C62  1  0.21449638  0.26140453  0.20811398  1
  C  C63  1  0.78550362  0.73859547  0.70811398  1
  C  C64  1  0.78550362  0.76140453  0.20811398  1
  C  C65  1  0.21449638  0.23859547  0.70811398  1
  C  C66  1  0.78550362  0.73859547  0.79188602  1
  C  C67  1  0.21449638  0.26140453  0.29188602  1
  C  C68  1  0.82443267  0.24365294  0.80616281  1
  C  C69  1  0.17556733  0.75634706  0.30616281  1
  C  C70  1  0.82443267  0.25634706  0.19383719  1
  C  C71  1  0.17556733  0.74365294  0.69383719  1
  C  C72  1  0.17556733  0.75634706  0.19383719  1
  C  C73  1  0.82443267  0.24365294  0.69383719  1
  C  C74  1  0.17556733  0.74365294  0.80616281  1
  C  C75  1  0.82443267  0.25634706  0.30616281  1
  C  C76  1  0.99119142  0.24666475  0.84836149  1
  C  C77  1  0.00880858  0.75333525  0.34836149  1
  C  C78  1  0.99119142  0.25333525  0.15163851  1
  C  C79  1  0.00880858  0.74666475  0.65163851  1
  C  C80  1  0.00880858  0.75333525  0.15163851  1
  C  C81  1  0.99119142  0.24666475  0.65163851  1
  C  C82  1  0.00880858  0.74666475  0.84836149  1
  C  C83  1  0.99119142  0.25333525  0.34836149  1
  C  C84  1  0.20233229  0.41257996  0.79306646  1
  C  C85  1  0.79766771  0.58742004  0.29306646  1
  C  C86  1  0.20233229  0.08742004  0.20693354  1
  C  C87  1  0.79766771  0.91257996  0.70693354  1
  C  C88  1  0.79766771  0.58742004  0.20693354  1
  C  C89  1  0.20233229  0.41257996  0.70693354  1
  C  C90  1  0.79766771  0.91257996  0.79306646  1
  C  C91  1  0.20233229  0.08742004  0.29306646  1
  C  C92  1  0.27970643  0.52684330  0.65412663  1
  C  C93  1  0.72029357  0.47315670  0.15412663  1
  C  C94  1  0.27970643  0.97315670  0.34587337  1
  C  C95  1  0.72029357  0.02684330  0.84587337  1
  C  C96  1  0.72029357  0.47315670  0.34587337  1
  C  C97  1  0.27970643  0.52684330  0.84587337  1
  C  C98  1  0.72029357  0.02684330  0.65412663  1
  C  C99  1  0.27970643  0.97315670  0.15412663  1
  C  C100  1  0.34547101  0.62074891  0.69268662  1
  C  C101  1  0.65452899  0.37925109  0.19268662  1
  C  C102  1  0.34547101  0.87925109  0.30731338  1
  C  C103  1  0.65452899  0.12074891  0.80731338  1
  C  C104  1  0.65452899  0.37925109  0.30731338  1
  C  C105  1  0.34547101  0.62074891  0.80731338  1
  C  C106  1  0.65452899  0.12074891  0.69268662  1
  C  C107  1  0.34547101  0.87925109  0.19268662  1
  Ni  Ni108  1  0.80697339  0.52795483  0.63598405  1
  Ni  Ni109  1  0.19302661  0.47204517  0.13598405  1
  Ni  Ni110  1  0.80697339  0.97204517  0.36401595  1
  Ni  Ni111  1  0.19302661  0.02795483  0.86401595  1
  Ni  Ni112  1  0.19302661  0.47204517  0.36401595  1
  Ni  Ni113  1  0.80697339  0.52795483  0.86401595  1
  Ni  Ni114  1  0.19302661  0.02795483  0.63598405  1
  Ni  Ni115  1  0.80697339  0.97204517  0.13598405  1
  Ni  Ni116  1  0.00993058  0.23789713  0.75000000  1
  Ni  Ni117  1  0.99006942  0.76210287  0.25000000  1
  Ni  Ni118  1  0.00993058  0.26210287  0.25000000  1
  Ni  Ni119  1  0.99006942  0.73789713  0.75000000  1
  Ni  Ni120  1  0.28759836  0.51824734  0.75000000  1
  Ni  Ni121  1  0.71240164  0.48175266  0.25000000  1
  Ni  Ni122  1  0.28759836  0.98175266  0.25000000  1
  Ni  Ni123  1  0.71240164  0.01824734  0.75000000  1
  Cu  Cu124  1  0.21166223  0.34342606  0.93035952  1
  Cu  Cu125  1  0.78833777  0.65657394  0.43035952  1
  Cu  Cu126  1  0.21166223  0.15657394  0.06964048  1
  Cu  Cu127  1  0.78833777  0.84342606  0.56964048  1
  Cu  Cu128  1  0.78833777  0.65657394  0.06964048  1
  Cu  Cu129  1  0.21166223  0.34342606  0.56964048  1
  Cu  Cu130  1  0.78833777  0.84342606  0.93035952  1
  Cu  Cu131  1  0.21166223  0.15657394  0.43035952  1
  Cu  Cu132  1  0.66880635  0.10159322  0.98718000  1
  Cu  Cu133  1  0.33119365  0.89840678  0.48718000  1
  Cu  Cu134  1  0.66880635  0.39840678  0.01282000  1
  Cu  Cu135  1  0.33119365  0.60159322  0.51282000  1
  Cu  Cu136  1  0.33119365  0.89840678  0.01282000  1
  Cu  Cu137  1  0.66880635  0.10159322  0.51282000  1
  Cu  Cu138  1  0.33119365  0.60159322  0.98718000  1
  Cu  Cu139  1  0.66880635  0.39840678  0.48718000  1
  Cu  Cu140  1  0.54136142  0.30370937  0.75000000  1
  Cu  Cu141  1  0.45863858  0.69629063  0.25000000  1
  Cu  Cu142  1  0.54136142  0.19629063  0.25000000  1
  Cu  Cu143  1  0.45863858  0.80370937  0.75000000  1
  C  C144  1  0.87408481  0.46073374  0.66218091  1
  C  C145  1  0.12591519  0.53926626  0.16218091  1
  C  C146  1  0.87408481  0.03926626  0.33781909  1
  C  C147  1  0.12591519  0.96073374  0.83781909  1
  C  C148  1  0.12591519  0.53926626  0.33781909  1
  C  C149  1  0.87408481  0.46073374  0.83781909  1
  C  C150  1  0.12591519  0.96073374  0.66218091  1
  C  C151  1  0.87408481  0.03926626  0.16218091  1
  C  C152  1  0.87582412  0.57641826  0.59169305  1
  C  C153  1  0.12417588  0.42358174  0.09169305  1
  C  C154  1  0.87582412  0.92358174  0.40830695  1
  C  C155  1  0.12417588  0.07641826  0.90830695  1
  C  C156  1  0.12417588  0.42358174  0.40830695  1
  C  C157  1  0.87582412  0.57641826  0.90830695  1
  C  C158  1  0.12417588  0.07641826  0.59169305  1
  C  C159  1  0.87582412  0.92358174  0.09169305  1
  C  C160  1  0.66942957  0.54868543  0.65387150  1
  C  C161  1  0.33057043  0.45131457  0.15387150  1
  C  C162  1  0.66942957  0.95131457  0.34612850  1
  C  C163  1  0.33057043  0.04868543  0.84612850  1
  C  C164  1  0.33057043  0.45131457  0.34612850  1
  C  C165  1  0.66942957  0.54868543  0.84612850  1
  C  C166  1  0.33057043  0.04868543  0.65387150  1
  C  C167  1  0.66942957  0.95131457  0.15387150  1
  C  C168  1  0.15792046  0.23333683  0.75000000  1
  C  C169  1  0.84207954  0.76666317  0.25000000  1
  C  C170  1  0.15792046  0.26666317  0.25000000  1
  C  C171  1  0.84207954  0.73333683  0.75000000  1
  C  C172  1  0.93725669  0.23944165  0.80540266  1
  C  C173  1  0.06274331  0.76055835  0.30540266  1
  C  C174  1  0.93725669  0.26055835  0.19459734  1
  C  C175  1  0.06274331  0.73944165  0.69459734  1
  C  C176  1  0.06274331  0.76055835  0.19459734  1
  C  C177  1  0.93725669  0.23944165  0.69459734  1
  C  C178  1  0.06274331  0.73944165  0.80540266  1
  C  C179  1  0.93725669  0.26055835  0.30540266  1
  C  C180  1  0.23099913  0.43890744  0.75000000  1
  C  C181  1  0.76900087  0.56109256  0.25000000  1
  C  C182  1  0.23099913  0.06109256  0.25000000  1
  C  C183  1  0.76900087  0.93890744  0.75000000  1
  C  C184  1  0.31899133  0.55651092  0.69423121  1
  C  C185  1  0.68100867  0.44348908  0.19423121  1
  C  C186  1  0.31899133  0.94348908  0.30576879  1
  C  C187  1  0.68100867  0.05651092  0.80576879  1
  C  C188  1  0.68100867  0.44348908  0.30576879  1
  C  C189  1  0.31899133  0.55651092  0.80576879  1
  C  C190  1  0.68100867  0.05651092  0.69423121  1
  C  C191  1  0.31899133  0.94348908  0.19423121  1
  C  C192  1  0.52767336  0.14685066  0.94216815  1
  C  C193  1  0.47232664  0.85314934  0.44216815  1
  C  C194  1  0.52767336  0.35314934  0.05783185  1
  C  C195  1  0.47232664  0.64685066  0.55783185  1
  C  C196  1  0.47232664  0.85314934  0.05783185  1
  C  C197  1  0.52767336  0.14685066  0.55783185  1
  C  C198  1  0.47232664  0.64685066  0.94216815  1
  C  C199  1  0.52767336  0.35314934  0.44216815  1
  C  C200  1  0.61824683  0.24329190  0.81280289  1
  C  C201  1  0.38175317  0.75670810  0.31280289  1
  C  C202  1  0.61824683  0.25670810  0.18719711  1
  C  C203  1  0.38175317  0.74329190  0.68719711  1
  C  C204  1  0.38175317  0.75670810  0.18719711  1
  C  C205  1  0.61824683  0.24329190  0.68719711  1
  C  C206  1  0.38175317  0.74329190  0.81280289  1
  C  C207  1  0.61824683  0.25670810  0.31280289  1
  C  C208  1  0.32448833  0.28306833  0.87962978  1
  C  C209  1  0.67551167  0.71693167  0.37962978  1
  C  C210  1  0.32448833  0.21693167  0.12037022  1
  C  C211  1  0.67551167  0.78306833  0.62037022  1
  C  C212  1  0.67551167  0.71693167  0.12037022  1
  C  C213  1  0.32448833  0.28306833  0.62037022  1
  C  C214  1  0.67551167  0.78306833  0.87962978  1
  C  C215  1  0.32448833  0.21693167  0.37962978  1
  C  C216  1  0.65328589  0.35266010  0.93851057  1
  C  C217  1  0.34671411  0.64733990  0.43851057  1
  C  C218  1  0.65328589  0.14733990  0.06148943  1
  C  C219  1  0.34671411  0.85266010  0.56148943  1
  C  C220  1  0.34671411  0.64733990  0.06148943  1
  C  C221  1  0.65328589  0.35266010  0.56148943  1
  C  C222  1  0.34671411  0.85266010  0.93851057  1
  C  C223  1  0.65328589  0.14733990  0.43851057  1
  C  C224  1  0.82581335  0.15029959  0.95726549  1
  C  C225  1  0.17418665  0.84970041  0.45726549  1
  C  C226  1  0.82581335  0.34970041  0.04273451  1
  C  C227  1  0.17418665  0.65029959  0.54273451  1
  C  C228  1  0.17418665  0.84970041  0.04273451  1
  C  C229  1  0.82581335  0.15029959  0.54273451  1
  C  C230  1  0.17418665  0.65029959  0.95726549  1
  C  C231  1  0.82581335  0.34970041  0.45726549  1
  C  C232  1  0.05743098  0.27667566  0.92776449  1
  C  C233  1  0.94256902  0.72332434  0.42776449  1
  C  C234  1  0.05743098  0.22332434  0.07223551  1
  C  C235  1  0.94256902  0.77667566  0.57223551  1
  C  C236  1  0.94256902  0.72332434  0.07223551  1
  C  C237  1  0.05743098  0.27667566  0.57223551  1
  C  C238  1  0.94256902  0.77667566  0.92776449  1
  C  C239  1  0.05743098  0.22332434  0.42776449  1
  C  C240  1  0.16231567  0.42813016  0.88341864  1
  C  C241  1  0.83768433  0.57186984  0.38341864  1
  C  C242  1  0.16231567  0.07186984  0.11658136  1
  C  C243  1  0.83768433  0.92813016  0.61658136  1
  C  C244  1  0.83768433  0.57186984  0.11658136  1
  C  C245  1  0.16231567  0.42813016  0.61658136  1
  C  C246  1  0.83768433  0.92813016  0.88341864  1
  C  C247  1  0.16231567  0.07186984  0.38341864  1
  C  C248  1  0.64200194  0.39581005  0.75000000  1
  C  C249  1  0.35799806  0.60418995  0.25000000  1
  C  C250  1  0.64200194  0.10418995  0.25000000  1
  C  C251  1  0.35799806  0.89581005  0.75000000  1
