# generated using pymatgen
data_Cu4NiC
_symmetry_space_group_name_H-M   'P 1'
_cell_length_a   7.20071000
_cell_length_b   8.24246900
_cell_length_c   8.53490000
_cell_angle_alpha   90.00000000
_cell_angle_beta   90.00000000
_cell_angle_gamma   90.00000000
_symmetry_Int_Tables_number   1
_chemical_formula_structural   Cu4NiC
_chemical_formula_sum   'Cu16 Ni4 C4'
_cell_volume   506.56021795
_cell_formula_units_Z   4
loop_
 _symmetry_equiv_pos_site_id
 _symmetry_equiv_pos_as_xyz
  1  'x, y, z'
loop_
 _atom_site_type_symbol
 _atom_site_label
 _atom_site_symmetry_multiplicity
 _atom_site_fract_x
 _atom_site_fract_y
 _atom_site_fract_z
 _atom_site_occupancy
  C  C0  1  0.51173000  0.50548600  0.05706600  1
  C  C1  1  0.48827000  0.00548600  0.44293400  1
  C  C2  1  0.98827000  0.49451400  0.55706600  1
  C  C3  1  0.01173000  0.99451400  0.94293400  1
  Ni  Ni4  1  0.63080800  0.01785600  0.86129100  1
  Ni  Ni5  1  0.36919200  0.51785600  0.63870900  1
  Ni  Ni6  1  0.86919200  0.98214400  0.36129100  1
  Ni  Ni7  1  0.13080800  0.48214400  0.13870900  1
  Cu  Cu8  1  0.67700100  0.43580400  0.98016100  1
  Cu  Cu9  1  0.32299900  0.93580400  0.51983900  1
  Cu  Cu10  1  0.82299900  0.56419600  0.48016100  1
  Cu  Cu11  1  0.17700100  0.06419600  0.01983900  1
  Cu  Cu12  1  0.33093100  0.40795200  0.02460300  1
  Cu  Cu13  1  0.66906900  0.90795200  0.47539700  1
  Cu  Cu14  1  0.16906900  0.59204800  0.52460300  1
  Cu  Cu15  1  0.83093100  0.09204800  0.97539700  1
  Cu  Cu16  1  0.49736100  0.65299300  0.15415500  1
  Cu  Cu17  1  0.50263900  0.15299300  0.34584500  1
  Cu  Cu18  1  0.00263900  0.34700700  0.65415500  1
  Cu  Cu19  1  0.99736100  0.84700700  0.84584500  1
  Cu  Cu20  1  0.44197400  0.62673000  0.69075600  1
  Cu  Cu21  1  0.55802600  0.12673000  0.80924400  1
  Cu  Cu22  1  0.05802600  0.37327000  0.19075600  1
  Cu  Cu23  1  0.94197400  0.87327000  0.30924400  1
