# generated using pymatgen
data_Cu7Ni4
_symmetry_space_group_name_H-M   'P 1'
_cell_length_a   11.45338300
_cell_length_b   8.91431700
_cell_length_c   15.32341416
_cell_angle_alpha   87.47843437
_cell_angle_beta   90.00000000
_cell_angle_gamma   90.00000000
_symmetry_Int_Tables_number   1
_chemical_formula_structural   Cu7Ni4
_chemical_formula_sum   'Cu84 Ni48'
_cell_volume   1562.99173167
_cell_formula_units_Z   12
loop_
 _symmetry_equiv_pos_site_id
 _symmetry_equiv_pos_as_xyz
  1  'x, y, z'
loop_
 _atom_site_type_symbol
 _atom_site_label
 _atom_site_symmetry_multiplicity
 _atom_site_fract_x
 _atom_site_fract_y
 _atom_site_fract_z
 _atom_site_occupancy
  Ni  Ni0  1  0.71301900  0.11818400  0.39266500  1
  Ni  Ni1  1  0.21301900  0.88181600  0.60733500  1
  Ni  Ni2  1  0.86826800  0.26118000  0.46428200  1
  Ni  Ni3  1  0.36826800  0.73882000  0.53571800  1
  Ni  Ni4  1  0.07565800  0.17611500  0.45585200  1
  Ni  Ni5  1  0.57565800  0.82388500  0.54414800  1
  Ni  Ni6  1  0.21627100  0.02127800  0.40580100  1
  Ni  Ni7  1  0.71627100  0.97872200  0.59419900  1
  Ni  Ni8  1  0.28150600  0.79744800  0.32444000  1
  Ni  Ni9  1  0.78150600  0.20255200  0.67556000  1
  Ni  Ni10  1  0.13501100  0.64786800  0.24759800  1
  Ni  Ni11  1  0.63501100  0.35213200  0.75240200  1
  Ni  Ni12  1  0.70059700  0.05077000  0.20392200  1
  Ni  Ni13  1  0.20059700  0.94923000  0.79607800  1
  Ni  Ni14  1  0.53289600  0.93477100  0.13362500  1
  Ni  Ni15  1  0.03289600  0.06522900  0.86637500  1
  Ni  Ni16  1  0.40214800  0.71272000  0.11733200  1
  Ni  Ni17  1  0.90214800  0.28728000  0.88266800  1
  Ni  Ni18  1  0.33339400  0.46252200  0.17122400  1
  Ni  Ni19  1  0.83339400  0.53747800  0.82877600  1
  Ni  Ni20  1  0.34039100  0.25118200  0.28108600  1
  Ni  Ni21  1  0.84039100  0.74881800  0.71891400  1
  Ni  Ni22  1  0.42135900  0.13687200  0.41962900  1
  Ni  Ni23  1  0.92135900  0.86312800  0.58037100  1
  Ni  Ni24  1  0.57311200  0.26996200  0.50208600  1
  Ni  Ni25  1  0.07311200  0.73003800  0.49791400  1
  Ni  Ni26  1  0.70620300  0.48397200  0.51501700  1
  Ni  Ni27  1  0.20620300  0.51602800  0.48498300  1
  Ni  Ni28  1  0.79085200  0.72198500  0.45441500  1
  Ni  Ni29  1  0.29085200  0.27801500  0.54558500  1
  Ni  Ni30  1  0.92028700  0.49810400  0.32435900  1
  Ni  Ni31  1  0.42028700  0.50189600  0.67564100  1
  Ni  Ni32  1  0.79314200  0.33000000  0.24525300  1
  Ni  Ni33  1  0.29314200  0.67000000  0.75474700  1
  Ni  Ni34  1  0.65995800  0.28465100  0.11984900  1
  Ni  Ni35  1  0.15995800  0.71534900  0.88015100  1
  Ni  Ni36  1  0.56719100  0.37338500  0.98177000  1
  Ni  Ni37  1  0.06719100  0.62661500  0.01823000  1
  Ni  Ni38  1  0.53968500  0.57416000  0.86596300  1
  Ni  Ni39  1  0.03968500  0.42584000  0.13403700  1
  Ni  Ni40  1  0.59086400  0.82477900  0.80003800  1
  Ni  Ni41  1  0.09086400  0.17522100  0.19996200  1
  Ni  Ni42  1  0.73576300  0.98686500  0.87309800  1
  Ni  Ni43  1  0.23576300  0.01313500  0.12690200  1
  Ni  Ni44  1  0.86668100  0.03009700  0.99548000  1
  Ni  Ni45  1  0.36668100  0.96990300  0.00452000  1
  Ni  Ni46  1  0.95291000  0.94868700  0.13772500  1
  Ni  Ni47  1  0.45291000  0.05131300  0.86227500  1
  Cu  Cu48  1  0.82682500  0.95190700  0.34162700  1
  Cu  Cu49  1  0.32682500  0.04809300  0.65837300  1
  Cu  Cu50  1  0.80327500  0.08017800  0.38741600  1
  Cu  Cu51  1  0.30327500  0.91982200  0.61258400  1
  Cu  Cu52  1  0.89126800  0.16262500  0.42829100  1
  Cu  Cu53  1  0.39126800  0.83737500  0.57170900  1
  Cu  Cu54  1  0.00535800  0.11700400  0.42357900  1
  Cu  Cu55  1  0.50535800  0.88299600  0.57642100  1
  Cu  Cu56  1  0.03507100  0.99035200  0.37543000  1
  Cu  Cu57  1  0.53507100  0.00964800  0.62457000  1
  Cu  Cu58  1  0.15467400  0.95084900  0.37169100  1
  Cu  Cu59  1  0.65467400  0.04915100  0.62830900  1
  Cu  Cu60  1  0.18951600  0.82851800  0.32705000  1
  Cu  Cu61  1  0.68951600  0.17148200  0.67295000  1
  Cu  Cu62  1  0.10533300  0.74449600  0.28291800  1
  Cu  Cu63  1  0.60533300  0.25550400  0.71708200  1
  Cu  Cu64  1  0.98685700  0.78066100  0.28199800  1
  Cu  Cu65  1  0.48685700  0.21933900  0.71800200  1
  Cu  Cu66  1  0.94678400  0.90495200  0.33166400  1
  Cu  Cu67  1  0.44678400  0.09504800  0.66833600  1
  Cu  Cu68  1  0.72288000  0.87507000  0.30409400  1
  Cu  Cu69  1  0.22288000  0.12493000  0.69590600  1
  Cu  Cu70  1  0.66649600  0.94464600  0.23165700  1
  Cu  Cu71  1  0.16649600  0.05535400  0.76834300  1
  Cu  Cu72  1  0.57140500  0.87917900  0.19165200  1
  Cu  Cu73  1  0.07140500  0.12082100  0.80834800  1
  Cu  Cu74  1  0.52772100  0.73934000  0.22233900  1
  Cu  Cu75  1  0.02772100  0.26066000  0.77766100  1
  Cu  Cu76  1  0.57803400  0.67045200  0.29956300  1
  Cu  Cu77  1  0.07803400  0.32954800  0.70043700  1
  Cu  Cu78  1  0.43761300  0.66121200  0.17768600  1
  Cu  Cu79  1  0.93761300  0.33878800  0.82231400  1
  Cu  Cu80  1  0.39920200  0.52332500  0.20724700  1
  Cu  Cu81  1  0.89920200  0.47667500  0.79275300  1
  Cu  Cu82  1  0.44466400  0.45315400  0.28595700  1
  Cu  Cu83  1  0.94466400  0.54684600  0.71404300  1
  Cu  Cu84  1  0.53365200  0.52950500  0.33246700  1
  Cu  Cu85  1  0.03365200  0.47049500  0.66753300  1
  Cu  Cu86  1  0.40598400  0.31107800  0.31791900  1
  Cu  Cu87  1  0.90598400  0.68892200  0.68208100  1
  Cu  Cu88  1  0.45178900  0.24703000  0.39533100  1
  Cu  Cu89  1  0.95178900  0.75297000  0.60466900  1
  Cu  Cu90  1  0.53726500  0.32114800  0.44177700  1
  Cu  Cu91  1  0.03726500  0.67885200  0.55822300  1
  Cu  Cu92  1  0.58063300  0.46131500  0.41093600  1
  Cu  Cu93  1  0.08063300  0.53868500  0.58906400  1
  Cu  Cu94  1  0.67269200  0.53707100  0.45439800  1
  Cu  Cu95  1  0.17269200  0.46292900  0.54560200  1
  Cu  Cu96  1  0.71890400  0.66869300  0.42081300  1
  Cu  Cu97  1  0.21890400  0.33130700  0.57918700  1
  Cu  Cu98  1  0.67475300  0.74016700  0.34166800  1
  Cu  Cu99  1  0.17475300  0.25983300  0.65833200  1
  Cu  Cu100  1  0.90931600  0.68371700  0.22923800  1
  Cu  Cu101  1  0.40931600  0.31628300  0.77076200  1
  Cu  Cu102  1  0.88466400  0.53705000  0.26126700  1
  Cu  Cu103  1  0.38466400  0.46295000  0.73873300  1
  Cu  Cu104  1  0.81247800  0.44131300  0.21630700  1
  Cu  Cu105  1  0.31247800  0.55868700  0.78369300  1
  Cu  Cu106  1  0.76119700  0.48783200  0.13637200  1
  Cu  Cu107  1  0.26119700  0.51216800  0.86362800  1
  Cu  Cu108  1  0.78868100  0.63412400  0.10014800  1
  Cu  Cu109  1  0.28868100  0.36587600  0.89985200  1
  Cu  Cu110  1  0.68106700  0.39533400  0.09095300  1
  Cu  Cu111  1  0.18106700  0.60466600  0.90904700  1
  Cu  Cu112  1  0.62963600  0.44438100  0.01453100  1
  Cu  Cu113  1  0.12963600  0.55561900  0.98546900  1
  Cu  Cu114  1  0.65580800  0.58996900  0.97604700  1
  Cu  Cu115  1  0.15580800  0.41003100  0.02395300  1
  Cu  Cu116  1  0.73738300  0.68340700  0.01910000  1
  Cu  Cu117  1  0.23738300  0.31659300  0.98090000  1
  Cu  Cu118  1  0.60358400  0.64416200  0.89779900  1
  Cu  Cu119  1  0.10358400  0.35583800  0.10220100  1
  Cu  Cu120  1  0.63226200  0.78552000  0.86097900  1
  Cu  Cu121  1  0.13226200  0.21448000  0.13902100  1
  Cu  Cu122  1  0.71305000  0.87632100  0.90171400  1
  Cu  Cu123  1  0.21305000  0.12367900  0.09828600  1
  Cu  Cu124  1  0.76546800  0.82805400  0.98103400  1
  Cu  Cu125  1  0.26546800  0.17194600  0.01896600  1
  Cu  Cu126  1  0.84577400  0.92030900  0.02598000  1
  Cu  Cu127  1  0.34577400  0.07969100  0.97402000  1
  Cu  Cu128  1  0.89275100  0.87508300  0.10484500  1
  Cu  Cu129  1  0.39275100  0.12491700  0.89515500  1
  Cu  Cu130  1  0.86496900  0.73150500  0.14590700  1
  Cu  Cu131  1  0.36496900  0.26849500  0.85409300  1
