# generated using pymatgen
data_Cu6NiC11
_symmetry_space_group_name_H-M   'P 1'
_cell_length_a   7.41169871
_cell_length_b   7.51974255
_cell_length_c   8.58100236
_cell_angle_alpha   91.34559723
_cell_angle_beta   89.99999890
_cell_angle_gamma   119.52582486
_symmetry_Int_Tables_number   1
_chemical_formula_structural   Cu6NiC11
_chemical_formula_sum   'Cu12 Ni2 C22'
_cell_volume   415.99346153
_cell_formula_units_Z   2
loop_
 _symmetry_equiv_pos_site_id
 _symmetry_equiv_pos_as_xyz
  1  'x, y, z'
loop_
 _atom_site_type_symbol
 _atom_site_label
 _atom_site_symmetry_multiplicity
 _atom_site_fract_x
 _atom_site_fract_y
 _atom_site_fract_z
 _atom_site_occupancy
  C  C0  1  0.66537600  0.33272900  0.74959700  1
  C  C1  1  0.33264700  0.66727100  0.25040300  1
  C  C2  1  0.00220900  0.58099700  0.50145000  1
  C  C3  1  0.57867000  0.00000000  0.50000000  1
  C  C4  1  0.42121200  0.41900300  0.49855000  1
  C  C5  1  0.00323900  0.42172200  0.00143400  1
  C  C6  1  0.42157800  0.00000000  0.00000000  1
  C  C7  1  0.58151700  0.57827800  0.99856600  1
  C  C8  1  0.10316600  0.07541000  0.65790500  1
  C  C9  1  0.91649300  0.84938100  0.72175700  1
  C  C10  1  0.02775600  0.92459000  0.34209500  1
  C  C11  1  0.06711200  0.15061900  0.27824300  1
  C  C12  1  0.07747700  0.97035300  0.15745200  1
  C  C13  1  0.84775000  0.93345100  0.22209500  1
  C  C14  1  0.10712400  0.02964700  0.84254800  1
  C  C15  1  0.91429900  0.06654900  0.77790500  1
  C  C16  1  0.99870600  0.43181300  0.49765700  1
  C  C17  1  0.42928100  0.00000000  0.50000000  1
  C  C18  1  0.56689300  0.56818700  0.50234300  1
  C  C19  1  0.99959100  0.56714700  0.00125500  1
  C  C20  1  0.57132500  0.00000000  0.00000000  1
  C  C21  1  0.43244400  0.43285300  0.99874500  1
  Ni  Ni22  1  0.00786200  0.00385600  0.75005200  1
  Ni  Ni23  1  0.00400500  0.99614400  0.24994800  1
  Cu  Cu24  1  0.89018500  0.30270100  0.59820200  1
  Cu  Cu25  1  0.40328900  0.10914600  0.60329500  1
  Cu  Cu26  1  0.70059800  0.59590300  0.60754600  1
  Cu  Cu27  1  0.58748400  0.69729900  0.40179800  1
  Cu  Cu28  1  0.29414300  0.89085400  0.39670500  1
  Cu  Cu29  1  0.10469500  0.40409700  0.39245400  1
  Cu  Cu30  1  0.10890300  0.70365700  0.10408200  1
  Cu  Cu31  1  0.59785000  0.89689300  0.10398700  1
  Cu  Cu32  1  0.30079700  0.41257600  0.10104300  1
  Cu  Cu33  1  0.40524600  0.29634300  0.89591800  1
  Cu  Cu34  1  0.70095700  0.10310700  0.89601300  1
  Cu  Cu35  1  0.88822100  0.58742400  0.89895700  1
