# generated using pymatgen
data_CuNi3C8
_symmetry_space_group_name_H-M   'P 1'
_cell_length_a   3.25649217
_cell_length_b   3.25649217
_cell_length_c   36.85964700
_cell_angle_alpha   90.00000000
_cell_angle_beta   90.00000000
_cell_angle_gamma   120.00000353
_symmetry_Int_Tables_number   1
_chemical_formula_structural   CuNi3C8
_chemical_formula_sum   'Cu1 Ni3 C8'
_cell_volume   338.51807733
_cell_formula_units_Z   1
loop_
 _symmetry_equiv_pos_site_id
 _symmetry_equiv_pos_as_xyz
  1  'x, y, z'
loop_
 _atom_site_type_symbol
 _atom_site_label
 _atom_site_symmetry_multiplicity
 _atom_site_fract_x
 _atom_site_fract_y
 _atom_site_fract_z
 _atom_site_occupancy
  Ni  Ni0  1  0.33333300  0.66666700  0.09391300  1
  Ni  Ni1  1  0.33333300  0.66666700  0.46965500  1
  Ni  Ni2  1  0.66666700  0.33333300  0.65754900  1
  Cu  Cu3  1  0.66666700  0.33333300  0.28177200  1
  C  C4  1  0.33333300  0.66666700  0.32811000  1
  C  C5  1  0.33333300  0.66666700  0.70360600  1
  C  C6  1  0.33333300  0.66666700  0.23546100  1
  C  C7  1  0.33333300  0.66666700  0.61150500  1
  C  C8  1  0.66666700  0.33333300  0.05205200  1
  C  C9  1  0.66666700  0.33333300  0.42781500  1
  C  C10  1  0.66666700  0.33333300  0.13579000  1
  C  C11  1  0.66666700  0.33333300  0.51152000  1
