# generated using pymatgen
data_CuNi4C43
_symmetry_space_group_name_H-M   'P 1'
_cell_length_a   11.40924209
_cell_length_b   14.19624310
_cell_length_c   14.19624310
_cell_angle_alpha   80.70744926
_cell_angle_beta   66.30673369
_cell_angle_gamma   66.30673369
_symmetry_Int_Tables_number   1
_chemical_formula_structural   CuNi4C43
_chemical_formula_sum   'Cu4 Ni16 C172'
_cell_volume   1928.05491570
_cell_formula_units_Z   4
loop_
 _symmetry_equiv_pos_site_id
 _symmetry_equiv_pos_as_xyz
  1  'x, y, z'
loop_
 _atom_site_type_symbol
 _atom_site_label
 _atom_site_symmetry_multiplicity
 _atom_site_fract_x
 _atom_site_fract_y
 _atom_site_fract_z
 _atom_site_occupancy
  C  C0  1  0.12500000  0.75000000  0.25000000  1
  C  C1  1  0.62500000  0.75000000  0.25000000  1
  C  C2  1  0.37500000  0.25000000  0.75000000  1
  C  C3  1  0.87500000  0.25000000  0.75000000  1
  C  C4  1  0.42768180  0.25000000  0.14463640  1
  C  C5  1  0.32231820  0.85536360  0.75000000  1
  C  C6  1  0.17768180  0.75000000  0.64463640  1
  C  C7  1  0.07231820  0.35536360  0.25000000  1
  C  C8  1  0.57231820  0.75000000  0.85536360  1
  C  C9  1  0.67768180  0.14463640  0.25000000  1
  C  C10  1  0.82231820  0.25000000  0.35536360  1
  C  C11  1  0.92768180  0.64463640  0.75000000  1
  C  C12  1  0.89449318  0.51685704  0.41357213  1
  C  C13  1  0.32492234  0.58642787  0.48314296  1
  C  C14  1  0.91135022  0.48314296  0.91357213  1
  C  C15  1  0.80806530  0.08642787  0.51685704  1
  C  C16  1  0.10550682  0.48314296  0.58642787  1
  C  C17  1  0.67507766  0.41357213  0.51685704  1
  C  C18  1  0.08864978  0.51685704  0.08642787  1
  C  C19  1  0.19193470  0.91357213  0.48314296  1
  C  C20  1  0.39449318  0.91357213  0.01685704  1
  C  C21  1  0.82492234  0.98314296  0.08642787  1
  C  C22  1  0.41135022  0.41357213  0.98314296  1
  C  C23  1  0.30806530  0.01685704  0.58642787  1
  C  C24  1  0.60550682  0.08642787  0.98314296  1
  C  C25  1  0.17507766  0.01685704  0.91357213  1
  C  C26  1  0.58864978  0.58642787  0.01685704  1
  C  C27  1  0.69193470  0.98314296  0.41357213  1
  C  C28  1  0.90644051  0.63295329  0.39404313  1
  C  C29  1  0.43343693  0.60595687  0.36704671  1
  C  C30  1  0.03939380  0.36704671  0.89404313  1
  C  C31  1  0.80048364  0.10595687  0.63295329  1
  C  C32  1  0.09355949  0.36704671  0.60595687  1
  C  C33  1  0.56656307  0.39404313  0.63295329  1
  C  C34  1  0.96060620  0.63295329  0.10595687  1
  C  C35  1  0.19951636  0.89404313  0.36704671  1
  C  C36  1  0.40644051  0.89404313  0.13295329  1
  C  C37  1  0.93343693  0.86704671  0.10595687  1
  C  C38  1  0.53939380  0.39404313  0.86704671  1
  C  C39  1  0.30048364  0.13295329  0.60595687  1
  C  C40  1  0.59355949  0.10595687  0.86704671  1
  C  C41  1  0.06656307  0.13295329  0.89404313  1
  C  C42  1  0.46060620  0.60595687  0.13295329  1
  C  C43  1  0.69951636  0.86704671  0.39404313  1
  C  C44  1  0.75000826  0.62431007  0.46356240  1
  C  C45  1  0.33788073  0.53643760  0.37568993  1
  C  C46  1  0.87431833  0.37568993  0.96356240  1
  C  C47  1  0.71357066  0.03643760  0.62431007  1
  C  C48  1  0.24999174  0.37568993  0.53643760  1
  C  C49  1  0.66211927  0.46356240  0.62431007  1
  C  C50  1  0.12568167  0.62431007  0.03643760  1
  C  C51  1  0.28642934  0.96356240  0.37568993  1
  C  C52  1  0.25000826  0.96356240  0.12431007  1
  C  C53  1  0.83788073  0.87568993  0.03643760  1
  C  C54  1  0.37431833  0.46356240  0.87568993  1
  C  C55  1  0.21357066  0.12431007  0.53643760  1
  C  C56  1  0.74999174  0.03643760  0.87568993  1
  C  C57  1  0.16211927  0.12431007  0.96356240  1
  C  C58  1  0.62568167  0.53643760  0.12431007  1
  C  C59  1  0.78642934  0.87568993  0.46356240  1
  C  C60  1  0.87135806  0.58101719  0.51389501  1
  C  C61  1  0.46627027  0.48610499  0.41898281  1
  C  C62  1  0.95237526  0.41898281  0.01389501  1
  C  C63  1  0.88525308  0.98610499  0.58101719  1
  C  C64  1  0.12864194  0.41898281  0.48610499  1
  C  C65  1  0.53372973  0.51389501  0.58101719  1
  C  C66  1  0.04762474  0.58101719  0.98610499  1
  C  C67  1  0.11474692  0.01389501  0.41898281  1
  C  C68  1  0.37135806  0.01389501  0.08101719  1
  C  C69  1  0.96627027  0.91898281  0.98610499  1
  C  C70  1  0.45237526  0.51389501  0.91898281  1
  C  C71  1  0.38525308  0.08101719  0.48610499  1
  C  C72  1  0.62864194  0.98610499  0.91898281  1
  C  C73  1  0.03372973  0.08101719  0.01389501  1
  C  C74  1  0.54762474  0.48610499  0.08101719  1
  C  C75  1  0.61474692  0.91898281  0.51389501  1
  C  C76  1  0.25000000  0.20862207  0.29137793  1
  C  C77  1  0.25000000  0.70862207  0.79137793  1
  C  C78  1  0.95862207  0.79137793  0.79137793  1
  C  C79  1  0.04137793  0.20862207  0.20862207  1
  C  C80  1  0.75000000  0.79137793  0.70862207  1
  C  C81  1  0.75000000  0.29137793  0.20862207  1
  C  C82  1  0.45862207  0.29137793  0.29137793  1
  C  C83  1  0.54137793  0.70862207  0.70862207  1
  C  C84  1  0.26267834  0.47545979  0.22378090  1
  C  C85  1  0.46191903  0.77621910  0.52454021  1
  C  C86  1  0.23813813  0.52454021  0.72378090  1
  C  C87  1  0.98645924  0.27621910  0.47545979  1
  C  C88  1  0.73732166  0.52454021  0.77621910  1
  C  C89  1  0.53808097  0.22378090  0.47545979  1
  C  C90  1  0.76186187  0.47545979  0.27621910  1
  C  C91  1  0.01354076  0.72378090  0.52454021  1
  C  C92  1  0.76267834  0.72378090  0.97545979  1
  C  C93  1  0.96191903  0.02454021  0.27621910  1
  C  C94  1  0.73813813  0.22378090  0.02454021  1
  C  C95  1  0.48645924  0.97545979  0.77621910  1
  C  C96  1  0.23732166  0.27621910  0.02454021  1
  C  C97  1  0.03808097  0.97545979  0.72378090  1
  C  C98  1  0.26186187  0.77621910  0.97545979  1
  C  C99  1  0.51354076  0.02454021  0.22378090  1
  Ni  Ni100  1  0.85587077  0.58850919  0.44608214  1
  Ni  Ni101  1  0.39046209  0.55391786  0.41149081  1
  Ni  Ni102  1  0.94437995  0.41149081  0.94608214  1
  Ni  Ni103  1  0.80195291  0.05391786  0.58850919  1
  Ni  Ni104  1  0.14412923  0.41149081  0.55391786  1
  Ni  Ni105  1  0.60953791  0.44608214  0.58850919  1
  Ni  Ni106  1  0.05562005  0.58850919  0.05391786  1
  Ni  Ni107  1  0.19804709  0.94608214  0.41149081  1
  Ni  Ni108  1  0.35587077  0.94608214  0.08850919  1
  Ni  Ni109  1  0.89046209  0.91149081  0.05391786  1
  Ni  Ni110  1  0.44437995  0.44608214  0.91149081  1
  Ni  Ni111  1  0.30195291  0.08850919  0.55391786  1
  Ni  Ni112  1  0.64412923  0.05391786  0.91149081  1
  Ni  Ni113  1  0.10953791  0.08850919  0.94608214  1
  Ni  Ni114  1  0.55562005  0.55391786  0.08850919  1
  Ni  Ni115  1  0.69804709  0.91149081  0.44608214  1
  Cu  Cu116  1  0.87500000  0.75000000  0.25000000  1
  Cu  Cu117  1  0.37500000  0.75000000  0.25000000  1
  Cu  Cu118  1  0.12500000  0.25000000  0.75000000  1
  Cu  Cu119  1  0.62500000  0.25000000  0.75000000  1
  C  C120  1  0.37279789  0.39791015  0.13877201  1
  C  C121  1  0.40948005  0.86122799  0.60208985  1
  C  C122  1  0.27070804  0.60208985  0.63877201  1
  C  C123  1  0.01156990  0.36122799  0.39791015  1
  C  C124  1  0.62720211  0.60208985  0.86122799  1
  C  C125  1  0.59051995  0.13877201  0.39791015  1
  C  C126  1  0.72929196  0.39791015  0.36122799  1
  C  C127  1  0.98843010  0.63877201  0.60208985  1
  C  C128  1  0.87279789  0.63877201  0.89791015  1
  C  C129  1  0.90948005  0.10208985  0.36122799  1
  C  C130  1  0.77070804  0.13877201  0.10208985  1
  C  C131  1  0.51156990  0.89791015  0.86122799  1
  C  C132  1  0.12720211  0.36122799  0.10208985  1
  C  C133  1  0.09051995  0.89791015  0.63877201  1
  C  C134  1  0.22929196  0.86122799  0.89791015  1
  C  C135  1  0.48843010  0.10208985  0.13877201  1
  C  C136  1  0.29439731  0.44837366  0.31777894  1
  C  C137  1  0.56054990  0.68222106  0.55162634  1
  C  C138  1  0.24277097  0.55162634  0.81777894  1
  C  C139  1  0.11217624  0.18222106  0.44837366  1
  C  C140  1  0.70560269  0.55162634  0.68222106  1
  C  C141  1  0.43945010  0.31777894  0.44837366  1
  C  C142  1  0.75722903  0.44837366  0.18222106  1
  C  C143  1  0.88782376  0.81777894  0.55162634  1
  C  C144  1  0.79439731  0.81777894  0.94837366  1
  C  C145  1  0.06054990  0.05162634  0.18222106  1
  C  C146  1  0.74277097  0.31777894  0.05162634  1
  C  C147  1  0.61217624  0.94837366  0.68222106  1
  C  C148  1  0.20560269  0.18222106  0.05162634  1
  C  C149  1  0.93945010  0.94837366  0.81777894  1
  C  C150  1  0.25722903  0.68222106  0.94837366  1
  C  C151  1  0.38782376  0.05162634  0.31777894  1
  C  C152  1  0.12583214  0.46971417  0.24322886  1
  C  C153  1  0.33877516  0.75677114  0.53028583  1
  C  C154  1  0.09554630  0.53028583  0.74322886  1
  C  C155  1  0.86906099  0.25677114  0.46971417  1
  C  C156  1  0.87416786  0.53028583  0.75677114  1
  C  C157  1  0.66122484  0.24322886  0.46971417  1
  C  C158  1  0.90445370  0.46971417  0.25677114  1
  C  C159  1  0.13093901  0.74322886  0.53028583  1
  C  C160  1  0.62583214  0.74322886  0.96971417  1
  C  C161  1  0.83877516  0.03028583  0.25677114  1
  C  C162  1  0.59554630  0.24322886  0.03028583  1
  C  C163  1  0.36906099  0.96971417  0.75677114  1
  C  C164  1  0.37416786  0.25677114  0.03028583  1
  C  C165  1  0.16122484  0.96971417  0.74322886  1
  C  C166  1  0.40445370  0.75677114  0.96971417  1
  C  C167  1  0.63093901  0.03028583  0.24322886  1
  C  C168  1  0.25985525  0.57727856  0.18328998  1
  C  C169  1  0.52042379  0.81671002  0.42272144  1
  C  C170  1  0.33713381  0.42272144  0.68328998  1
  C  C171  1  0.94314523  0.31671002  0.57727856  1
  C  C172  1  0.74014475  0.42272144  0.81671002  1
  C  C173  1  0.47957621  0.18328998  0.57727856  1
  C  C174  1  0.66286619  0.57727856  0.31671002  1
  C  C175  1  0.05685477  0.68328998  0.42272144  1
  C  C176  1  0.75985525  0.68328998  0.07727856  1
  C  C177  1  0.02042379  0.92272144  0.31671002  1
  C  C178  1  0.83713381  0.18328998  0.92272144  1
  C  C179  1  0.44314523  0.07727856  0.81671002  1
  C  C180  1  0.24014475  0.31671002  0.92272144  1
  C  C181  1  0.97957621  0.07727856  0.68328998  1
  C  C182  1  0.16286619  0.81671002  0.07727856  1
  C  C183  1  0.55685477  0.92272144  0.18328998  1
  C  C184  1  0.25000000  0.26186328  0.23813672  1
  C  C185  1  0.25000000  0.76186328  0.73813672  1
  C  C186  1  0.01186328  0.73813672  0.73813672  1
  C  C187  1  0.98813672  0.26186328  0.26186328  1
  C  C188  1  0.75000000  0.73813672  0.76186328  1
  C  C189  1  0.75000000  0.23813672  0.26186328  1
  C  C190  1  0.51186328  0.23813672  0.23813672  1
  C  C191  1  0.48813672  0.76186328  0.76186328  1
