# generated using pymatgen
data_CuNi3C7
_symmetry_space_group_name_H-M   'P 1'
_cell_length_a   8.94509500
_cell_length_b   9.18481300
_cell_length_c   13.08966100
_cell_angle_alpha   90.00000000
_cell_angle_beta   90.00000000
_cell_angle_gamma   90.00000000
_symmetry_Int_Tables_number   1
_chemical_formula_structural   CuNi3C7
_chemical_formula_sum   'Cu8 Ni24 C56'
_cell_volume   1075.43378328
_cell_formula_units_Z   8
loop_
 _symmetry_equiv_pos_site_id
 _symmetry_equiv_pos_as_xyz
  1  'x, y, z'
loop_
 _atom_site_type_symbol
 _atom_site_label
 _atom_site_symmetry_multiplicity
 _atom_site_fract_x
 _atom_site_fract_y
 _atom_site_fract_z
 _atom_site_occupancy
  C  C0  1  0.91063700  0.26905500  0.68464000  1
  C  C1  1  0.58936300  0.76905500  0.31536000  1
  C  C2  1  0.41063700  0.73094500  0.81536000  1
  C  C3  1  0.08936300  0.23094500  0.18464000  1
  C  C4  1  0.08936300  0.73094500  0.31536000  1
  C  C5  1  0.41063700  0.23094500  0.68464000  1
  C  C6  1  0.58936300  0.26905500  0.18464000  1
  C  C7  1  0.91063700  0.76905500  0.81536000  1
  Ni  Ni8  1  0.86083700  0.39008100  0.99621500  1
  Ni  Ni9  1  0.63916300  0.89008100  0.00378500  1
  Ni  Ni10  1  0.36083700  0.60991900  0.50378500  1
  Ni  Ni11  1  0.13916300  0.10991900  0.49621500  1
  Ni  Ni12  1  0.13916300  0.60991900  0.00378500  1
  Ni  Ni13  1  0.36083700  0.10991900  0.99621500  1
  Ni  Ni14  1  0.63916300  0.39008100  0.49621500  1
  Ni  Ni15  1  0.86083700  0.89008100  0.50378500  1
  Ni  Ni16  1  0.66154300  0.96902200  0.66367400  1
  Ni  Ni17  1  0.83845700  0.46902200  0.33632600  1
  Ni  Ni18  1  0.16154300  0.03097800  0.83632600  1
  Ni  Ni19  1  0.33845700  0.53097800  0.16367400  1
  Ni  Ni20  1  0.33845700  0.03097800  0.33632600  1
  Ni  Ni21  1  0.16154300  0.53097800  0.66367400  1
  Ni  Ni22  1  0.83845700  0.96902200  0.16367400  1
  Ni  Ni23  1  0.66154300  0.46902200  0.83632600  1
  Ni  Ni24  1  0.63445900  0.01799100  0.84597900  1
  Ni  Ni25  1  0.86554100  0.51799100  0.15402100  1
  Ni  Ni26  1  0.13445900  0.98200900  0.65402100  1
  Ni  Ni27  1  0.36554100  0.48200900  0.34597900  1
  Ni  Ni28  1  0.36554100  0.98200900  0.15402100  1
  Ni  Ni29  1  0.13445900  0.48200900  0.84597900  1
  Ni  Ni30  1  0.86554100  0.01799100  0.34597900  1
  Ni  Ni31  1  0.63445900  0.51799100  0.65402100  1
  Cu  Cu32  1  0.82294900  0.10079300  0.98947400  1
  Cu  Cu33  1  0.67705100  0.60079300  0.01052600  1
  Cu  Cu34  1  0.32294900  0.89920700  0.51052600  1
  Cu  Cu35  1  0.17705100  0.39920700  0.48947400  1
  Cu  Cu36  1  0.17705100  0.89920700  0.01052600  1
  Cu  Cu37  1  0.32294900  0.39920700  0.98947400  1
  Cu  Cu38  1  0.67705100  0.10079300  0.48947400  1
  Cu  Cu39  1  0.82294900  0.60079300  0.51052600  1
  C  C40  1  0.86891500  0.20816200  0.92074700  1
  C  C41  1  0.63108500  0.70816200  0.07925300  1
  C  C42  1  0.36891500  0.79183800  0.57925300  1
  C  C43  1  0.13108500  0.29183800  0.42074700  1
  C  C44  1  0.13108500  0.79183800  0.07925300  1
  C  C45  1  0.36891500  0.29183800  0.92074700  1
  C  C46  1  0.63108500  0.20816200  0.42074700  1
  C  C47  1  0.86891500  0.70816200  0.57925300  1
  C  C48  1  0.94696500  0.32985100  0.96978400  1
  C  C49  1  0.55303500  0.82985100  0.03021600  1
  C  C50  1  0.44696500  0.67014900  0.53021600  1
  C  C51  1  0.05303500  0.17014900  0.46978400  1
  C  C52  1  0.05303500  0.67014900  0.03021600  1
  C  C53  1  0.44696500  0.17014900  0.96978400  1
  C  C54  1  0.55303500  0.32985100  0.46978400  1
  C  C55  1  0.94696500  0.82985100  0.53021600  1
  C  C56  1  0.64776300  0.90241400  0.72372400  1
  C  C57  1  0.85223700  0.40241400  0.27627600  1
  C  C58  1  0.14776300  0.09758600  0.77627600  1
  C  C59  1  0.35223700  0.59758600  0.22372400  1
  C  C60  1  0.35223700  0.09758600  0.27627600  1
  C  C61  1  0.14776300  0.59758600  0.72372400  1
  C  C62  1  0.85223700  0.90241400  0.22372400  1
  C  C63  1  0.64776300  0.40241400  0.77627600  1
  C  C64  1  0.55971800  0.99880000  0.79069300  1
  C  C65  1  0.94028200  0.49880000  0.20930700  1
  C  C66  1  0.05971800  0.00120000  0.70930700  1
  C  C67  1  0.44028200  0.50120000  0.29069300  1
  C  C68  1  0.44028200  0.00120000  0.20930700  1
  C  C69  1  0.05971800  0.50120000  0.79069300  1
  C  C70  1  0.94028200  0.99880000  0.29069300  1
  C  C71  1  0.55971800  0.49880000  0.70930700  1
  C  C72  1  0.83835800  0.11765600  0.08369300  1
  C  C73  1  0.66164200  0.61765600  0.91630700  1
  C  C74  1  0.33835800  0.88234400  0.41630700  1
  C  C75  1  0.16164200  0.38234400  0.58369300  1
  C  C76  1  0.16164200  0.88234400  0.91630700  1
  C  C77  1  0.33835800  0.38234400  0.08369300  1
  C  C78  1  0.66164200  0.11765600  0.58369300  1
  C  C79  1  0.83835800  0.61765600  0.41630700  1
  C  C80  1  0.76663200  0.99424500  0.94080100  1
  C  C81  1  0.73336800  0.49424500  0.05919900  1
  C  C82  1  0.26663200  0.00575500  0.55919900  1
  C  C83  1  0.23336800  0.50575500  0.44080100  1
  C  C84  1  0.23336800  0.00575500  0.05919900  1
  C  C85  1  0.26663200  0.50575500  0.94080100  1
  C  C86  1  0.73336800  0.99424500  0.44080100  1
  C  C87  1  0.76663200  0.49424500  0.55919900  1
