# generated using pymatgen
data_CuNi4C7
_symmetry_space_group_name_H-M   'P 1'
_cell_length_a   6.66022307
_cell_length_b   6.66022307
_cell_length_c   11.62660905
_cell_angle_alpha   75.81158657
_cell_angle_beta   75.81158657
_cell_angle_gamma   32.89985582
_symmetry_Int_Tables_number   1
_chemical_formula_structural   CuNi4C7
_chemical_formula_sum   'Cu1 Ni4 C7'
_cell_volume   270.83223960
_cell_formula_units_Z   1
loop_
 _symmetry_equiv_pos_site_id
 _symmetry_equiv_pos_as_xyz
  1  'x, y, z'
loop_
 _atom_site_type_symbol
 _atom_site_label
 _atom_site_symmetry_multiplicity
 _atom_site_fract_x
 _atom_site_fract_y
 _atom_site_fract_z
 _atom_site_occupancy
  Ni  Ni0  1  0.69925300  0.69925300  0.18816800  1
  Ni  Ni1  1  0.30205200  0.30205200  0.81087200  1
  Ni  Ni2  1  0.99977400  0.99977400  0.99779000  1
  Ni  Ni3  1  0.11753200  0.11753200  0.57712000  1
  Cu  Cu4  1  0.88430600  0.88430600  0.42395600  1
  C  C5  1  0.73962700  0.73962700  0.65271300  1
  C  C6  1  0.25592300  0.25592300  0.34874300  1
  C  C7  1  0.34113900  0.34113900  0.05079500  1
  C  C8  1  0.65947500  0.65947500  0.94936400  1
  C  C9  1  0.04015700  0.04015700  0.21353800  1
  C  C10  1  0.95961500  0.95961500  0.78458300  1
  C  C11  1  0.50114500  0.50114500  0.50235800  1
