# generated using pymatgen
data_CuNiC18
_symmetry_space_group_name_H-M   'P 1'
_cell_length_a   6.79686800
_cell_length_b   11.96142200
_cell_length_c   13.98501171
_cell_angle_alpha   73.17788203
_cell_angle_beta   90.00000000
_cell_angle_gamma   90.00000000
_symmetry_Int_Tables_number   1
_chemical_formula_structural   CuNiC18
_chemical_formula_sum   'Cu4 Ni4 C72'
_cell_volume   1088.33033524
_cell_formula_units_Z   4
loop_
 _symmetry_equiv_pos_site_id
 _symmetry_equiv_pos_as_xyz
  1  'x, y, z'
loop_
 _atom_site_type_symbol
 _atom_site_label
 _atom_site_symmetry_multiplicity
 _atom_site_fract_x
 _atom_site_fract_y
 _atom_site_fract_z
 _atom_site_occupancy
  C  C0  1  0.51292900  0.65853600  0.64557000  1
  C  C1  1  0.98707100  0.15853600  0.64557000  1
  C  C2  1  0.99971300  0.58972700  0.14542000  1
  C  C3  1  0.00028700  0.41027300  0.85458000  1
  C  C4  1  0.01292900  0.84146400  0.35443000  1
  C  C5  1  0.50028700  0.08972700  0.14542000  1
  C  C6  1  0.48707100  0.34146400  0.35443000  1
  C  C7  1  0.49971300  0.91027300  0.85458000  1
  Ni  Ni8  1  0.00000000  0.00000000  0.00000000  1
  Ni  Ni9  1  0.50000000  0.50000000  0.00000000  1
  Ni  Ni10  1  0.00000000  0.50000000  0.50000000  1
  Ni  Ni11  1  0.50000000  0.00000000  0.50000000  1
  C  C12  1  0.66849000  0.58093900  0.43996100  1
  C  C13  1  0.52909600  0.32730900  0.93223200  1
  C  C14  1  0.77697800  0.41296400  0.64014700  1
  C  C15  1  0.74817400  0.36753400  0.10687500  1
  C  C16  1  0.56358000  0.86832400  0.39501700  1
  C  C17  1  0.72302200  0.91296400  0.64014700  1
  C  C18  1  0.93642000  0.36832400  0.39501700  1
  C  C19  1  0.97090400  0.82730900  0.93223200  1
  C  C20  1  0.70090700  0.63006700  0.86491100  1
  C  C21  1  0.29909300  0.36993300  0.13508900  1
  C  C22  1  0.33151000  0.41906100  0.56003900  1
  C  C23  1  0.20090700  0.86993300  0.13508900  1
  C  C24  1  0.75182600  0.86753400  0.10687500  1
  C  C25  1  0.16849000  0.91906100  0.56003900  1
  C  C26  1  0.25182600  0.63246600  0.89312500  1
  C  C27  1  0.22302200  0.58703600  0.35985300  1
  C  C28  1  0.83151000  0.08093900  0.43996100  1
  C  C29  1  0.47090400  0.67269100  0.06776800  1
  C  C30  1  0.24817400  0.13246600  0.89312500  1
  C  C31  1  0.43642000  0.13167600  0.60498300  1
  C  C32  1  0.79909300  0.13006700  0.86491100  1
  C  C33  1  0.06358000  0.63167600  0.60498300  1
  C  C34  1  0.27697800  0.08703600  0.35985300  1
  C  C35  1  0.02909600  0.17269100  0.06776800  1
  Cu  Cu36  1  0.49789100  0.26797300  0.74792000  1
  Cu  Cu37  1  0.50210900  0.73202700  0.25208000  1
  Cu  Cu38  1  0.99789100  0.23202700  0.25208000  1
  Cu  Cu39  1  0.00210900  0.76797300  0.74792000  1
  C  C40  1  0.88195400  0.05954100  0.86749600  1
  C  C41  1  0.11804600  0.94045900  0.13250400  1
  C  C42  1  0.64243700  0.88827000  0.44899800  1
  C  C43  1  0.61804600  0.55954100  0.86749600  1
  C  C44  1  0.75978200  0.44040300  0.04922100  1
  C  C45  1  0.07542600  0.58862100  0.36431600  1
  C  C46  1  0.97426300  0.89993400  0.66375800  1
  C  C47  1  0.14243700  0.61173000  0.55100200  1
  C  C48  1  0.26240200  0.90418800  0.51060200  1
  C  C49  1  0.26535900  0.25095800  0.78833300  1
  C  C50  1  0.44289600  0.83842900  0.30285900  1
  C  C51  1  0.73759800  0.09581200  0.48939800  1
  C  C52  1  0.47426300  0.60006600  0.33624200  1
  C  C53  1  0.42930100  0.35319700  0.97344200  1
  C  C54  1  0.57069900  0.64680300  0.02655800  1
  C  C55  1  0.76535900  0.24904200  0.21166700  1
  C  C56  1  0.73464100  0.74904200  0.21166700  1
  C  C57  1  0.92930100  0.14680300  0.02655800  1
  C  C58  1  0.07069900  0.85319700  0.97344200  1
  C  C59  1  0.24021800  0.55959700  0.95077900  1
  C  C60  1  0.84607100  0.75692900  0.84416000  1
  C  C61  1  0.35756300  0.11173000  0.55100200  1
  C  C62  1  0.74021800  0.94040300  0.04922100  1
  C  C63  1  0.23759800  0.40418800  0.51060200  1
  C  C64  1  0.42457400  0.08862100  0.36431600  1
  C  C65  1  0.52573700  0.39993400  0.66375800  1
  C  C66  1  0.85756300  0.38827000  0.44899800  1
  C  C67  1  0.23464100  0.75095800  0.78833300  1
  C  C68  1  0.55710400  0.16157100  0.69714100  1
  C  C69  1  0.38195400  0.44045900  0.13250400  1
  C  C70  1  0.57542600  0.91137900  0.63568400  1
  C  C71  1  0.02573700  0.10006600  0.33624200  1
  C  C72  1  0.34607100  0.74307100  0.15584000  1
  C  C73  1  0.76240200  0.59581200  0.48939800  1
  C  C74  1  0.15392900  0.24307100  0.15584000  1
  C  C75  1  0.05710400  0.33842900  0.30285900  1
  C  C76  1  0.65392900  0.25692900  0.84416000  1
  C  C77  1  0.25978200  0.05959700  0.95077900  1
  C  C78  1  0.92457400  0.41137900  0.63568400  1
  C  C79  1  0.94289600  0.66157100  0.69714100  1
