# generated using pymatgen
data_Cu9Ni5C13
_symmetry_space_group_name_H-M   'P 1'
_cell_length_a   14.10811777
_cell_length_b   14.10811777
_cell_length_c   8.08847756
_cell_angle_alpha   79.25747834
_cell_angle_beta   79.25747834
_cell_angle_gamma   48.47314294
_symmetry_Int_Tables_number   1
_chemical_formula_structural   Cu9Ni5C13
_chemical_formula_sum   'Cu36 Ni20 C52'
_cell_volume   1179.81097943
_cell_formula_units_Z   4
loop_
 _symmetry_equiv_pos_site_id
 _symmetry_equiv_pos_as_xyz
  1  'x, y, z'
loop_
 _atom_site_type_symbol
 _atom_site_label
 _atom_site_symmetry_multiplicity
 _atom_site_fract_x
 _atom_site_fract_y
 _atom_site_fract_z
 _atom_site_occupancy
  C  C0  1  0.18279300  0.34936400  0.06666500  1
  C  C1  1  0.65063600  0.81720700  0.43333500  1
  C  C2  1  0.81720700  0.65063600  0.93333500  1
  C  C3  1  0.34936400  0.18279300  0.56666500  1
  C  C4  1  0.43689600  0.17603800  0.08595000  1
  C  C5  1  0.82396200  0.56310400  0.41405000  1
  C  C6  1  0.56310400  0.82396200  0.91405000  1
  C  C7  1  0.17603800  0.43689600  0.58595000  1
  C  C8  1  0.11928200  0.37385800  0.39293500  1
  C  C9  1  0.62614200  0.88071800  0.10706500  1
  C  C10  1  0.88071800  0.62614200  0.60706500  1
  C  C11  1  0.37385800  0.11928200  0.89293500  1
  C  C12  1  0.35099300  0.14773100  0.18847300  1
  C  C13  1  0.85226900  0.64900700  0.31152700  1
  C  C14  1  0.64900700  0.85226900  0.81152700  1
  C  C15  1  0.14773100  0.35099300  0.68847300  1
  C  C16  1  0.00554000  0.37798600  0.94595800  1
  C  C17  1  0.62201400  0.99446000  0.55404200  1
  C  C18  1  0.99446000  0.62201400  0.05404200  1
  C  C19  1  0.37798600  0.00554000  0.44595800  1
  C  C20  1  0.14118000  0.24039000  0.91685500  1
  C  C21  1  0.75961000  0.85882000  0.58314500  1
  C  C22  1  0.85882000  0.75961000  0.08314500  1
  C  C23  1  0.24039000  0.14118000  0.41685500  1
  C  C24  1  0.01864800  0.38031900  0.31530900  1
  C  C25  1  0.61968100  0.98135200  0.18469100  1
  C  C26  1  0.98135200  0.61968100  0.68469100  1
  C  C27  1  0.38031900  0.01864800  0.81530900  1
  C  C28  1  0.21822500  0.50769600  0.01216500  1
  C  C29  1  0.49230400  0.78177500  0.48783500  1
  C  C30  1  0.78177500  0.49230400  0.98783500  1
  C  C31  1  0.50769600  0.21822500  0.51216500  1
  C  C32  1  0.15691600  0.52582600  0.85030500  1
  C  C33  1  0.47417400  0.84308400  0.64969500  1
  C  C34  1  0.84308400  0.47417400  0.14969500  1
  C  C35  1  0.52582600  0.15691600  0.35030500  1
  C  C36  1  0.15631200  0.64175800  0.55555000  1
  C  C37  1  0.35824200  0.84368800  0.94445000  1
  C  C38  1  0.84368800  0.35824200  0.44445000  1
  C  C39  1  0.64175800  0.15631200  0.05555000  1
  C  C40  1  0.30076800  0.57372300  0.56041000  1
  C  C41  1  0.42627700  0.69923200  0.93959000  1
  C  C42  1  0.69923200  0.42627700  0.43959000  1
  C  C43  1  0.57372300  0.30076800  0.06041000  1
  C  C44  1  0.12856000  0.66119800  0.36640900  1
  C  C45  1  0.33880200  0.87144000  0.13359100  1
  C  C46  1  0.87144000  0.33880200  0.63359100  1
  C  C47  1  0.66119800  0.12856000  0.86640900  1
  C  C48  1  0.07042500  0.77746000  0.62440300  1
  C  C49  1  0.22254000  0.92957500  0.87559700  1
  C  C50  1  0.92957500  0.22254000  0.37559700  1
  C  C51  1  0.77746000  0.07042500  0.12440300  1
  Ni  Ni52  1  0.13067800  0.56954600  0.65073500  1
  Ni  Ni53  1  0.43045400  0.86932200  0.84926500  1
  Ni  Ni54  1  0.86932200  0.43045400  0.34926500  1
  Ni  Ni55  1  0.56954500  0.13067800  0.15073500  1
  Ni  Ni56  1  0.35933900  0.18728900  0.07865100  1
  Ni  Ni57  1  0.81271100  0.64066100  0.42134900  1
  Ni  Ni58  1  0.64066100  0.81271100  0.92134900  1
  Ni  Ni59  1  0.18728900  0.35933900  0.57865100  1
  Ni  Ni60  1  0.15922700  0.50285100  0.97726000  1
  Ni  Ni61  1  0.49714900  0.84077300  0.52274000  1
  Ni  Ni62  1  0.84077300  0.49714900  0.02274000  1
  Ni  Ni63  1  0.50285100  0.15922700  0.47726000  1
  Ni  Ni64  1  0.09833100  0.32991000  0.91771200  1
  Ni  Ni65  1  0.67009000  0.90166900  0.58228800  1
  Ni  Ni66  1  0.90166900  0.67009000  0.08228800  1
  Ni  Ni67  1  0.32991000  0.09833100  0.41771200  1
  Ni  Ni68  1  0.10228900  0.36006800  0.29060000  1
  Ni  Ni69  1  0.63993200  0.89771100  0.20940000  1
  Ni  Ni70  1  0.89771100  0.63993200  0.70940000  1
  Ni  Ni71  1  0.36006800  0.10228900  0.79060000  1
  Cu  Cu72  1  0.32304600  0.57160000  0.71810400  1
  Cu  Cu73  1  0.42840000  0.67695400  0.78189600  1
  Cu  Cu74  1  0.67695400  0.42840000  0.28189600  1
  Cu  Cu75  1  0.57160000  0.32304600  0.21810400  1
  Cu  Cu76  1  0.12959300  0.74951200  0.26903400  1
  Cu  Cu77  1  0.25048800  0.87040700  0.23096600  1
  Cu  Cu78  1  0.87040700  0.25048800  0.73096600  1
  Cu  Cu79  1  0.74951200  0.12959300  0.76903400  1
  Cu  Cu80  1  0.34018800  0.62872600  0.44996400  1
  Cu  Cu81  1  0.37127400  0.65981200  0.05003600  1
  Cu  Cu82  1  0.65981200  0.37127400  0.55003600  1
  Cu  Cu83  1  0.62872600  0.34018800  0.94996400  1
  Cu  Cu84  1  0.01302300  0.69605500  0.36039500  1
  Cu  Cu85  1  0.30394500  0.98697700  0.13960500  1
  Cu  Cu86  1  0.98697700  0.30394500  0.63960500  1
  Cu  Cu87  1  0.69605500  0.01302300  0.86039500  1
  Cu  Cu88  1  0.10556800  0.84626600  0.55522300  1
  Cu  Cu89  1  0.15373400  0.89443200  0.94477700  1
  Cu  Cu90  1  0.89443200  0.15373400  0.44477700  1
  Cu  Cu91  1  0.84626600  0.10556800  0.05522300  1
  Cu  Cu92  1  0.94647000  0.84768500  0.59379500  1
  Cu  Cu93  1  0.15231500  0.05353000  0.90620500  1
  Cu  Cu94  1  0.05353000  0.15231500  0.40620500  1
  Cu  Cu95  1  0.84768500  0.94647000  0.09379500  1
  Cu  Cu96  1  0.21597300  0.54941500  0.29122900  1
  Cu  Cu97  1  0.45058500  0.78402700  0.20877100  1
  Cu  Cu98  1  0.78402700  0.45058500  0.70877100  1
  Cu  Cu99  1  0.54941500  0.21597300  0.79122900  1
  Cu  Cu100  1  0.37668600  0.45021200  0.52537200  1
  Cu  Cu101  1  0.54978800  0.62331400  0.97462800  1
  Cu  Cu102  1  0.62331400  0.54978800  0.47462800  1
  Cu  Cu103  1  0.45021200  0.37668600  0.02537200  1
  Cu  Cu104  1  0.07231300  0.76574700  0.79450100  1
  Cu  Cu105  1  0.23425300  0.92768700  0.70549900  1
  Cu  Cu106  1  0.92768700  0.23425300  0.20549900  1
  Cu  Cu107  1  0.76574700  0.07231300  0.29450100  1
