# generated using pymatgen
data_Cu3Ni3C14
_symmetry_space_group_name_H-M   'P 1'
_cell_length_a   10.97738265
_cell_length_b   10.97738265
_cell_length_c   10.97738265
_cell_angle_alpha   109.47122063
_cell_angle_beta   109.47122063
_cell_angle_gamma   109.47122063
_symmetry_Int_Tables_number   1
_chemical_formula_structural   Cu3Ni3C14
_chemical_formula_sum   'Cu12 Ni12 C56'
_cell_volume   1018.29712834
_cell_formula_units_Z   4
loop_
 _symmetry_equiv_pos_site_id
 _symmetry_equiv_pos_as_xyz
  1  'x, y, z'
loop_
 _atom_site_type_symbol
 _atom_site_label
 _atom_site_symmetry_multiplicity
 _atom_site_fract_x
 _atom_site_fract_y
 _atom_site_fract_z
 _atom_site_occupancy
  Ni  Ni0  1  0.87500000  0.62500000  0.75000000  1
  Ni  Ni1  1  0.12500000  0.37500000  0.25000000  1
  Ni  Ni2  1  0.62500000  0.87500000  0.25000000  1
  Ni  Ni3  1  0.62500000  0.75000000  0.87500000  1
  Ni  Ni4  1  0.87500000  0.25000000  0.62500000  1
  Ni  Ni5  1  0.37500000  0.12500000  0.75000000  1
  Ni  Ni6  1  0.37500000  0.25000000  0.12500000  1
  Ni  Ni7  1  0.12500000  0.75000000  0.37500000  1
  Ni  Ni8  1  0.75000000  0.87500000  0.62500000  1
  Ni  Ni9  1  0.25000000  0.12500000  0.37500000  1
  Ni  Ni10  1  0.25000000  0.62500000  0.87500000  1
  Ni  Ni11  1  0.75000000  0.37500000  0.12500000  1
  Cu  Cu12  1  0.62500000  0.37500000  0.75000000  1
  Cu  Cu13  1  0.37500000  0.62500000  0.25000000  1
  Cu  Cu14  1  0.87500000  0.12500000  0.25000000  1
  Cu  Cu15  1  0.37500000  0.75000000  0.62500000  1
  Cu  Cu16  1  0.62500000  0.25000000  0.37500000  1
  Cu  Cu17  1  0.12500000  0.87500000  0.75000000  1
  Cu  Cu18  1  0.12500000  0.25000000  0.87500000  1
  Cu  Cu19  1  0.87500000  0.75000000  0.12500000  1
  Cu  Cu20  1  0.75000000  0.62500000  0.37500000  1
  Cu  Cu21  1  0.25000000  0.37500000  0.62500000  1
  Cu  Cu22  1  0.25000000  0.87500000  0.12500000  1
  Cu  Cu23  1  0.75000000  0.12500000  0.87500000  1
  C  C24  1  0.00000000  0.00000000  0.00000000  1
  C  C25  1  0.50000000  0.00000000  0.50000000  1
  C  C26  1  0.50000000  0.50000000  0.00000000  1
  C  C27  1  0.00000000  0.00000000  0.50000000  1
  C  C28  1  0.00000000  0.50000000  0.50000000  1
  C  C29  1  0.50000000  0.50000000  0.50000000  1
  C  C30  1  0.50000000  0.00000000  0.00000000  1
  C  C31  1  0.00000000  0.50000000  0.00000000  1
  C  C32  1  0.69796088  0.61937071  0.52090193  1
  C  C33  1  0.30203912  0.38062929  0.47909807  1
  C  C34  1  0.80203912  0.82294104  0.42140983  1
  C  C35  1  0.40153122  0.88062929  0.07859017  1
  C  C36  1  0.61937071  0.52090193  0.69796088  1
  C  C37  1  0.69796088  0.07859017  0.67705896  1
  C  C38  1  0.19796088  0.17705896  0.57859017  1
  C  C39  1  0.59846878  0.11937071  0.92140983  1
  C  C40  1  0.38062929  0.47909807  0.30203912  1
  C  C41  1  0.30203912  0.92140983  0.32294104  1
  C  C42  1  0.09846878  0.67705896  0.97909807  1
  C  C43  1  0.82294104  0.42140983  0.80203912  1
  C  C44  1  0.80203912  0.97909807  0.88062929  1
  C  C45  1  0.90153122  0.32294104  0.02090193  1
  C  C46  1  0.17705896  0.57859017  0.19796088  1
  C  C47  1  0.19796088  0.02090193  0.11937071  1
  C  C48  1  0.88062929  0.07859017  0.40153122  1
  C  C49  1  0.40153122  0.52090193  0.82294104  1
  C  C50  1  0.11937071  0.92140983  0.59846878  1
  C  C51  1  0.59846878  0.47909807  0.17705896  1
  C  C52  1  0.67705896  0.97909807  0.09846878  1
  C  C53  1  0.09846878  0.42140983  0.61937071  1
  C  C54  1  0.32294104  0.02090193  0.90153122  1
  C  C55  1  0.90153122  0.57859017  0.38062929  1
  C  C56  1  0.52090193  0.69796088  0.61937071  1
  C  C57  1  0.61937071  0.09846878  0.42140983  1
  C  C58  1  0.47909807  0.30203912  0.38062929  1
  C  C59  1  0.38062929  0.90153122  0.57859017  1
  C  C60  1  0.07859017  0.40153122  0.88062929  1
  C  C61  1  0.88062929  0.80203912  0.97909807  1
  C  C62  1  0.92140983  0.59846878  0.11937071  1
  C  C63  1  0.11937071  0.19796088  0.02090193  1
  C  C64  1  0.97909807  0.09846878  0.67705896  1
  C  C65  1  0.67705896  0.69796088  0.07859017  1
  C  C66  1  0.02090193  0.90153122  0.32294104  1
  C  C67  1  0.32294104  0.30203912  0.92140983  1
  C  C68  1  0.42140983  0.80203912  0.82294104  1
  C  C69  1  0.82294104  0.40153122  0.52090193  1
  C  C70  1  0.57859017  0.19796088  0.17705896  1
  C  C71  1  0.17705896  0.59846878  0.47909807  1
  C  C72  1  0.07859017  0.67705896  0.69796088  1
  C  C73  1  0.92140983  0.32294104  0.30203912  1
  C  C74  1  0.97909807  0.88062929  0.80203912  1
  C  C75  1  0.02090193  0.11937071  0.19796088  1
  C  C76  1  0.42140983  0.61937071  0.09846878  1
  C  C77  1  0.57859017  0.38062929  0.90153122  1
  C  C78  1  0.52090193  0.82294104  0.40153122  1
  C  C79  1  0.47909807  0.17705896  0.59846878  1
