# generated using pymatgen
data_Cu15(NiC2)2
_symmetry_space_group_name_H-M   'P 1'
_cell_length_a   9.92718100
_cell_length_b   9.94348800
_cell_length_c   14.44003560
_cell_angle_alpha   62.04693749
_cell_angle_beta   90.00000000
_cell_angle_gamma   90.00000000
_symmetry_Int_Tables_number   1
_chemical_formula_structural   Cu15(NiC2)2
_chemical_formula_sum   'Cu60 Ni8 C16'
_cell_volume   1259.09027617
_cell_formula_units_Z   4
loop_
 _symmetry_equiv_pos_site_id
 _symmetry_equiv_pos_as_xyz
  1  'x, y, z'
loop_
 _atom_site_type_symbol
 _atom_site_label
 _atom_site_symmetry_multiplicity
 _atom_site_fract_x
 _atom_site_fract_y
 _atom_site_fract_z
 _atom_site_occupancy
  C  C0  1  0.71276600  0.20650800  0.09122100  1
  C  C1  1  0.78723400  0.20650800  0.59122100  1
  C  C2  1  0.28723400  0.79349200  0.90877900  1
  C  C3  1  0.21276600  0.79349200  0.40877900  1
  C  C4  1  0.95152000  0.55070200  0.21712800  1
  C  C5  1  0.54848000  0.55070200  0.71712800  1
  C  C6  1  0.04848000  0.44929800  0.78287200  1
  C  C7  1  0.45152000  0.44929800  0.28287200  1
  Ni  Ni8  1  0.93760800  0.44932800  0.01444000  1
  Ni  Ni9  1  0.56239200  0.44932800  0.51444000  1
  Ni  Ni10  1  0.06239200  0.55067200  0.98556000  1
  Ni  Ni11  1  0.43760800  0.55067200  0.48556000  1
  Ni  Ni12  1  0.49607200  0.49482500  0.05430600  1
  Ni  Ni13  1  0.00392800  0.49482500  0.55430600  1
  Ni  Ni14  1  0.50392800  0.50517500  0.94569400  1
  Ni  Ni15  1  0.99607200  0.50517500  0.44569400  1
  C  C16  1  0.66307500  0.77801200  0.25204900  1
  C  C17  1  0.83692500  0.77801200  0.75204900  1
  C  C18  1  0.33692500  0.22198800  0.74795100  1
  C  C19  1  0.16307500  0.22198800  0.24795100  1
  C  C20  1  0.79130600  0.21722100  0.84090300  1
  C  C21  1  0.70869400  0.21722100  0.34090300  1
  C  C22  1  0.20869400  0.78277900  0.15909700  1
  C  C23  1  0.29130600  0.78277900  0.65909700  1
  Cu  Cu24  1  0.86546100  0.43663100  0.09082700  1
  Cu  Cu25  1  0.63453900  0.43663100  0.59082700  1
  Cu  Cu26  1  0.13453900  0.56336900  0.90917300  1
  Cu  Cu27  1  0.36546100  0.56336900  0.40917300  1
  Cu  Cu28  1  0.91200900  0.38146400  0.96081400  1
  Cu  Cu29  1  0.58799100  0.38146400  0.46081400  1
  Cu  Cu30  1  0.08799100  0.61853600  0.03918600  1
  Cu  Cu31  1  0.41200900  0.61853600  0.53918600  1
  Cu  Cu32  1  0.56276100  0.39109700  0.12735600  1
  Cu  Cu33  1  0.93723900  0.39109700  0.62735600  1
  Cu  Cu34  1  0.43723900  0.60890300  0.87264400  1
  Cu  Cu35  1  0.06276100  0.60890300  0.37264400  1
  Cu  Cu36  1  0.42247300  0.59033300  0.06586300  1
  Cu  Cu37  1  0.07752700  0.59033300  0.56586300  1
  Cu  Cu38  1  0.57752700  0.40966700  0.93413700  1
  Cu  Cu39  1  0.92247300  0.40966700  0.43413700  1
  Cu  Cu40  1  0.48082800  0.09373600  0.16367200  1
  Cu  Cu41  1  0.01917200  0.09373600  0.66367200  1
  Cu  Cu42  1  0.51917200  0.90626400  0.83632800  1
  Cu  Cu43  1  0.98082800  0.90626400  0.33632800  1
  Cu  Cu44  1  0.79022600  0.72935700  0.06759700  1
  Cu  Cu45  1  0.70977400  0.72935700  0.56759700  1
  Cu  Cu46  1  0.20977400  0.27064300  0.93240300  1
  Cu  Cu47  1  0.29022600  0.27064300  0.43240300  1
  Cu  Cu48  1  0.95019700  0.04835300  0.18644900  1
  Cu  Cu49  1  0.54980300  0.04835300  0.68644900  1
  Cu  Cu50  1  0.04980300  0.95164700  0.81355100  1
  Cu  Cu51  1  0.45019700  0.95164700  0.31355100  1
  Cu  Cu52  1  0.66511300  0.93840100  0.16594800  1
  Cu  Cu53  1  0.83488700  0.93840100  0.66594800  1
  Cu  Cu54  1  0.33488700  0.06159900  0.83405200  1
  Cu  Cu55  1  0.16511300  0.06159900  0.33405200  1
  Cu  Cu56  1  0.57022800  0.68835700  0.22107800  1
  Cu  Cu57  1  0.92977200  0.68835700  0.72107800  1
  Cu  Cu58  1  0.42977200  0.31164300  0.77892200  1
  Cu  Cu59  1  0.07022800  0.31164300  0.27892200  1
  Cu  Cu60  1  0.61971700  0.77164500  0.35235300  1
  Cu  Cu61  1  0.88028300  0.77164500  0.85235300  1
  Cu  Cu62  1  0.38028300  0.22835500  0.64764700  1
  Cu  Cu63  1  0.11971700  0.22835500  0.14764700  1
  Cu  Cu64  1  0.80181800  0.71527200  0.26361900  1
  Cu  Cu65  1  0.69818200  0.71527200  0.76361900  1
  Cu  Cu66  1  0.19818200  0.28472800  0.73638100  1
  Cu  Cu67  1  0.30181800  0.28472800  0.23638100  1
  Cu  Cu68  1  0.72037700  0.14356400  0.94267800  1
  Cu  Cu69  1  0.77962300  0.14356400  0.44267800  1
  Cu  Cu70  1  0.27962300  0.85643600  0.05732200  1
  Cu  Cu71  1  0.22037700  0.85643600  0.55732200  1
  Cu  Cu72  1  0.76536100  0.38704700  0.78675300  1
  Cu  Cu73  1  0.73463900  0.38704700  0.28675300  1
  Cu  Cu74  1  0.23463900  0.61295300  0.21324700  1
  Cu  Cu75  1  0.26536100  0.61295300  0.71324700  1
  Cu  Cu76  1  0.74665700  0.15145400  0.77278800  1
  Cu  Cu77  1  0.75334300  0.15145400  0.27278800  1
  Cu  Cu78  1  0.25334300  0.84854600  0.22721200  1
  Cu  Cu79  1  0.24665700  0.84854600  0.72721200  1
  Cu  Cu80  1  0.94026500  0.19697900  0.85692200  1
  Cu  Cu81  1  0.55973500  0.19697900  0.35692200  1
  Cu  Cu82  1  0.05973500  0.80302100  0.14307800  1
  Cu  Cu83  1  0.44026500  0.80302100  0.64307800  1
