# generated using pymatgen
data_CuNiC8
_symmetry_space_group_name_H-M   'P 1'
_cell_length_a   5.81929913
_cell_length_b   5.81929913
_cell_length_c   8.44257099
_cell_angle_alpha   90.00000000
_cell_angle_beta   90.00000000
_cell_angle_gamma   90.00000000
_symmetry_Int_Tables_number   1
_chemical_formula_structural   CuNiC8
_chemical_formula_sum   'Cu2 Ni2 C16'
_cell_volume   285.90127018
_cell_formula_units_Z   2
loop_
 _symmetry_equiv_pos_site_id
 _symmetry_equiv_pos_as_xyz
  1  'x, y, z'
loop_
 _atom_site_type_symbol
 _atom_site_label
 _atom_site_symmetry_multiplicity
 _atom_site_fract_x
 _atom_site_fract_y
 _atom_site_fract_z
 _atom_site_occupancy
  Ni  Ni0  1  -0.00000000  0.50000000  0.25000000  1
  Ni  Ni1  1  0.50000000  0.00000000  0.75000000  1
  Cu  Cu2  1  0.00000000  0.00000000  0.00000000  1
  Cu  Cu3  1  0.50000000  0.50000000  0.50000000  1
  C  C4  1  0.50000000  0.00000000  0.25000000  1
  C  C5  1  -0.00000000  0.50000000  0.75000000  1
  C  C6  1  0.00000000  0.00000000  0.50000000  1
  C  C7  1  0.50000000  0.50000000  0.00000000  1
  C  C8  1  -0.00000000  0.00000000  0.26314523  1
  C  C9  1  0.50000000  0.50000000  0.23685477  1
  C  C10  1  -0.00000000  0.00000000  0.73685477  1
  C  C11  1  0.50000000  0.50000000  0.76314523  1
  C  C12  1  0.34389304  0.19334622  0.01343738  1
  C  C13  1  0.65610696  0.80665378  0.01343738  1
  C  C14  1  0.80665378  0.34389304  0.98656262  1
  C  C15  1  0.19334622  0.65610696  0.98656262  1
  C  C16  1  0.84389304  0.30665378  0.51343738  1
  C  C17  1  0.15610696  0.69334622  0.51343738  1
  C  C18  1  0.30665378  0.15610696  0.48656262  1
  C  C19  1  0.69334622  0.84389304  0.48656262  1
