# generated using pymatgen
data_Cu2Ni2C7
_symmetry_space_group_name_H-M   'P 1'
_cell_length_a   4.70561900
_cell_length_b   15.10841300
_cell_length_c   19.69526100
_cell_angle_alpha   90.00000000
_cell_angle_beta   90.00000000
_cell_angle_gamma   90.00000000
_symmetry_Int_Tables_number   1
_chemical_formula_structural   Cu2Ni2C7
_chemical_formula_sum   'Cu8 Ni8 C28'
_cell_volume   1400.22345834
_cell_formula_units_Z   4
loop_
 _symmetry_equiv_pos_site_id
 _symmetry_equiv_pos_as_xyz
  1  'x, y, z'
loop_
 _atom_site_type_symbol
 _atom_site_label
 _atom_site_symmetry_multiplicity
 _atom_site_fract_x
 _atom_site_fract_y
 _atom_site_fract_z
 _atom_site_occupancy
  C  C0  1  0.25093900  0.30549000  0.59168500  1
  C  C1  1  0.74906200  0.80549000  0.40831500  1
  C  C2  1  0.75093800  0.80549000  0.90831500  1
  C  C3  1  0.24906100  0.30549000  0.09168500  1
  Ni  Ni4  1  0.66843300  0.98104900  0.62421200  1
  Ni  Ni5  1  0.33156700  0.48104900  0.37578800  1
  Ni  Ni6  1  0.16843300  0.48104900  0.87578800  1
  Ni  Ni7  1  0.83156700  0.98104900  0.12421200  1
  Ni  Ni8  1  0.88518300  0.58171100  0.65347200  1
  Ni  Ni9  1  0.11481700  0.08171100  0.34652800  1
  Ni  Ni10  1  0.38518300  0.08171100  0.84652800  1
  Ni  Ni11  1  0.61481700  0.58171100  0.15347200  1
  Cu  Cu12  1  0.76040400  0.05420700  0.67720000  1
  Cu  Cu13  1  0.23959600  0.55420700  0.32280000  1
  Cu  Cu14  1  0.26040400  0.55420700  0.82280000  1
  Cu  Cu15  1  0.73959600  0.05420700  0.17720000  1
  Cu  Cu16  1  0.74948100  0.42433900  0.60813400  1
  Cu  Cu17  1  0.25051900  0.92433900  0.39186600  1
  Cu  Cu18  1  0.24948100  0.92433900  0.89186600  1
  Cu  Cu19  1  0.75051900  0.42433900  0.10813400  1
  C  C20  1  0.59192700  0.95336300  0.55827100  1
  C  C21  1  0.40807300  0.45336300  0.44172900  1
  C  C22  1  0.09192700  0.45336300  0.94172900  1
  C  C23  1  0.90807300  0.95336300  0.05827100  1
  C  C24  1  0.60054600  0.89358800  0.60530600  1
  C  C25  1  0.39945400  0.39358800  0.39469400  1
  C  C26  1  0.10054600  0.39358800  0.89469400  1
  C  C27  1  0.89945400  0.89358800  0.10530600  1
  C  C28  1  0.71831800  0.51338500  0.65074300  1
  C  C29  1  0.28168200  0.01338500  0.34925700  1
  C  C30  1  0.21831800  0.01338500  0.84925700  1
  C  C31  1  0.78168200  0.51338500  0.15074300  1
  C  C32  1  0.02742600  0.64616100  0.65866500  1
  C  C33  1  0.97257400  0.14616100  0.34133500  1
  C  C34  1  0.52742600  0.14616100  0.84133500  1
  C  C35  1  0.47257400  0.64616100  0.15866500  1
  C  C36  1  0.22291300  0.24799300  0.70979700  1
  C  C37  1  0.77708700  0.74799300  0.29020300  1
  C  C38  1  0.72291300  0.74799300  0.79020300  1
  C  C39  1  0.27708700  0.24799300  0.20979700  1
  C  C40  1  0.74271000  0.23271400  0.53608500  1
  C  C41  1  0.25729000  0.73271400  0.46391500  1
  C  C42  1  0.24271000  0.73271400  0.96391500  1
  C  C43  1  0.75729000  0.23271400  0.03608500  1
