# generated using pymatgen
data_Cu9Ni4C
_symmetry_space_group_name_H-M   'P 1'
_cell_length_a   8.13473869
_cell_length_b   8.13473869
_cell_length_c   8.13473869
_cell_angle_alpha   121.20048115
_cell_angle_beta   121.20048115
_cell_angle_gamma   87.93298543
_symmetry_Int_Tables_number   1
_chemical_formula_structural   Cu9Ni4C
_chemical_formula_sum   'Cu18 Ni8 C2'
_cell_volume   373.47046111
_cell_formula_units_Z   2
loop_
 _symmetry_equiv_pos_site_id
 _symmetry_equiv_pos_as_xyz
  1  'x, y, z'
loop_
 _atom_site_type_symbol
 _atom_site_label
 _atom_site_symmetry_multiplicity
 _atom_site_fract_x
 _atom_site_fract_y
 _atom_site_fract_z
 _atom_site_occupancy
  C  C0  1  0.75000000  0.75000000  0.00000000  1
  C  C1  1  0.25000000  0.25000000  0.00000000  1
  Ni  Ni2  1  0.05369300  0.55369300  0.85983800  1
  Ni  Ni3  1  0.69385500  0.19385500  0.14016200  1
  Ni  Ni4  1  0.55369300  0.69385500  0.50000000  1
  Ni  Ni5  1  0.19385500  0.05369300  0.50000000  1
  Ni  Ni6  1  0.94630700  0.44630700  0.14016200  1
  Ni  Ni7  1  0.30614500  0.80614500  0.85983800  1
  Ni  Ni8  1  0.44630700  0.30614500  0.50000000  1
  Ni  Ni9  1  0.80614500  0.94630700  0.50000000  1
  Cu  Cu10  1  0.06122800  0.19811600  0.25934500  1
  Cu  Cu11  1  0.93877200  0.80188400  0.74065500  1
  Cu  Cu12  1  0.56122800  0.30188400  0.86311200  1
  Cu  Cu13  1  0.43877200  0.69811600  0.13688800  1
  Cu  Cu14  1  0.80188400  0.06122800  0.86311200  1
  Cu  Cu15  1  0.19811600  0.93877200  0.13688800  1
  Cu  Cu16  1  0.69811600  0.56122800  0.25934500  1
  Cu  Cu17  1  0.30188400  0.43877200  0.74065500  1
  Cu  Cu18  1  0.43927300  0.93927300  0.72660000  1
  Cu  Cu19  1  0.21267300  0.71267300  0.27340000  1
  Cu  Cu20  1  0.93927300  0.21267300  0.50000000  1
  Cu  Cu21  1  0.71267300  0.43927300  0.50000000  1
  Cu  Cu22  1  0.56072700  0.06072700  0.27340000  1
  Cu  Cu23  1  0.78732700  0.28732700  0.72660000  1
  Cu  Cu24  1  0.06072700  0.78732700  0.50000000  1
  Cu  Cu25  1  0.28732700  0.56072700  0.50000000  1
  Cu  Cu26  1  0.00000000  0.50000000  0.50000000  1
  Cu  Cu27  1  0.50000000  0.00000000  0.50000000  1
