# generated using pymatgen
data_Cu3Ni9C2
_symmetry_space_group_name_H-M   'P 1'
_cell_length_a   7.40643641
_cell_length_b   7.40643641
_cell_length_c   9.50859900
_cell_angle_alpha   90.00000000
_cell_angle_beta   90.00000000
_cell_angle_gamma   119.63084641
_symmetry_Int_Tables_number   1
_chemical_formula_structural   Cu3Ni9C2
_chemical_formula_sum   'Cu6 Ni18 C4'
_cell_volume   453.38722177
_cell_formula_units_Z   2
loop_
 _symmetry_equiv_pos_site_id
 _symmetry_equiv_pos_as_xyz
  1  'x, y, z'
loop_
 _atom_site_type_symbol
 _atom_site_label
 _atom_site_symmetry_multiplicity
 _atom_site_fract_x
 _atom_site_fract_y
 _atom_site_fract_z
 _atom_site_occupancy
  C  C0  1  0.50300500  0.83125200  0.25000000  1
  C  C1  1  0.49699500  0.16874800  0.75000000  1
  C  C2  1  0.16874800  0.49699500  0.75000000  1
  C  C3  1  0.83125200  0.50300500  0.25000000  1
  Ni  Ni4  1  0.16313700  0.95124200  0.25000000  1
  Ni  Ni5  1  0.83686300  0.04875800  0.75000000  1
  Ni  Ni6  1  0.04875800  0.83686300  0.75000000  1
  Ni  Ni7  1  0.95124200  0.16313700  0.25000000  1
  Ni  Ni8  1  0.62339300  0.62339300  0.75000000  1
  Ni  Ni9  1  0.37660700  0.37660700  0.25000000  1
  Ni  Ni10  1  0.16537200  0.16537200  0.55526400  1
  Ni  Ni11  1  0.83462800  0.83462800  0.05526400  1
  Ni  Ni12  1  0.83462800  0.83462800  0.44473600  1
  Ni  Ni13  1  0.16537200  0.16537200  0.94473600  1
  Ni  Ni14  1  0.50186800  0.83441400  0.57119500  1
  Ni  Ni15  1  0.49813200  0.16558600  0.07119500  1
  Ni  Ni16  1  0.16558600  0.49813200  0.42880500  1
  Ni  Ni17  1  0.83441400  0.50186800  0.92880500  1
  Ni  Ni18  1  0.49813200  0.16558600  0.42880500  1
  Ni  Ni19  1  0.50186800  0.83441400  0.92880500  1
  Ni  Ni20  1  0.83441400  0.50186800  0.57119500  1
  Ni  Ni21  1  0.16558600  0.49813200  0.07119500  1
  Cu  Cu22  1  0.50000000  0.50000000  0.50000000  1
  Cu  Cu23  1  0.50000000  0.50000000  0.00000000  1
  Cu  Cu24  1  0.17073500  0.82926500  0.50000000  1
  Cu  Cu25  1  0.82926500  0.17073500  0.00000000  1
  Cu  Cu26  1  0.82926500  0.17073500  0.50000000  1
  Cu  Cu27  1  0.17073500  0.82926500  0.00000000  1
