# generated using pymatgen
data_Cu4NiC17
_symmetry_space_group_name_H-M   'P 1'
_cell_length_a   7.78320800
_cell_length_b   7.44267100
_cell_length_c   9.53749779
_cell_angle_alpha   68.45800371
_cell_angle_beta   90.00000000
_cell_angle_gamma   90.00000000
_symmetry_Int_Tables_number   1
_chemical_formula_structural   Cu4NiC17
_chemical_formula_sum   'Cu8 Ni2 C34'
_cell_volume   513.89487174
_cell_formula_units_Z   2
loop_
 _symmetry_equiv_pos_site_id
 _symmetry_equiv_pos_as_xyz
  1  'x, y, z'
loop_
 _atom_site_type_symbol
 _atom_site_label
 _atom_site_symmetry_multiplicity
 _atom_site_fract_x
 _atom_site_fract_y
 _atom_site_fract_z
 _atom_site_occupancy
  C  C0  1  0.12899500  0.81064600  0.52368700  1
  C  C1  1  0.62899500  0.18935400  0.97631300  1
  C  C2  1  0.87100500  0.18935400  0.47631300  1
  C  C3  1  0.37100500  0.81064600  0.02368700  1
  C  C4  1  0.00000000  0.00000000  0.00000000  1
  C  C5  1  0.50000000  0.00000000  0.50000000  1
  Ni  Ni6  1  0.00000000  0.50000000  0.00000000  1
  Ni  Ni7  1  0.50000000  0.50000000  0.50000000  1
  Cu  Cu8  1  0.93279900  0.40781200  0.70902400  1
  Cu  Cu9  1  0.43279900  0.59218800  0.79097600  1
  Cu  Cu10  1  0.06720100  0.59218800  0.29097600  1
  Cu  Cu11  1  0.56720100  0.40781200  0.20902400  1
  Cu  Cu12  1  0.20895500  0.13728700  0.68551000  1
  Cu  Cu13  1  0.70895500  0.86271300  0.81449000  1
  Cu  Cu14  1  0.79104500  0.86271300  0.31449000  1
  Cu  Cu15  1  0.29104500  0.13728700  0.18551000  1
  C  C16  1  0.37963300  0.19973300  0.59869800  1
  C  C17  1  0.87963300  0.80026700  0.90130200  1
  C  C18  1  0.62036700  0.80026700  0.40130200  1
  C  C19  1  0.12036700  0.19973300  0.09869800  1
  C  C20  1  0.38453600  0.71860900  0.62380600  1
  C  C21  1  0.88453600  0.28139100  0.87619400  1
  C  C22  1  0.61546400  0.28139100  0.37619400  1
  C  C23  1  0.11546400  0.71860900  0.12380600  1
  C  C24  1  0.80474600  0.38117700  0.59674300  1
  C  C25  1  0.30474600  0.61882300  0.90325700  1
  C  C26  1  0.19525400  0.61882300  0.40325700  1
  C  C27  1  0.69525400  0.38117700  0.09674300  1
  C  C28  1  0.11835800  0.33357500  0.67690800  1
  C  C29  1  0.61835800  0.66642500  0.82309200  1
  C  C30  1  0.88164200  0.66642500  0.32309200  1
  C  C31  1  0.38164200  0.33357500  0.17690800  1
  C  C32  1  0.52599800  0.61023200  0.20177600  1
  C  C33  1  0.02599800  0.38976800  0.29822400  1
  C  C34  1  0.47400200  0.38976800  0.79822400  1
  C  C35  1  0.97400200  0.61023200  0.70177600  1
  C  C36  1  0.78030700  0.98159600  0.14513600  1
  C  C37  1  0.28030700  0.01840400  0.35486400  1
  C  C38  1  0.21969300  0.01840400  0.85486400  1
  C  C39  1  0.71969300  0.98159600  0.64513600  1
  C  C40  1  0.41124800  0.04021300  0.10717500  1
  C  C41  1  0.91124800  0.95978700  0.39282500  1
  C  C42  1  0.58875200  0.95978700  0.89282500  1
  C  C43  1  0.08875200  0.04021300  0.60717500  1
