# generated using pymatgen
data_Cu2Ni8C
_symmetry_space_group_name_H-M   'P 1'
_cell_length_a   12.73049300
_cell_length_b   14.69225600
_cell_length_c   4.17501300
_cell_angle_alpha   90.00000000
_cell_angle_beta   90.00000000
_cell_angle_gamma   90.00000000
_symmetry_Int_Tables_number   1
_chemical_formula_structural   Cu2Ni8C
_chemical_formula_sum   'Cu8 Ni32 C4'
_cell_volume   780.89302104
_cell_formula_units_Z   4
loop_
 _symmetry_equiv_pos_site_id
 _symmetry_equiv_pos_as_xyz
  1  'x, y, z'
loop_
 _atom_site_type_symbol
 _atom_site_label
 _atom_site_symmetry_multiplicity
 _atom_site_fract_x
 _atom_site_fract_y
 _atom_site_fract_z
 _atom_site_occupancy
  C  C0  1  0.15675900  0.31963000  0.50000000  1
  C  C1  1  0.84324100  0.68037000  0.50000000  1
  C  C2  1  0.65675900  0.18037000  0.50000000  1
  C  C3  1  0.34324100  0.81963000  0.50000000  1
  Ni  Ni4  1  0.50000000  0.50000000  0.00000000  1
  Ni  Ni5  1  0.00000000  0.00000000  0.00000000  1
  Ni  Ni6  1  0.50000000  0.00000000  0.50000000  1
  Ni  Ni7  1  0.00000000  0.50000000  0.50000000  1
  Ni  Ni8  1  0.65907600  0.45647900  0.50000000  1
  Ni  Ni9  1  0.34092400  0.54352100  0.50000000  1
  Ni  Ni10  1  0.15907600  0.04352100  0.50000000  1
  Ni  Ni11  1  0.84092400  0.95647900  0.50000000  1
  Ni  Ni12  1  0.39909400  0.25147900  0.50000000  1
  Ni  Ni13  1  0.60090600  0.74852100  0.50000000  1
  Ni  Ni14  1  0.89909400  0.24852100  0.50000000  1
  Ni  Ni15  1  0.10090600  0.75147900  0.50000000  1
  Ni  Ni16  1  0.55074000  0.31510700  0.00000000  1
  Ni  Ni17  1  0.44926000  0.68489300  0.00000000  1
  Ni  Ni18  1  0.05074000  0.18489300  0.00000000  1
  Ni  Ni19  1  0.94926000  0.81510700  0.00000000  1
  Ni  Ni20  1  0.33231500  0.37649500  0.00000000  1
  Ni  Ni21  1  0.66768500  0.62350500  0.00000000  1
  Ni  Ni22  1  0.83231500  0.12350500  0.00000000  1
  Ni  Ni23  1  0.16768500  0.87649500  0.00000000  1
  Ni  Ni24  1  0.16998800  0.48685200  0.00000000  1
  Ni  Ni25  1  0.83001200  0.51314800  0.00000000  1
  Ni  Ni26  1  0.66998800  0.01314800  0.00000000  1
  Ni  Ni27  1  0.33001200  0.98685200  0.00000000  1
  Ni  Ni28  1  0.75829500  0.32292800  0.00000000  1
  Ni  Ni29  1  0.24170500  0.67707200  0.00000000  1
  Ni  Ni30  1  0.25829500  0.17707200  0.00000000  1
  Ni  Ni31  1  0.74170500  0.82292800  0.00000000  1
  Ni  Ni32  1  0.97955700  0.36686300  0.00000000  1
  Ni  Ni33  1  0.02044300  0.63313700  0.00000000  1
  Ni  Ni34  1  0.47955700  0.13313700  0.00000000  1
  Ni  Ni35  1  0.52044300  0.86686300  0.00000000  1
  Cu  Cu36  1  0.84415600  0.40511800  0.50000000  1
  Cu  Cu37  1  0.15584400  0.59488200  0.50000000  1
  Cu  Cu38  1  0.34415600  0.09488200  0.50000000  1
  Cu  Cu39  1  0.65584400  0.90511800  0.50000000  1
  Cu  Cu40  1  0.46415000  0.40299700  0.50000000  1
  Cu  Cu41  1  0.53585000  0.59700300  0.50000000  1
  Cu  Cu42  1  0.96415000  0.09700300  0.50000000  1
  Cu  Cu43  1  0.03585000  0.90299700  0.50000000  1
