# generated using pymatgen
data_Cu8Ni2C9
_symmetry_space_group_name_H-M   'P 1'
_cell_length_a   7.21564299
_cell_length_b   7.80498846
_cell_length_c   13.60096600
_cell_angle_alpha   90.00000000
_cell_angle_beta   90.00000000
_cell_angle_gamma   108.66590196
_symmetry_Int_Tables_number   1
_chemical_formula_structural   Cu8Ni2C9
_chemical_formula_sum   'Cu16 Ni4 C18'
_cell_volume   725.68952916
_cell_formula_units_Z   2
loop_
 _symmetry_equiv_pos_site_id
 _symmetry_equiv_pos_as_xyz
  1  'x, y, z'
loop_
 _atom_site_type_symbol
 _atom_site_label
 _atom_site_symmetry_multiplicity
 _atom_site_fract_x
 _atom_site_fract_y
 _atom_site_fract_z
 _atom_site_occupancy
  C  C0  1  0.50000000  0.00000000  0.00000000  1
  C  C1  1  0.50000000  0.50000000  0.50000000  1
  C  C2  1  0.47522600  0.00938300  0.88816500  1
  C  C3  1  0.52477400  0.99061700  0.11183500  1
  C  C4  1  0.52477400  0.49061700  0.38816500  1
  C  C5  1  0.47522600  0.50938300  0.61183500  1
  C  C6  1  0.61899600  0.89460200  0.95601200  1
  C  C7  1  0.38100400  0.10539800  0.04398800  1
  C  C8  1  0.38100400  0.60539800  0.45601200  1
  C  C9  1  0.61899600  0.39460200  0.54398800  1
  C  C10  1  0.40552400  0.57133200  0.58459400  1
  C  C11  1  0.59447600  0.42866800  0.41540600  1
  C  C12  1  0.59447600  0.92866800  0.08459400  1
  C  C13  1  0.40552400  0.07133200  0.91540600  1
  C  C14  1  0.71409800  0.59228900  0.88092800  1
  C  C15  1  0.28590200  0.40771100  0.11907200  1
  C  C16  1  0.28590200  0.90771100  0.38092800  1
  C  C17  1  0.71409800  0.09228900  0.61907200  1
  Ni  Ni18  1  0.88720300  0.70977600  0.18407300  1
  Ni  Ni19  1  0.11279700  0.29022400  0.81592700  1
  Ni  Ni20  1  0.11279700  0.79022400  0.68407300  1
  Ni  Ni21  1  0.88720300  0.20977600  0.31592700  1
  Cu  Cu22  1  0.02923000  0.63665000  0.69533800  1
  Cu  Cu23  1  0.97077000  0.36335000  0.30466200  1
  Cu  Cu24  1  0.97077000  0.86335000  0.19533800  1
  Cu  Cu25  1  0.02923000  0.13665000  0.80466200  1
  Cu  Cu26  1  0.65519700  0.90751400  0.58585700  1
  Cu  Cu27  1  0.34480300  0.09248600  0.41414300  1
  Cu  Cu28  1  0.34480300  0.59248600  0.08585700  1
  Cu  Cu29  1  0.65519700  0.40751400  0.91414300  1
  Cu  Cu30  1  0.59973100  0.64503700  0.80759200  1
  Cu  Cu31  1  0.40026900  0.35496300  0.19240800  1
  Cu  Cu32  1  0.40026900  0.85496300  0.30759200  1
  Cu  Cu33  1  0.59973100  0.14503700  0.69240800  1
  Cu  Cu34  1  0.88270400  0.72276400  0.92343100  1
  Cu  Cu35  1  0.11729600  0.27723600  0.07656900  1
  Cu  Cu36  1  0.11729600  0.77723600  0.42343100  1
  Cu  Cu37  1  0.88270400  0.22276400  0.57656900  1
