# generated using pymatgen
data_Cu7Ni3C11
_symmetry_space_group_name_H-M   'P 1'
_cell_length_a   8.79981683
_cell_length_b   8.79981683
_cell_length_c   17.63055735
_cell_angle_alpha   80.64756305
_cell_angle_beta   80.64756305
_cell_angle_gamma   93.14150904
_symmetry_Int_Tables_number   1
_chemical_formula_structural   Cu7Ni3C11
_chemical_formula_sum   'Cu14 Ni6 C22'
_cell_volume   1324.56699245
_cell_formula_units_Z   2
loop_
 _symmetry_equiv_pos_site_id
 _symmetry_equiv_pos_as_xyz
  1  'x, y, z'
loop_
 _atom_site_type_symbol
 _atom_site_label
 _atom_site_symmetry_multiplicity
 _atom_site_fract_x
 _atom_site_fract_y
 _atom_site_fract_z
 _atom_site_occupancy
  C  C0  1  0.06402900  0.09734100  0.13309500  1
  C  C1  1  0.90265900  0.93597100  0.36690500  1
  C  C2  1  0.93597100  0.90265900  0.86690500  1
  C  C3  1  0.09734100  0.06402900  0.63309500  1
  Ni  Ni4  1  0.42350600  0.57649400  0.25000000  1
  Ni  Ni5  1  0.57649400  0.42350600  0.75000000  1
  Ni  Ni6  1  0.56930000  0.74918200  0.05231600  1
  Ni  Ni7  1  0.25081800  0.43070000  0.44768400  1
  Ni  Ni8  1  0.43070000  0.25081800  0.94768400  1
  Ni  Ni9  1  0.74918200  0.56930000  0.55231600  1
  Cu  Cu10  1  0.91439100  0.24404300  0.01663400  1
  Cu  Cu11  1  0.75595700  0.08560900  0.48336600  1
  Cu  Cu12  1  0.08560900  0.75595700  0.98336600  1
  Cu  Cu13  1  0.24404300  0.91439100  0.51663400  1
  Cu  Cu14  1  0.98163200  0.72480300  0.15283900  1
  Cu  Cu15  1  0.27519700  0.01836800  0.34716100  1
  Cu  Cu16  1  0.01836800  0.27519700  0.84716100  1
  Cu  Cu17  1  0.72480300  0.98163200  0.65283900  1
  Cu  Cu18  1  0.35024600  0.07041400  0.17522400  1
  Cu  Cu19  1  0.92958600  0.64975400  0.32477600  1
  Cu  Cu20  1  0.64975400  0.92958600  0.82477600  1
  Cu  Cu21  1  0.07041400  0.35024600  0.67522400  1
  Cu  Cu22  1  0.82629000  0.17371000  0.25000000  1
  Cu  Cu23  1  0.17371000  0.82629000  0.75000000  1
  C  C24  1  0.53089900  0.46910100  0.25000000  1
  C  C25  1  0.46910100  0.53089900  0.75000000  1
  C  C26  1  0.29398600  0.49083900  0.25934900  1
  C  C27  1  0.50916100  0.70601400  0.24065100  1
  C  C28  1  0.70601400  0.50916100  0.74065100  1
  C  C29  1  0.49083900  0.29398600  0.75934900  1
  C  C30  1  0.51426200  0.60212400  0.07975900  1
  C  C31  1  0.39787600  0.48573800  0.42024100  1
  C  C32  1  0.48573800  0.39787600  0.92024100  1
  C  C33  1  0.60212400  0.51426200  0.57975900  1
  C  C34  1  0.64901500  0.86163200  0.02139600  1
  C  C35  1  0.13836800  0.35098500  0.47860400  1
  C  C36  1  0.35098500  0.13836800  0.97860400  1
  C  C37  1  0.86163200  0.64901500  0.52139600  1
  C  C38  1  0.39213800  0.52770900  0.09219900  1
  C  C39  1  0.47229100  0.60786200  0.40780100  1
  C  C40  1  0.60786200  0.47229100  0.90780100  1
  C  C41  1  0.52770900  0.39213800  0.59219900  1
