# generated using pymatgen
data_CuNi2C9
_symmetry_space_group_name_H-M   'P 1'
_cell_length_a   5.56035192
_cell_length_b   5.56095930
_cell_length_c   10.42737275
_cell_angle_alpha   90.40607783
_cell_angle_beta   74.53385039
_cell_angle_gamma   91.51258405
_symmetry_Int_Tables_number   1
_chemical_formula_structural   CuNi2C9
_chemical_formula_sum   'Cu2 Ni4 C18'
_cell_volume   310.63982240
_cell_formula_units_Z   2
loop_
 _symmetry_equiv_pos_site_id
 _symmetry_equiv_pos_as_xyz
  1  'x, y, z'
loop_
 _atom_site_type_symbol
 _atom_site_label
 _atom_site_symmetry_multiplicity
 _atom_site_fract_x
 _atom_site_fract_y
 _atom_site_fract_z
 _atom_site_occupancy
  Ni  Ni0  1  0.31686100  0.00003400  0.36635300  1
  Ni  Ni1  1  0.81699900  0.50003400  0.36595800  1
  Ni  Ni2  1  0.18303700  0.50001600  0.63407000  1
  Ni  Ni3  1  0.68319000  0.99992900  0.63362400  1
  Cu  Cu4  1  0.49999700  0.00017500  0.99997400  1
  Cu  Cu5  1  0.99988500  0.49991200  0.00000400  1
  C  C6  1  0.09761500  0.00003700  0.80478800  1
  C  C7  1  0.90220200  0.00002200  0.19513600  1
  C  C8  1  0.59887500  0.49985500  0.80233500  1
  C  C9  1  0.40104900  0.49992600  0.19780100  1
  C  C10  1  0.50015100  0.49962300  0.00001500  1
  C  C11  1  0.99986600  0.00040500  0.99999600  1
  C  C12  1  0.19344400  0.00002600  0.61356200  1
  C  C13  1  0.69421800  0.49982900  0.61137700  1
  C  C14  1  0.30549200  0.50018600  0.38865300  1
  C  C15  1  0.80684000  0.99992600  0.38640800  1
  C  C16  1  0.84632200  0.75465000  0.81639600  1
  C  C17  1  0.33724800  0.24524200  0.81643700  1
  C  C18  1  0.32900500  0.76235600  0.81786100  1
  C  C19  1  0.85339700  0.23766000  0.81767500  1
  C  C20  1  0.66278800  0.75472900  0.18354700  1
  C  C21  1  0.15368900  0.24534200  0.18362900  1
  C  C22  1  0.14681100  0.76238700  0.18207100  1
  C  C23  1  0.67101700  0.23769900  0.18232800  1
