# generated using pymatgen
data_CuNiC11
_symmetry_space_group_name_H-M   'P 1'
_cell_length_a   5.58894300
_cell_length_b   6.78895074
_cell_length_c   9.50498161
_cell_angle_alpha   110.21656662
_cell_angle_beta   101.64268541
_cell_angle_gamma   98.16531640
_symmetry_Int_Tables_number   1
_chemical_formula_structural   CuNiC11
_chemical_formula_sum   'Cu2 Ni2 C22'
_cell_volume   322.54784138
_cell_formula_units_Z   2
loop_
 _symmetry_equiv_pos_site_id
 _symmetry_equiv_pos_as_xyz
  1  'x, y, z'
loop_
 _atom_site_type_symbol
 _atom_site_label
 _atom_site_symmetry_multiplicity
 _atom_site_fract_x
 _atom_site_fract_y
 _atom_site_fract_z
 _atom_site_occupancy
  C  C0  1  0.20417200  0.74655100  0.05262800  1
  C  C1  1  0.79582800  0.25344900  0.94737200  1
  Ni  Ni2  1  0.34864200  0.75343000  0.64794400  1
  Ni  Ni3  1  0.65135800  0.24657000  0.35205600  1
  Cu  Cu4  1  0.07472500  0.28940100  0.55567000  1
  Cu  Cu5  1  0.92527500  0.71059900  0.44433000  1
  C  C6  1  0.15572100  0.18777700  0.23351300  1
  C  C7  1  0.84427900  0.81222300  0.76648700  1
  C  C8  1  0.54298700  0.72361300  0.30216700  1
  C  C9  1  0.45701300  0.27638700  0.69783300  1
  C  C10  1  0.94154800  0.66783300  0.88512300  1
  C  C11  1  0.44395600  0.26868900  0.20784400  1
  C  C12  1  0.89443700  0.04079800  0.76695800  1
  C  C13  1  0.26991000  0.42987300  0.68509000  1
  C  C14  1  0.55604400  0.73131100  0.79215600  1
  C  C15  1  0.42912700  0.15303200  0.58284000  1
  C  C16  1  0.57087300  0.84696800  0.41716000  1
  C  C17  1  0.38120600  0.13188800  0.86658900  1
  C  C18  1  0.10556300  0.95920200  0.23304200  1
  C  C19  1  0.61879400  0.86811200  0.13341100  1
  C  C20  1  0.05845200  0.33216700  0.11487700  1
  C  C21  1  0.97839300  0.19099100  0.39399800  1
  C  C22  1  0.02160700  0.80900900  0.60600200  1
  C  C23  1  0.25992000  0.58862300  0.36221700  1
  C  C24  1  0.73009000  0.57012700  0.31491000  1
  C  C25  1  0.74008000  0.41137700  0.63778300  1
