# generated using pymatgen
data_CuNiC8
_symmetry_space_group_name_H-M   'P 1'
_cell_length_a   5.37310000
_cell_length_b   5.58663600
_cell_length_c   7.71739400
_cell_angle_alpha   90.00000000
_cell_angle_beta   90.00000000
_cell_angle_gamma   90.00000000
_symmetry_Int_Tables_number   1
_chemical_formula_structural   CuNiC8
_chemical_formula_sum   'Cu2 Ni2 C16'
_cell_volume   231.65729030
_cell_formula_units_Z   2
loop_
 _symmetry_equiv_pos_site_id
 _symmetry_equiv_pos_as_xyz
  1  'x, y, z'
loop_
 _atom_site_type_symbol
 _atom_site_label
 _atom_site_symmetry_multiplicity
 _atom_site_fract_x
 _atom_site_fract_y
 _atom_site_fract_z
 _atom_site_occupancy
  Ni  Ni0  1  0.98807500  0.80443100  0.50000000  1
  Ni  Ni1  1  0.48807500  0.19556900  0.00000000  1
  Cu  Cu2  1  0.51552500  0.31334500  0.50000000  1
  Cu  Cu3  1  0.01552500  0.68665500  0.00000000  1
  C  C4  1  0.00033900  0.24705200  0.75049000  1
  C  C5  1  0.50033900  0.75294800  0.25049000  1
  C  C6  1  0.00033900  0.24705200  0.24951000  1
  C  C7  1  0.50033900  0.75294800  0.74951000  1
  C  C8  1  0.19322200  0.94671900  0.19781600  1
  C  C9  1  0.29541800  0.45818300  0.79698100  1
  C  C10  1  0.79541800  0.54181700  0.70301900  1
  C  C11  1  0.69322200  0.05328100  0.30218400  1
  C  C12  1  0.79541800  0.54181700  0.29698100  1
  C  C13  1  0.69322200  0.05328100  0.69781600  1
  C  C14  1  0.19322200  0.94671900  0.80218400  1
  C  C15  1  0.29541800  0.45818300  0.20301900  1
  C  C16  1  0.41459300  0.71873000  0.50000000  1
  C  C17  1  0.10385100  0.22187800  0.50000000  1
  C  C18  1  0.60385100  0.77812200  0.00000000  1
  C  C19  1  0.91459300  0.28127000  0.00000000  1
