# generated using pymatgen
data_Cu7NiC9
_symmetry_space_group_name_H-M   'P 1'
_cell_length_a   13.72364400
_cell_length_b   9.81192300
_cell_length_c   14.16895240
_cell_angle_alpha   83.45534673
_cell_angle_beta   90.00000000
_cell_angle_gamma   90.00000000
_symmetry_Int_Tables_number   1
_chemical_formula_structural   Cu7NiC9
_chemical_formula_sum   'Cu28 Ni4 C36'
_cell_volume   1895.49175761
_cell_formula_units_Z   4
loop_
 _symmetry_equiv_pos_site_id
 _symmetry_equiv_pos_as_xyz
  1  'x, y, z'
loop_
 _atom_site_type_symbol
 _atom_site_label
 _atom_site_symmetry_multiplicity
 _atom_site_fract_x
 _atom_site_fract_y
 _atom_site_fract_z
 _atom_site_occupancy
  C  C0  1  0.67080000  0.61567800  0.28632800  1
  C  C1  1  0.17080000  0.38432200  0.21367200  1
  C  C2  1  0.32920000  0.38432200  0.71367200  1
  C  C3  1  0.82920000  0.61567800  0.78632800  1
  C  C4  1  0.55080700  0.15689200  0.29791900  1
  C  C5  1  0.05080700  0.84310800  0.20208100  1
  C  C6  1  0.44919300  0.84310800  0.70208100  1
  C  C7  1  0.94919300  0.15689200  0.79791900  1
  C  C8  1  0.39955600  0.02254500  0.34703100  1
  C  C9  1  0.89955600  0.97745500  0.15296900  1
  C  C10  1  0.60044400  0.97745500  0.65296900  1
  C  C11  1  0.10044400  0.02254500  0.84703100  1
  C  C12  1  0.44519000  0.06896100  0.17408900  1
  C  C13  1  0.94519000  0.93103900  0.32591100  1
  C  C14  1  0.55481000  0.93103900  0.82591100  1
  C  C15  1  0.05481000  0.06896100  0.67408900  1
  C  C16  1  0.75563300  0.35636300  0.16264700  1
  C  C17  1  0.25563300  0.64363700  0.33735300  1
  C  C18  1  0.24436700  0.64363700  0.83735300  1
  C  C19  1  0.74436700  0.35636300  0.66264700  1
  C  C20  1  0.86103200  0.52869700  0.05244800  1
  C  C21  1  0.36103200  0.47130300  0.44755200  1
  C  C22  1  0.13896800  0.47130300  0.94755200  1
  C  C23  1  0.63896800  0.52869700  0.55244800  1
  C  C24  1  0.61310900  0.58662200  0.00865200  1
  C  C25  1  0.11310900  0.41337800  0.49134800  1
  C  C26  1  0.38689100  0.41337800  0.99134800  1
  C  C27  1  0.88689100  0.58662200  0.50865200  1
  C  C28  1  0.67187400  0.37546600  0.92705300  1
  C  C29  1  0.17187400  0.62453400  0.57294700  1
  C  C30  1  0.32812600  0.62453400  0.07294700  1
  C  C31  1  0.82812600  0.37546600  0.42705300  1
  Ni  Ni32  1  0.58866900  0.81356100  0.28823600  1
  Ni  Ni33  1  0.08866900  0.18643900  0.21176400  1
  Ni  Ni34  1  0.41133100  0.18643900  0.71176400  1
  Ni  Ni35  1  0.91133100  0.81356100  0.78823600  1
  Cu  Cu36  1  0.66486000  0.98915200  0.31785800  1
  Cu  Cu37  1  0.16486000  0.01084800  0.18214200  1
  Cu  Cu38  1  0.33514000  0.01084800  0.68214200  1
  Cu  Cu39  1  0.83514000  0.98915200  0.81785800  1
  Cu  Cu40  1  0.46991600  0.81364500  0.38314200  1
  Cu  Cu41  1  0.96991600  0.18635500  0.11685800  1
  Cu  Cu42  1  0.53008400  0.18635500  0.61685800  1
  Cu  Cu43  1  0.03008400  0.81364500  0.88314200  1
  Cu  Cu44  1  0.52572600  0.87216700  0.15525100  1
  Cu  Cu45  1  0.02572600  0.12783300  0.34474900  1
  Cu  Cu46  1  0.47427400  0.12783300  0.84474900  1
  Cu  Cu47  1  0.97427400  0.87216700  0.65525100  1
  Cu  Cu48  1  0.61766100  0.48594300  0.16371100  1
  Cu  Cu49  1  0.11766100  0.51405700  0.33628900  1
  Cu  Cu50  1  0.38233900  0.51405700  0.83628900  1
  Cu  Cu51  1  0.88233900  0.48594300  0.66371100  1
  Cu  Cu52  1  0.69775700  0.22254000  0.05587700  1
  Cu  Cu53  1  0.19775700  0.77746000  0.44412300  1
  Cu  Cu54  1  0.30224300  0.77746000  0.94412300  1
  Cu  Cu55  1  0.80224300  0.22254000  0.55587700  1
  Cu  Cu56  1  0.83333600  0.43557200  0.91129500  1
  Cu  Cu57  1  0.33333600  0.56442800  0.58870500  1
  Cu  Cu58  1  0.16666400  0.56442800  0.08870500  1
  Cu  Cu59  1  0.66666400  0.43557200  0.41129500  1
  Cu  Cu60  1  0.75394200  0.69998700  0.01607200  1
  Cu  Cu61  1  0.25394200  0.30001300  0.48392800  1
  Cu  Cu62  1  0.24605800  0.30001300  0.98392800  1
  Cu  Cu63  1  0.74605800  0.69998700  0.51607200  1
  C  C64  1  0.85288600  0.64503300  0.26192600  1
  C  C65  1  0.35288600  0.35496700  0.23807400  1
  C  C66  1  0.14711400  0.35496700  0.73807400  1
  C  C67  1  0.64711400  0.64503300  0.76192600  1
