# generated using pymatgen
data_Cu4NiC2
_symmetry_space_group_name_H-M   'P 1'
_cell_length_a   15.59483298
_cell_length_b   12.97380982
_cell_length_c   9.11225823
_cell_angle_alpha   88.02364351
_cell_angle_beta   56.24644590
_cell_angle_gamma   35.72991059
_symmetry_Int_Tables_number   1
_chemical_formula_structural   Cu4NiC2
_chemical_formula_sum   'Cu16 Ni4 C8'
_cell_volume   459.87629409
_cell_formula_units_Z   4
loop_
 _symmetry_equiv_pos_site_id
 _symmetry_equiv_pos_as_xyz
  1  'x, y, z'
loop_
 _atom_site_type_symbol
 _atom_site_label
 _atom_site_symmetry_multiplicity
 _atom_site_fract_x
 _atom_site_fract_y
 _atom_site_fract_z
 _atom_site_occupancy
  Ni  Ni0  1  0.73270000  0.00394300  0.16150500  1
  Ni  Ni1  1  0.10185200  0.16150500  0.00394300  1
  Ni  Ni2  1  0.08849500  0.14814800  0.51730000  1
  Ni  Ni3  1  0.24605700  0.51730000  0.14814800  1
  Cu  Cu4  1  0.63042200  0.05153500  0.37747800  1
  Cu  Cu5  1  0.94056500  0.37747800  0.05153500  1
  Cu  Cu6  1  0.87252200  0.30943500  0.61957800  1
  Cu  Cu7  1  0.19846500  0.61957800  0.30943500  1
  Cu  Cu8  1  0.82284700  0.01848600  0.07316400  1
  Cu  Cu9  1  0.08550400  0.07316400  0.01848600  1
  Cu  Cu10  1  0.17683600  0.16449600  0.42715300  1
  Cu  Cu11  1  0.23151400  0.42715300  0.16449600  1
  Cu  Cu12  1  0.72658200  0.96543600  0.02899600  1
  Cu  Cu13  1  0.27898600  0.02899600  0.96543600  1
  Cu  Cu14  1  0.22100400  0.97101400  0.52341800  1
  Cu  Cu15  1  0.28456400  0.52341800  0.97101400  1
  Cu  Cu16  1  0.74921300  0.83544300  0.01346900  1
  Cu  Cu17  1  0.40187500  0.01346900  0.83544300  1
  Cu  Cu18  1  0.23653100  0.84812500  0.50078700  1
  Cu  Cu19  1  0.41455700  0.50078700  0.84812500  1
  C  C20  1  0.61027200  0.91694100  0.23903800  1
  C  C21  1  0.23374900  0.23903800  0.91694100  1
  C  C22  1  0.01096200  0.01625100  0.63972800  1
  C  C23  1  0.33305900  0.63972800  0.01625100  1
  C  C24  1  0.90283500  0.65448800  0.76807900  1
  C  C25  1  0.67459800  0.76807900  0.65448800  1
  C  C26  1  0.48192100  0.57540200  0.34716500  1
  C  C27  1  0.59551200  0.34716500  0.57540200  1
