# generated using pymatgen
data_CuNiC8
_symmetry_space_group_name_H-M   'P 1'
_cell_length_a   5.30358500
_cell_length_b   5.53434500
_cell_length_c   7.58341500
_cell_angle_alpha   90.00000000
_cell_angle_beta   90.00000000
_cell_angle_gamma   90.00000000
_symmetry_Int_Tables_number   1
_chemical_formula_structural   CuNiC8
_chemical_formula_sum   'Cu2 Ni2 C16'
_cell_volume   222.58740461
_cell_formula_units_Z   2
loop_
 _symmetry_equiv_pos_site_id
 _symmetry_equiv_pos_as_xyz
  1  'x, y, z'
loop_
 _atom_site_type_symbol
 _atom_site_label
 _atom_site_symmetry_multiplicity
 _atom_site_fract_x
 _atom_site_fract_y
 _atom_site_fract_z
 _atom_site_occupancy
  Ni  Ni0  1  0.48748700  0.19780200  0.00000000  1
  Ni  Ni1  1  0.98748700  0.80219800  0.50000000  1
  Cu  Cu2  1  0.01942100  0.68326800  0.00000000  1
  Cu  Cu3  1  0.51942100  0.31673200  0.50000000  1
  C  C4  1  0.00068400  0.24610100  0.75003900  1
  C  C5  1  0.00068400  0.24610100  0.24996100  1
  C  C6  1  0.50068400  0.75389900  0.25003900  1
  C  C7  1  0.50068400  0.75389900  0.74996100  1
  C  C8  1  0.10724800  0.22044600  0.50000000  1
  C  C9  1  0.19973100  0.94304600  0.80343400  1
  C  C10  1  0.19973100  0.94304600  0.19656600  1
  C  C11  1  0.29799500  0.46204600  0.80073600  1
  C  C12  1  0.29799500  0.46204600  0.19926400  1
  C  C13  1  0.41039800  0.71483300  0.50000000  1
  C  C14  1  0.60724800  0.77955400  0.00000000  1
  C  C15  1  0.69973100  0.05695400  0.30343400  1
  C  C16  1  0.69973100  0.05695400  0.69656600  1
  C  C17  1  0.79799500  0.53795400  0.69926400  1
  C  C18  1  0.79799500  0.53795400  0.30073600  1
  C  C19  1  0.91039800  0.28516700  0.00000000  1
