# generated using pymatgen
data_CuNi12C11
_symmetry_space_group_name_H-M   'P 1'
_cell_length_a   13.19062998
_cell_length_b   13.19062998
_cell_length_c   13.19062998
_cell_angle_alpha   89.54316388
_cell_angle_beta   89.54316388
_cell_angle_gamma   89.54316388
_symmetry_Int_Tables_number   1
_chemical_formula_structural   CuNi12C11
_chemical_formula_sum   'Cu8 Ni96 C88'
_cell_volume   2294.85587588
_cell_formula_units_Z   8
loop_
 _symmetry_equiv_pos_site_id
 _symmetry_equiv_pos_as_xyz
  1  'x, y, z'
loop_
 _atom_site_type_symbol
 _atom_site_label
 _atom_site_symmetry_multiplicity
 _atom_site_fract_x
 _atom_site_fract_y
 _atom_site_fract_z
 _atom_site_occupancy
  C  C0  1  0.00000000  0.00000000  0.50000000  1
  C  C1  1  0.00000000  0.50000000  0.00000000  1
  C  C2  1  0.50000000  0.00000000  0.00000000  1
  C  C3  1  0.50000000  0.50000000  0.50000000  1
  C  C4  1  0.50000000  0.50000000  0.00000000  1
  C  C5  1  0.50000000  0.00000000  0.50000000  1
  C  C6  1  0.00000000  0.50000000  0.50000000  1
  C  C7  1  0.00000000  0.00000000  0.00000000  1
  Ni  Ni8  1  0.33322811  0.11869791  0.26364028  1
  Ni  Ni9  1  0.66756967  0.61984711  0.24941742  1
  Ni  Ni10  1  0.16923787  0.87881841  0.75470363  1
  Ni  Ni11  1  0.83047008  0.37758402  0.74919482  1
  Ni  Ni12  1  0.26364028  0.33322811  0.11869791  1
  Ni  Ni13  1  0.24941742  0.66756967  0.61984711  1
  Ni  Ni14  1  0.75470363  0.16923787  0.87881841  1
  Ni  Ni15  1  0.74919482  0.83047008  0.37758402  1
  Ni  Ni16  1  0.11869791  0.26364028  0.33322811  1
  Ni  Ni17  1  0.61984711  0.24941742  0.66756967  1
  Ni  Ni18  1  0.87881841  0.75470363  0.16923787  1
  Ni  Ni19  1  0.37758402  0.74919482  0.83047008  1
  Ni  Ni20  1  0.66677189  0.88130209  0.73635972  1
  Ni  Ni21  1  0.33243033  0.38015289  0.75058258  1
  Ni  Ni22  1  0.83076213  0.12118159  0.24529637  1
  Ni  Ni23  1  0.16952992  0.62241598  0.25080518  1
  Ni  Ni24  1  0.73635972  0.66677189  0.88130209  1
  Ni  Ni25  1  0.75058258  0.33243033  0.38015289  1
  Ni  Ni26  1  0.24529637  0.83076213  0.12118159  1
  Ni  Ni27  1  0.25080518  0.16952992  0.62241598  1
  Ni  Ni28  1  0.88130209  0.73635972  0.66677189  1
  Ni  Ni29  1  0.38015289  0.75058258  0.33243033  1
  Ni  Ni30  1  0.12118159  0.24529637  0.83076213  1
  Ni  Ni31  1  0.62241598  0.25080518  0.16952992  1
  Ni  Ni32  1  0.50578706  0.27213875  0.18314380  1
  Ni  Ni33  1  0.49626890  0.77078175  0.32099986  1
  Ni  Ni34  1  0.99834626  0.71907790  0.68725250  1
  Ni  Ni35  1  0.00440160  0.22642626  0.81701381  1
  Ni  Ni36  1  0.18314380  0.50578706  0.27213875  1
  Ni  Ni37  1  0.32099986  0.49626890  0.77078175  1
  Ni  Ni38  1  0.68725250  0.99834626  0.71907790  1
  Ni  Ni39  1  0.81701381  0.00440160  0.22642626  1
  Ni  Ni40  1  0.27213875  0.18314380  0.50578706  1
  Ni  Ni41  1  0.77078175  0.32099986  0.49626890  1
  Ni  Ni42  1  0.71907790  0.68725250  0.99834626  1
  Ni  Ni43  1  0.22642626  0.81701381  0.00440160  1
  Ni  Ni44  1  0.49421294  0.72786125  0.81685620  1
  Ni  Ni45  1  0.50373110  0.22921825  0.67900014  1
  Ni  Ni46  1  0.00165374  0.28092210  0.31274750  1
  Ni  Ni47  1  0.99559840  0.77357374  0.18298619  1
  Ni  Ni48  1  0.81685620  0.49421294  0.72786125  1
  Ni  Ni49  1  0.67900014  0.50373110  0.22921825  1
  Ni  Ni50  1  0.31274750  0.00165374  0.28092210  1
  Ni  Ni51  1  0.18298619  0.99559840  0.77357374  1
  Ni  Ni52  1  0.72786125  0.81685620  0.49421294  1
  Ni  Ni53  1  0.22921825  0.67900014  0.50373110  1
  Ni  Ni54  1  0.28092210  0.31274750  0.00165374  1
  Ni  Ni55  1  0.77357374  0.18298619  0.99559840  1
  Ni  Ni56  1  0.16630109  0.18293530  0.05328149  1
  Ni  Ni57  1  0.82936746  0.68049304  0.44714679  1
  Ni  Ni58  1  0.33078618  0.81818754  0.54906674  1
  Ni  Ni59  1  0.66672830  0.31879219  0.94923789  1
  Ni  Ni60  1  0.05328149  0.16630109  0.18293530  1
  Ni  Ni61  1  0.44714679  0.82936746  0.68049304  1
  Ni  Ni62  1  0.54906674  0.33078618  0.81818754  1
  Ni  Ni63  1  0.94923789  0.66672830  0.31879219  1
  Ni  Ni64  1  0.18293530  0.05328149  0.16630109  1
  Ni  Ni65  1  0.68049304  0.44714679  0.82936746  1
  Ni  Ni66  1  0.81818754  0.54906674  0.33078618  1
  Ni  Ni67  1  0.31879219  0.94923789  0.66672830  1
  Ni  Ni68  1  0.83369891  0.81706470  0.94671851  1
  Ni  Ni69  1  0.17063254  0.31950696  0.55285321  1
  Ni  Ni70  1  0.66921382  0.18181246  0.45093326  1
  Ni  Ni71  1  0.33327170  0.68120781  0.05076211  1
  Ni  Ni72  1  0.94671851  0.83369891  0.81706470  1
  Ni  Ni73  1  0.55285321  0.17063254  0.31950696  1
  Ni  Ni74  1  0.45093326  0.66921382  0.18181246  1
  Ni  Ni75  1  0.05076211  0.33327170  0.68120781  1
  Ni  Ni76  1  0.81706470  0.94671851  0.83369891  1
  Ni  Ni77  1  0.31950696  0.55285321  0.17063254  1
  Ni  Ni78  1  0.18181246  0.45093326  0.66921382  1
  Ni  Ni79  1  0.68120781  0.05076211  0.33327170  1
  Ni  Ni80  1  0.15739691  0.03755531  0.21495112  1
  Ni  Ni81  1  0.84754500  0.53704924  0.28335301  1
  Ni  Ni82  1  0.34591605  0.96315056  0.71441538  1
  Ni  Ni83  1  0.65492649  0.46265532  0.78086291  1
  Ni  Ni84  1  0.21495112  0.15739691  0.03755531  1
  Ni  Ni85  1  0.28335301  0.84754500  0.53704924  1
  Ni  Ni86  1  0.71441538  0.34591605  0.96315056  1
  Ni  Ni87  1  0.78086291  0.65492649  0.46265532  1
  Ni  Ni88  1  0.03755531  0.21495112  0.15739691  1
  Ni  Ni89  1  0.53704924  0.28335301  0.84754500  1
  Ni  Ni90  1  0.96315056  0.71441538  0.34591605  1
  Ni  Ni91  1  0.46265532  0.78086291  0.65492649  1
  Ni  Ni92  1  0.84260309  0.96244469  0.78504888  1
  Ni  Ni93  1  0.15245500  0.46295076  0.71664699  1
  Ni  Ni94  1  0.65408395  0.03684944  0.28558462  1
  Ni  Ni95  1  0.34507351  0.53734468  0.21913709  1
  Ni  Ni96  1  0.78504888  0.84260309  0.96244469  1
  Ni  Ni97  1  0.71664699  0.15245500  0.46295076  1
  Ni  Ni98  1  0.28558462  0.65408395  0.03684944  1
  Ni  Ni99  1  0.21913709  0.34507351  0.53734468  1
  Ni  Ni100  1  0.96244469  0.78504888  0.84260309  1
  Ni  Ni101  1  0.46295076  0.71664699  0.15245500  1
  Ni  Ni102  1  0.03684944  0.28558462  0.65408395  1
  Ni  Ni103  1  0.53734468  0.21913709  0.34507351  1
  Cu  Cu104  1  0.17405050  0.82522737  0.32170410  1
  Cu  Cu105  1  0.82522737  0.32170410  0.17405050  1
  Cu  Cu106  1  0.32170410  0.17405050  0.82522737  1
  Cu  Cu107  1  0.67628587  0.67628587  0.67628587  1
  Cu  Cu108  1  0.82594950  0.17477263  0.67829590  1
  Cu  Cu109  1  0.17477263  0.67829590  0.82594950  1
  Cu  Cu110  1  0.67829590  0.82594950  0.17477263  1
  Cu  Cu111  1  0.32371413  0.32371413  0.32371413  1
  C  C112  1  0.23921349  0.76106174  0.25494834  1
  C  C113  1  0.76106174  0.25494834  0.23921349  1
  C  C114  1  0.25494834  0.23921349  0.76106174  1
  C  C115  1  0.74104075  0.74104075  0.74104075  1
  C  C116  1  0.76078651  0.23893826  0.74505166  1
  C  C117  1  0.23893826  0.74505166  0.76078651  1
  C  C118  1  0.74505166  0.76078651  0.23893826  1
  C  C119  1  0.25895925  0.25895925  0.25895925  1
  C  C120  1  0.07280888  0.84406435  0.27506340  1
  C  C121  1  0.92528413  0.34044680  0.22195619  1
  C  C122  1  0.42195500  0.15627509  0.77529366  1
  C  C123  1  0.57524619  0.65972173  0.72475561  1
  C  C124  1  0.27506340  0.07280888  0.84406435  1
  C  C125  1  0.22195619  0.92528413  0.34044680  1
  C  C126  1  0.77529366  0.42195500  0.15627509  1
  C  C127  1  0.72475561  0.57524619  0.65972173  1
  C  C128  1  0.84406435  0.27506340  0.07280888  1
  C  C129  1  0.34044680  0.22195619  0.92528413  1
  C  C130  1  0.15627509  0.77529366  0.42195500  1
  C  C131  1  0.65972173  0.72475561  0.57524619  1
  C  C132  1  0.92719112  0.15593565  0.72493660  1
  C  C133  1  0.07471587  0.65955320  0.77804381  1
  C  C134  1  0.57804500  0.84372491  0.22470634  1
  C  C135  1  0.42475381  0.34027827  0.27524439  1
  C  C136  1  0.72493660  0.92719112  0.15593565  1
  C  C137  1  0.77804381  0.07471587  0.65955320  1
  C  C138  1  0.22470634  0.57804500  0.84372491  1
  C  C139  1  0.27524439  0.42475381  0.34027827  1
  C  C140  1  0.15593565  0.72493660  0.92719112  1
  C  C141  1  0.65955320  0.77804381  0.07471587  1
  C  C142  1  0.84372491  0.22470634  0.57804500  1
  C  C143  1  0.34027827  0.27524439  0.42475381  1
  C  C144  1  0.24601164  0.35940000  0.05041525  1
  C  C145  1  0.76404724  0.86059537  0.44436628  1
  C  C146  1  0.26475173  0.63573729  0.55393023  1
  C  C147  1  0.73878987  0.13899162  0.94621488  1
  C  C148  1  0.05041525  0.24601164  0.35940000  1
  C  C149  1  0.44436628  0.76404724  0.86059537  1
  C  C150  1  0.55393023  0.26475173  0.63573729  1
  C  C151  1  0.94621488  0.73878987  0.13899162  1
  C  C152  1  0.35940000  0.05041525  0.24601164  1
  C  C153  1  0.86059537  0.44436628  0.76404724  1
  C  C154  1  0.63573729  0.55393023  0.26475173  1
  C  C155  1  0.13899162  0.94621488  0.73878987  1
  C  C156  1  0.75398836  0.64060000  0.94958475  1
  C  C157  1  0.23595276  0.13940463  0.55563372  1
  C  C158  1  0.73524827  0.36426271  0.44606977  1
  C  C159  1  0.26121013  0.86100838  0.05378512  1
  C  C160  1  0.94958475  0.75398836  0.64060000  1
  C  C161  1  0.55563372  0.23595276  0.13940463  1
  C  C162  1  0.44606977  0.73524827  0.36426271  1
  C  C163  1  0.05378512  0.26121013  0.86100838  1
  C  C164  1  0.64060000  0.94958475  0.75398836  1
  C  C165  1  0.13940463  0.55563372  0.23595276  1
  C  C166  1  0.36426271  0.44606977  0.73524827  1
  C  C167  1  0.86100838  0.05378512  0.26121013  1
  C  C168  1  0.49588790  0.63976110  0.98233663  1
  C  C169  1  0.49919506  0.13910002  0.51480743  1
  C  C170  1  0.01190918  0.36120983  0.47646251  1
  C  C171  1  0.99460592  0.86071204  0.02032572  1
  C  C172  1  0.98233663  0.49588790  0.63976110  1
  C  C173  1  0.51480743  0.49919506  0.13910002  1
  C  C174  1  0.47646251  0.01190918  0.36120983  1
  C  C175  1  0.02032572  0.99460592  0.86071204  1
  C  C176  1  0.63976110  0.98233663  0.49588790  1
  C  C177  1  0.13910002  0.51480743  0.49919506  1
  C  C178  1  0.36120983  0.47646251  0.01190918  1
  C  C179  1  0.86071204  0.02032572  0.99460592  1
  C  C180  1  0.50411210  0.36023890  0.01766337  1
  C  C181  1  0.50080494  0.86089998  0.48519257  1
  C  C182  1  0.98809082  0.63879017  0.52353749  1
  C  C183  1  0.00539408  0.13928796  0.97967428  1
  C  C184  1  0.01766337  0.50411210  0.36023890  1
  C  C185  1  0.48519257  0.50080494  0.86089998  1
  C  C186  1  0.52353749  0.98809082  0.63879017  1
  C  C187  1  0.97967428  0.00539408  0.13928796  1
  C  C188  1  0.36023890  0.01766337  0.50411210  1
  C  C189  1  0.86089998  0.48519257  0.50080494  1
  C  C190  1  0.63879017  0.52353749  0.98809082  1
  C  C191  1  0.13928796  0.97967428  0.00539408  1
