# generated using pymatgen
data_Cu2NiC3
_symmetry_space_group_name_H-M   'P 1'
_cell_length_a   3.30573656
_cell_length_b   3.30573656
_cell_length_c   44.77606800
_cell_angle_alpha   90.00000000
_cell_angle_beta   90.00000000
_cell_angle_gamma   120.00001119
_symmetry_Int_Tables_number   1
_chemical_formula_structural   Cu2NiC3
_chemical_formula_sum   'Cu4 Ni2 C6'
_cell_volume   423.75322633
_cell_formula_units_Z   2
loop_
 _symmetry_equiv_pos_site_id
 _symmetry_equiv_pos_as_xyz
  1  'x, y, z'
loop_
 _atom_site_type_symbol
 _atom_site_label
 _atom_site_symmetry_multiplicity
 _atom_site_fract_x
 _atom_site_fract_y
 _atom_site_fract_z
 _atom_site_occupancy
  C  C0  1  0.66666700  0.33333300  0.42930700  1
  C  C1  1  0.66666700  0.33333300  0.51471400  1
  C  C2  1  0.33333300  0.66666700  0.09353600  1
  C  C3  1  0.33333300  0.66666700  0.47205400  1
  C  C4  1  0.66666700  0.33333300  0.27738200  1
  C  C5  1  0.66666700  0.33333300  0.65996400  1
  Ni  Ni6  1  0.33333300  0.66666700  0.31506400  1
  Ni  Ni7  1  0.33333300  0.66666700  0.23968500  1
  Cu  Cu8  1  0.33333300  0.66666700  0.69426400  1
  Cu  Cu9  1  0.66666700  0.33333300  0.05942300  1
  Cu  Cu10  1  0.66666700  0.33333300  0.12765100  1
  Cu  Cu11  1  0.33333300  0.66666700  0.62570300  1
