# generated using pymatgen
data_Cu5Ni2C25
_symmetry_space_group_name_H-M   'P 1'
_cell_length_a   2.96651800
_cell_length_b   6.45753325
_cell_length_c   15.41507327
_cell_angle_alpha   88.32614866
_cell_angle_beta   86.99365254
_cell_angle_gamma   76.96147744
_symmetry_Int_Tables_number   1
_chemical_formula_structural   Cu5Ni2C25
_chemical_formula_sum   'Cu5 Ni2 C25'
_cell_volume   287.24219524
_cell_formula_units_Z   1
loop_
 _symmetry_equiv_pos_site_id
 _symmetry_equiv_pos_as_xyz
  1  'x, y, z'
loop_
 _atom_site_type_symbol
 _atom_site_label
 _atom_site_symmetry_multiplicity
 _atom_site_fract_x
 _atom_site_fract_y
 _atom_site_fract_z
 _atom_site_occupancy
  C  C0  1  0.92450400  0.12720300  0.80642900  1
  C  C1  1  0.17989700  0.62066200  0.56077800  1
  C  C2  1  0.44010500  0.12208200  0.31396600  1
  C  C3  1  0.55511100  0.89130100  0.68519600  1
  C  C4  1  0.82285100  0.36976400  0.43671600  1
  C  C5  1  0.06428200  0.87875400  0.18860000  1
  C  C6  1  0.69369300  0.61922700  0.06413400  1
  C  C7  1  0.31931000  0.37469100  0.93961100  1
  C  C8  1  0.89846900  0.23937700  0.62880400  1
  Ni  Ni9  1  0.99050000  0.00160500  0.00171000  1
  Ni  Ni10  1  0.25637700  0.48712500  0.74514600  1
  Cu  Cu11  1  0.50484000  0.00907900  0.50444200  1
  Cu  Cu12  1  0.74405900  0.50355400  0.25072700  1
  Cu  Cu13  1  0.12283500  0.74953300  0.37621400  1
  Cu  Cu14  1  0.38141400  0.25382600  0.12732300  1
  Cu  Cu15  1  0.60957800  0.75764800  0.87255000  1
  C  C16  1  0.42097100  0.05617900  0.91005000  1
  C  C17  1  0.74403200  0.55486200  0.66712400  1
  C  C18  1  0.95445400  0.03900400  0.40936600  1
  C  C19  1  0.08999500  0.79484400  0.78548900  1
  C  C20  1  0.36171700  0.28024100  0.52402600  1
  C  C21  1  0.56593100  0.79747100  0.28455200  1
  C  C22  1  0.24318500  0.54720700  0.15956100  1
  C  C23  1  0.81769300  0.30281400  0.03624900  1
  C  C24  1  0.40293700  0.20481100  0.72049000  1
  C  C25  1  0.67566400  0.71151300  0.46611200  1
  C  C26  1  0.93741400  0.20595600  0.21756900  1
  C  C27  1  0.07187100  0.93626900  0.58445500  1
  C  C28  1  0.25800500  0.45703300  0.34233300  1
  C  C29  1  0.55193300  0.95471600  0.09510700  1
  C  C30  1  0.14419500  0.69990200  0.96318400  1
  C  C31  1  0.75218000  0.45174800  0.83198600  1
