# generated using pymatgen
data_CuNiC7
_symmetry_space_group_name_H-M   'P 1'
_cell_length_a   9.27160300
_cell_length_b   9.45881500
_cell_length_c   12.80890900
_cell_angle_alpha   90.00000000
_cell_angle_beta   90.00000000
_cell_angle_gamma   90.00000000
_symmetry_Int_Tables_number   1
_chemical_formula_structural   CuNiC7
_chemical_formula_sum   'Cu4 Ni4 C28'
_cell_volume   1123.32053724
_cell_formula_units_Z   4
loop_
 _symmetry_equiv_pos_site_id
 _symmetry_equiv_pos_as_xyz
  1  'x, y, z'
loop_
 _atom_site_type_symbol
 _atom_site_label
 _atom_site_symmetry_multiplicity
 _atom_site_fract_x
 _atom_site_fract_y
 _atom_site_fract_z
 _atom_site_occupancy
  C  C0  1  0.00689900  0.12333500  0.82502900  1
  C  C1  1  0.49310100  0.37666500  0.32502900  1
  C  C2  1  0.50689900  0.87666500  0.17497100  1
  C  C3  1  0.99310100  0.62333500  0.67497100  1
  C  C4  1  0.99310100  0.87666500  0.17497100  1
  C  C5  1  0.50689900  0.62333500  0.67497100  1
  C  C6  1  0.49310100  0.12333500  0.82502900  1
  C  C7  1  0.00689900  0.37666500  0.32502900  1
  Ni  Ni8  1  0.25000000  0.33279000  0.59707300  1
  Ni  Ni9  1  0.25000000  0.16721000  0.09707300  1
  Ni  Ni10  1  0.75000000  0.66721000  0.40292700  1
  Ni  Ni11  1  0.75000000  0.83279000  0.90292700  1
  Cu  Cu12  1  0.25000000  0.98098900  0.52673200  1
  Cu  Cu13  1  0.25000000  0.51901100  0.02673200  1
  Cu  Cu14  1  0.75000000  0.01901100  0.47326800  1
  Cu  Cu15  1  0.75000000  0.48098900  0.97326800  1
  C  C16  1  0.04329900  0.17566600  0.55851000  1
  C  C17  1  0.45670100  0.32433400  0.05851000  1
  C  C18  1  0.54329900  0.82433400  0.44149000  1
  C  C19  1  0.95670100  0.67566600  0.94149000  1
  C  C20  1  0.95670100  0.82433400  0.44149000  1
  C  C21  1  0.54329900  0.67566600  0.94149000  1
  C  C22  1  0.45670100  0.17566600  0.55851000  1
  C  C23  1  0.04329900  0.32433400  0.05851000  1
  C  C24  1  0.25000000  0.88385600  0.71846000  1
  C  C25  1  0.25000000  0.61614400  0.21846000  1
  C  C26  1  0.75000000  0.11614400  0.28154000  1
  C  C27  1  0.75000000  0.38385600  0.78154000  1
  C  C28  1  0.25000000  0.39282100  0.78016700  1
  C  C29  1  0.25000000  0.10717900  0.28016700  1
  C  C30  1  0.75000000  0.60717900  0.21983300  1
  C  C31  1  0.75000000  0.89282100  0.71983300  1
  C  C32  1  0.25000000  0.96163800  0.99033300  1
  C  C33  1  0.25000000  0.53836200  0.49033300  1
  C  C34  1  0.75000000  0.03836200  0.00966700  1
  C  C35  1  0.75000000  0.46163800  0.50966700  1
