# generated using pymatgen
data_Cu4Ni3C19
_symmetry_space_group_name_H-M   'P 1'
_cell_length_a   5.12770900
_cell_length_b   8.71199800
_cell_length_c   15.66791260
_cell_angle_alpha   68.12610079
_cell_angle_beta   90.00000000
_cell_angle_gamma   90.00000000
_symmetry_Int_Tables_number   1
_chemical_formula_structural   Cu4Ni3C19
_chemical_formula_sum   'Cu8 Ni6 C38'
_cell_volume   649.53580348
_cell_formula_units_Z   2
loop_
 _symmetry_equiv_pos_site_id
 _symmetry_equiv_pos_as_xyz
  1  'x, y, z'
loop_
 _atom_site_type_symbol
 _atom_site_label
 _atom_site_symmetry_multiplicity
 _atom_site_fract_x
 _atom_site_fract_y
 _atom_site_fract_z
 _atom_site_occupancy
  C  C0  1  0.52170100  0.27867900  0.23053400  1
  C  C1  1  0.02170100  0.72132100  0.26946600  1
  C  C2  1  0.47829900  0.72132100  0.76946600  1
  C  C3  1  0.97829900  0.27867900  0.73053400  1
  C  C4  1  0.50000000  0.00000000  0.50000000  1
  C  C5  1  0.00000000  0.00000000  0.00000000  1
  Ni  Ni6  1  0.49503600  0.21244200  0.62073400  1
  Ni  Ni7  1  0.50496400  0.78755800  0.37926600  1
  Ni  Ni8  1  0.99503600  0.78755800  0.87926600  1
  Ni  Ni9  1  0.00496400  0.21244200  0.12073400  1
  Ni  Ni10  1  0.00000000  0.50000000  0.50000000  1
  Ni  Ni11  1  0.50000000  0.50000000  0.00000000  1
  Cu  Cu12  1  0.99229600  0.04096600  0.34870100  1
  Cu  Cu13  1  0.50564900  0.41892900  0.39977600  1
  Cu  Cu14  1  0.00564900  0.58107100  0.10022400  1
  Cu  Cu15  1  0.99435100  0.41892900  0.89977600  1
  Cu  Cu16  1  0.00770400  0.95903400  0.65129900  1
  Cu  Cu17  1  0.49435100  0.58107100  0.60022400  1
  Cu  Cu18  1  0.50770400  0.04096600  0.84870100  1
  Cu  Cu19  1  0.49229600  0.95903400  0.15129900  1
  C  C20  1  0.39999000  0.80542500  0.25713800  1
  C  C21  1  0.93412700  0.75993300  0.00645100  1
  C  C22  1  0.40342100  0.40776700  0.30004600  1
  C  C23  1  0.39127000  0.15009600  0.15355600  1
  C  C24  1  0.59657900  0.59223300  0.69995400  1
  C  C25  1  0.10001000  0.80542500  0.75713800  1
  C  C26  1  0.90342100  0.59223300  0.19995400  1
  C  C27  1  0.67850400  0.49443800  0.89308700  1
  C  C28  1  0.67444000  0.09454700  0.92619500  1
  C  C29  1  0.60001000  0.19457500  0.74286200  1
  C  C30  1  0.10873000  0.15009600  0.65355600  1
  C  C31  1  0.32149600  0.50556200  0.10691300  1
  C  C32  1  0.30785800  0.57049700  0.41986200  1
  C  C33  1  0.32556000  0.90545300  0.07380500  1
  C  C34  1  0.67258600  0.96073600  0.64023000  1
  C  C35  1  0.17258600  0.03926400  0.85977000  1
  C  C36  1  0.80785800  0.42950300  0.08013800  1
  C  C37  1  0.09657900  0.40776700  0.80004600  1
  C  C38  1  0.17444000  0.90545300  0.57380500  1
  C  C39  1  0.17850400  0.50556200  0.60691300  1
  C  C40  1  0.82741400  0.96073600  0.14023000  1
  C  C41  1  0.32741400  0.03926400  0.35977000  1
  C  C42  1  0.06587300  0.24006700  0.99354900  1
  C  C43  1  0.43412700  0.24006700  0.49354900  1
  C  C44  1  0.69214200  0.42950300  0.58013800  1
  C  C45  1  0.89999000  0.19457500  0.24286200  1
  C  C46  1  0.60873000  0.84990400  0.84644400  1
  C  C47  1  0.82556000  0.09454700  0.42619500  1
  C  C48  1  0.56587300  0.75993300  0.50645100  1
  C  C49  1  0.82149600  0.49443800  0.39308700  1
  C  C50  1  0.19214200  0.57049700  0.91986200  1
  C  C51  1  0.89127000  0.84990400  0.34644400  1
