# generated using pymatgen
data_CuNi10C3
_symmetry_space_group_name_H-M   'P 1'
_cell_length_a   5.38121200
_cell_length_b   10.85815900
_cell_length_c   11.65753570
_cell_angle_alpha   61.03442179
_cell_angle_beta   90.00000000
_cell_angle_gamma   90.00000000
_symmetry_Int_Tables_number   1
_chemical_formula_structural   CuNi10C3
_chemical_formula_sum   'Cu4 Ni40 C12'
_cell_volume   595.94589887
_cell_formula_units_Z   4
loop_
 _symmetry_equiv_pos_site_id
 _symmetry_equiv_pos_as_xyz
  1  'x, y, z'
loop_
 _atom_site_type_symbol
 _atom_site_label
 _atom_site_symmetry_multiplicity
 _atom_site_fract_x
 _atom_site_fract_y
 _atom_site_fract_z
 _atom_site_occupancy
  C  C0  1  0.83400900  0.78521400  0.09647800  1
  C  C1  1  0.66599100  0.78521400  0.59647800  1
  C  C2  1  0.16599100  0.21478600  0.90352200  1
  C  C3  1  0.33400900  0.21478600  0.40352200  1
  C  C4  1  0.95412200  0.80035900  0.94566800  1
  C  C5  1  0.54587800  0.80035900  0.44566800  1
  C  C6  1  0.04587800  0.19964100  0.05433200  1
  C  C7  1  0.45412200  0.19964100  0.55433200  1
  C  C8  1  0.82456300  0.64179200  0.06201200  1
  C  C9  1  0.67543700  0.64179200  0.56201200  1
  C  C10  1  0.17543700  0.35820800  0.93798800  1
  C  C11  1  0.32456300  0.35820800  0.43798800  1
  Ni  Ni12  1  0.18355100  0.85432500  0.14320100  1
  Ni  Ni13  1  0.31644900  0.85432500  0.64320100  1
  Ni  Ni14  1  0.81644900  0.14567500  0.85679900  1
  Ni  Ni15  1  0.68355100  0.14567500  0.35679900  1
  Ni  Ni16  1  0.97798500  0.80206300  0.26319600  1
  Ni  Ni17  1  0.52201500  0.80206300  0.76319600  1
  Ni  Ni18  1  0.02201500  0.19793700  0.73680400  1
  Ni  Ni19  1  0.47798500  0.19793700  0.23680400  1
  Ni  Ni20  1  0.13626800  0.68451600  0.24037700  1
  Ni  Ni21  1  0.36373200  0.68451600  0.74037700  1
  Ni  Ni22  1  0.86373200  0.31548400  0.75962300  1
  Ni  Ni23  1  0.63626800  0.31548400  0.25962300  1
  Ni  Ni24  1  0.72332400  0.89501600  0.05380700  1
  Ni  Ni25  1  0.77667600  0.89501600  0.55380700  1
  Ni  Ni26  1  0.27667600  0.10498400  0.94619300  1
  Ni  Ni27  1  0.22332400  0.10498400  0.44619300  1
  Ni  Ni28  1  0.68236000  0.69431200  0.16499000  1
  Ni  Ni29  1  0.81764000  0.69431200  0.66499000  1
  Ni  Ni30  1  0.31764000  0.30568800  0.83501000  1
  Ni  Ni31  1  0.18236000  0.30568800  0.33501000  1
  Ni  Ni32  1  0.16999600  0.83229000  0.94347400  1
  Ni  Ni33  1  0.33000400  0.83229000  0.44347400  1
  Ni  Ni34  1  0.83000400  0.16771000  0.05652600  1
  Ni  Ni35  1  0.66999600  0.16771000  0.55652600  1
  Ni  Ni36  1  0.82945400  0.87602700  0.85124700  1
  Ni  Ni37  1  0.67054600  0.87602700  0.35124700  1
  Ni  Ni38  1  0.17054600  0.12397300  0.14875300  1
  Ni  Ni39  1  0.32945400  0.12397300  0.64875300  1
  Ni  Ni40  1  0.95011200  0.54671900  0.14221400  1
  Ni  Ni41  1  0.54988800  0.54671900  0.64221400  1
  Ni  Ni42  1  0.04988800  0.45328100  0.85778600  1
  Ni  Ni43  1  0.45011200  0.45328100  0.35778600  1
  Ni  Ni44  1  0.62583600  0.61163900  0.03498000  1
  Ni  Ni45  1  0.87416400  0.61163900  0.53498000  1
  Ni  Ni46  1  0.37416400  0.38836100  0.96502000  1
  Ni  Ni47  1  0.12583600  0.38836100  0.46502000  1
  Ni  Ni48  1  0.96675900  0.67998700  0.94931800  1
  Ni  Ni49  1  0.53324100  0.67998700  0.44931800  1
  Ni  Ni50  1  0.03324100  0.32001300  0.05068200  1
  Ni  Ni51  1  0.46675900  0.32001300  0.55068200  1
  Cu  Cu52  1  0.04940000  0.78080300  0.19284100  1
  Cu  Cu53  1  0.45060000  0.78080300  0.69284100  1
  Cu  Cu54  1  0.95060000  0.21919700  0.80715900  1
  Cu  Cu55  1  0.54940000  0.21919700  0.30715900  1
