# generated using pymatgen
data_CuNiC14
_symmetry_space_group_name_H-M   'P 1'
_cell_length_a   8.75842872
_cell_length_b   4.36748990
_cell_length_c   4.36748990
_cell_angle_alpha   90.00000000
_cell_angle_beta   90.00000000
_cell_angle_gamma   90.00000000
_symmetry_Int_Tables_number   1
_chemical_formula_structural   CuNiC14
_chemical_formula_sum   'Cu1 Ni1 C14'
_cell_volume   167.06674780
_cell_formula_units_Z   1
loop_
 _symmetry_equiv_pos_site_id
 _symmetry_equiv_pos_as_xyz
  1  'x, y, z'
loop_
 _atom_site_type_symbol
 _atom_site_label
 _atom_site_symmetry_multiplicity
 _atom_site_fract_x
 _atom_site_fract_y
 _atom_site_fract_z
 _atom_site_occupancy
  Ni  Ni0  1  0.50000000  -0.00000000  0.00000000  1
  C  C1  1  0.00000000  0.50000000  0.50000000  1
  C  C2  1  0.50000000  0.50000000  0.50000000  1
  C  C3  1  0.24085647  0.00000000  0.50000000  1
  C  C4  1  0.75914353  -0.00000000  0.50000000  1
  C  C5  1  0.24085647  0.50000000  0.00000000  1
  C  C6  1  0.75914353  0.50000000  -0.00000000  1
  Cu  Cu7  1  0.00000000  -0.00000000  0.00000000  1
  C  C8  1  0.25114779  0.00000000  -0.00000000  1
  C  C9  1  0.74885221  -0.00000000  0.00000000  1
  C  C10  1  0.24826277  0.50000000  0.50000000  1
  C  C11  1  0.75173723  0.50000000  0.50000000  1
  C  C12  1  0.00000000  -0.00000000  0.50000000  1
  C  C13  1  0.50000000  -0.00000000  0.50000000  1
  C  C14  1  0.00000000  0.50000000  0.00000000  1
  C  C15  1  0.50000000  0.50000000  0.00000000  1
