# generated using pymatgen
data_CuNiC
_symmetry_space_group_name_H-M   'P 1'
_cell_length_a   4.46219500
_cell_length_b   6.89513200
_cell_length_c   7.81882900
_cell_angle_alpha   90.00000000
_cell_angle_beta   90.00000000
_cell_angle_gamma   90.00000000
_symmetry_Int_Tables_number   1
_chemical_formula_structural   CuNiC
_chemical_formula_sum   'Cu4 Ni4 C4'
_cell_volume   240.56522339
_cell_formula_units_Z   4
loop_
 _symmetry_equiv_pos_site_id
 _symmetry_equiv_pos_as_xyz
  1  'x, y, z'
loop_
 _atom_site_type_symbol
 _atom_site_label
 _atom_site_symmetry_multiplicity
 _atom_site_fract_x
 _atom_site_fract_y
 _atom_site_fract_z
 _atom_site_occupancy
  C  C0  1  0.25000000  0.03386800  0.32140800  1
  C  C1  1  0.25000000  0.53386800  0.17859200  1
  C  C2  1  0.75000000  0.96613200  0.67859200  1
  C  C3  1  0.75000000  0.46613200  0.82140800  1
  Ni  Ni4  1  0.25000000  0.14295900  0.93954000  1
  Ni  Ni5  1  0.25000000  0.64295900  0.56046000  1
  Ni  Ni6  1  0.75000000  0.85704100  0.06046000  1
  Ni  Ni7  1  0.75000000  0.35704100  0.43954000  1
  Cu  Cu8  1  0.25000000  0.27187600  0.62063500  1
  Cu  Cu9  1  0.25000000  0.77187600  0.87936500  1
  Cu  Cu10  1  0.75000000  0.72812400  0.37936500  1
  Cu  Cu11  1  0.75000000  0.22812400  0.12063500  1
