# generated using pymatgen
data_Cu6Ni2C11
_symmetry_space_group_name_H-M   'P 1'
_cell_length_a   6.26249178
_cell_length_b   8.54094367
_cell_length_c   11.72908800
_cell_angle_alpha   90.00000000
_cell_angle_beta   90.00000000
_cell_angle_gamma   105.87096461
_symmetry_Int_Tables_number   1
_chemical_formula_structural   Cu6Ni2C11
_chemical_formula_sum   'Cu12 Ni4 C22'
_cell_volume   603.44566848
_cell_formula_units_Z   2
loop_
 _symmetry_equiv_pos_site_id
 _symmetry_equiv_pos_as_xyz
  1  'x, y, z'
loop_
 _atom_site_type_symbol
 _atom_site_label
 _atom_site_symmetry_multiplicity
 _atom_site_fract_x
 _atom_site_fract_y
 _atom_site_fract_z
 _atom_site_occupancy
  C  C0  1  0.72381000  0.55525200  0.89581900  1
  C  C1  1  0.27619000  0.44474800  0.10418100  1
  C  C2  1  0.27619000  0.94474800  0.39581900  1
  C  C3  1  0.72381000  0.05525200  0.60418100  1
  C  C4  1  0.50000000  0.00000000  0.00000000  1
  C  C5  1  0.50000000  0.50000000  0.50000000  1
  Ni  Ni6  1  0.95174300  0.59299100  0.17087200  1
  Ni  Ni7  1  0.04825700  0.40700900  0.82912800  1
  Ni  Ni8  1  0.04825700  0.90700900  0.67087200  1
  Ni  Ni9  1  0.95174300  0.09299100  0.32912800  1
  Cu  Cu10  1  0.77096400  0.97592400  0.96577900  1
  Cu  Cu11  1  0.22903600  0.02407600  0.03422100  1
  Cu  Cu12  1  0.22903600  0.52407600  0.46577900  1
  Cu  Cu13  1  0.77096400  0.47592400  0.53422100  1
  Cu  Cu14  1  0.39071300  0.59114000  0.62022000  1
  Cu  Cu15  1  0.60928700  0.40886000  0.37978000  1
  Cu  Cu16  1  0.60928700  0.90886000  0.12022000  1
  Cu  Cu17  1  0.39071300  0.09114000  0.87978000  1
  Cu  Cu18  1  0.36480700  0.84377100  0.89865000  1
  Cu  Cu19  1  0.63519300  0.15622900  0.10135000  1
  Cu  Cu20  1  0.63519300  0.65622900  0.39865000  1
  Cu  Cu21  1  0.36480700  0.34377100  0.60135000  1
  C  C22  1  0.05326500  0.75514500  0.68608000  1
  C  C23  1  0.94673500  0.24485500  0.31392000  1
  C  C24  1  0.94673500  0.74485500  0.18608000  1
  C  C25  1  0.05326500  0.25514500  0.81392000  1
  C  C26  1  0.90821000  0.68371700  0.93224300  1
  C  C27  1  0.09179000  0.31628300  0.06775700  1
  C  C28  1  0.09179000  0.81628300  0.43224300  1
  C  C29  1  0.90821000  0.18371700  0.56775700  1
  C  C30  1  0.80287000  0.88387500  0.64326600  1
  C  C31  1  0.19713000  0.11612500  0.35673400  1
  C  C32  1  0.19713000  0.61612500  0.14326600  1
  C  C33  1  0.80287000  0.38387500  0.85673400  1
  C  C34  1  0.49358100  0.52357800  0.87118100  1
  C  C35  1  0.50641900  0.47642200  0.12881900  1
  C  C36  1  0.50641900  0.97642200  0.37118100  1
  C  C37  1  0.49358100  0.02357800  0.62881900  1
