# generated using pymatgen
data_Cu8NiC
_symmetry_space_group_name_H-M   'P 1'
_cell_length_a   5.33559173
_cell_length_b   5.33559173
_cell_length_c   12.44030453
_cell_angle_alpha   55.82817236
_cell_angle_beta   124.17182764
_cell_angle_gamma   114.55550460
_symmetry_Int_Tables_number   1
_chemical_formula_structural   Cu8NiC
_chemical_formula_sum   'Cu16 Ni2 C2'
_cell_volume   239.82175447
_cell_formula_units_Z   2
loop_
 _symmetry_equiv_pos_site_id
 _symmetry_equiv_pos_as_xyz
  1  'x, y, z'
loop_
 _atom_site_type_symbol
 _atom_site_label
 _atom_site_symmetry_multiplicity
 _atom_site_fract_x
 _atom_site_fract_y
 _atom_site_fract_z
 _atom_site_occupancy
  C  C0  1  0.00000000  0.00000000  0.00000000  1
  C  C1  1  0.00000000  0.00000000  0.50000000  1
  Ni  Ni2  1  0.73517400  0.73517400  0.25000000  1
  Ni  Ni3  1  0.26482600  0.26482600  0.75000000  1
  Cu  Cu4  1  0.59637300  0.23264800  0.83437000  1
  Cu  Cu5  1  0.23264800  0.59637300  0.66563000  1
  Cu  Cu6  1  0.40362700  0.76735200  0.16563000  1
  Cu  Cu7  1  0.76735200  0.40362700  0.33437000  1
  Cu  Cu8  1  0.87491800  0.89755100  0.14771300  1
  Cu  Cu9  1  0.89755100  0.87491800  0.35228700  1
  Cu  Cu10  1  0.12508200  0.10244900  0.85228700  1
  Cu  Cu11  1  0.10244900  0.12508200  0.64771300  1
  Cu  Cu12  1  0.23238200  0.46826600  0.97444000  1
  Cu  Cu13  1  0.46826600  0.23238200  0.52556000  1
  Cu  Cu14  1  0.76761800  0.53173400  0.02556000  1
  Cu  Cu15  1  0.53173400  0.76761800  0.47444000  1
  Cu  Cu16  1  0.32119200  0.65053900  0.87910300  1
  Cu  Cu17  1  0.65053900  0.32119200  0.62089700  1
  Cu  Cu18  1  0.67880800  0.34946100  0.12089700  1
  Cu  Cu19  1  0.34946100  0.67880800  0.37910300  1
