# generated using pymatgen
data_Cu(NiC3)2
_symmetry_space_group_name_H-M   'P 1'
_cell_length_a   3.35189369
_cell_length_b   3.35189369
_cell_length_c   30.99364500
_cell_angle_alpha   90.00000000
_cell_angle_beta   90.00000000
_cell_angle_gamma   119.99999394
_symmetry_Int_Tables_number   1
_chemical_formula_structural   Cu(NiC3)2
_chemical_formula_sum   'Cu1 Ni2 C6'
_cell_volume   301.56697881
_cell_formula_units_Z   1
loop_
 _symmetry_equiv_pos_site_id
 _symmetry_equiv_pos_as_xyz
  1  'x, y, z'
loop_
 _atom_site_type_symbol
 _atom_site_label
 _atom_site_symmetry_multiplicity
 _atom_site_fract_x
 _atom_site_fract_y
 _atom_site_fract_z
 _atom_site_occupancy
  C  C0  1  0.33333300  0.66666700  0.40843200  1
  C  C1  1  0.33333300  0.66666700  0.28542100  1
  Ni  Ni2  1  0.33333300  0.66666700  0.11563900  1
  Ni  Ni3  1  0.33333300  0.66666700  0.57837900  1
  Cu  Cu4  1  0.66666700  0.33333300  0.34695100  1
  C  C5  1  0.66666700  0.33333300  0.52461300  1
  C  C6  1  0.66666700  0.33333300  0.63210900  1
  C  C7  1  0.66666700  0.33333300  0.06671300  1
  C  C8  1  0.66666700  0.33333300  0.16458500  1
