# generated using pymatgen
data_Cu4Ni3C4
_symmetry_space_group_name_H-M   'P 1'
_cell_length_a   10.38442400
_cell_length_b   10.70031200
_cell_length_c   15.22248152
_cell_angle_alpha   90.00000000
_cell_angle_beta   131.77426946
_cell_angle_gamma   90.00000000
_symmetry_Int_Tables_number   1
_chemical_formula_structural   Cu4Ni3C4
_chemical_formula_sum   'Cu32 Ni24 C32'
_cell_volume   1261.45649327
_cell_formula_units_Z   8
loop_
 _symmetry_equiv_pos_site_id
 _symmetry_equiv_pos_as_xyz
  1  'x, y, z'
loop_
 _atom_site_type_symbol
 _atom_site_label
 _atom_site_symmetry_multiplicity
 _atom_site_fract_x
 _atom_site_fract_y
 _atom_site_fract_z
 _atom_site_occupancy
  C  C0  1  0.85576000  0.62283000  0.61654100  1
  C  C1  1  0.85576000  0.87717000  0.11654100  1
  C  C2  1  0.14424000  0.37717000  0.38345900  1
  C  C3  1  0.14424000  0.12283000  0.88345900  1
  C  C4  1  0.34099800  0.68416600  0.23587700  1
  C  C5  1  0.34099800  0.81583400  0.73587700  1
  C  C6  1  0.65900200  0.31583400  0.76412300  1
  C  C7  1  0.65900200  0.18416600  0.26412300  1
  C  C8  1  0.32949300  0.53638000  0.19819200  1
  C  C9  1  0.32949300  0.96362000  0.69819200  1
  C  C10  1  0.67050700  0.46362000  0.80180800  1
  C  C11  1  0.67050700  0.03638000  0.30180800  1
  C  C12  1  0.15327900  0.62709000  0.11963600  1
  C  C13  1  0.15327900  0.87291000  0.61963600  1
  C  C14  1  0.84672100  0.37291000  0.88036400  1
  C  C15  1  0.84672100  0.12709000  0.38036400  1
  C  C16  1  0.59816400  0.58081000  0.10925400  1
  C  C17  1  0.59816400  0.91919000  0.60925400  1
  C  C18  1  0.40183600  0.41919000  0.89074600  1
  C  C19  1  0.40183600  0.08081000  0.39074600  1
  C  C20  1  0.64541900  0.66312400  0.22089000  1
  C  C21  1  0.64541900  0.83687600  0.72089000  1
  C  C22  1  0.35458100  0.33687600  0.77911000  1
  C  C23  1  0.35458100  0.16312400  0.27911000  1
  C  C24  1  0.56141700  0.52011500  0.19018700  1
  C  C25  1  0.56141700  0.97988500  0.69018700  1
  C  C26  1  0.43858300  0.47988500  0.80981300  1
  C  C27  1  0.43858300  0.02011500  0.30981300  1
  C  C28  1  0.30993100  0.68483600  0.04486100  1
  C  C29  1  0.30993100  0.81516400  0.54486100  1
  C  C30  1  0.69006900  0.31516400  0.95513900  1
  C  C31  1  0.69006900  0.18483600  0.45513900  1
  Ni  Ni32  1  0.20178800  0.51673600  0.95731800  1
  Ni  Ni33  1  0.20178800  0.98326400  0.45731800  1
  Ni  Ni34  1  0.79821200  0.48326400  0.04268200  1
  Ni  Ni35  1  0.79821200  0.01673600  0.54268200  1
  Ni  Ni36  1  0.06994200  0.76663900  0.94369100  1
  Ni  Ni37  1  0.06994200  0.73336100  0.44369100  1
  Ni  Ni38  1  0.93005800  0.23336100  0.05630900  1
  Ni  Ni39  1  0.93005800  0.26663900  0.55630900  1
  Ni  Ni40  1  0.42381500  0.84989200  0.14073300  1
  Ni  Ni41  1  0.42381500  0.65010800  0.64073300  1
  Ni  Ni42  1  0.57618500  0.15010800  0.85926700  1
  Ni  Ni43  1  0.57618500  0.34989200  0.35926700  1
  Ni  Ni44  1  0.33911900  0.73780000  0.93023900  1
  Ni  Ni45  1  0.33911900  0.76220000  0.43023900  1
  Ni  Ni46  1  0.66088100  0.26220000  0.06976100  1
  Ni  Ni47  1  0.66088100  0.23780000  0.56976100  1
  Ni  Ni48  1  0.28310600  0.62508400  0.16551000  1
  Ni  Ni49  1  0.28310600  0.87491600  0.66551000  1
  Ni  Ni50  1  0.71689400  0.37491600  0.83449000  1
  Ni  Ni51  1  0.71689400  0.12508400  0.33449000  1
  Ni  Ni52  1  0.55929800  0.60162300  0.15423300  1
  Ni  Ni53  1  0.55929800  0.89837700  0.65423300  1
  Ni  Ni54  1  0.44070200  0.39837700  0.84576700  1
  Ni  Ni55  1  0.44070200  0.10162300  0.34576700  1
  Cu  Cu56  1  0.29924400  0.42783200  0.98101800  1
  Cu  Cu57  1  0.29924400  0.07216800  0.48101800  1
  Cu  Cu58  1  0.70075600  0.57216800  0.01898200  1
  Cu  Cu59  1  0.70075600  0.92783200  0.51898200  1
  Cu  Cu60  1  0.04150400  0.50347900  0.88322300  1
  Cu  Cu61  1  0.04150400  0.99652100  0.38322300  1
  Cu  Cu62  1  0.95849600  0.49652100  0.11677700  1
  Cu  Cu63  1  0.95849600  0.00347900  0.61677700  1
  Cu  Cu64  1  0.00182900  0.81338900  0.84554300  1
  Cu  Cu65  1  0.00182900  0.68661100  0.34554300  1
  Cu  Cu66  1  0.99817100  0.18661100  0.15445700  1
  Cu  Cu67  1  0.99817100  0.31338900  0.65445700  1
  Cu  Cu68  1  0.99437200  0.77044700  0.98158100  1
  Cu  Cu69  1  0.99437200  0.72955300  0.48158100  1
  Cu  Cu70  1  0.00562800  0.22955300  0.01841900  1
  Cu  Cu71  1  0.00562800  0.27044700  0.51841900  1
  Cu  Cu72  1  0.33544200  0.94648200  0.11120400  1
  Cu  Cu73  1  0.33544200  0.55351800  0.61120400  1
  Cu  Cu74  1  0.66455800  0.05351800  0.88879600  1
  Cu  Cu75  1  0.66455800  0.44648200  0.38879600  1
  Cu  Cu76  1  0.58180800  0.85089900  0.23145600  1
  Cu  Cu77  1  0.58180800  0.64910100  0.73145600  1
  Cu  Cu78  1  0.41819200  0.14910100  0.76854400  1
  Cu  Cu79  1  0.41819200  0.35089900  0.26854400  1
  Cu  Cu80  1  0.26957200  0.67535500  0.83849300  1
  Cu  Cu81  1  0.26957200  0.82464500  0.33849300  1
  Cu  Cu82  1  0.73042800  0.32464500  0.16150700  1
  Cu  Cu83  1  0.73042800  0.17535500  0.66150700  1
  Cu  Cu84  1  0.43051100  0.83073000  0.95366800  1
  Cu  Cu85  1  0.43051100  0.66927000  0.45366800  1
  Cu  Cu86  1  0.56948900  0.16927000  0.04633200  1
  Cu  Cu87  1  0.56948900  0.33073000  0.54633200  1
