# generated using pymatgen
data_Cu2NiC
_symmetry_space_group_name_H-M   'P 1'
_cell_length_a   5.13134961
_cell_length_b   5.13134961
_cell_length_c   15.84564800
_cell_angle_alpha   90.00000000
_cell_angle_beta   90.00000000
_cell_angle_gamma   119.99999491
_symmetry_Int_Tables_number   1
_chemical_formula_structural   Cu2NiC
_chemical_formula_sum   'Cu12 Ni6 C6'
_cell_volume   361.32987225
_cell_formula_units_Z   6
loop_
 _symmetry_equiv_pos_site_id
 _symmetry_equiv_pos_as_xyz
  1  'x, y, z'
loop_
 _atom_site_type_symbol
 _atom_site_label
 _atom_site_symmetry_multiplicity
 _atom_site_fract_x
 _atom_site_fract_y
 _atom_site_fract_z
 _atom_site_occupancy
  C  C0  1  0.33333300  0.66666700  0.54235100  1
  C  C1  1  0.66666700  0.33333300  0.45764900  1
  C  C2  1  0.66666700  0.33333300  0.04235100  1
  C  C3  1  0.33333300  0.66666700  0.95764900  1
  C  C4  1  0.33333300  0.66666700  0.75000000  1
  C  C5  1  0.66666700  0.33333300  0.25000000  1
  Ni  Ni6  1  0.00000000  0.00000000  0.25000000  1
  Ni  Ni7  1  0.00000000  0.00000000  0.75000000  1
  Ni  Ni8  1  0.33333300  0.66666700  0.25000000  1
  Ni  Ni9  1  0.66666700  0.33333300  0.75000000  1
  Ni  Ni10  1  0.00000000  0.00000000  0.00000000  1
  Ni  Ni11  1  0.00000000  0.00000000  0.50000000  1
  Cu  Cu12  1  0.16849600  0.33699100  0.12573500  1
  Cu  Cu13  1  0.83150400  0.66300900  0.87426500  1
  Cu  Cu14  1  0.66300900  0.83150400  0.12573500  1
  Cu  Cu15  1  0.83150400  0.66300900  0.62573500  1
  Cu  Cu16  1  0.33699100  0.16849600  0.87426500  1
  Cu  Cu17  1  0.16849600  0.33699100  0.37426500  1
  Cu  Cu18  1  0.16849600  0.83150400  0.12573500  1
  Cu  Cu19  1  0.33699100  0.16849600  0.62573500  1
  Cu  Cu20  1  0.83150400  0.16849600  0.87426500  1
  Cu  Cu21  1  0.66300900  0.83150400  0.37426500  1
  Cu  Cu22  1  0.83150400  0.16849600  0.62573500  1
  Cu  Cu23  1  0.16849600  0.83150400  0.37426500  1
