# generated using pymatgen
data_Cu3NiC3
_symmetry_space_group_name_H-M   'P 1'
_cell_length_a   9.90500700
_cell_length_b   9.90500700
_cell_length_c   9.90500700
_cell_angle_alpha   90.00000000
_cell_angle_beta   90.00000000
_cell_angle_gamma   90.00000000
_symmetry_Int_Tables_number   1
_chemical_formula_structural   Cu3NiC3
_chemical_formula_sum   'Cu12 Ni4 C12'
_cell_volume   971.77195292
_cell_formula_units_Z   4
loop_
 _symmetry_equiv_pos_site_id
 _symmetry_equiv_pos_as_xyz
  1  'x, y, z'
loop_
 _atom_site_type_symbol
 _atom_site_label
 _atom_site_symmetry_multiplicity
 _atom_site_fract_x
 _atom_site_fract_y
 _atom_site_fract_z
 _atom_site_occupancy
  C  C0  1  0.81628300  0.18371700  0.68371700  1
  C  C1  1  0.68371700  0.81628300  0.18371700  1
  C  C2  1  0.18371700  0.68371700  0.81628300  1
  C  C3  1  0.31628300  0.31628300  0.31628300  1
  C  C4  1  0.18746800  0.31253200  0.68746900  1
  C  C5  1  0.31253200  0.68746900  0.18746900  1
  C  C6  1  0.68746900  0.18746800  0.31253100  1
  C  C7  1  0.81253100  0.81253100  0.81253100  1
  C  C8  1  0.42016400  0.07983600  0.92016400  1
  C  C9  1  0.07983600  0.92016400  0.42016400  1
  C  C10  1  0.92016400  0.42016400  0.07983600  1
  C  C11  1  0.57983600  0.57983600  0.57983600  1
  Ni  Ni12  1  0.02216700  0.02216700  0.02216700  1
  Ni  Ni13  1  0.47783300  0.97783300  0.52216700  1
  Ni  Ni14  1  0.97783300  0.52216700  0.47783300  1
  Ni  Ni15  1  0.52216700  0.47783300  0.97783300  1
  Cu  Cu16  1  0.28883600  0.40150900  0.99527300  1
  Cu  Cu17  1  0.78883600  0.09849100  0.00472700  1
  Cu  Cu18  1  0.71116400  0.90150900  0.50472700  1
  Cu  Cu19  1  0.09849100  0.00472700  0.78883600  1
  Cu  Cu20  1  0.50472700  0.71116400  0.90150900  1
  Cu  Cu21  1  0.00472700  0.78883600  0.09849100  1
  Cu  Cu22  1  0.40150900  0.99527300  0.28883600  1
  Cu  Cu23  1  0.99527300  0.28883600  0.40150900  1
  Cu  Cu24  1  0.90150900  0.50472700  0.71116400  1
  Cu  Cu25  1  0.59849100  0.49527300  0.21116400  1
  Cu  Cu26  1  0.49527300  0.21116400  0.59849100  1
  Cu  Cu27  1  0.21116400  0.59849100  0.49527300  1
