# generated using pymatgen
data_CuNiC32
_symmetry_space_group_name_H-M   'P 1'
_cell_length_a   10.85222400
_cell_length_b   10.85222400
_cell_length_c   10.85222400
_cell_angle_alpha   90.00000000
_cell_angle_beta   90.00000000
_cell_angle_gamma   90.00000000
_symmetry_Int_Tables_number   1
_chemical_formula_structural   CuNiC32
_chemical_formula_sum   'Cu4 Ni4 C128'
_cell_volume   1278.07473053
_cell_formula_units_Z   4
loop_
 _symmetry_equiv_pos_site_id
 _symmetry_equiv_pos_as_xyz
  1  'x, y, z'
loop_
 _atom_site_type_symbol
 _atom_site_label
 _atom_site_symmetry_multiplicity
 _atom_site_fract_x
 _atom_site_fract_y
 _atom_site_fract_z
 _atom_site_occupancy
  C  C0  1  0.68223700  0.18223700  0.31776300  1
  C  C1  1  0.18223700  0.31776300  0.68223700  1
  C  C2  1  0.31776300  0.68223700  0.18223700  1
  C  C3  1  0.81776300  0.81776300  0.81776300  1
  C  C4  1  0.43828600  0.43828600  0.43828600  1
  C  C5  1  0.56171300  0.93828700  0.06171400  1
  C  C6  1  0.93828700  0.06171400  0.56171300  1
  C  C7  1  0.06171400  0.56171300  0.93828700  1
  Ni  Ni8  1  0.44115600  0.94115600  0.55884400  1
  Ni  Ni9  1  0.94115600  0.55884400  0.44115600  1
  Ni  Ni10  1  0.55884400  0.44115600  0.94115600  1
  Ni  Ni11  1  0.05884400  0.05884400  0.05884400  1
  C  C12  1  0.42510000  0.42900900  0.15706800  1
  C  C13  1  0.84293200  0.92510000  0.07099100  1
  C  C14  1  0.92900900  0.34293200  0.57490000  1
  C  C15  1  0.92510000  0.07099100  0.84293200  1
  C  C16  1  0.34293200  0.57490000  0.92900900  1
  C  C17  1  0.42900900  0.15706800  0.42510000  1
  C  C18  1  0.57490000  0.92900900  0.34293200  1
  C  C19  1  0.15706800  0.42510000  0.42900900  1
  C  C20  1  0.07099100  0.84293200  0.92510000  1
  C  C21  1  0.07490000  0.57099100  0.65706800  1
  C  C22  1  0.65706800  0.07490000  0.57099100  1
  C  C23  1  0.57099100  0.65706800  0.07490000  1
  C  C24  1  0.28508000  0.44001500  0.19862600  1
  C  C25  1  0.80137400  0.78508000  0.05998500  1
  C  C26  1  0.94001500  0.30137400  0.71492000  1
  C  C27  1  0.78508000  0.05998500  0.80137400  1
  C  C28  1  0.30137400  0.71492000  0.94001500  1
  C  C29  1  0.44001500  0.19862600  0.28508000  1
  C  C30  1  0.71492000  0.94001500  0.30137400  1
  C  C31  1  0.19862600  0.28508000  0.44001500  1
  C  C32  1  0.05998500  0.80137400  0.78508000  1
  C  C33  1  0.21492000  0.55998500  0.69862600  1
  C  C34  1  0.69862600  0.21492000  0.55998500  1
  C  C35  1  0.55998500  0.69862600  0.21492000  1
  C  C36  1  0.61513900  0.39728800  0.19321300  1
  C  C37  1  0.80678700  0.11513900  0.10271200  1
  C  C38  1  0.89728800  0.30678700  0.38486100  1
  C  C39  1  0.11513900  0.10271200  0.80678700  1
  C  C40  1  0.30678700  0.38486100  0.89728800  1
  C  C41  1  0.39728800  0.19321300  0.61513900  1
  C  C42  1  0.38486100  0.89728800  0.30678700  1
  C  C43  1  0.19321300  0.61513900  0.39728800  1
  C  C44  1  0.10271200  0.80678700  0.11513900  1
  C  C45  1  0.88486100  0.60271200  0.69321300  1
  C  C46  1  0.69321300  0.88486100  0.60271200  1
  C  C47  1  0.60271200  0.69321300  0.88486100  1
  C  C48  1  0.70758600  0.45969900  0.28831000  1
  C  C49  1  0.71169000  0.20758600  0.04030100  1
  C  C50  1  0.95969900  0.21169000  0.29241400  1
  C  C51  1  0.20758600  0.04030100  0.71169000  1
  C  C52  1  0.21169000  0.29241400  0.95969900  1
  C  C53  1  0.45969900  0.28831000  0.70758600  1
  C  C54  1  0.29241400  0.95969900  0.21169000  1
  C  C55  1  0.28831000  0.70758600  0.45969900  1
  C  C56  1  0.04030100  0.71169000  0.20758600  1
  C  C57  1  0.79241400  0.54030100  0.78831000  1
  C  C58  1  0.78831000  0.79241400  0.54030100  1
  C  C59  1  0.54030100  0.78831000  0.79241400  1
  C  C60  1  0.51600400  0.71921400  0.42186400  1
  C  C61  1  0.57813600  0.01600400  0.78078600  1
  C  C62  1  0.21921400  0.07813600  0.48399600  1
  C  C63  1  0.01600400  0.78078600  0.57813600  1
  C  C64  1  0.07813600  0.48399600  0.21921400  1
  C  C65  1  0.71921400  0.42186400  0.51600400  1
  C  C66  1  0.48399600  0.21921400  0.07813600  1
  C  C67  1  0.42186400  0.51600400  0.71921400  1
  C  C68  1  0.78078600  0.57813600  0.01600400  1
  C  C69  1  0.98399600  0.28078600  0.92186400  1
  C  C70  1  0.92186400  0.98399600  0.28078600  1
  C  C71  1  0.28078600  0.92186400  0.98399600  1
  C  C72  1  0.63497300  0.63913400  0.39348600  1
  C  C73  1  0.60651400  0.13497300  0.86086600  1
  C  C74  1  0.13913400  0.10651400  0.36502700  1
  C  C75  1  0.13497300  0.86086600  0.60651400  1
  C  C76  1  0.10651400  0.36502700  0.13913400  1
  C  C77  1  0.63913400  0.39348600  0.63497300  1
  C  C78  1  0.36502700  0.13913400  0.10651400  1
  C  C79  1  0.39348600  0.63497300  0.63913400  1
  C  C80  1  0.86086600  0.60651400  0.13497300  1
  C  C81  1  0.86502700  0.36086600  0.89348600  1
  C  C82  1  0.89348600  0.86502700  0.36086600  1
  C  C83  1  0.36086600  0.89348600  0.86502700  1
  Cu  Cu84  1  0.33138600  0.83138600  0.66861400  1
  Cu  Cu85  1  0.83138600  0.66861400  0.33138600  1
  Cu  Cu86  1  0.66861400  0.33138600  0.83138600  1
  Cu  Cu87  1  0.16861400  0.16861400  0.16861400  1
  C  C88  1  0.56199400  0.97029900  0.62978000  1
  C  C89  1  0.37022000  0.06199400  0.52970100  1
  C  C90  1  0.47029900  0.87022000  0.43800600  1
  C  C91  1  0.06199400  0.52970100  0.37022000  1
  C  C92  1  0.87022000  0.43800600  0.47029900  1
  C  C93  1  0.97029900  0.62978000  0.56199400  1
  C  C94  1  0.43800600  0.47029900  0.87022000  1
  C  C95  1  0.62978000  0.56199400  0.97029900  1
  C  C96  1  0.52970100  0.37022000  0.06199400  1
  C  C97  1  0.93800600  0.02970100  0.12978000  1
  C  C98  1  0.12978000  0.93800600  0.02970100  1
  C  C99  1  0.02970100  0.12978000  0.93800600  1
  C  C100  1  0.36924100  0.46207900  0.22299900  1
  C  C101  1  0.77700100  0.86924100  0.03792100  1
  C  C102  1  0.96207900  0.27700100  0.63075900  1
  C  C103  1  0.86924100  0.03792100  0.77700100  1
  C  C104  1  0.27700100  0.63075900  0.96207900  1
  C  C105  1  0.46207900  0.22299900  0.36924100  1
  C  C106  1  0.63075900  0.96207900  0.27700100  1
  C  C107  1  0.22299900  0.36924100  0.46207900  1
  C  C108  1  0.03792100  0.77700100  0.86924100  1
  C  C109  1  0.13075900  0.53792100  0.72299900  1
  C  C110  1  0.72299900  0.13075900  0.53792100  1
  C  C111  1  0.53792100  0.72299900  0.13075900  1
  C  C112  1  0.64224800  0.39799800  0.28123100  1
  C  C113  1  0.71876900  0.14224800  0.10200200  1
  C  C114  1  0.89799800  0.21876900  0.35775200  1
  C  C115  1  0.14224800  0.10200200  0.71876900  1
  C  C116  1  0.21876900  0.35775200  0.89799800  1
  C  C117  1  0.39799800  0.28123100  0.64224800  1
  C  C118  1  0.35775200  0.89799800  0.21876900  1
  C  C119  1  0.28123100  0.64224800  0.39799800  1
  C  C120  1  0.10200200  0.71876900  0.14224800  1
  C  C121  1  0.85775200  0.60200200  0.78123100  1
  C  C122  1  0.78123100  0.85775200  0.60200200  1
  C  C123  1  0.60200200  0.78123100  0.85775200  1
  C  C124  1  0.54388100  0.63688600  0.39138900  1
  C  C125  1  0.60861100  0.04388100  0.86311400  1
  C  C126  1  0.13688600  0.10861100  0.45611900  1
  C  C127  1  0.04388100  0.86311400  0.60861100  1
  C  C128  1  0.10861100  0.45611900  0.13688600  1
  C  C129  1  0.63688600  0.39138900  0.54388100  1
  C  C130  1  0.45611900  0.13688600  0.10861100  1
  C  C131  1  0.39138900  0.54388100  0.63688600  1
  C  C132  1  0.86311400  0.60861100  0.04388100  1
  C  C133  1  0.95611900  0.36311400  0.89138900  1
  C  C134  1  0.89138900  0.95611900  0.36311400  1
  C  C135  1  0.36311400  0.89138900  0.95611900  1
