# generated using pymatgen
data_CuNi2C7
_symmetry_space_group_name_H-M   'P 1'
_cell_length_a   5.69660100
_cell_length_b   5.55062900
_cell_length_c   9.68396017
_cell_angle_alpha   55.05596016
_cell_angle_beta   90.00000000
_cell_angle_gamma   90.00000000
_symmetry_Int_Tables_number   1
_chemical_formula_structural   CuNi2C7
_chemical_formula_sum   'Cu2 Ni4 C14'
_cell_volume   250.99912946
_cell_formula_units_Z   2
loop_
 _symmetry_equiv_pos_site_id
 _symmetry_equiv_pos_as_xyz
  1  'x, y, z'
loop_
 _atom_site_type_symbol
 _atom_site_label
 _atom_site_symmetry_multiplicity
 _atom_site_fract_x
 _atom_site_fract_y
 _atom_site_fract_z
 _atom_site_occupancy
  Ni  Ni0  1  0.54818600  0.76320100  0.75033400  1
  Ni  Ni1  1  0.95181400  0.76320100  0.25033400  1
  Ni  Ni2  1  0.45181400  0.23679900  0.24966600  1
  Ni  Ni3  1  0.04818600  0.23679900  0.74966600  1
  Cu  Cu4  1  0.50000000  0.50000000  0.50000000  1
  Cu  Cu5  1  0.00000000  0.50000000  0.00000000  1
  C  C6  1  0.00000000  0.00000000  0.50000000  1
  C  C7  1  0.50000000  0.00000000  0.00000000  1
  C  C8  1  0.79985300  0.23913900  0.55010900  1
  C  C9  1  0.70014700  0.23913900  0.05010900  1
  C  C10  1  0.20014700  0.76086100  0.44989100  1
  C  C11  1  0.29985300  0.76086100  0.94989100  1
  C  C12  1  0.78758300  0.85710100  0.94657700  1
  C  C13  1  0.71241700  0.85710100  0.44657700  1
  C  C14  1  0.21241700  0.14289900  0.05342300  1
  C  C15  1  0.28758300  0.14289900  0.55342300  1
  C  C16  1  0.96626400  0.65943800  0.74271100  1
  C  C17  1  0.53373600  0.65943800  0.24271100  1
  C  C18  1  0.03373600  0.34056200  0.25728900  1
  C  C19  1  0.46626400  0.34056200  0.75728900  1
