# generated using pymatgen
data_CuNiC8
_symmetry_space_group_name_H-M   'P 1'
_cell_length_a   8.52365592
_cell_length_b   8.53350341
_cell_length_c   8.54320506
_cell_angle_alpha   90.00000000
_cell_angle_beta   90.00000000
_cell_angle_gamma   90.00000000
_symmetry_Int_Tables_number   1
_chemical_formula_structural   CuNiC8
_chemical_formula_sum   'Cu4 Ni4 C32'
_cell_volume   621.40408949
_cell_formula_units_Z   4
loop_
 _symmetry_equiv_pos_site_id
 _symmetry_equiv_pos_as_xyz
  1  'x, y, z'
loop_
 _atom_site_type_symbol
 _atom_site_label
 _atom_site_symmetry_multiplicity
 _atom_site_fract_x
 _atom_site_fract_y
 _atom_site_fract_z
 _atom_site_occupancy
  Ni  Ni0  1  -0.00000000  0.50000000  0.50000000  1
  Ni  Ni1  1  0.50000000  0.00000000  0.50000000  1
  Ni  Ni2  1  0.50000000  0.00000000  0.00000000  1
  Ni  Ni3  1  -0.00000000  0.50000000  0.00000000  1
  Cu  Cu4  1  0.50000000  0.50000000  0.00000000  1
  Cu  Cu5  1  -0.00000000  0.00000000  0.50000000  1
  Cu  Cu6  1  -0.00000000  0.00000000  0.00000000  1
  Cu  Cu7  1  0.50000000  0.50000000  0.50000000  1
  C  C8  1  0.75000000  0.75000000  0.75000000  1
  C  C9  1  0.25000000  0.25000000  0.75000000  1
  C  C10  1  0.25000000  0.75000000  0.25000000  1
  C  C11  1  0.75000000  0.25000000  0.25000000  1
  C  C12  1  0.25000000  0.25000000  0.25000000  1
  C  C13  1  0.75000000  0.75000000  0.25000000  1
  C  C14  1  0.75000000  0.25000000  0.75000000  1
  C  C15  1  0.25000000  0.75000000  0.75000000  1
  C  C16  1  0.02151434  0.22350392  0.26751527  1
  C  C17  1  0.97848566  0.77649608  0.26751527  1
  C  C18  1  0.97848566  0.22350392  0.73248473  1
  C  C19  1  0.02151434  0.77649608  0.73248473  1
  C  C20  1  0.26320374  0.02251804  0.22814028  1
  C  C21  1  0.26320374  0.97748196  0.77185972  1
  C  C22  1  0.73679626  0.97748196  0.22814028  1
  C  C23  1  0.73679626  0.02251804  0.77185972  1
  C  C24  1  0.22990474  0.26922442  0.02264230  1
  C  C25  1  0.77009526  0.26922442  0.97735770  1
  C  C26  1  0.22990474  0.73077558  0.97735770  1
  C  C27  1  0.77009526  0.73077558  0.02264230  1
  C  C28  1  0.47848566  0.27649608  0.23248473  1
  C  C29  1  0.52151434  0.72350392  0.23248473  1
  C  C30  1  0.52151434  0.27649608  0.76751527  1
  C  C31  1  0.47848566  0.72350392  0.76751527  1
  C  C32  1  0.23679626  0.47748196  0.27185972  1
  C  C33  1  0.23679626  0.52251804  0.72814028  1
  C  C34  1  0.76320374  0.52251804  0.27185972  1
  C  C35  1  0.76320374  0.47748196  0.72814028  1
  C  C36  1  0.27009526  0.23077558  0.47735770  1
  C  C37  1  0.72990474  0.23077558  0.52264230  1
  C  C38  1  0.27009526  0.76922442  0.52264230  1
  C  C39  1  0.72990474  0.76922442  0.47735770  1
