# generated using pymatgen
data_Cu38Ni6C5
_symmetry_space_group_name_H-M   'P 1'
_cell_length_a   9.71408802
_cell_length_b   9.71408802
_cell_length_c   19.11794500
_cell_angle_alpha   90.00000000
_cell_angle_beta   90.00000000
_cell_angle_gamma   120.00000010
_symmetry_Int_Tables_number   1
_chemical_formula_structural   Cu38Ni6C5
_chemical_formula_sum   'Cu76 Ni12 C10'
_cell_volume   1562.34127829
_cell_formula_units_Z   2
loop_
 _symmetry_equiv_pos_site_id
 _symmetry_equiv_pos_as_xyz
  1  'x, y, z'
loop_
 _atom_site_type_symbol
 _atom_site_label
 _atom_site_symmetry_multiplicity
 _atom_site_fract_x
 _atom_site_fract_y
 _atom_site_fract_z
 _atom_site_occupancy
  C  C0  1  0.00000000  0.00000000  0.00000000  1
  C  C1  1  0.00000000  0.00000000  0.50000000  1
  C  C2  1  0.33333300  0.66666700  0.75000000  1
  C  C3  1  0.66666700  0.33333300  0.25000000  1
  C  C4  1  0.81975700  0.04029100  0.75000000  1
  C  C5  1  0.18024300  0.95970900  0.25000000  1
  C  C6  1  0.22053400  0.18024300  0.75000000  1
  C  C7  1  0.77946600  0.81975700  0.25000000  1
  C  C8  1  0.95970900  0.77946600  0.75000000  1
  C  C9  1  0.04029100  0.22053400  0.25000000  1
  Ni  Ni10  1  0.67775900  0.73509700  0.86046900  1
  Ni  Ni11  1  0.32224100  0.26490300  0.13953100  1
  Ni  Ni12  1  0.05733900  0.32224100  0.86046900  1
  Ni  Ni13  1  0.32224100  0.26490300  0.36046900  1
  Ni  Ni14  1  0.94266100  0.67775900  0.13953100  1
  Ni  Ni15  1  0.67775900  0.73509700  0.63953100  1
  Ni  Ni16  1  0.26490300  0.94266100  0.86046900  1
  Ni  Ni17  1  0.94266100  0.67775900  0.36046900  1
  Ni  Ni18  1  0.73509700  0.05733900  0.13953100  1
  Ni  Ni19  1  0.05733900  0.32224100  0.63953100  1
  Ni  Ni20  1  0.73509700  0.05733900  0.36046900  1
  Ni  Ni21  1  0.26490300  0.94266100  0.63953100  1
  Cu  Cu22  1  0.66666700  0.33333300  0.88050600  1
  Cu  Cu23  1  0.33333300  0.66666700  0.11949400  1
  Cu  Cu24  1  0.33333300  0.66666700  0.38050600  1
  Cu  Cu25  1  0.66666700  0.33333300  0.61949400  1
  Cu  Cu26  1  0.72256300  0.77456700  0.93358800  1
  Cu  Cu27  1  0.27743700  0.22543300  0.06641200  1
  Cu  Cu28  1  0.05200400  0.27743700  0.93358800  1
  Cu  Cu29  1  0.27743700  0.22543300  0.43358800  1
  Cu  Cu30  1  0.94799600  0.72256300  0.06641200  1
  Cu  Cu31  1  0.72256300  0.77456700  0.56641200  1
  Cu  Cu32  1  0.22543300  0.94799600  0.93358800  1
  Cu  Cu33  1  0.94799600  0.72256300  0.43358800  1
  Cu  Cu34  1  0.77456700  0.05200400  0.06641200  1
  Cu  Cu35  1  0.05200400  0.27743700  0.56641200  1
  Cu  Cu36  1  0.77456700  0.05200400  0.43358800  1
  Cu  Cu37  1  0.22543300  0.94799600  0.56641200  1
  Cu  Cu38  1  0.63070900  0.09286800  0.75000000  1
  Cu  Cu39  1  0.36929100  0.90713200  0.25000000  1
  Cu  Cu40  1  0.46215900  0.36929100  0.75000000  1
  Cu  Cu41  1  0.53784100  0.63070900  0.25000000  1
  Cu  Cu42  1  0.90713200  0.53784100  0.75000000  1
  Cu  Cu43  1  0.09286800  0.46215900  0.25000000  1
  Cu  Cu44  1  0.64295800  0.14393100  0.94106500  1
  Cu  Cu45  1  0.35704200  0.85606900  0.05893500  1
  Cu  Cu46  1  0.50097300  0.35704200  0.94106500  1
  Cu  Cu47  1  0.35704200  0.85606900  0.44106500  1
  Cu  Cu48  1  0.49902700  0.64295800  0.05893500  1
  Cu  Cu49  1  0.64295800  0.14393100  0.55893500  1
  Cu  Cu50  1  0.85606900  0.49902700  0.94106500  1
  Cu  Cu51  1  0.49902700  0.64295800  0.44106500  1
  Cu  Cu52  1  0.14393100  0.50097300  0.05893500  1
  Cu  Cu53  1  0.50097300  0.35704200  0.55893500  1
  Cu  Cu54  1  0.14393100  0.50097300  0.44106500  1
  Cu  Cu55  1  0.85606900  0.49902700  0.55893500  1
  Cu  Cu56  1  0.51592200  0.60147500  0.85055900  1
  Cu  Cu57  1  0.48407800  0.39852500  0.14944100  1
  Cu  Cu58  1  0.08555200  0.48407800  0.85055900  1
  Cu  Cu59  1  0.48407800  0.39852500  0.35055900  1
  Cu  Cu60  1  0.91444800  0.51592200  0.14944100  1
  Cu  Cu61  1  0.51592200  0.60147500  0.64944100  1
  Cu  Cu62  1  0.39852500  0.91444800  0.85055900  1
  Cu  Cu63  1  0.91444800  0.51592200  0.35055900  1
  Cu  Cu64  1  0.60147500  0.08555200  0.14944100  1
  Cu  Cu65  1  0.08555200  0.48407800  0.64944100  1
  Cu  Cu66  1  0.60147500  0.08555200  0.35055900  1
  Cu  Cu67  1  0.39852500  0.91444800  0.64944100  1
  Cu  Cu68  1  0.90157600  0.20563500  0.82599000  1
  Cu  Cu69  1  0.09842400  0.79436500  0.17401000  1
  Cu  Cu70  1  0.30405900  0.09842400  0.82599000  1
  Cu  Cu71  1  0.09842400  0.79436500  0.32599000  1
  Cu  Cu72  1  0.69594100  0.90157600  0.17401000  1
  Cu  Cu73  1  0.90157600  0.20563500  0.67401000  1
  Cu  Cu74  1  0.79436500  0.69594100  0.82599000  1
  Cu  Cu75  1  0.69594100  0.90157600  0.32599000  1
  Cu  Cu76  1  0.20563500  0.30405900  0.17401000  1
  Cu  Cu77  1  0.30405900  0.09842400  0.67401000  1
  Cu  Cu78  1  0.20563500  0.30405900  0.32599000  1
  Cu  Cu79  1  0.79436500  0.69594100  0.67401000  1
  Cu  Cu80  1  0.66666700  0.33333300  0.49991200  1
  Cu  Cu81  1  0.33333300  0.66666700  0.50008800  1
  Cu  Cu82  1  0.33333300  0.66666700  0.99991200  1
  Cu  Cu83  1  0.66666700  0.33333300  0.00008800  1
  Cu  Cu84  1  0.68974300  0.87896800  0.82373900  1
  Cu  Cu85  1  0.31025700  0.12103200  0.17626100  1
  Cu  Cu86  1  0.18922500  0.31025700  0.82373900  1
  Cu  Cu87  1  0.31025700  0.12103200  0.32373900  1
  Cu  Cu88  1  0.81077500  0.68974300  0.17626100  1
  Cu  Cu89  1  0.68974300  0.87896800  0.67626100  1
  Cu  Cu90  1  0.12103200  0.81077500  0.82373900  1
  Cu  Cu91  1  0.81077500  0.68974300  0.32373900  1
  Cu  Cu92  1  0.87896800  0.18922500  0.17626100  1
  Cu  Cu93  1  0.18922500  0.31025700  0.67626100  1
  Cu  Cu94  1  0.87896800  0.18922500  0.32373900  1
  Cu  Cu95  1  0.12103200  0.81077500  0.67626100  1
  Cu  Cu96  1  0.00000000  0.00000000  0.75000000  1
  Cu  Cu97  1  0.00000000  0.00000000  0.25000000  1
