# generated using pymatgen
data_Cu2Ni4C3
_symmetry_space_group_name_H-M   'P 1'
_cell_length_a   5.95784300
_cell_length_b   6.82179512
_cell_length_c   6.85911712
_cell_angle_alpha   60.87378062
_cell_angle_beta   84.44944729
_cell_angle_gamma   86.77731137
_symmetry_Int_Tables_number   1
_chemical_formula_structural   Cu2Ni4C3
_chemical_formula_sum   'Cu2 Ni4 C3'
_cell_volume   242.36975648
_cell_formula_units_Z   1
loop_
 _symmetry_equiv_pos_site_id
 _symmetry_equiv_pos_as_xyz
  1  'x, y, z'
loop_
 _atom_site_type_symbol
 _atom_site_label
 _atom_site_symmetry_multiplicity
 _atom_site_fract_x
 _atom_site_fract_y
 _atom_site_fract_z
 _atom_site_occupancy
  C  C0  1  0.24298800  0.13525300  0.17203100  1
  C  C1  1  0.75701200  0.86474700  0.82796900  1
  C  C2  1  0.00000000  0.50000000  0.50000000  1
  Ni  Ni3  1  0.78834200  0.35926200  0.85156100  1
  Ni  Ni4  1  0.21165800  0.64073800  0.14843900  1
  Ni  Ni5  1  0.23693900  0.17834800  0.64730500  1
  Ni  Ni6  1  0.76306100  0.82165200  0.35269500  1
  Cu  Cu7  1  0.82911400  0.35842800  0.42094400  1
  Cu  Cu8  1  0.17088600  0.64157200  0.57905600  1
