# generated using pymatgen
data_CuNi2C15
_symmetry_space_group_name_H-M   'P 1'
_cell_length_a   7.43163338
_cell_length_b   7.43163338
_cell_length_c   7.43163279
_cell_angle_alpha   57.46966103
_cell_angle_beta   57.46966103
_cell_angle_gamma   57.46966040
_symmetry_Int_Tables_number   1
_chemical_formula_structural   CuNi2C15
_chemical_formula_sum   'Cu1 Ni2 C15'
_cell_volume   273.33416247
_cell_formula_units_Z   1
loop_
 _symmetry_equiv_pos_site_id
 _symmetry_equiv_pos_as_xyz
  1  'x, y, z'
loop_
 _atom_site_type_symbol
 _atom_site_label
 _atom_site_symmetry_multiplicity
 _atom_site_fract_x
 _atom_site_fract_y
 _atom_site_fract_z
 _atom_site_occupancy
  Ni  Ni0  1  0.62298900  0.62298900  0.62298900  1
  Ni  Ni1  1  0.37701100  0.37701100  0.37701100  1
  Cu  Cu2  1  0.00000000  0.00000000  0.00000000  1
  C  C3  1  0.50000000  0.00000000  0.00000000  1
  C  C4  1  0.00000000  0.00000000  0.50000000  1
  C  C5  1  0.00000000  0.50000000  0.00000000  1
  C  C6  1  0.08475400  0.08475400  0.61745400  1
  C  C7  1  0.61745400  0.08475400  0.08475400  1
  C  C8  1  0.08475400  0.61745400  0.08475400  1
  C  C9  1  0.91524600  0.38254600  0.91524600  1
  C  C10  1  0.91524600  0.91524600  0.38254600  1
  C  C11  1  0.38254600  0.91524600  0.91524600  1
  C  C12  1  0.92254000  0.29711300  0.29711300  1
  C  C13  1  0.29711300  0.29711300  0.92254000  1
  C  C14  1  0.29711300  0.92254000  0.29711300  1
  C  C15  1  0.70288700  0.07746000  0.70288700  1
  C  C16  1  0.07746000  0.70288700  0.70288700  1
  C  C17  1  0.70288700  0.70288700  0.07746000  1
