# generated using pymatgen
data_Cu2Ni2C9
_symmetry_space_group_name_H-M   'P 1'
_cell_length_a   5.23953700
_cell_length_b   5.25340655
_cell_length_c   14.89471562
_cell_angle_alpha   85.58363563
_cell_angle_beta   81.11711666
_cell_angle_gamma   60.08728938
_symmetry_Int_Tables_number   1
_chemical_formula_structural   Cu2Ni2C9
_chemical_formula_sum   'Cu4 Ni4 C18'
_cell_volume   351.10555278
_cell_formula_units_Z   2
loop_
 _symmetry_equiv_pos_site_id
 _symmetry_equiv_pos_as_xyz
  1  'x, y, z'
loop_
 _atom_site_type_symbol
 _atom_site_label
 _atom_site_symmetry_multiplicity
 _atom_site_fract_x
 _atom_site_fract_y
 _atom_site_fract_z
 _atom_site_occupancy
  Ni  Ni0  1  0.56665600  0.82203400  0.49922200  1
  Ni  Ni1  1  0.38869000  0.17796600  0.99922200  1
  Ni  Ni2  1  0.92781200  0.18510900  0.49886200  1
  Ni  Ni3  1  0.11292100  0.81489100  0.99886200  1
  Cu  Cu4  1  0.69070800  0.49640700  0.31042400  1
  Cu  Cu5  1  0.18711400  0.50359300  0.81042400  1
  Cu  Cu6  1  0.34767700  0.15460800  0.31142200  1
  Cu  Cu7  1  0.50228500  0.84539200  0.81142200  1
  C  C8  1  0.66995600  0.50248000  0.42231200  1
  C  C9  1  0.17243600  0.49752000  0.92231200  1
  C  C10  1  0.28614500  0.11948300  0.42289100  1
  C  C11  1  0.40562800  0.88051700  0.92289100  1
  C  C12  1  0.88789500  0.88564800  0.45002500  1
  C  C13  1  0.77354400  0.11435200  0.95002500  1
  C  C14  1  0.54072700  0.82548000  0.26850600  1
  C  C15  1  0.36620700  0.17452000  0.76850600  1
  C  C16  1  0.53041800  0.32616400  0.28292900  1
  C  C17  1  0.85658300  0.67383600  0.78292900  1
  C  C18  1  0.03865800  0.32640200  0.26871600  1
  C  C19  1  0.36506000  0.67359800  0.76871600  1
  C  C20  1  0.33143400  0.48790000  0.07096500  1
  C  C21  1  0.81933400  0.51210000  0.57096500  1
  C  C22  1  0.09915200  0.10618500  0.06872900  1
  C  C23  1  0.20533700  0.89381500  0.56872900  1
  C  C24  1  0.72169000  0.88033900  0.06202600  1
  C  C25  1  0.60202900  0.11966100  0.56202600  1
