# generated using pymatgen
data_Cu(Ni3C4)2
_symmetry_space_group_name_H-M   'P 1'
_cell_length_a   3.46962300
_cell_length_b   10.22456404
_cell_length_c   10.22374988
_cell_angle_alpha   59.98614110
_cell_angle_beta   90.00143167
_cell_angle_gamma   90.00053851
_symmetry_Int_Tables_number   1
_chemical_formula_structural   Cu(Ni3C4)2
_chemical_formula_sum   'Cu1 Ni6 C8'
_cell_volume   314.05612542
_cell_formula_units_Z   1
loop_
 _symmetry_equiv_pos_site_id
 _symmetry_equiv_pos_as_xyz
  1  'x, y, z'
loop_
 _atom_site_type_symbol
 _atom_site_label
 _atom_site_symmetry_multiplicity
 _atom_site_fract_x
 _atom_site_fract_y
 _atom_site_fract_z
 _atom_site_occupancy
  Ni  Ni0  1  0.74981000  0.37988600  0.51299500  1
  Ni  Ni1  1  0.74984200  0.10709100  0.37990400  1
  Ni  Ni2  1  0.74981800  0.51303000  0.10710900  1
  Ni  Ni3  1  0.25019000  0.62011400  0.48700500  1
  Ni  Ni4  1  0.25015800  0.89290900  0.62009600  1
  Ni  Ni5  1  0.25018200  0.48697000  0.89289100  1
  Cu  Cu6  1  0.50000000  0.00000000  0.00000000  1
  C  C7  1  0.75026200  0.06240200  0.65716700  1
  C  C8  1  0.75027400  0.28055900  0.06236000  1
  C  C9  1  0.75024100  0.65720400  0.28049000  1
  C  C10  1  0.24973800  0.93759800  0.34283300  1
  C  C11  1  0.24972600  0.71944100  0.93764000  1
  C  C12  1  0.24975900  0.34279600  0.71951000  1
  C  C13  1  0.75041400  0.66667800  0.66672500  1
  C  C14  1  0.24958600  0.33332200  0.33327500  1
