# generated using pymatgen
data_CuNiC8
_symmetry_space_group_name_H-M   'P 1'
_cell_length_a   5.51870391
_cell_length_b   9.67850239
_cell_length_c   9.67768105
_cell_angle_alpha   79.57949754
_cell_angle_beta   88.76178262
_cell_angle_gamma   74.06603928
_symmetry_Int_Tables_number   1
_chemical_formula_structural   CuNiC8
_chemical_formula_sum   'Cu4 Ni4 C32'
_cell_volume   488.63857487
_cell_formula_units_Z   4
loop_
 _symmetry_equiv_pos_site_id
 _symmetry_equiv_pos_as_xyz
  1  'x, y, z'
loop_
 _atom_site_type_symbol
 _atom_site_label
 _atom_site_symmetry_multiplicity
 _atom_site_fract_x
 _atom_site_fract_y
 _atom_site_fract_z
 _atom_site_occupancy
  C  C0  1  0.31415900  0.37549600  0.43679700  1
  C  C1  1  0.56416400  0.87547900  0.18676300  1
  C  C2  1  0.81418600  0.37549300  0.93678400  1
  C  C3  1  0.06417200  0.87547900  0.68675800  1
  C  C4  1  0.43581300  0.12450400  0.81322000  1
  C  C5  1  0.68582500  0.62452100  0.56323500  1
  C  C6  1  0.93581600  0.12451000  0.31321200  1
  C  C7  1  0.18583600  0.62451800  0.06323500  1
  Ni  Ni8  1  0.50000100  0.00001400  0.49998000  1
  Ni  Ni9  1  0.75000200  0.49998900  0.25001800  1
  Ni  Ni10  1  0.00000300  0.00001200  0.99998000  1
  Ni  Ni11  1  0.24999500  0.49998600  0.75001700  1
  Cu  Cu12  1  0.87500900  0.25000500  0.62500300  1
  Cu  Cu13  1  0.12498700  0.74999500  0.37499600  1
  Cu  Cu14  1  0.37501400  0.25000700  0.12500400  1
  Cu  Cu15  1  0.62499100  0.74999200  0.87499500  1
  C  C16  1  0.73648400  0.08391100  0.57557100  1
  C  C17  1  0.98648500  0.58389500  0.32554600  1
  C  C18  1  0.23648400  0.08391200  0.07556800  1
  C  C19  1  0.48648800  0.58388900  0.82554800  1
  C  C20  1  0.92685800  0.15603900  0.83807900  1
  C  C21  1  0.17682900  0.65601100  0.58804100  1
  C  C22  1  0.42685100  0.15604400  0.33808000  1
  C  C23  1  0.67683900  0.65601400  0.08803800  1
  C  C24  1  0.51505700  0.38242800  0.65276700  1
  C  C25  1  0.76498300  0.88242900  0.40277800  1
  C  C26  1  0.01506300  0.38243100  0.15276500  1
  C  C27  1  0.26498400  0.88242600  0.90277300  1
  C  C28  1  0.01348500  0.41610200  0.67442900  1
  C  C29  1  0.26353800  0.91609600  0.42446100  1
  C  C30  1  0.51349200  0.41610400  0.17442200  1
  C  C31  1  0.76353900  0.91609300  0.92446000  1
  C  C32  1  0.23493800  0.11757600  0.59724000  1
  C  C33  1  0.48501800  0.61756800  0.34721600  1
  C  C34  1  0.73493900  0.11757400  0.09724000  1
  C  C35  1  0.98502400  0.61756600  0.84721900  1
  C  C36  1  0.82313100  0.34397000  0.41191900  1
  C  C37  1  0.07319400  0.84397800  0.16196100  1
  C  C38  1  0.32312700  0.34396800  0.91191900  1
  C  C39  1  0.57319800  0.84397700  0.66196200  1
