# generated using pymatgen
data_Cu13Ni3C
_symmetry_space_group_name_H-M   'P 1'
_cell_length_a   11.04492400
_cell_length_b   6.61558500
_cell_length_c   6.69261613
_cell_angle_alpha   82.91353791
_cell_angle_beta   90.00000000
_cell_angle_gamma   90.00000000
_symmetry_Int_Tables_number   1
_chemical_formula_structural   Cu13Ni3C
_chemical_formula_sum   'Cu26 Ni6 C2'
_cell_volume   485.28474511
_cell_formula_units_Z   2
loop_
 _symmetry_equiv_pos_site_id
 _symmetry_equiv_pos_as_xyz
  1  'x, y, z'
loop_
 _atom_site_type_symbol
 _atom_site_label
 _atom_site_symmetry_multiplicity
 _atom_site_fract_x
 _atom_site_fract_y
 _atom_site_fract_z
 _atom_site_occupancy
  C  C0  1  0.25000000  0.80756000  0.37134400  1
  C  C1  1  0.75000000  0.19244000  0.62865600  1
  Ni  Ni2  1  0.25000000  0.24171900  0.48117000  1
  Ni  Ni3  1  0.75000000  0.75828100  0.51883000  1
  Ni  Ni4  1  0.49879200  0.72782200  0.18410300  1
  Ni  Ni5  1  0.99879200  0.27217800  0.81589700  1
  Ni  Ni6  1  0.50120800  0.27217800  0.81589700  1
  Ni  Ni7  1  0.00120800  0.72782200  0.18410300  1
  Cu  Cu8  1  0.34864400  0.14524000  0.46726000  1
  Cu  Cu9  1  0.84864400  0.85476000  0.53274000  1
  Cu  Cu10  1  0.65135600  0.85476000  0.53274000  1
  Cu  Cu11  1  0.15135600  0.14524000  0.46726000  1
  Cu  Cu12  1  0.25000000  0.42502400  0.50979900  1
  Cu  Cu13  1  0.75000000  0.57497600  0.49020100  1
  Cu  Cu14  1  0.45999800  0.90665900  0.20207000  1
  Cu  Cu15  1  0.95999800  0.09334100  0.79793000  1
  Cu  Cu16  1  0.54000200  0.09334100  0.79793000  1
  Cu  Cu17  1  0.04000200  0.90665900  0.20207000  1
  Cu  Cu18  1  0.59744700  0.69874700  0.10431900  1
  Cu  Cu19  1  0.09744700  0.30125300  0.89568100  1
  Cu  Cu20  1  0.40255300  0.30125300  0.89568100  1
  Cu  Cu21  1  0.90255300  0.69874700  0.10431900  1
  Cu  Cu22  1  0.43133600  0.57857900  0.25326800  1
  Cu  Cu23  1  0.93133600  0.42142100  0.74673200  1
  Cu  Cu24  1  0.56866400  0.42142100  0.74673200  1
  Cu  Cu25  1  0.06866400  0.57857900  0.25326800  1
  Cu  Cu26  1  0.25000000  0.02327400  0.05146400  1
  Cu  Cu27  1  0.75000000  0.97672600  0.94853600  1
  Cu  Cu28  1  0.25000000  0.73598900  0.86514800  1
  Cu  Cu29  1  0.75000000  0.26401100  0.13485200  1
  Cu  Cu30  1  0.34989600  0.74684000  0.76087300  1
  Cu  Cu31  1  0.84989600  0.25316000  0.23912700  1
  Cu  Cu32  1  0.65010400  0.25316000  0.23912700  1
  Cu  Cu33  1  0.15010400  0.74684000  0.76087300  1
