# generated using pymatgen
data_Cu20Ni8C9
_symmetry_space_group_name_H-M   'P 1'
_cell_length_a   8.02713012
_cell_length_b   8.02713012
_cell_length_c   9.85522202
_cell_angle_alpha   90.00000000
_cell_angle_beta   90.00000000
_cell_angle_gamma   90.00000000
_symmetry_Int_Tables_number   1
_chemical_formula_structural   Cu20Ni8C9
_chemical_formula_sum   'Cu20 Ni8 C9'
_cell_volume   635.01943685
_cell_formula_units_Z   1
loop_
 _symmetry_equiv_pos_site_id
 _symmetry_equiv_pos_as_xyz
  1  'x, y, z'
loop_
 _atom_site_type_symbol
 _atom_site_label
 _atom_site_symmetry_multiplicity
 _atom_site_fract_x
 _atom_site_fract_y
 _atom_site_fract_z
 _atom_site_occupancy
  C  C0  1  0.50000000  0.50000000  0.00000000  1
  Ni  Ni1  1  0.58162039  0.16176338  0.63328197  1
  Ni  Ni2  1  0.41837961  0.83823662  0.63328197  1
  Ni  Ni3  1  0.32980866  0.90489488  0.13411407  1
  Ni  Ni4  1  0.83823662  0.58162039  0.36671803  1
  Ni  Ni5  1  0.16176338  0.41837961  0.36671803  1
  Ni  Ni6  1  0.90489488  0.67019134  0.86588593  1
  Ni  Ni7  1  0.09510512  0.32980866  0.86588593  1
  Ni  Ni8  1  0.67019134  0.09510512  0.13411407  1
  Cu  Cu9  1  0.51623911  0.79491626  0.51883292  1
  Cu  Cu10  1  0.37353601  0.72801129  0.73931941  1
  Cu  Cu11  1  0.20248485  0.90138975  0.23598706  1
  Cu  Cu12  1  0.72801129  0.62646399  0.26068059  1
  Cu  Cu13  1  0.27198871  0.37353601  0.26068059  1
  Cu  Cu14  1  0.90138975  0.79751515  0.76401294  1
  Cu  Cu15  1  0.09861025  0.20248485  0.76401294  1
  Cu  Cu16  1  0.79751515  0.09861025  0.23598706  1
  Cu  Cu17  1  0.50000000  -0.00000000  0.20238719  1
  Cu  Cu18  1  0.00000000  0.50000000  0.79761281  1
  Cu  Cu19  1  0.00000000  0.50000000  0.28806952  1
  Cu  Cu20  1  0.50000000  -0.00000000  0.71193048  1
  Cu  Cu21  1  0.69685536  0.03661882  -0.00130749  1
  Cu  Cu22  1  0.48376089  0.20508374  0.51883292  1
  Cu  Cu23  1  0.96338118  0.69685536  0.00130749  1
  Cu  Cu24  1  0.20508374  0.51623911  0.48116708  1
  Cu  Cu25  1  0.79491626  0.48376089  0.48116708  1
  Cu  Cu26  1  0.30314464  0.96338118  -0.00130749  1
  Cu  Cu27  1  0.03661882  0.30314464  0.00130749  1
  Cu  Cu28  1  0.62646399  0.27198871  0.73931941  1
  C  C29  1  0.61260562  0.33265372  0.10434666  1
  C  C30  1  0.33265372  0.38739438  0.89565334  1
  C  C31  1  0.66734628  0.61260562  0.89565334  1
  C  C32  1  0.07668234  0.25454100  0.41961242  1
  C  C33  1  0.92331766  0.74545900  0.41961242  1
  C  C34  1  0.38739438  0.66734628  0.10434666  1
  C  C35  1  0.25454100  0.92331766  0.58038758  1
  C  C36  1  0.74545900  0.07668234  0.58038758  1
