# generated using pymatgen
data_CuNiC8
_symmetry_space_group_name_H-M   'P 1'
_cell_length_a   4.76759805
_cell_length_b   4.76759805
_cell_length_c   7.16093300
_cell_angle_alpha   90.00000000
_cell_angle_beta   90.00000000
_cell_angle_gamma   99.11627773
_symmetry_Int_Tables_number   1
_chemical_formula_structural   CuNiC8
_chemical_formula_sum   'Cu1 Ni1 C8'
_cell_volume   160.71199493
_cell_formula_units_Z   1
loop_
 _symmetry_equiv_pos_site_id
 _symmetry_equiv_pos_as_xyz
  1  'x, y, z'
loop_
 _atom_site_type_symbol
 _atom_site_label
 _atom_site_symmetry_multiplicity
 _atom_site_fract_x
 _atom_site_fract_y
 _atom_site_fract_z
 _atom_site_occupancy
  Ni  Ni0  1  0.46656100  0.53343900  0.00000000  1
  Cu  Cu1  1  0.46483100  0.53516900  0.50000000  1
  C  C2  1  0.87982500  0.12017500  0.73877000  1
  C  C3  1  0.87982500  0.12017500  0.26123000  1
  C  C4  1  0.05652900  0.39455600  0.50000000  1
  C  C5  1  0.60544400  0.94347100  0.50000000  1
  C  C6  1  0.08553800  0.43881800  0.00000000  1
  C  C7  1  0.56118200  0.91446200  0.00000000  1
  C  C8  1  0.58163200  0.41836800  0.76142000  1
  C  C9  1  0.58163200  0.41836800  0.23858000  1
