# generated using pymatgen
data_CuNi5C16
_symmetry_space_group_name_H-M   'P 1'
_cell_length_a   5.11791100
_cell_length_b   5.11791100
_cell_length_c   10.32717334
_cell_angle_alpha   89.99249675
_cell_angle_beta   89.99249675
_cell_angle_gamma   118.72904127
_symmetry_Int_Tables_number   1
_chemical_formula_structural   CuNi5C16
_chemical_formula_sum   'Cu1 Ni5 C16'
_cell_volume   237.20196854
_cell_formula_units_Z   1
loop_
 _symmetry_equiv_pos_site_id
 _symmetry_equiv_pos_as_xyz
  1  'x, y, z'
loop_
 _atom_site_type_symbol
 _atom_site_label
 _atom_site_symmetry_multiplicity
 _atom_site_fract_x
 _atom_site_fract_y
 _atom_site_fract_z
 _atom_site_occupancy
  C  C0  1  0.34788400  0.85179800  0.75124400  1
  C  C1  1  0.14820200  0.65211600  0.24875600  1
  C  C2  1  0.85179800  0.34788400  0.75124400  1
  C  C3  1  0.65211600  0.14820200  0.24875600  1
  Ni  Ni4  1  0.16588400  0.83411600  0.50000000  1
  Ni  Ni5  1  0.66615300  0.33384700  0.00000000  1
  Ni  Ni6  1  0.33384700  0.66615300  0.00000000  1
  Ni  Ni7  1  0.83411600  0.16588400  0.50000000  1
  Ni  Ni8  1  0.50000000  0.50000000  0.50000000  1
  Cu  Cu9  1  0.00000000  0.00000000  0.00000000  1
  C  C10  1  0.33585700  0.96915700  0.10818300  1
  C  C11  1  0.03084300  0.66414300  0.89181700  1
  C  C12  1  0.47872600  0.83053500  0.39154300  1
  C  C13  1  0.83053500  0.47872600  0.39154300  1
  C  C14  1  0.16946500  0.52127400  0.60845700  1
  C  C15  1  0.83949000  0.83949000  0.59625800  1
  C  C16  1  0.52127400  0.16946500  0.60845700  1
  C  C17  1  0.96915700  0.33585700  0.10818300  1
  C  C18  1  0.64812400  0.64812400  0.09449900  1
  C  C19  1  0.66414300  0.03084300  0.89181700  1
  C  C20  1  0.35187600  0.35187600  0.90550100  1
  C  C21  1  0.16051000  0.16051000  0.40374200  1
