# generated using pymatgen
data_Cu2Ni10C
_symmetry_space_group_name_H-M   'P 1'
_cell_length_a   4.74837000
_cell_length_b   6.35600346
_cell_length_c   6.35600346
_cell_angle_alpha   98.50695480
_cell_angle_beta   111.93374962
_cell_angle_gamma   68.06625038
_symmetry_Int_Tables_number   1
_chemical_formula_structural   Cu2Ni10C
_chemical_formula_sum   'Cu2 Ni10 C1'
_cell_volume   165.05509103
_cell_formula_units_Z   1
loop_
 _symmetry_equiv_pos_site_id
 _symmetry_equiv_pos_as_xyz
  1  'x, y, z'
loop_
 _atom_site_type_symbol
 _atom_site_label
 _atom_site_symmetry_multiplicity
 _atom_site_fract_x
 _atom_site_fract_y
 _atom_site_fract_z
 _atom_site_occupancy
  C  C0  1  0.00000000  0.00000000  0.00000000  1
  Ni  Ni1  1  0.63908100  0.36091900  0.63908100  1
  Ni  Ni2  1  0.36091900  0.63908100  0.36091900  1
  Ni  Ni3  1  0.00000000  0.35469100  0.35469100  1
  Ni  Ni4  1  0.00000000  0.64530900  0.64530900  1
  Ni  Ni5  1  0.50000000  0.79050500  0.79050500  1
  Ni  Ni6  1  0.50000000  0.20949500  0.20949500  1
  Ni  Ni7  1  0.50000000  0.00000000  0.50000000  1
  Ni  Ni8  1  0.00000000  0.00000000  0.50000000  1
  Ni  Ni9  1  0.50000000  0.50000000  0.00000000  1
  Ni  Ni10  1  0.00000000  0.50000000  0.00000000  1
  Cu  Cu11  1  0.73602800  0.76397200  0.23602800  1
  Cu  Cu12  1  0.26397200  0.23602800  0.76397200  1
