# generated using pymatgen
data_Cu6Ni2C3
_symmetry_space_group_name_H-M   'P 1'
_cell_length_a   8.04412500
_cell_length_b   9.27596400
_cell_length_c   10.61167986
_cell_angle_alpha   66.27021943
_cell_angle_beta   90.00000000
_cell_angle_gamma   90.00000000
_symmetry_Int_Tables_number   1
_chemical_formula_structural   Cu6Ni2C3
_chemical_formula_sum   'Cu24 Ni8 C12'
_cell_volume   724.86698164
_cell_formula_units_Z   4
loop_
 _symmetry_equiv_pos_site_id
 _symmetry_equiv_pos_as_xyz
  1  'x, y, z'
loop_
 _atom_site_type_symbol
 _atom_site_label
 _atom_site_symmetry_multiplicity
 _atom_site_fract_x
 _atom_site_fract_y
 _atom_site_fract_z
 _atom_site_occupancy
  C  C0  1  0.50000000  0.00000000  0.00000000  1
  C  C1  1  0.00000000  0.50000000  0.00000000  1
  C  C2  1  0.50000000  0.50000000  0.50000000  1
  C  C3  1  0.00000000  0.00000000  0.50000000  1
  Ni  Ni4  1  0.28226500  0.67040500  0.14252100  1
  Ni  Ni5  1  0.78226500  0.82959500  0.85747900  1
  Ni  Ni6  1  0.71773500  0.32959500  0.85747900  1
  Ni  Ni7  1  0.21773500  0.17040500  0.14252100  1
  Ni  Ni8  1  0.23312400  0.20703800  0.65394600  1
  Ni  Ni9  1  0.73312400  0.29296200  0.34605400  1
  Ni  Ni10  1  0.76687600  0.79296200  0.34605400  1
  Ni  Ni11  1  0.26687600  0.70703800  0.65394600  1
  Cu  Cu12  1  0.29706900  0.82675800  0.02865300  1
  Cu  Cu13  1  0.79706900  0.67324200  0.97134700  1
  Cu  Cu14  1  0.70293100  0.17324200  0.97134700  1
  Cu  Cu15  1  0.20293100  0.32675800  0.02865300  1
  Cu  Cu16  1  0.12395100  0.59499300  0.13718200  1
  Cu  Cu17  1  0.62395100  0.90500700  0.86281800  1
  Cu  Cu18  1  0.87604900  0.40500700  0.86281800  1
  Cu  Cu19  1  0.37604900  0.09499300  0.13718200  1
  Cu  Cu20  1  0.32541900  0.66154700  0.27709100  1
  Cu  Cu21  1  0.82541900  0.83845300  0.72290900  1
  Cu  Cu22  1  0.67458100  0.33845300  0.72290900  1
  Cu  Cu23  1  0.17458100  0.16154700  0.27709100  1
  Cu  Cu24  1  0.33430100  0.30012800  0.53201800  1
  Cu  Cu25  1  0.83430100  0.19987200  0.46798200  1
  Cu  Cu26  1  0.66569900  0.69987200  0.46798200  1
  Cu  Cu27  1  0.16569900  0.80012800  0.53201800  1
  Cu  Cu28  1  0.16917400  0.06446100  0.64360700  1
  Cu  Cu29  1  0.66917400  0.43553900  0.35639300  1
  Cu  Cu30  1  0.83082600  0.93553900  0.35639300  1
  Cu  Cu31  1  0.33082600  0.56446100  0.64360700  1
  Cu  Cu32  1  0.30147500  0.18424500  0.78563100  1
  Cu  Cu33  1  0.80147500  0.31575500  0.21436900  1
  Cu  Cu34  1  0.69852500  0.81575500  0.21436900  1
  Cu  Cu35  1  0.19852500  0.68424500  0.78563100  1
  C  C36  1  0.41730900  0.56644500  0.10760700  1
  C  C37  1  0.91730900  0.93355500  0.89239300  1
  C  C38  1  0.58269100  0.43355500  0.89239300  1
  C  C39  1  0.08269100  0.06644500  0.10760700  1
  C  C40  1  0.07197600  0.31249800  0.63711000  1
  C  C41  1  0.57197600  0.18750200  0.36289000  1
  C  C42  1  0.92802400  0.68750200  0.36289000  1
  C  C43  1  0.42802400  0.81249800  0.63711000  1
