# generated using pymatgen
data_Cu3(NiC5)2
_symmetry_space_group_name_H-M   'P 1'
_cell_length_a   7.10262329
_cell_length_b   7.10262329
_cell_length_c   10.48469000
_cell_angle_alpha   90.00000000
_cell_angle_beta   90.00000000
_cell_angle_gamma   119.99999341
_symmetry_Int_Tables_number   1
_chemical_formula_structural   Cu3(NiC5)2
_chemical_formula_sum   'Cu6 Ni4 C20'
_cell_volume   458.06152777
_cell_formula_units_Z   2
loop_
 _symmetry_equiv_pos_site_id
 _symmetry_equiv_pos_as_xyz
  1  'x, y, z'
loop_
 _atom_site_type_symbol
 _atom_site_label
 _atom_site_symmetry_multiplicity
 _atom_site_fract_x
 _atom_site_fract_y
 _atom_site_fract_z
 _atom_site_occupancy
  C  C0  1  0.00000000  0.00000000  0.50000000  1
  C  C1  1  0.00000000  0.00000000  0.00000000  1
  Ni  Ni2  1  0.33333300  0.66666700  0.44253100  1
  Ni  Ni3  1  0.66666700  0.33333300  0.94253100  1
  Ni  Ni4  1  0.66666700  0.33333300  0.55746900  1
  Ni  Ni5  1  0.33333300  0.66666700  0.05746900  1
  Cu  Cu6  1  0.24196000  0.87450400  0.75000000  1
  Cu  Cu7  1  0.63254300  0.75804000  0.75000000  1
  Cu  Cu8  1  0.12549600  0.36745700  0.75000000  1
  Cu  Cu9  1  0.36745700  0.24196000  0.25000000  1
  Cu  Cu10  1  0.87450400  0.63254300  0.25000000  1
  Cu  Cu11  1  0.75804000  0.12549600  0.25000000  1
  C  C12  1  0.23285100  0.22469700  0.39251300  1
  C  C13  1  0.00815400  0.23285100  0.89251300  1
  C  C14  1  0.22469700  0.99184600  0.89251300  1
  C  C15  1  0.77530300  0.00815400  0.39251300  1
  C  C16  1  0.99184600  0.76714900  0.39251300  1
  C  C17  1  0.76714900  0.77530300  0.89251300  1
  C  C18  1  0.76714900  0.77530300  0.60748700  1
  C  C19  1  0.99184600  0.76714900  0.10748700  1
  C  C20  1  0.77530300  0.00815400  0.10748700  1
  C  C21  1  0.22469700  0.99184600  0.60748700  1
  C  C22  1  0.00815400  0.23285100  0.60748700  1
  C  C23  1  0.23285100  0.22469700  0.10748700  1
  C  C24  1  0.47804700  0.06432400  0.25000000  1
  C  C25  1  0.41372300  0.47804700  0.75000000  1
  C  C26  1  0.06432400  0.58627700  0.75000000  1
  C  C27  1  0.93567600  0.41372300  0.25000000  1
  C  C28  1  0.58627700  0.52195300  0.25000000  1
  C  C29  1  0.52195300  0.93567600  0.75000000  1
