# generated using pymatgen
data_Cu3NiC6
_symmetry_space_group_name_H-M   'P 1'
_cell_length_a   7.19212922
_cell_length_b   7.19212922
_cell_length_c   5.69237800
_cell_angle_alpha   90.00000000
_cell_angle_beta   90.00000000
_cell_angle_gamma   133.26339300
_symmetry_Int_Tables_number   1
_chemical_formula_structural   Cu3NiC6
_chemical_formula_sum   'Cu3 Ni1 C6'
_cell_volume   214.42025237
_cell_formula_units_Z   1
loop_
 _symmetry_equiv_pos_site_id
 _symmetry_equiv_pos_as_xyz
  1  'x, y, z'
loop_
 _atom_site_type_symbol
 _atom_site_label
 _atom_site_symmetry_multiplicity
 _atom_site_fract_x
 _atom_site_fract_y
 _atom_site_fract_z
 _atom_site_occupancy
  Ni  Ni0  1  0.81294400  0.18705600  0.00000000  1
  Cu  Cu1  1  0.14292800  0.85707200  0.00000000  1
  Cu  Cu2  1  0.64787400  0.35212600  0.50000000  1
  Cu  Cu3  1  0.35323600  0.64676400  0.50000000  1
  C  C4  1  0.49479500  0.50520500  0.00000000  1
  C  C5  1  0.00140800  0.99859200  0.50000000  1
  C  C6  1  0.98228800  0.47901600  0.76868300  1
  C  C7  1  0.52098400  0.01771200  0.23131700  1
  C  C8  1  0.52098400  0.01771200  0.76868300  1
  C  C9  1  0.98228800  0.47901600  0.23131700  1
