# generated using pymatgen
data_Cu27(Ni6C)2
_symmetry_space_group_name_H-M   'P 1'
_cell_length_a   13.42276218
_cell_length_b   13.42276218
_cell_length_c   13.42276218
_cell_angle_alpha   90.00000000
_cell_angle_beta   90.00000000
_cell_angle_gamma   90.00000000
_symmetry_Int_Tables_number   1
_chemical_formula_structural   Cu27(Ni6C)2
_chemical_formula_sum   'Cu108 Ni48 C8'
_cell_volume   2418.38637121
_cell_formula_units_Z   4
loop_
 _symmetry_equiv_pos_site_id
 _symmetry_equiv_pos_as_xyz
  1  'x, y, z'
loop_
 _atom_site_type_symbol
 _atom_site_label
 _atom_site_symmetry_multiplicity
 _atom_site_fract_x
 _atom_site_fract_y
 _atom_site_fract_z
 _atom_site_occupancy
  C  C0  1  0.04938651  0.04938651  0.04938651  1
  C  C1  1  0.45061349  0.95061349  0.54938651  1
  C  C2  1  0.95061349  0.54938651  0.45061349  1
  C  C3  1  0.79938651  0.29938651  0.20061349  1
  C  C4  1  0.54938651  0.45061349  0.95061349  1
  C  C5  1  0.70061349  0.70061349  0.70061349  1
  C  C6  1  0.29938651  0.20061349  0.79938651  1
  C  C7  1  0.20061349  0.79938651  0.29938651  1
  Ni  Ni8  1  0.08896009  0.38615871  0.38548659  1
  Ni  Ni9  1  0.41103991  0.61384129  0.88548659  1
  Ni  Ni10  1  0.91103991  0.88615871  0.11451341  1
  Ni  Ni11  1  0.38548659  0.08896009  0.38615871  1
  Ni  Ni12  1  0.13615871  0.33896009  0.86451341  1
  Ni  Ni13  1  0.58896009  0.11384129  0.61451341  1
  Ni  Ni14  1  0.88548659  0.41103991  0.61384129  1
  Ni  Ni15  1  0.36384129  0.66103991  0.36451341  1
  Ni  Ni16  1  0.11451341  0.91103991  0.88615871  1
  Ni  Ni17  1  0.63615871  0.16103991  0.13548659  1
  Ni  Ni18  1  0.61451341  0.58896009  0.11384129  1
  Ni  Ni19  1  0.86384129  0.83896009  0.63548659  1
  Ni  Ni20  1  0.38615871  0.38548659  0.08896009  1
  Ni  Ni21  1  0.83896009  0.63548659  0.86384129  1
  Ni  Ni22  1  0.88615871  0.11451341  0.91103991  1
  Ni  Ni23  1  0.66103991  0.36451341  0.36384129  1
  Ni  Ni24  1  0.11384129  0.61451341  0.58896009  1
  Ni  Ni25  1  0.33896009  0.86451341  0.13615871  1
  Ni  Ni26  1  0.61384129  0.88548659  0.41103991  1
  Ni  Ni27  1  0.16103991  0.13548659  0.63615871  1
  Ni  Ni28  1  0.86451341  0.13615871  0.33896009  1
  Ni  Ni29  1  0.36451341  0.36384129  0.66103991  1
  Ni  Ni30  1  0.63548659  0.86384129  0.83896009  1
  Ni  Ni31  1  0.13548659  0.63615871  0.16103991  1
  Ni  Ni32  1  0.12500000  0.21069925  0.46069925  1
  Ni  Ni33  1  0.37500000  0.78930075  0.96069925  1
  Ni  Ni34  1  0.87500000  0.71069925  0.03930075  1
  Ni  Ni35  1  0.46069925  0.12500000  0.21069925  1
  Ni  Ni36  1  0.96069925  0.37500000  0.78930075  1
  Ni  Ni37  1  0.62500000  0.28930075  0.53930075  1
  Ni  Ni38  1  0.53930075  0.62500000  0.28930075  1
  Ni  Ni39  1  0.03930075  0.87500000  0.71069925  1
  Ni  Ni40  1  0.21069925  0.46069925  0.12500000  1
  Ni  Ni41  1  0.71069925  0.03930075  0.87500000  1
  Ni  Ni42  1  0.28930075  0.53930075  0.62500000  1
  Ni  Ni43  1  0.78930075  0.96069925  0.37500000  1
  Ni  Ni44  1  0.12500000  0.00828363  0.25828363  1
  Ni  Ni45  1  0.37500000  0.99171637  0.75828363  1
  Ni  Ni46  1  0.87500000  0.50828363  0.24171637  1
  Ni  Ni47  1  0.25828363  0.12500000  0.00828363  1
  Ni  Ni48  1  0.75828363  0.37500000  0.99171637  1
  Ni  Ni49  1  0.62500000  0.49171637  0.74171637  1
  Ni  Ni50  1  0.74171637  0.62500000  0.49171637  1
  Ni  Ni51  1  0.24171637  0.87500000  0.50828363  1
  Ni  Ni52  1  0.00828363  0.25828363  0.12500000  1
  Ni  Ni53  1  0.50828363  0.24171637  0.87500000  1
  Ni  Ni54  1  0.49171637  0.74171637  0.62500000  1
  Ni  Ni55  1  0.99171637  0.75828363  0.37500000  1
  Cu  Cu56  1  0.12500000  0.93947454  0.18947454  1
  Cu  Cu57  1  0.37500000  0.06052546  0.68947454  1
  Cu  Cu58  1  0.87500000  0.43947454  0.31052546  1
  Cu  Cu59  1  0.18947454  0.12500000  0.93947454  1
  Cu  Cu60  1  0.68947454  0.37500000  0.06052546  1
  Cu  Cu61  1  0.62500000  0.56052546  0.81052546  1
  Cu  Cu62  1  0.81052546  0.62500000  0.56052546  1
  Cu  Cu63  1  0.31052546  0.87500000  0.43947454  1
  Cu  Cu64  1  0.93947454  0.18947454  0.12500000  1
  Cu  Cu65  1  0.43947454  0.31052546  0.87500000  1
  Cu  Cu66  1  0.56052546  0.81052546  0.62500000  1
  Cu  Cu67  1  0.06052546  0.68947454  0.37500000  1
  Cu  Cu68  1  0.02545771  0.37741209  0.45473497  1
  Cu  Cu69  1  0.47454229  0.62258791  0.95473497  1
  Cu  Cu70  1  0.97454229  0.87741209  0.04526503  1
  Cu  Cu71  1  0.45473497  0.02545771  0.37741209  1
  Cu  Cu72  1  0.12741209  0.27545771  0.79526503  1
  Cu  Cu73  1  0.52545771  0.12258791  0.54526503  1
  Cu  Cu74  1  0.95473497  0.47454229  0.62258791  1
  Cu  Cu75  1  0.37258791  0.72454229  0.29526503  1
  Cu  Cu76  1  0.04526503  0.97454229  0.87741209  1
  Cu  Cu77  1  0.62741209  0.22454229  0.20473497  1
  Cu  Cu78  1  0.54526503  0.52545771  0.12258791  1
  Cu  Cu79  1  0.87258791  0.77545771  0.70473497  1
  Cu  Cu80  1  0.37741209  0.45473497  0.02545771  1
  Cu  Cu81  1  0.77545771  0.70473497  0.87258791  1
  Cu  Cu82  1  0.87741209  0.04526503  0.97454229  1
  Cu  Cu83  1  0.72454229  0.29526503  0.37258791  1
  Cu  Cu84  1  0.12258791  0.54526503  0.52545771  1
  Cu  Cu85  1  0.27545771  0.79526503  0.12741209  1
  Cu  Cu86  1  0.62258791  0.95473497  0.47454229  1
  Cu  Cu87  1  0.22454229  0.20473497  0.62741209  1
  Cu  Cu88  1  0.79526503  0.12741209  0.27545771  1
  Cu  Cu89  1  0.29526503  0.37258791  0.72454229  1
  Cu  Cu90  1  0.70473497  0.87258791  0.77545771  1
  Cu  Cu91  1  0.20473497  0.62741209  0.22454229  1
  Cu  Cu92  1  0.09248179  0.46526086  0.33566117  1
  Cu  Cu93  1  0.40751821  0.53473914  0.83566117  1
  Cu  Cu94  1  0.90751821  0.96526086  0.16433883  1
  Cu  Cu95  1  0.33566117  0.09248179  0.46526086  1
  Cu  Cu96  1  0.21526086  0.34248179  0.91433883  1
  Cu  Cu97  1  0.59248179  0.03473914  0.66433883  1
  Cu  Cu98  1  0.83566117  0.40751821  0.53473914  1
  Cu  Cu99  1  0.28473914  0.65751821  0.41433883  1
  Cu  Cu100  1  0.16433883  0.90751821  0.96526086  1
  Cu  Cu101  1  0.71526086  0.15751821  0.08566117  1
  Cu  Cu102  1  0.66433883  0.59248179  0.03473914  1
  Cu  Cu103  1  0.78473914  0.84248179  0.58566117  1
  Cu  Cu104  1  0.46526086  0.33566117  0.09248179  1
  Cu  Cu105  1  0.84248179  0.58566117  0.78473914  1
  Cu  Cu106  1  0.96526086  0.16433883  0.90751821  1
  Cu  Cu107  1  0.65751821  0.41433883  0.28473914  1
  Cu  Cu108  1  0.03473914  0.66433883  0.59248179  1
  Cu  Cu109  1  0.34248179  0.91433883  0.21526086  1
  Cu  Cu110  1  0.53473914  0.83566117  0.40751821  1
  Cu  Cu111  1  0.15751821  0.08566117  0.71526086  1
  Cu  Cu112  1  0.91433883  0.21526086  0.34248179  1
  Cu  Cu113  1  0.41433883  0.28473914  0.65751821  1
  Cu  Cu114  1  0.58566117  0.78473914  0.84248179  1
  Cu  Cu115  1  0.08566117  0.71526086  0.15751821  1
  Cu  Cu116  1  0.14958724  0.31463838  0.36633700  1
  Cu  Cu117  1  0.35041276  0.68536162  0.86633700  1
  Cu  Cu118  1  0.85041276  0.81463838  0.13366300  1
  Cu  Cu119  1  0.36633700  0.14958724  0.31463838  1
  Cu  Cu120  1  0.06463838  0.39958724  0.88366300  1
  Cu  Cu121  1  0.64958724  0.18536162  0.63366300  1
  Cu  Cu122  1  0.86633700  0.35041276  0.68536162  1
  Cu  Cu123  1  0.43536162  0.60041276  0.38366300  1
  Cu  Cu124  1  0.13366300  0.85041276  0.81463838  1
  Cu  Cu125  1  0.56463838  0.10041276  0.11633700  1
  Cu  Cu126  1  0.63366300  0.64958724  0.18536162  1
  Cu  Cu127  1  0.93536162  0.89958724  0.61633700  1
  Cu  Cu128  1  0.31463838  0.36633700  0.14958724  1
  Cu  Cu129  1  0.89958724  0.61633700  0.93536162  1
  Cu  Cu130  1  0.81463838  0.13366300  0.85041276  1
  Cu  Cu131  1  0.60041276  0.38366300  0.43536162  1
  Cu  Cu132  1  0.18536162  0.63366300  0.64958724  1
  Cu  Cu133  1  0.39958724  0.88366300  0.06463838  1
  Cu  Cu134  1  0.68536162  0.86633700  0.35041276  1
  Cu  Cu135  1  0.10041276  0.11633700  0.56463838  1
  Cu  Cu136  1  0.88366300  0.06463838  0.39958724  1
  Cu  Cu137  1  0.38366300  0.43536162  0.60041276  1
  Cu  Cu138  1  0.61633700  0.93536162  0.89958724  1
  Cu  Cu139  1  0.11633700  0.56463838  0.10041276  1
  Cu  Cu140  1  0.08593625  0.09008536  0.23781352  1
  Cu  Cu141  1  0.41406375  0.90991464  0.73781352  1
  Cu  Cu142  1  0.91406375  0.59008536  0.26218648  1
  Cu  Cu143  1  0.23781352  0.08593625  0.09008536  1
  Cu  Cu144  1  0.84008536  0.33593625  0.01218648  1
  Cu  Cu145  1  0.58593625  0.40991464  0.76218648  1
  Cu  Cu146  1  0.73781352  0.41406375  0.90991464  1
  Cu  Cu147  1  0.65991464  0.66406375  0.51218648  1
  Cu  Cu148  1  0.26218648  0.91406375  0.59008536  1
  Cu  Cu149  1  0.34008536  0.16406375  0.98781352  1
  Cu  Cu150  1  0.76218648  0.58593625  0.40991464  1
  Cu  Cu151  1  0.15991464  0.83593625  0.48781352  1
  Cu  Cu152  1  0.09008536  0.23781352  0.08593625  1
  Cu  Cu153  1  0.83593625  0.48781352  0.15991464  1
  Cu  Cu154  1  0.59008536  0.26218648  0.91406375  1
  Cu  Cu155  1  0.66406375  0.51218648  0.65991464  1
  Cu  Cu156  1  0.40991464  0.76218648  0.58593625  1
  Cu  Cu157  1  0.33593625  0.01218648  0.84008536  1
  Cu  Cu158  1  0.90991464  0.73781352  0.41406375  1
  Cu  Cu159  1  0.16406375  0.98781352  0.34008536  1
  Cu  Cu160  1  0.01218648  0.84008536  0.33593625  1
  Cu  Cu161  1  0.51218648  0.65991464  0.66406375  1
  Cu  Cu162  1  0.48781352  0.15991464  0.83593625  1
  Cu  Cu163  1  0.98781352  0.34008536  0.16406375  1
