# generated using pymatgen
data_Cu15NiC10
_symmetry_space_group_name_H-M   'P 1'
_cell_length_a   9.24874700
_cell_length_b   9.18434776
_cell_length_c   9.31223254
_cell_angle_alpha   90.17572374
_cell_angle_beta   90.00000000
_cell_angle_gamma   90.00000000
_symmetry_Int_Tables_number   1
_chemical_formula_structural   Cu15NiC10
_chemical_formula_sum   'Cu30 Ni2 C20'
_cell_volume   791.01184877
_cell_formula_units_Z   2
loop_
 _symmetry_equiv_pos_site_id
 _symmetry_equiv_pos_as_xyz
  1  'x, y, z'
loop_
 _atom_site_type_symbol
 _atom_site_label
 _atom_site_symmetry_multiplicity
 _atom_site_fract_x
 _atom_site_fract_y
 _atom_site_fract_z
 _atom_site_occupancy
  C  C0  1  0.18794200  0.18856400  0.19049700  1
  C  C1  1  0.18794200  0.81143600  0.80950300  1
  C  C2  1  0.31351200  0.31637200  0.69248800  1
  C  C3  1  0.31351200  0.68362800  0.30751200  1
  C  C4  1  0.68511600  0.32269500  0.31034400  1
  C  C5  1  0.68511600  0.67730500  0.68965600  1
  C  C6  1  0.80852200  0.18973700  0.81121700  1
  C  C7  1  0.80852200  0.81026300  0.18878300  1
  C  C8  1  0.99925400  0.24932400  0.50117300  1
  C  C9  1  0.99925400  0.75067600  0.49882700  1
  C  C10  1  0.24687800  0.50000000  0.00000000  1
  C  C11  1  0.49935700  0.99895500  0.74880300  1
  C  C12  1  0.49935700  0.00104500  0.25119700  1
  C  C13  1  0.74879900  0.50000000  0.00000000  1
  C  C14  1  0.99823500  0.49900100  0.25085900  1
  C  C15  1  0.99823500  0.50099900  0.74914100  1
  C  C16  1  0.25078400  0.00000000  0.50000000  1
  C  C17  1  0.49797800  0.75083500  0.99948000  1
  C  C18  1  0.49797800  0.24916500  0.00052000  1
  C  C19  1  0.74803200  0.00000000  0.50000000  1
  Ni  Ni20  1  0.99998400  0.00000000  0.00000000  1
  Ni  Ni21  1  0.44847600  0.50000000  0.50000000  1
  Cu  Cu22  1  0.06559800  0.35500000  0.64575100  1
  Cu  Cu23  1  0.06559800  0.64500000  0.35424900  1
  Cu  Cu24  1  0.14619300  0.14605700  0.43480900  1
  Cu  Cu25  1  0.14619300  0.85394300  0.56519100  1
  Cu  Cu26  1  0.14374900  0.43406000  0.14618200  1
  Cu  Cu27  1  0.14374900  0.56594000  0.85381800  1
  Cu  Cu28  1  0.35059900  0.35204500  0.93629100  1
  Cu  Cu29  1  0.35059900  0.64795500  0.06370900  1
  Cu  Cu30  1  0.35622100  0.06796000  0.64309000  1
  Cu  Cu31  1  0.35622100  0.93204000  0.35691000  1
  Cu  Cu32  1  0.43393800  0.14851500  0.14881200  1
  Cu  Cu33  1  0.43393800  0.85148500  0.85118800  1
  Cu  Cu34  1  0.52046900  0.46959500  0.61187400  1
  Cu  Cu35  1  0.52046900  0.53040500  0.38812600  1
  Cu  Cu36  1  0.56367300  0.14476000  0.85497800  1
  Cu  Cu37  1  0.56367300  0.85524000  0.14502200  1
  Cu  Cu38  1  0.64441800  0.06910500  0.35605600  1
  Cu  Cu39  1  0.64441800  0.93089500  0.64394400  1
  Cu  Cu40  1  0.64365300  0.35423300  0.06480900  1
  Cu  Cu41  1  0.64365300  0.64576700  0.93519100  1
  Cu  Cu42  1  0.85100300  0.56279500  0.14856800  1
  Cu  Cu43  1  0.85100300  0.43720500  0.85143200  1
  Cu  Cu44  1  0.85303200  0.14523100  0.56792900  1
  Cu  Cu45  1  0.85303200  0.85476900  0.43207100  1
  Cu  Cu46  1  0.93288500  0.35399000  0.35640500  1
  Cu  Cu47  1  0.93288500  0.64601000  0.64359500  1
  Cu  Cu48  1  0.09201000  0.96217000  0.10710400  1
  Cu  Cu49  1  0.09201000  0.03783000  0.89289600  1
  Cu  Cu50  1  0.90656500  0.89163200  0.96315200  1
  Cu  Cu51  1  0.90656500  0.10836800  0.03684800  1
