# generated using pymatgen
data_CuNi5C6
_symmetry_space_group_name_H-M   'P 1'
_cell_length_a   8.58105800
_cell_length_b   8.86606000
_cell_length_c   17.18274700
_cell_angle_alpha   90.00000000
_cell_angle_beta   90.00000000
_cell_angle_gamma   90.00000000
_symmetry_Int_Tables_number   1
_chemical_formula_structural   CuNi5C6
_chemical_formula_sum   'Cu4 Ni20 C24'
_cell_volume   1307.26640031
_cell_formula_units_Z   4
loop_
 _symmetry_equiv_pos_site_id
 _symmetry_equiv_pos_as_xyz
  1  'x, y, z'
loop_
 _atom_site_type_symbol
 _atom_site_label
 _atom_site_symmetry_multiplicity
 _atom_site_fract_x
 _atom_site_fract_y
 _atom_site_fract_z
 _atom_site_occupancy
  C  C0  1  0.65734300  0.75000000  0.06220300  1
  C  C1  1  0.84265700  0.75000000  0.56220300  1
  C  C2  1  0.34265700  0.25000000  0.93779700  1
  C  C3  1  0.15734300  0.25000000  0.43779700  1
  C  C4  1  0.15627800  0.75000000  0.16260100  1
  C  C5  1  0.34372200  0.75000000  0.66260100  1
  C  C6  1  0.84372200  0.25000000  0.83739900  1
  C  C7  1  0.65627800  0.25000000  0.33739900  1
  C  C8  1  0.05115200  0.75000000  0.03088700  1
  C  C9  1  0.44884800  0.75000000  0.53088700  1
  C  C10  1  0.94884800  0.25000000  0.96911300  1
  C  C11  1  0.55115200  0.25000000  0.46911300  1
  C  C12  1  0.15703200  0.47579400  0.15610100  1
  C  C13  1  0.34296800  0.02420600  0.65610100  1
  C  C14  1  0.84296800  0.97579400  0.84389900  1
  C  C15  1  0.65703200  0.52420600  0.34389900  1
  C  C16  1  0.84296800  0.52420600  0.84389900  1
  C  C17  1  0.65703200  0.97579400  0.34389900  1
  C  C18  1  0.15703200  0.02420600  0.15610100  1
  C  C19  1  0.34296800  0.47579400  0.65610100  1
  C  C20  1  0.26239400  0.75000000  0.29163100  1
  C  C21  1  0.23760600  0.75000000  0.79163100  1
  C  C22  1  0.73760600  0.25000000  0.70836900  1
  C  C23  1  0.76239400  0.25000000  0.20836900  1
  Ni  Ni24  1  0.61142500  0.75000000  0.18905200  1
  Ni  Ni25  1  0.88857500  0.75000000  0.68905200  1
  Ni  Ni26  1  0.38857500  0.25000000  0.81094800  1
  Ni  Ni27  1  0.11142500  0.25000000  0.31094800  1
  Ni  Ni28  1  0.61088100  0.61432800  0.18739900  1
  Ni  Ni29  1  0.88911900  0.88567200  0.68739900  1
  Ni  Ni30  1  0.38911900  0.11432800  0.81260100  1
  Ni  Ni31  1  0.11088100  0.38567200  0.31260100  1
  Ni  Ni32  1  0.38911900  0.38567200  0.81260100  1
  Ni  Ni33  1  0.11088100  0.11432800  0.31260100  1
  Ni  Ni34  1  0.61088100  0.88567200  0.18739900  1
  Ni  Ni35  1  0.88911900  0.61432800  0.68739900  1
  Ni  Ni36  1  0.78027100  0.61696900  0.04314100  1
  Ni  Ni37  1  0.71972900  0.88303100  0.54314100  1
  Ni  Ni38  1  0.21972900  0.11696900  0.95685900  1
  Ni  Ni39  1  0.28027100  0.38303100  0.45685900  1
  Ni  Ni40  1  0.21972900  0.38303100  0.95685900  1
  Ni  Ni41  1  0.28027100  0.11696900  0.45685900  1
  Ni  Ni42  1  0.78027100  0.88303100  0.04314100  1
  Ni  Ni43  1  0.71972900  0.61696900  0.54314100  1
  Cu  Cu44  1  0.46781700  0.75000000  0.97969100  1
  Cu  Cu45  1  0.03218300  0.75000000  0.47969100  1
  Cu  Cu46  1  0.53218300  0.25000000  0.02030900  1
  Cu  Cu47  1  0.96781700  0.25000000  0.52030900  1
