# generated using pymatgen
data_CuNiC8
_symmetry_space_group_name_H-M   'P 1'
_cell_length_a   14.38979000
_cell_length_b   14.38979000
_cell_length_c   5.49719700
_cell_angle_alpha   90.00000000
_cell_angle_beta   90.00000000
_cell_angle_gamma   90.00000000
_symmetry_Int_Tables_number   1
_chemical_formula_structural   CuNiC8
_chemical_formula_sum   'Cu4 Ni4 C32'
_cell_volume   1138.28290319
_cell_formula_units_Z   4
loop_
 _symmetry_equiv_pos_site_id
 _symmetry_equiv_pos_as_xyz
  1  'x, y, z'
loop_
 _atom_site_type_symbol
 _atom_site_label
 _atom_site_symmetry_multiplicity
 _atom_site_fract_x
 _atom_site_fract_y
 _atom_site_fract_z
 _atom_site_occupancy
  Ni  Ni0  1  0.25000000  0.75000000  0.50000000  1
  Ni  Ni1  1  0.75000000  0.25000000  0.50000000  1
  Ni  Ni2  1  0.75000000  0.75000000  0.50000000  1
  Ni  Ni3  1  0.25000000  0.25000000  0.50000000  1
  C  C4  1  0.55571600  0.09256000  0.30653400  1
  C  C5  1  0.44428400  0.90744000  0.30653400  1
  C  C6  1  0.09256000  0.44428400  0.30653400  1
  C  C7  1  0.55571600  0.90744000  0.69346600  1
  C  C8  1  0.94428400  0.40744000  0.69346600  1
  C  C9  1  0.90744000  0.55571600  0.30653400  1
  C  C10  1  0.44428400  0.09256000  0.69346600  1
  C  C11  1  0.05571600  0.59256000  0.69346600  1
  C  C12  1  0.09256000  0.55571600  0.69346600  1
  C  C13  1  0.40744000  0.05571600  0.69346600  1
  C  C14  1  0.90744000  0.44428400  0.69346600  1
  C  C15  1  0.59256000  0.94428400  0.69346600  1
  C  C16  1  0.94428400  0.59256000  0.30653400  1
  C  C17  1  0.05571600  0.40744000  0.30653400  1
  C  C18  1  0.59256000  0.05571600  0.30653400  1
  C  C19  1  0.40744000  0.94428400  0.30653400  1
  Cu  Cu20  1  0.25000000  0.25000000  0.00000000  1
  Cu  Cu21  1  0.75000000  0.75000000  0.00000000  1
  Cu  Cu22  1  0.25000000  0.75000000  0.00000000  1
  Cu  Cu23  1  0.75000000  0.25000000  0.00000000  1
  C  C24  1  0.34132000  0.60594700  0.46754200  1
  C  C25  1  0.65868000  0.39405300  0.46754200  1
  C  C26  1  0.60594700  0.65868000  0.46754200  1
  C  C27  1  0.34132000  0.39405300  0.53245800  1
  C  C28  1  0.15868000  0.89405300  0.53245800  1
  C  C29  1  0.39405300  0.34132000  0.46754200  1
  C  C30  1  0.65868000  0.60594700  0.53245800  1
  C  C31  1  0.84132000  0.10594700  0.53245800  1
  C  C32  1  0.60594700  0.34132000  0.53245800  1
  C  C33  1  0.89405300  0.84132000  0.53245800  1
  C  C34  1  0.39405300  0.65868000  0.53245800  1
  C  C35  1  0.10594700  0.15868000  0.53245800  1
  C  C36  1  0.15868000  0.10594700  0.46754200  1
  C  C37  1  0.84132000  0.89405300  0.46754200  1
  C  C38  1  0.10594700  0.84132000  0.46754200  1
  C  C39  1  0.89405300  0.15868000  0.46754200  1
