# generated using pymatgen
data_CuNi7C9
_symmetry_space_group_name_H-M   'P 1'
_cell_length_a   6.70541104
_cell_length_b   9.03545064
_cell_length_c   11.75842852
_cell_angle_alpha   96.73577261
_cell_angle_beta   95.61288278
_cell_angle_gamma   90.43570216
_symmetry_Int_Tables_number   1
_chemical_formula_structural   CuNi7C9
_chemical_formula_sum   'Cu4 Ni28 C36'
_cell_volume   703.96046821
_cell_formula_units_Z   4
loop_
 _symmetry_equiv_pos_site_id
 _symmetry_equiv_pos_as_xyz
  1  'x, y, z'
loop_
 _atom_site_type_symbol
 _atom_site_label
 _atom_site_symmetry_multiplicity
 _atom_site_fract_x
 _atom_site_fract_y
 _atom_site_fract_z
 _atom_site_occupancy
  C  C0  1  0.35681100  0.09011800  0.06368700  1
  C  C1  1  0.64318900  0.90988200  0.93631300  1
  C  C2  1  0.26908600  0.07518400  0.76056100  1
  C  C3  1  0.73091400  0.92481600  0.23943900  1
  Ni  Ni4  1  0.65407900  0.40679500  0.29348000  1
  Ni  Ni5  1  0.34592100  0.59320500  0.70652000  1
  Ni  Ni6  1  0.16615100  0.12261900  0.53913200  1
  Ni  Ni7  1  0.83384900  0.87738100  0.46086800  1
  Ni  Ni8  1  0.61945100  0.63329900  0.23504400  1
  Ni  Ni9  1  0.38054900  0.36670100  0.76495600  1
  Ni  Ni10  1  0.17650100  0.37607800  0.21931200  1
  Ni  Ni11  1  0.82349900  0.62392200  0.78068800  1
  Ni  Ni12  1  0.11540700  0.51296200  0.15269700  1
  Ni  Ni13  1  0.88459300  0.48703800  0.84730300  1
  Ni  Ni14  1  0.02009800  0.82232100  0.38733900  1
  Ni  Ni15  1  0.97990200  0.17767900  0.61266100  1
  Ni  Ni16  1  0.29485000  0.70577100  0.45888600  1
  Ni  Ni17  1  0.70515000  0.29422900  0.54111400  1
  Ni  Ni18  1  0.16222400  0.55199200  0.77488500  1
  Ni  Ni19  1  0.83777600  0.44800800  0.22511500  1
  Ni  Ni20  1  0.55595900  0.35270100  0.11031000  1
  Ni  Ni21  1  0.44404100  0.64729900  0.88969000  1
  Ni  Ni22  1  0.54961100  0.26147400  0.70852600  1
  Ni  Ni23  1  0.45038900  0.73852600  0.29147400  1
  Ni  Ni24  1  0.03381100  0.12115400  0.30782800  1
  Ni  Ni25  1  0.96618900  0.87884600  0.69217200  1
  Ni  Ni26  1  0.95764900  0.13726500  0.17562300  1
  Ni  Ni27  1  0.04235100  0.86273500  0.82437700  1
  Ni  Ni28  1  0.43636500  0.70014800  0.02209700  1
  Ni  Ni29  1  0.56363500  0.29985200  0.97790300  1
  Ni  Ni30  1  0.18819200  0.61879100  0.34070900  1
  Ni  Ni31  1  0.81180800  0.38120900  0.65929100  1
  Cu  Cu32  1  0.42126400  0.16811200  0.34760000  1
  Cu  Cu33  1  0.57873600  0.83188800  0.65240000  1
  Cu  Cu34  1  0.05769800  0.78960400  0.06840600  1
  Cu  Cu35  1  0.94230200  0.21039600  0.93159400  1
  C  C36  1  0.06273800  0.17003300  0.03876200  1
  C  C37  1  0.93726200  0.82996700  0.96123800  1
  C  C38  1  0.44324800  0.26518300  0.76175800  1
  C  C39  1  0.55675200  0.73481700  0.23824200  1
  C  C40  1  0.68909300  0.45511100  0.22671600  1
  C  C41  1  0.31090700  0.54488900  0.77328400  1
  C  C42  1  0.08066500  0.21810000  0.83984800  1
  C  C43  1  0.91933500  0.78190000  0.16015200  1
  C  C44  1  0.10269700  0.11473500  0.61116200  1
  C  C45  1  0.89730300  0.88526500  0.38883800  1
  C  C46  1  0.53318900  0.02478500  0.33999000  1
  C  C47  1  0.46681100  0.97521500  0.66001000  1
  C  C48  1  0.15168200  0.64529900  0.04532100  1
  C  C49  1  0.84831800  0.35470100  0.95467900  1
  C  C50  1  0.23230300  0.71834300  0.38083700  1
  C  C51  1  0.76769700  0.28165700  0.61916300  1
  C  C52  1  0.24053300  0.14857400  0.40690500  1
  C  C53  1  0.75946700  0.85142600  0.59309500  1
  C  C54  1  0.55214100  0.29311500  0.40345900  1
  C  C55  1  0.44785900  0.70688500  0.59654100  1
  C  C56  1  0.47792300  0.29656300  0.04093800  1
  C  C57  1  0.52207700  0.70343700  0.95906200  1
  C  C58  1  0.38686400  0.01257200  0.90462500  1
  C  C59  1  0.61313600  0.98742800  0.09537500  1
  C  C60  1  0.21188500  0.90807800  0.10965300  1
  C  C61  1  0.78811500  0.09192200  0.89034700  1
  C  C62  1  0.91388600  0.11423800  0.24960800  1
  C  C63  1  0.08611400  0.88576200  0.75039200  1
  C  C64  1  0.09909000  0.46839500  0.22434100  1
  C  C65  1  0.90091000  0.53160500  0.77565900  1
  C  C66  1  0.35022700  0.20080200  0.22677300  1
  C  C67  1  0.64977300  0.79919800  0.77322700  1
