# generated using pymatgen
data_CuNiC3
_symmetry_space_group_name_H-M   'P 1'
_cell_length_a   4.00190400
_cell_length_b   11.06630800
_cell_length_c   21.62965074
_cell_angle_alpha   78.52204869
_cell_angle_beta   90.00000000
_cell_angle_gamma   90.00000000
_symmetry_Int_Tables_number   1
_chemical_formula_structural   CuNiC3
_chemical_formula_sum   'Cu8 Ni8 C24'
_cell_volume   938.74060171
_cell_formula_units_Z   8
loop_
 _symmetry_equiv_pos_site_id
 _symmetry_equiv_pos_as_xyz
  1  'x, y, z'
loop_
 _atom_site_type_symbol
 _atom_site_label
 _atom_site_symmetry_multiplicity
 _atom_site_fract_x
 _atom_site_fract_y
 _atom_site_fract_z
 _atom_site_occupancy
  Ni  Ni0  1  0.25000000  0.30186700  0.76485800  1
  Ni  Ni1  1  0.75000000  0.69813300  0.23514200  1
  Ni  Ni2  1  0.25000000  0.90761600  0.86396900  1
  Ni  Ni3  1  0.75000000  0.09238400  0.13603100  1
  Ni  Ni4  1  0.25000000  0.69130300  0.73206400  1
  Ni  Ni5  1  0.75000000  0.30869700  0.26793600  1
  Ni  Ni6  1  0.25000000  0.79983300  0.53540600  1
  Ni  Ni7  1  0.75000000  0.20016700  0.46459400  1
  Cu  Cu8  1  0.25000000  0.55221300  0.41728800  1
  Cu  Cu9  1  0.75000000  0.44778700  0.58271200  1
  Cu  Cu10  1  0.25000000  0.97103000  0.35101400  1
  Cu  Cu11  1  0.75000000  0.02897000  0.64898600  1
  Cu  Cu12  1  0.25000000  0.81991800  0.04704500  1
  Cu  Cu13  1  0.75000000  0.18008200  0.95295500  1
  Cu  Cu14  1  0.25000000  0.47734400  0.08768300  1
  Cu  Cu15  1  0.75000000  0.52265600  0.91231700  1
  C  C16  1  0.25000000  0.08626700  0.03554700  1
  C  C17  1  0.75000000  0.91373300  0.96445300  1
  C  C18  1  0.25000000  0.20421900  0.36620200  1
  C  C19  1  0.75000000  0.79578100  0.63379800  1
  C  C20  1  0.25000000  0.74596800  0.32575400  1
  C  C21  1  0.75000000  0.25403200  0.67424600  1
  C  C22  1  0.25000000  0.63449400  0.96382100  1
  C  C23  1  0.75000000  0.36550600  0.03617900  1
  C  C24  1  0.25000000  0.50646800  0.22094500  1
  C  C25  1  0.75000000  0.49353200  0.77905500  1
  C  C26  1  0.25000000  0.25290900  0.17381000  1
  C  C27  1  0.75000000  0.74709100  0.82619000  1
  C  C28  1  0.25000000  0.87546500  0.16330300  1
  C  C29  1  0.75000000  0.12453500  0.83669700  1
  C  C30  1  0.25000000  0.35717500  0.51453300  1
  C  C31  1  0.75000000  0.64282500  0.48546700  1
  C  C32  1  0.25000000  0.05804800  0.55685300  1
  C  C33  1  0.75000000  0.94195200  0.44314700  1
  C  C34  1  0.25000000  0.96426900  0.72813100  1
  C  C35  1  0.75000000  0.03573100  0.27186900  1
  C  C36  1  0.25000000  0.54592700  0.63296700  1
  C  C37  1  0.75000000  0.45407300  0.36703300  1
  C  C38  1  0.25000000  0.34214800  0.90143000  1
  C  C39  1  0.75000000  0.65785200  0.09857000  1
