# generated using pymatgen
data_Cu4Ni2C13
_symmetry_space_group_name_H-M   'P 1'
_cell_length_a   4.67680000
_cell_length_b   15.18498500
_cell_length_c   17.29938666
_cell_angle_alpha   64.50671834
_cell_angle_beta   90.00000000
_cell_angle_gamma   90.00000000
_symmetry_Int_Tables_number   1
_chemical_formula_structural   Cu4Ni2C13
_chemical_formula_sum   'Cu16 Ni8 C52'
_cell_volume   1108.93580327
_cell_formula_units_Z   4
loop_
 _symmetry_equiv_pos_site_id
 _symmetry_equiv_pos_as_xyz
  1  'x, y, z'
loop_
 _atom_site_type_symbol
 _atom_site_label
 _atom_site_symmetry_multiplicity
 _atom_site_fract_x
 _atom_site_fract_y
 _atom_site_fract_z
 _atom_site_occupancy
  Ni  Ni0  1  0.42297200  0.27278400  0.57933100  1
  Ni  Ni1  1  0.92297200  0.22721600  0.42066900  1
  Ni  Ni2  1  0.57702800  0.72721600  0.42066900  1
  Ni  Ni3  1  0.07702800  0.77278400  0.57933100  1
  Ni  Ni4  1  0.40347500  0.64984800  0.08136700  1
  Ni  Ni5  1  0.90347500  0.85015200  0.91863300  1
  Ni  Ni6  1  0.59652500  0.35015200  0.91863300  1
  Ni  Ni7  1  0.09652500  0.14984800  0.08136700  1
  C  C8  1  0.00000000  0.50000000  0.50000000  1
  C  C9  1  0.50000000  0.00000000  0.50000000  1
  C  C10  1  0.50000000  0.00000000  0.00000000  1
  C  C11  1  0.00000000  0.50000000  0.00000000  1
  Cu  Cu12  1  0.39123400  0.40067500  0.39353000  1
  Cu  Cu13  1  0.89123400  0.09932500  0.60647000  1
  Cu  Cu14  1  0.60876600  0.59932500  0.60647000  1
  Cu  Cu15  1  0.10876600  0.90067500  0.39353000  1
  Cu  Cu16  1  0.94145900  0.33985100  0.67829900  1
  Cu  Cu17  1  0.44145900  0.16014900  0.32170100  1
  Cu  Cu18  1  0.05854100  0.66014900  0.32170100  1
  Cu  Cu19  1  0.55854100  0.83985100  0.67829900  1
  Cu  Cu20  1  0.87065400  0.79747700  0.10530000  1
  Cu  Cu21  1  0.37065400  0.70252300  0.89470000  1
  Cu  Cu22  1  0.12934600  0.20252300  0.89470000  1
  Cu  Cu23  1  0.62934600  0.29747700  0.10530000  1
  Cu  Cu24  1  0.91903400  0.48591400  0.17924600  1
  Cu  Cu25  1  0.41903400  0.01408600  0.82075400  1
  Cu  Cu26  1  0.08096600  0.51408600  0.82075400  1
  Cu  Cu27  1  0.58096600  0.98591400  0.17924600  1
  C  C28  1  0.25173100  0.39973300  0.48870600  1
  C  C29  1  0.75173100  0.10026700  0.51129400  1
  C  C30  1  0.74826900  0.60026700  0.51129400  1
  C  C31  1  0.24826900  0.89973300  0.48870600  1
  C  C32  1  0.12605900  0.35015300  0.35729300  1
  C  C33  1  0.62605900  0.14984700  0.64270700  1
  C  C34  1  0.87394100  0.64984700  0.64270700  1
  C  C35  1  0.37394100  0.85015300  0.35729300  1
  C  C36  1  0.60526700  0.30020600  0.45855200  1
  C  C37  1  0.10526700  0.19979400  0.54144800  1
  C  C38  1  0.39473300  0.69979400  0.54144800  1
  C  C39  1  0.89473300  0.80020600  0.45855200  1
  C  C40  1  0.19540100  0.25625700  0.67748200  1
  C  C41  1  0.69540100  0.24374300  0.32251800  1
  C  C42  1  0.80459900  0.74374300  0.32251800  1
  C  C43  1  0.30459900  0.75625700  0.67748200  1
  C  C44  1  0.71497400  0.35598200  0.59355800  1
  C  C45  1  0.21497400  0.14401800  0.40644200  1
  C  C46  1  0.28502600  0.64401800  0.40644200  1
  C  C47  1  0.78502600  0.85598200  0.59355800  1
  C  C48  1  0.09832500  0.45295700  0.62442900  1
  C  C49  1  0.59832500  0.04704300  0.37557100  1
  C  C50  1  0.90167500  0.54704300  0.37557100  1
  C  C51  1  0.40167500  0.95295700  0.62442900  1
  C  C52  1  0.08415900  0.75745400  0.04258500  1
  C  C53  1  0.58415900  0.74254600  0.95741500  1
  C  C54  1  0.91584100  0.24254600  0.95741500  1
  C  C55  1  0.41584100  0.25745400  0.04258500  1
  C  C56  1  0.60427700  0.71207100  0.14369000  1
  C  C57  1  0.10427700  0.78792900  0.85631000  1
  C  C58  1  0.39572300  0.28792900  0.85631000  1
  C  C59  1  0.89572300  0.21207100  0.14369000  1
  C  C60  1  0.73471200  0.88842500  0.00875400  1
  C  C61  1  0.23471200  0.61157500  0.99124600  1
  C  C62  1  0.26528800  0.11157500  0.99124600  1
  C  C63  1  0.76528800  0.38842500  0.00875400  1
  C  C64  1  0.70461400  0.55668000  0.09251300  1
  C  C65  1  0.20461400  0.94332000  0.90748700  1
  C  C66  1  0.29538600  0.44332000  0.90748700  1
  C  C67  1  0.79538600  0.05668000  0.09251300  1
  C  C68  1  0.18444600  0.56609500  0.18100200  1
  C  C69  1  0.68444600  0.93390500  0.81899800  1
  C  C70  1  0.81555400  0.43390500  0.81899800  1
  C  C71  1  0.31555400  0.06609500  0.18100200  1
  C  C72  1  0.07730200  0.42452900  0.12634900  1
  C  C73  1  0.57730200  0.07547100  0.87365100  1
  C  C74  1  0.92269800  0.57547100  0.87365100  1
  C  C75  1  0.42269800  0.92452900  0.12634900  1
