# generated using pymatgen
data_Cu7(NiC7)3
_symmetry_space_group_name_H-M   'P 1'
_cell_length_a   3.75538550
_cell_length_b   6.49170090
_cell_length_c   16.71741589
_cell_angle_alpha   92.30123648
_cell_angle_beta   96.45976643
_cell_angle_gamma   90.01767190
_symmetry_Int_Tables_number   1
_chemical_formula_structural   Cu7(NiC7)3
_chemical_formula_sum   'Cu7 Ni3 C21'
_cell_volume   404.63232545
_cell_formula_units_Z   1
loop_
 _symmetry_equiv_pos_site_id
 _symmetry_equiv_pos_as_xyz
  1  'x, y, z'
loop_
 _atom_site_type_symbol
 _atom_site_label
 _atom_site_symmetry_multiplicity
 _atom_site_fract_x
 _atom_site_fract_y
 _atom_site_fract_z
 _atom_site_occupancy
  C  C0  1  0.74689446  0.25234908  0.49077858  1
  Ni  Ni1  1  0.40821010  0.80636171  0.81521269  1
  Ni  Ni2  1  0.18287169  0.38183236  0.36282086  1
  Ni  Ni3  1  0.49903810  0.49805041  0.99887601  1
  Cu  Cu4  1  0.90721538  0.31065867  0.81359397  1
  Cu  Cu5  1  0.81223152  0.62471904  0.62485991  1
  Cu  Cu6  1  0.69218068  0.86080144  0.38250688  1
  Cu  Cu7  1  0.31528226  0.11780809  0.62932776  1
  Cu  Cu8  1  0.09287775  0.68934986  0.18457066  1
  Cu  Cu9  1  0.59402609  0.18400312  0.18639306  1
  Cu  Cu10  1  0.99915322  0.99737486  0.99694630  1
  C  C11  1  0.92967401  0.97198200  0.85775081  1
  C  C12  1  0.47520671  0.81704227  0.94896273  1
  C  C13  1  0.77980536  0.97130093  0.55815442  1
  C  C14  1  0.33633001  0.79451426  0.67229318  1
  C  C15  1  0.43080710  0.49020744  0.86068302  1
  C  C16  1  0.97765433  0.33661149  0.95348006  1
  C  C17  1  0.88277150  0.64649952  0.76525567  1
  C  C18  1  0.17095873  0.70541599  0.34056428  1
  C  C19  1  0.83743597  0.29433048  0.67426747  1
  C  C20  1  0.62100412  0.85247688  0.24070636  1
  C  C21  1  0.28681647  0.43931872  0.57416307  1
  C  C22  1  0.71724180  0.52182735  0.43397631  1
  C  C23  1  0.38495895  0.12859622  0.76887612  1
  C  C24  1  0.66800610  0.20699276  0.33353953  1
  C  C25  1  0.56786571  0.51438325  0.13452742  1
  C  C26  1  0.11959410  0.36244898  0.23708792  1
  C  C27  1  0.22543599  0.14504879  0.44841677  1
  C  C28  1  0.02244775  0.66448689  0.04322024  1
  C  C29  1  0.07049406  0.01507586  0.13955818  1
  C  C30  1  0.52219000  0.17468428  0.04282073  1
