# generated using pymatgen
data_Cu5NiC4
_symmetry_space_group_name_H-M   'P 1'
_cell_length_a   5.19016200
_cell_length_b   5.22106593
_cell_length_c   5.61415320
_cell_angle_alpha   117.64074051
_cell_angle_beta   91.21712927
_cell_angle_gamma   118.26535920
_symmetry_Int_Tables_number   1
_chemical_formula_structural   Cu5NiC4
_chemical_formula_sum   'Cu5 Ni1 C4'
_cell_volume   112.90026131
_cell_formula_units_Z   1
loop_
 _symmetry_equiv_pos_site_id
 _symmetry_equiv_pos_as_xyz
  1  'x, y, z'
loop_
 _atom_site_type_symbol
 _atom_site_label
 _atom_site_symmetry_multiplicity
 _atom_site_fract_x
 _atom_site_fract_y
 _atom_site_fract_z
 _atom_site_occupancy
  C  C0  1  0.65385300  0.39475800  0.88927400  1
  C  C1  1  0.10928000  0.84040500  0.41575300  1
  C  C2  1  0.85464200  0.13328000  0.55298800  1
  C  C3  1  0.32905200  0.66470400  0.02651300  1
  Ni  Ni4  1  0.96613100  0.77145700  0.75951200  1
  Cu  Cu5  1  0.44173400  0.91376600  0.28386400  1
  Cu  Cu6  1  0.73237600  0.53563200  0.26536000  1
  Cu  Cu7  1  0.25104300  0.43127400  0.76337100  1
  Cu  Cu8  1  0.59421000  0.05876500  0.78268500  1
  Cu  Cu9  1  0.06768000  0.25596400  0.26068000  1
