# generated using pymatgen
data_CuNi8C19
_symmetry_space_group_name_H-M   'P 1'
_cell_length_a   12.02050387
_cell_length_b   12.02050387
_cell_length_c   12.02050429
_cell_angle_alpha   33.56646508
_cell_angle_beta   33.56646508
_cell_angle_gamma   33.56646451
_symmetry_Int_Tables_number   1
_chemical_formula_structural   CuNi8C19
_chemical_formula_sum   'Cu1 Ni8 C19'
_cell_volume   472.95180257
_cell_formula_units_Z   1
loop_
 _symmetry_equiv_pos_site_id
 _symmetry_equiv_pos_as_xyz
  1  'x, y, z'
loop_
 _atom_site_type_symbol
 _atom_site_label
 _atom_site_symmetry_multiplicity
 _atom_site_fract_x
 _atom_site_fract_y
 _atom_site_fract_z
 _atom_site_occupancy
  Ni  Ni0  1  0.24988200  0.24988200  0.24988200  1
  Ni  Ni1  1  0.74989800  0.74989800  0.74989800  1
  Ni  Ni2  1  0.00041900  0.00041900  0.49912300  1
  Ni  Ni3  1  0.50052600  0.50052600  0.99905000  1
  Ni  Ni4  1  0.00041900  0.49912300  0.00041900  1
  Ni  Ni5  1  0.50052600  0.99905000  0.50052600  1
  Ni  Ni6  1  0.99905000  0.50052600  0.50052600  1
  Ni  Ni7  1  0.49912300  0.00041900  0.00041900  1
  C  C8  1  0.43749800  0.43749800  0.43749800  1
  C  C9  1  0.56248400  0.56248400  0.56248400  1
  C  C10  1  0.06250300  0.06250300  0.06250300  1
  Cu  Cu11  1  0.93743400  0.93743400  0.93743400  1
  C  C12  1  0.87202500  0.87202500  0.87202500  1
  C  C13  1  0.37102500  0.37102500  0.37102500  1
  C  C14  1  0.13415700  0.13415700  0.60965300  1
  C  C15  1  0.63679700  0.63679700  0.10545500  1
  C  C16  1  0.13415700  0.60965300  0.13415700  1
  C  C17  1  0.63679700  0.10545500  0.63679700  1
  C  C18  1  0.60965300  0.13415700  0.13415700  1
  C  C19  1  0.10545500  0.63679700  0.63679700  1
  C  C20  1  0.62891000  0.62891000  0.62891000  1
  C  C21  1  0.12889400  0.12889400  0.12889400  1
  C  C22  1  0.36333900  0.36333900  0.89470400  1
  C  C23  1  0.86332700  0.86332700  0.39433100  1
  C  C24  1  0.36333900  0.89470400  0.36333900  1
  C  C25  1  0.86332700  0.39433100  0.86332700  1
  C  C26  1  0.89470400  0.36333900  0.36333900  1
  C  C27  1  0.39433100  0.86332700  0.86332700  1
