# generated using pymatgen
data_CuNi2C15
_symmetry_space_group_name_H-M   'P 1'
_cell_length_a   5.97154600
_cell_length_b   10.94240800
_cell_length_c   13.89974586
_cell_angle_alpha   71.55406907
_cell_angle_beta   90.00000000
_cell_angle_gamma   90.00000000
_symmetry_Int_Tables_number   1
_chemical_formula_structural   CuNi2C15
_chemical_formula_sum   'Cu4 Ni8 C60'
_cell_volume   861.58879821
_cell_formula_units_Z   4
loop_
 _symmetry_equiv_pos_site_id
 _symmetry_equiv_pos_as_xyz
  1  'x, y, z'
loop_
 _atom_site_type_symbol
 _atom_site_label
 _atom_site_symmetry_multiplicity
 _atom_site_fract_x
 _atom_site_fract_y
 _atom_site_fract_z
 _atom_site_occupancy
  Ni  Ni0  1  0.00000000  0.82875000  0.45642900  1
  Ni  Ni1  1  0.00000000  0.16204500  0.12224300  1
  Ni  Ni2  1  0.50000000  0.27902700  0.93379000  1
  Ni  Ni3  1  0.50000000  0.61691700  0.60136200  1
  Ni  Ni4  1  0.50000000  0.94859200  0.26659300  1
  Ni  Ni5  1  0.50000000  0.50661100  0.21071800  1
  Ni  Ni6  1  0.50000000  0.83949100  0.87787200  1
  Ni  Ni7  1  0.50000000  0.17214000  0.54517700  1
  Cu  Cu8  1  0.00000000  0.70700200  0.07058300  1
  Cu  Cu9  1  0.00000000  0.03889000  0.73899900  1
  Cu  Cu10  1  0.00000000  0.37247800  0.40463100  1
  Cu  Cu11  1  0.00000000  0.49659200  0.78113600  1
  C  C12  1  0.00000000  0.09846900  0.49469400  1
  C  C13  1  0.00000000  0.43200700  0.16125400  1
  C  C14  1  0.00000000  0.76650100  0.82688300  1
  C  C15  1  0.00000000  0.86147100  0.23537100  1
  C  C16  1  0.00000000  0.19215700  0.90173600  1
  C  C17  1  0.00000000  0.52706600  0.56838600  1
  C  C18  1  0.50000000  0.23544100  0.16885500  1
  C  C19  1  0.50000000  0.56822000  0.83610900  1
  C  C20  1  0.50000000  0.90155900  0.50249500  1
  C  C21  1  0.50000000  0.47079100  0.43408800  1
  C  C22  1  0.50000000  0.80495800  0.09948100  1
  C  C23  1  0.50000000  0.13722400  0.76614800  1
  C  C24  1  0.00000000  0.40828800  0.53314900  1
  C  C25  1  0.00000000  0.74336300  0.19877100  1
  C  C26  1  0.00000000  0.07143700  0.86779600  1
  C  C27  1  0.00000000  0.01251600  0.42590800  1
  C  C28  1  0.00000000  0.34584900  0.09303100  1
  C  C29  1  0.00000000  0.68291400  0.75765100  1
  C  C30  1  0.50000000  0.92404300  0.13618900  1
  C  C31  1  0.50000000  0.25636900  0.80253000  1
  C  C32  1  0.50000000  0.58899900  0.47191600  1
  C  C33  1  0.50000000  0.32515000  0.23539600  1
  C  C34  1  0.50000000  0.65767100  0.90291700  1
  C  C35  1  0.50000000  0.99085400  0.56909100  1
  C  C36  1  0.20032800  0.19762500  0.46702800  1
  C  C37  1  0.20032300  0.53099200  0.13407100  1
  C  C38  1  0.20064900  0.86588800  0.80108100  1
  C  C39  1  0.79731900  0.85921400  0.30745000  1
  C  C40  1  0.79705700  0.19028600  0.97391500  1
  C  C41  1  0.79952100  0.52446800  0.64238200  1
  C  C42  1  0.70275200  0.14056400  0.19606000  1
  C  C43  1  0.70586100  0.47591900  0.86039200  1
  C  C44  1  0.70230600  0.80616900  0.52960700  1
  C  C45  1  0.29492800  0.47269900  0.36365400  1
  C  C46  1  0.29514400  0.80619500  0.02914600  1
  C  C47  1  0.29533800  0.13831700  0.69548000  1
  C  C48  1  0.29724800  0.14056400  0.19606000  1
  C  C49  1  0.29413900  0.47591900  0.86039200  1
  C  C50  1  0.29769400  0.80616900  0.52960700  1
  C  C51  1  0.70507200  0.47269900  0.36365400  1
  C  C52  1  0.70485600  0.80619500  0.02914600  1
  C  C53  1  0.70466200  0.13831700  0.69548000  1
  C  C54  1  0.79967200  0.19762500  0.46702800  1
  C  C55  1  0.79967700  0.53099200  0.13407100  1
  C  C56  1  0.79935100  0.86588800  0.80108100  1
  C  C57  1  0.20268100  0.85921400  0.30745000  1
  C  C58  1  0.20294300  0.19028600  0.97391500  1
  C  C59  1  0.20047900  0.52446800  0.64238200  1
  C  C60  1  0.00000000  0.34966900  0.27248600  1
  C  C61  1  0.00000000  0.68397700  0.93818600  1
  C  C62  1  0.00000000  0.01574200  0.60546000  1
  C  C63  1  0.00000000  0.98247000  0.14081900  1
  C  C64  1  0.00000000  0.31276700  0.80839400  1
  C  C65  1  0.00000000  0.64818100  0.47454300  1
  C  C66  1  0.50000000  0.98785900  0.39097300  1
  C  C67  1  0.50000000  0.32127500  0.05711200  1
  C  C68  1  0.50000000  0.65696900  0.72426400  1
  C  C69  1  0.50000000  0.35020200  0.52987500  1
  C  C70  1  0.50000000  0.68472900  0.19553800  1
  C  C71  1  0.50000000  0.01763800  0.86244300  1
