# generated using pymatgen
data_Cu30Ni3C7
_symmetry_space_group_name_H-M   'P 1'
_cell_length_a   11.84016000
_cell_length_b   11.84016000
_cell_length_c   11.84016000
_cell_angle_alpha   90.00000000
_cell_angle_beta   90.00000000
_cell_angle_gamma   90.00000000
_symmetry_Int_Tables_number   1
_chemical_formula_structural   Cu30Ni3C7
_chemical_formula_sum   'Cu120 Ni12 C28'
_cell_volume   1659.86479400
_cell_formula_units_Z   4
loop_
 _symmetry_equiv_pos_site_id
 _symmetry_equiv_pos_as_xyz
  1  'x, y, z'
loop_
 _atom_site_type_symbol
 _atom_site_label
 _atom_site_symmetry_multiplicity
 _atom_site_fract_x
 _atom_site_fract_y
 _atom_site_fract_z
 _atom_site_occupancy
  C  C0  1  0.50025700  0.00025700  0.49974300  1
  C  C1  1  0.00025700  0.49974300  0.50025700  1
  C  C2  1  0.49974300  0.50025700  0.00025700  1
  C  C3  1  0.99974300  0.99974300  0.99974300  1
  Ni  Ni4  1  0.25951300  0.75951300  0.74048700  1
  Ni  Ni5  1  0.75951300  0.74048700  0.25951300  1
  Ni  Ni6  1  0.74048700  0.25951300  0.75951300  1
  Ni  Ni7  1  0.24048700  0.24048700  0.24048700  1
  Ni  Ni8  1  0.73549600  0.23549600  0.26450400  1
  Ni  Ni9  1  0.23549600  0.26450400  0.73549600  1
  Ni  Ni10  1  0.26450400  0.73549600  0.23549600  1
  Ni  Ni11  1  0.76450400  0.76450400  0.76450400  1
  Ni  Ni12  1  0.00074500  0.50074500  0.99925500  1
  Ni  Ni13  1  0.50074500  0.99925500  0.00074500  1
  Ni  Ni14  1  0.99925500  0.00074500  0.50074500  1
  Ni  Ni15  1  0.49925500  0.49925500  0.49925500  1
  Cu  Cu16  1  0.39028000  0.30960500  0.87140200  1
  Cu  Cu17  1  0.12859800  0.89028000  0.19039500  1
  Cu  Cu18  1  0.80960500  0.62859800  0.60972000  1
  Cu  Cu19  1  0.89028000  0.19039500  0.12859800  1
  Cu  Cu20  1  0.62859800  0.60972000  0.80960500  1
  Cu  Cu21  1  0.30960500  0.87140200  0.39028000  1
  Cu  Cu22  1  0.60972000  0.80960500  0.62859800  1
  Cu  Cu23  1  0.87140200  0.39028000  0.30960500  1
  Cu  Cu24  1  0.19039500  0.12859800  0.89028000  1
  Cu  Cu25  1  0.10972000  0.69039500  0.37140200  1
  Cu  Cu26  1  0.37140200  0.10972000  0.69039500  1
  Cu  Cu27  1  0.69039500  0.37140200  0.10972000  1
  Cu  Cu28  1  0.10576600  0.80056000  0.88739800  1
  Cu  Cu29  1  0.11260200  0.60576600  0.69944000  1
  Cu  Cu30  1  0.30056000  0.61260200  0.89423400  1
  Cu  Cu31  1  0.60576600  0.69944000  0.11260200  1
  Cu  Cu32  1  0.61260200  0.89423400  0.30056000  1
  Cu  Cu33  1  0.80056000  0.88739800  0.10576600  1
  Cu  Cu34  1  0.89423400  0.30056000  0.61260200  1
  Cu  Cu35  1  0.88739800  0.10576600  0.80056000  1
  Cu  Cu36  1  0.69944000  0.11260200  0.60576600  1
  Cu  Cu37  1  0.39423400  0.19944000  0.38739800  1
  Cu  Cu38  1  0.38739800  0.39423400  0.19944000  1
  Cu  Cu39  1  0.19944000  0.38739800  0.39423400  1
  Cu  Cu40  1  0.52849800  0.29313300  0.86721200  1
  Cu  Cu41  1  0.13278800  0.02849800  0.20686700  1
  Cu  Cu42  1  0.79313300  0.63278800  0.47150200  1
  Cu  Cu43  1  0.02849800  0.20686700  0.13278800  1
  Cu  Cu44  1  0.63278800  0.47150200  0.79313300  1
  Cu  Cu45  1  0.29313300  0.86721200  0.52849800  1
  Cu  Cu46  1  0.47150200  0.79313300  0.63278800  1
  Cu  Cu47  1  0.86721200  0.52849800  0.29313300  1
  Cu  Cu48  1  0.20686700  0.13278800  0.02849800  1
  Cu  Cu49  1  0.97150200  0.70686700  0.36721200  1
  Cu  Cu50  1  0.36721200  0.97150200  0.70686700  1
  Cu  Cu51  1  0.70686700  0.36721200  0.97150200  1
  Cu  Cu52  1  0.96783200  0.78587400  0.88248500  1
  Cu  Cu53  1  0.11751500  0.46783200  0.71412600  1
  Cu  Cu54  1  0.28587400  0.61751500  0.03216800  1
  Cu  Cu55  1  0.46783200  0.71412600  0.11751500  1
  Cu  Cu56  1  0.61751500  0.03216800  0.28587400  1
  Cu  Cu57  1  0.78587400  0.88248500  0.96783200  1
  Cu  Cu58  1  0.03216800  0.28587400  0.61751500  1
  Cu  Cu59  1  0.88248500  0.96783200  0.78587400  1
  Cu  Cu60  1  0.71412600  0.11751500  0.46783200  1
  Cu  Cu61  1  0.53216800  0.21412600  0.38248500  1
  Cu  Cu62  1  0.38248500  0.53216800  0.21412600  1
  Cu  Cu63  1  0.21412600  0.38248500  0.53216800  1
  Cu  Cu64  1  0.45713200  0.24559600  0.97407400  1
  Cu  Cu65  1  0.02592600  0.95713200  0.25440400  1
  Cu  Cu66  1  0.74559600  0.52592600  0.54286800  1
  Cu  Cu67  1  0.95713200  0.25440400  0.02592600  1
  Cu  Cu68  1  0.52592600  0.54286800  0.74559600  1
  Cu  Cu69  1  0.24559600  0.97407400  0.45713200  1
  Cu  Cu70  1  0.54286800  0.74559600  0.52592600  1
  Cu  Cu71  1  0.97407400  0.45713200  0.24559600  1
  Cu  Cu72  1  0.25440400  0.02592600  0.95713200  1
  Cu  Cu73  1  0.04286800  0.75440400  0.47407400  1
  Cu  Cu74  1  0.47407400  0.04286800  0.75440400  1
  Cu  Cu75  1  0.75440400  0.47407400  0.04286800  1
  Cu  Cu76  1  0.03688100  0.74038700  0.99207300  1
  Cu  Cu77  1  0.00792700  0.53688100  0.75961300  1
  Cu  Cu78  1  0.24038700  0.50792700  0.96311900  1
  Cu  Cu79  1  0.53688100  0.75961300  0.00792700  1
  Cu  Cu80  1  0.50792700  0.96311900  0.24038700  1
  Cu  Cu81  1  0.74038700  0.99207300  0.03688100  1
  Cu  Cu82  1  0.96311900  0.24038700  0.50792700  1
  Cu  Cu83  1  0.99207300  0.03688100  0.74038700  1
  Cu  Cu84  1  0.75961300  0.00792700  0.53688100  1
  Cu  Cu85  1  0.46311900  0.25961300  0.49207300  1
  Cu  Cu86  1  0.49207300  0.46311900  0.25961300  1
  Cu  Cu87  1  0.25961300  0.49207300  0.46311900  1
  Cu  Cu88  1  0.31960000  0.81960000  0.68040000  1
  Cu  Cu89  1  0.81960000  0.68040000  0.31960000  1
  Cu  Cu90  1  0.68040000  0.31960000  0.81960000  1
  Cu  Cu91  1  0.18040000  0.18040000  0.18040000  1
  Cu  Cu92  1  0.67553800  0.17553800  0.32446200  1
  Cu  Cu93  1  0.17553800  0.32446200  0.67553800  1
  Cu  Cu94  1  0.32446200  0.67553800  0.17553800  1
  Cu  Cu95  1  0.82446200  0.82446200  0.82446200  1
  Cu  Cu96  1  0.31140800  0.67155000  0.75961800  1
  Cu  Cu97  1  0.24038200  0.81140800  0.82845000  1
  Cu  Cu98  1  0.17155000  0.74038200  0.68859200  1
  Cu  Cu99  1  0.81140800  0.82845000  0.24038200  1
  Cu  Cu100  1  0.74038200  0.68859200  0.17155000  1
  Cu  Cu101  1  0.67155000  0.75961800  0.31140800  1
  Cu  Cu102  1  0.68859200  0.17155000  0.74038200  1
  Cu  Cu103  1  0.75961800  0.31140800  0.67155000  1
  Cu  Cu104  1  0.82845000  0.24038200  0.81140800  1
  Cu  Cu105  1  0.18859200  0.32845000  0.25961800  1
  Cu  Cu106  1  0.25961800  0.18859200  0.32845000  1
  Cu  Cu107  1  0.32845000  0.25961800  0.18859200  1
  Cu  Cu108  1  0.18520800  0.17506800  0.75130200  1
  Cu  Cu109  1  0.24869800  0.68520800  0.32493200  1
  Cu  Cu110  1  0.67506800  0.74869800  0.81479200  1
  Cu  Cu111  1  0.68520800  0.32493200  0.24869800  1
  Cu  Cu112  1  0.74869800  0.81479200  0.67506800  1
  Cu  Cu113  1  0.17506800  0.75130200  0.18520800  1
  Cu  Cu114  1  0.81479200  0.67506800  0.74869800  1
  Cu  Cu115  1  0.75130200  0.18520800  0.17506800  1
  Cu  Cu116  1  0.32493200  0.24869800  0.68520800  1
  Cu  Cu117  1  0.31479200  0.82493200  0.25130200  1
  Cu  Cu118  1  0.25130200  0.31479200  0.82493200  1
  Cu  Cu119  1  0.82493200  0.25130200  0.31479200  1
  Cu  Cu120  1  0.94033700  0.44033700  0.05966300  1
  Cu  Cu121  1  0.44033700  0.05966300  0.94033700  1
  Cu  Cu122  1  0.05966300  0.94033700  0.44033700  1
  Cu  Cu123  1  0.55966300  0.55966300  0.55966300  1
  Cu  Cu124  1  0.94971300  0.52124600  0.91053500  1
  Cu  Cu125  1  0.08946500  0.44971300  0.97875400  1
  Cu  Cu126  1  0.02124600  0.58946500  0.05028700  1
  Cu  Cu127  1  0.44971300  0.97875400  0.08946500  1
  Cu  Cu128  1  0.58946500  0.05028700  0.02124600  1
  Cu  Cu129  1  0.52124600  0.91053500  0.94971300  1
  Cu  Cu130  1  0.05028700  0.02124600  0.58946500  1
  Cu  Cu131  1  0.91053500  0.94971300  0.52124600  1
  Cu  Cu132  1  0.97875400  0.08946500  0.44971300  1
  Cu  Cu133  1  0.55028700  0.47875400  0.41053500  1
  Cu  Cu134  1  0.41053500  0.55028700  0.47875400  1
  Cu  Cu135  1  0.47875400  0.41053500  0.55028700  1
  C  C136  1  0.46247100  0.31359700  0.92062800  1
  C  C137  1  0.07937200  0.96247100  0.18640300  1
  C  C138  1  0.81359700  0.57937200  0.53752900  1
  C  C139  1  0.96247100  0.18640300  0.07937200  1
  C  C140  1  0.57937200  0.53752900  0.81359700  1
  C  C141  1  0.31359700  0.92062800  0.46247100  1
  C  C142  1  0.53752900  0.81359700  0.57937200  1
  C  C143  1  0.92062800  0.46247100  0.31359700  1
  C  C144  1  0.18640300  0.07937200  0.96247100  1
  C  C145  1  0.03752900  0.68640300  0.42062800  1
  C  C146  1  0.42062800  0.03752900  0.68640300  1
  C  C147  1  0.68640300  0.42062800  0.03752900  1
  C  C148  1  0.03334500  0.80712700  0.93590500  1
  C  C149  1  0.06409500  0.53334500  0.69287300  1
  C  C150  1  0.30712700  0.56409500  0.96665500  1
  C  C151  1  0.53334500  0.69287300  0.06409500  1
  C  C152  1  0.56409500  0.96665500  0.30712700  1
  C  C153  1  0.80712700  0.93590500  0.03334500  1
  C  C154  1  0.96665500  0.30712700  0.56409500  1
  C  C155  1  0.93590500  0.03334500  0.80712700  1
  C  C156  1  0.69287300  0.06409500  0.53334500  1
  C  C157  1  0.46665500  0.19287300  0.43590500  1
  C  C158  1  0.43590500  0.46665500  0.19287300  1
  C  C159  1  0.19287300  0.43590500  0.46665500  1
