# generated using pymatgen
data_Cu(NiC2)4
_symmetry_space_group_name_H-M   'P 1'
_cell_length_a   8.38498680
_cell_length_b   8.38498680
_cell_length_c   10.07108000
_cell_angle_alpha   90.00000000
_cell_angle_beta   90.00000000
_cell_angle_gamma   95.85701812
_symmetry_Int_Tables_number   1
_chemical_formula_structural   Cu(NiC2)4
_chemical_formula_sum   'Cu4 Ni16 C32'
_cell_volume   704.38111638
_cell_formula_units_Z   4
loop_
 _symmetry_equiv_pos_site_id
 _symmetry_equiv_pos_as_xyz
  1  'x, y, z'
loop_
 _atom_site_type_symbol
 _atom_site_label
 _atom_site_symmetry_multiplicity
 _atom_site_fract_x
 _atom_site_fract_y
 _atom_site_fract_z
 _atom_site_occupancy
  C  C0  1  0.52648000  0.52648000  0.51936200  1
  C  C1  1  0.97352000  0.97352000  0.01936200  1
  Ni  Ni2  1  0.04562800  0.78304900  0.64870800  1
  Ni  Ni3  1  0.21191100  0.95003000  0.35175900  1
  Ni  Ni4  1  0.71695100  0.45437200  0.14870800  1
  Ni  Ni5  1  0.54997000  0.28808900  0.85175900  1
  Ni  Ni6  1  0.95003000  0.21191100  0.35175900  1
  Ni  Ni7  1  0.78304900  0.04562800  0.64870800  1
  Ni  Ni8  1  0.28808900  0.54997000  0.85175900  1
  Ni  Ni9  1  0.45437200  0.71695100  0.14870800  1
  Ni  Ni10  1  0.18964100  0.18964100  0.63895900  1
  Ni  Ni11  1  0.81378200  0.81378200  0.36343600  1
  Ni  Ni12  1  0.31035900  0.31035900  0.13895900  1
  Ni  Ni13  1  0.68621800  0.68621800  0.86343600  1
  Ni  Ni14  1  0.40023700  0.92516200  0.88757100  1
  Ni  Ni15  1  0.57483800  0.09976300  0.38757100  1
  Ni  Ni16  1  0.92516200  0.40023700  0.88757100  1
  Ni  Ni17  1  0.09976300  0.57483800  0.38757100  1
  Cu  Cu18  1  0.08305200  0.59381800  0.11295600  1
  Cu  Cu19  1  0.90618200  0.41694800  0.61295600  1
  Cu  Cu20  1  0.59381800  0.08305200  0.11295600  1
  Cu  Cu21  1  0.41694800  0.90618200  0.61295600  1
  C  C22  1  0.50656200  0.50656200  0.99627000  1
  C  C23  1  0.99343800  0.99343800  0.49627000  1
  C  C24  1  0.60819600  0.86618800  0.00740700  1
  C  C25  1  0.14461500  0.40262000  0.99636200  1
  C  C26  1  0.63381200  0.89180400  0.50740700  1
  C  C27  1  0.09738000  0.35538500  0.49636200  1
  C  C28  1  0.40262000  0.14461500  0.99636200  1
  C  C29  1  0.86618800  0.60819600  0.00740700  1
  C  C30  1  0.35538500  0.09738000  0.49636200  1
  C  C31  1  0.89180400  0.63381200  0.50740700  1
  C  C32  1  0.85903200  0.85903200  0.77388900  1
  C  C33  1  0.13847400  0.13847400  0.22719900  1
  C  C34  1  0.64096800  0.64096800  0.27388900  1
  C  C35  1  0.36152600  0.36152600  0.72719900  1
  C  C36  1  0.25148800  0.74571000  0.00054400  1
  C  C37  1  0.75429000  0.24851200  0.50054400  1
  C  C38  1  0.74571000  0.25148800  0.00054400  1
  C  C39  1  0.24851200  0.75429000  0.50054400  1
  C  C40  1  0.06658400  0.55914600  0.74476400  1
  C  C41  1  0.43341600  0.94085400  0.24476400  1
  C  C42  1  0.94085400  0.43341600  0.24476400  1
  C  C43  1  0.55914600  0.06658400  0.74476400  1
  C  C44  1  0.72182900  0.46353600  0.75288700  1
  C  C45  1  0.53891900  0.28035400  0.23748500  1
  C  C46  1  0.03646400  0.77817100  0.25288700  1
  C  C47  1  0.21964600  0.96108100  0.73748500  1
  C  C48  1  0.28035400  0.53891900  0.23748500  1
  C  C49  1  0.46353600  0.72182900  0.75288700  1
  C  C50  1  0.96108100  0.21964600  0.73748500  1
  C  C51  1  0.77817100  0.03646400  0.25288700  1
