# generated using pymatgen
data_Cu(NiC2)12
_symmetry_space_group_name_H-M   'P 1'
_cell_length_a   11.28548997
_cell_length_b   11.28548997
_cell_length_c   5.12774027
_cell_angle_alpha   89.82124499
_cell_angle_beta   89.82124499
_cell_angle_gamma   77.91499506
_symmetry_Int_Tables_number   1
_chemical_formula_structural   Cu(NiC2)12
_chemical_formula_sum   'Cu1 Ni12 C24'
_cell_volume   638.60203857
_cell_formula_units_Z   1
loop_
 _symmetry_equiv_pos_site_id
 _symmetry_equiv_pos_as_xyz
  1  'x, y, z'
loop_
 _atom_site_type_symbol
 _atom_site_label
 _atom_site_symmetry_multiplicity
 _atom_site_fract_x
 _atom_site_fract_y
 _atom_site_fract_z
 _atom_site_occupancy
  Ni  Ni0  1  0.65516200  0.24713600  0.94750400  1
  Ni  Ni1  1  0.24713600  0.65516200  0.94750400  1
  Ni  Ni2  1  0.34523600  0.75164100  0.44678700  1
  Ni  Ni3  1  0.75164100  0.34523600  0.44678700  1
  Ni  Ni4  1  0.58544900  0.99288100  0.02712200  1
  Ni  Ni5  1  0.99288100  0.58544900  0.02712200  1
  Ni  Ni6  1  0.41931400  0.00264000  0.52876100  1
  Ni  Ni7  1  0.00264000  0.41931400  0.52876100  1
  Ni  Ni8  1  0.37727200  0.37727200  0.91318800  1
  Ni  Ni9  1  0.62318200  0.62318200  0.42416500  1
  Ni  Ni10  1  0.26882200  0.26882200  0.43314300  1
  Ni  Ni11  1  0.72669200  0.72669200  0.92346300  1
  Cu  Cu12  1  0.20809400  0.20809400  0.00026200  1
  C  C13  1  0.74484500  0.29425800  0.15188000  1
  C  C14  1  0.29425800  0.74484500  0.15188000  1
  C  C15  1  0.25404100  0.70538600  0.65179300  1
  C  C16  1  0.70538600  0.25404100  0.65179300  1
  C  C17  1  0.30230400  0.30230400  0.12101600  1
  C  C18  1  0.69465300  0.69465300  0.62546900  1
  C  C19  1  0.47630200  0.00809700  0.81713400  1
  C  C20  1  0.00809700  0.47630200  0.81713400  1
  C  C21  1  0.52942300  0.98485800  0.31719300  1
  C  C22  1  0.98485800  0.52942300  0.31719300  1
  C  C23  1  0.34595400  0.34595400  0.61584400  1
  C  C24  1  0.65433200  0.65433200  0.12465800  1
  C  C25  1  0.65054700  0.10802300  0.01375100  1
  C  C26  1  0.10802300  0.65054700  0.01375100  1
  C  C27  1  0.35044000  0.89048500  0.51227800  1
  C  C28  1  0.89048500  0.35044000  0.51227800  1
  C  C29  1  0.32118900  0.12653500  0.47899000  1
  C  C30  1  0.12653500  0.32118900  0.47899000  1
  C  C31  1  0.68726600  0.87174000  0.96889500  1
  C  C32  1  0.87174000  0.68726600  0.96889500  1
  C  C33  1  0.52020000  0.33463400  0.97328500  1
  C  C34  1  0.33463400  0.52020000  0.97328500  1
  C  C35  1  0.47820600  0.66276400  0.47302300  1
  C  C36  1  0.66276400  0.47820600  0.47302300  1
