# generated using pymatgen
data_Cu6Ni9C7
_symmetry_space_group_name_H-M   'P 1'
_cell_length_a   9.97060200
_cell_length_b   11.46429800
_cell_length_c   18.09063400
_cell_angle_alpha   90.00000000
_cell_angle_beta   90.00000000
_cell_angle_gamma   90.00000000
_symmetry_Int_Tables_number   1
_chemical_formula_structural   Cu6Ni9C7
_chemical_formula_sum   'Cu24 Ni36 C28'
_cell_volume   2067.86715192
_cell_formula_units_Z   4
loop_
 _symmetry_equiv_pos_site_id
 _symmetry_equiv_pos_as_xyz
  1  'x, y, z'
loop_
 _atom_site_type_symbol
 _atom_site_label
 _atom_site_symmetry_multiplicity
 _atom_site_fract_x
 _atom_site_fract_y
 _atom_site_fract_z
 _atom_site_occupancy
  C  C0  1  0.66090700  0.03344900  0.11506900  1
  C  C1  1  0.16090700  0.46655100  0.38493100  1
  C  C2  1  0.33909300  0.96655100  0.61506900  1
  C  C3  1  0.83909300  0.53344900  0.88493100  1
  C  C4  1  0.33909300  0.96655100  0.88493100  1
  C  C5  1  0.83909300  0.53344900  0.61506900  1
  C  C6  1  0.66090700  0.03344900  0.38493100  1
  C  C7  1  0.16090700  0.46655100  0.11506900  1
  C  C8  1  0.58153200  0.71019700  0.25000000  1
  C  C9  1  0.08153200  0.78980300  0.25000000  1
  C  C10  1  0.41846800  0.28980300  0.75000000  1
  C  C11  1  0.91846800  0.21019700  0.75000000  1
  Ni  Ni12  1  0.78426200  0.98003800  0.25000000  1
  Ni  Ni13  1  0.28426200  0.51996200  0.25000000  1
  Ni  Ni14  1  0.21573800  0.01996200  0.75000000  1
  Ni  Ni15  1  0.71573800  0.48003800  0.75000000  1
  Ni  Ni16  1  0.79144400  0.97697200  0.18468400  1
  Ni  Ni17  1  0.29144400  0.52302800  0.31531600  1
  Ni  Ni18  1  0.20855600  0.02302800  0.68468400  1
  Ni  Ni19  1  0.70855600  0.47697200  0.81531600  1
  Ni  Ni20  1  0.20855600  0.02302800  0.81531600  1
  Ni  Ni21  1  0.70855600  0.47697200  0.68468400  1
  Ni  Ni22  1  0.79144400  0.97697200  0.31531600  1
  Ni  Ni23  1  0.29144400  0.52302800  0.18468400  1
  Ni  Ni24  1  0.52458800  0.08478300  0.17173500  1
  Ni  Ni25  1  0.02458800  0.41521700  0.32826500  1
  Ni  Ni26  1  0.47541200  0.91521700  0.67173500  1
  Ni  Ni27  1  0.97541200  0.58478300  0.82826500  1
  Ni  Ni28  1  0.47541200  0.91521700  0.82826500  1
  Ni  Ni29  1  0.97541200  0.58478300  0.67173500  1
  Ni  Ni30  1  0.52458800  0.08478300  0.32826500  1
  Ni  Ni31  1  0.02458800  0.41521700  0.17173500  1
  Ni  Ni32  1  0.70746600  0.15741800  0.06865600  1
  Ni  Ni33  1  0.20746600  0.34258200  0.43134400  1
  Ni  Ni34  1  0.29253400  0.84258200  0.56865600  1
  Ni  Ni35  1  0.79253400  0.65741800  0.93134400  1
  Ni  Ni36  1  0.29253400  0.84258200  0.93134400  1
  Ni  Ni37  1  0.79253400  0.65741800  0.56865600  1
  Ni  Ni38  1  0.70746600  0.15741800  0.43134400  1
  Ni  Ni39  1  0.20746600  0.34258200  0.06865600  1
  Ni  Ni40  1  0.61409300  0.93177100  0.06447300  1
  Ni  Ni41  1  0.11409300  0.56822900  0.43552700  1
  Ni  Ni42  1  0.38590700  0.06822900  0.56447300  1
  Ni  Ni43  1  0.88590700  0.43177100  0.93552700  1
  Ni  Ni44  1  0.38590700  0.06822900  0.93552700  1
  Ni  Ni45  1  0.88590700  0.43177100  0.56447300  1
  Ni  Ni46  1  0.61409300  0.93177100  0.43552700  1
  Ni  Ni47  1  0.11409300  0.56822900  0.06447300  1
  C  C48  1  0.56006400  0.27558300  0.25000000  1
  C  C49  1  0.06006400  0.22441700  0.25000000  1
  C  C50  1  0.43993600  0.72441700  0.75000000  1
  C  C51  1  0.93993600  0.77558300  0.75000000  1
  C  C52  1  0.47545400  0.01396300  0.25000000  1
  C  C53  1  0.97545400  0.48603700  0.25000000  1
  C  C54  1  0.52454600  0.98603700  0.75000000  1
  C  C55  1  0.02454600  0.51396300  0.75000000  1
  C  C56  1  0.17815500  0.29679900  0.98616200  1
  C  C57  1  0.67815500  0.20320100  0.51383800  1
  C  C58  1  0.82184500  0.70320100  0.48616200  1
  C  C59  1  0.32184500  0.79679900  0.01383800  1
  C  C60  1  0.82184500  0.70320100  0.01383800  1
  C  C61  1  0.32184500  0.79679900  0.48616200  1
  C  C62  1  0.17815500  0.29679900  0.51383800  1
  C  C63  1  0.67815500  0.20320100  0.98616200  1
  Cu  Cu64  1  0.58151100  0.71078400  0.18501100  1
  Cu  Cu65  1  0.08151100  0.78921600  0.31498900  1
  Cu  Cu66  1  0.41848900  0.28921600  0.68501100  1
  Cu  Cu67  1  0.91848900  0.21078400  0.81498900  1
  Cu  Cu68  1  0.41848900  0.28921600  0.81498900  1
  Cu  Cu69  1  0.91848900  0.21078400  0.68501100  1
  Cu  Cu70  1  0.58151100  0.71078400  0.31498900  1
  Cu  Cu71  1  0.08151100  0.78921600  0.18501100  1
  Cu  Cu72  1  0.65541000  0.45092500  0.10674000  1
  Cu  Cu73  1  0.15541000  0.04907500  0.39326000  1
  Cu  Cu74  1  0.34459000  0.54907500  0.60674000  1
  Cu  Cu75  1  0.84459000  0.95092500  0.89326000  1
  Cu  Cu76  1  0.34459000  0.54907500  0.89326000  1
  Cu  Cu77  1  0.84459000  0.95092500  0.60674000  1
  Cu  Cu78  1  0.65541000  0.45092500  0.39326000  1
  Cu  Cu79  1  0.15541000  0.04907500  0.10674000  1
  Cu  Cu80  1  0.54726900  0.45582100  0.07404300  1
  Cu  Cu81  1  0.04726900  0.04417900  0.42595700  1
  Cu  Cu82  1  0.45273100  0.54417900  0.57404300  1
  Cu  Cu83  1  0.95273100  0.95582100  0.92595700  1
  Cu  Cu84  1  0.45273100  0.54417900  0.92595700  1
  Cu  Cu85  1  0.95273100  0.95582100  0.57404300  1
  Cu  Cu86  1  0.54726900  0.45582100  0.42595700  1
  Cu  Cu87  1  0.04726900  0.04417900  0.07404300  1
