# generated using pymatgen
data_Cu2Ni4C15
_symmetry_space_group_name_H-M   'P 1'
_cell_length_a   9.48034113
_cell_length_b   9.48034113
_cell_length_c   3.20892500
_cell_angle_alpha   90.00000000
_cell_angle_beta   90.00000000
_cell_angle_gamma   119.99999390
_symmetry_Int_Tables_number   1
_chemical_formula_structural   Cu2Ni4C15
_chemical_formula_sum   'Cu2 Ni4 C15'
_cell_volume   249.76878106
_cell_formula_units_Z   1
loop_
 _symmetry_equiv_pos_site_id
 _symmetry_equiv_pos_as_xyz
  1  'x, y, z'
loop_
 _atom_site_type_symbol
 _atom_site_label
 _atom_site_symmetry_multiplicity
 _atom_site_fract_x
 _atom_site_fract_y
 _atom_site_fract_z
 _atom_site_occupancy
  Ni  Ni0  1  0.00000000  0.00000000  0.00000000  1
  Ni  Ni1  1  0.69855600  0.00000000  0.50000000  1
  Ni  Ni2  1  0.00000000  0.69855600  0.50000000  1
  Ni  Ni3  1  0.30144400  0.30144400  0.50000000  1
  Cu  Cu4  1  0.33333300  0.66666700  0.50000000  1
  Cu  Cu5  1  0.66666700  0.33333300  0.50000000  1
  C  C6  1  0.33019800  0.00000000  0.00000000  1
  C  C7  1  0.00000000  0.33019800  0.00000000  1
  C  C8  1  0.66980200  0.66980200  0.00000000  1
  C  C9  1  0.19687800  0.00000000  0.50000000  1
  C  C10  1  0.00000000  0.19687800  0.50000000  1
  C  C11  1  0.80312200  0.80312200  0.50000000  1
  C  C12  1  0.45645300  0.00000000  0.50000000  1
  C  C13  1  0.00000000  0.45645300  0.50000000  1
  C  C14  1  0.54354700  0.54354700  0.50000000  1
  C  C15  1  0.24299700  0.45990200  0.00000000  1
  C  C16  1  0.54009800  0.78309500  0.00000000  1
  C  C17  1  0.45990200  0.24299700  0.00000000  1
  C  C18  1  0.21690500  0.75700300  0.00000000  1
  C  C19  1  0.78309500  0.54009800  0.00000000  1
  C  C20  1  0.75700300  0.21690500  0.00000000  1
