# generated using pymatgen
data_Cu12NiC10
_symmetry_space_group_name_H-M   'P 1'
_cell_length_a   7.17389800
_cell_length_b   10.80000500
_cell_length_c   13.21919900
_cell_angle_alpha   90.00000000
_cell_angle_beta   90.00000000
_cell_angle_gamma   90.00000000
_symmetry_Int_Tables_number   1
_chemical_formula_structural   Cu12NiC10
_chemical_formula_sum   'Cu48 Ni4 C40'
_cell_volume   1024.19887506
_cell_formula_units_Z   4
loop_
 _symmetry_equiv_pos_site_id
 _symmetry_equiv_pos_as_xyz
  1  'x, y, z'
loop_
 _atom_site_type_symbol
 _atom_site_label
 _atom_site_symmetry_multiplicity
 _atom_site_fract_x
 _atom_site_fract_y
 _atom_site_fract_z
 _atom_site_occupancy
  C  C0  1  0.50000000  0.35887200  0.50000000  1
  C  C1  1  0.00000000  0.64112800  0.00000000  1
  C  C2  1  0.50000000  0.64112800  0.50000000  1
  C  C3  1  0.00000000  0.35887200  0.00000000  1
  Ni  Ni4  1  0.13499200  0.50000000  0.45379100  1
  Ni  Ni5  1  0.86500800  0.50000000  0.54620900  1
  Ni  Ni6  1  0.63499200  0.50000000  0.04620900  1
  Ni  Ni7  1  0.36500800  0.50000000  0.95379100  1
  Cu  Cu8  1  0.94780800  0.18148000  0.35692400  1
  Cu  Cu9  1  0.05219200  0.18148000  0.64307600  1
  Cu  Cu10  1  0.44780800  0.81852000  0.14307600  1
  Cu  Cu11  1  0.55219200  0.81852000  0.85692400  1
  Cu  Cu12  1  0.05219200  0.81852000  0.64307600  1
  Cu  Cu13  1  0.94780800  0.81852000  0.35692400  1
  Cu  Cu14  1  0.55219200  0.18148000  0.85692400  1
  Cu  Cu15  1  0.44780800  0.18148000  0.14307600  1
  Cu  Cu16  1  0.54776000  0.07512400  0.38737900  1
  Cu  Cu17  1  0.45224000  0.07512400  0.61262100  1
  Cu  Cu18  1  0.04776000  0.92487600  0.11262100  1
  Cu  Cu19  1  0.95224000  0.92487600  0.88737900  1
  Cu  Cu20  1  0.45224000  0.92487600  0.61262100  1
  Cu  Cu21  1  0.54776000  0.92487600  0.38737900  1
  Cu  Cu22  1  0.95224000  0.07512400  0.88737900  1
  Cu  Cu23  1  0.04776000  0.07512400  0.11262100  1
  Cu  Cu24  1  0.89915700  0.28079800  0.64912200  1
  Cu  Cu25  1  0.10084300  0.28079800  0.35087800  1
  Cu  Cu26  1  0.39915700  0.71920200  0.85087800  1
  Cu  Cu27  1  0.60084300  0.71920200  0.14912200  1
  Cu  Cu28  1  0.10084300  0.71920200  0.35087800  1
  Cu  Cu29  1  0.89915700  0.71920200  0.64912200  1
  Cu  Cu30  1  0.60084300  0.28079800  0.14912200  1
  Cu  Cu31  1  0.39915700  0.28079800  0.85087800  1
  Cu  Cu32  1  0.53640100  0.26013800  0.71391000  1
  Cu  Cu33  1  0.46359900  0.26013800  0.28609000  1
  Cu  Cu34  1  0.03640100  0.73986200  0.78609000  1
  Cu  Cu35  1  0.96359900  0.73986200  0.21391000  1
  Cu  Cu36  1  0.46359900  0.73986200  0.28609000  1
  Cu  Cu37  1  0.53640100  0.73986200  0.71391000  1
  Cu  Cu38  1  0.96359900  0.26013800  0.21391000  1
  Cu  Cu39  1  0.03640100  0.26013800  0.78609000  1
  Cu  Cu40  1  0.51760100  0.00000000  0.18893200  1
  Cu  Cu41  1  0.48239900  0.00000000  0.81106800  1
  Cu  Cu42  1  0.01760100  0.00000000  0.31106800  1
  Cu  Cu43  1  0.98239900  0.00000000  0.68893200  1
  Cu  Cu44  1  0.29222200  0.00000000  0.27218000  1
  Cu  Cu45  1  0.70777800  0.00000000  0.72782000  1
  Cu  Cu46  1  0.79222200  0.00000000  0.22782000  1
  Cu  Cu47  1  0.20777800  0.00000000  0.77218000  1
  Cu  Cu48  1  0.15435200  0.00000000  0.61192700  1
  Cu  Cu49  1  0.84564800  0.00000000  0.38807300  1
  Cu  Cu50  1  0.65435200  0.00000000  0.88807300  1
  Cu  Cu51  1  0.34564800  0.00000000  0.11192700  1
  Cu  Cu52  1  0.29399900  0.00000000  0.32875600  1
  Cu  Cu53  1  0.70600100  0.00000000  0.67124400  1
  Cu  Cu54  1  0.79399900  0.00000000  0.17124400  1
  Cu  Cu55  1  0.20600100  0.00000000  0.82875600  1
  C  C56  1  0.70132000  0.50000000  0.46830700  1
  C  C57  1  0.29868000  0.50000000  0.53169300  1
  C  C58  1  0.20132000  0.50000000  0.03169300  1
  C  C59  1  0.79868000  0.50000000  0.96830700  1
  C  C60  1  0.69342100  0.28000000  0.58473900  1
  C  C61  1  0.30657900  0.28000000  0.41526100  1
  C  C62  1  0.19342100  0.72000000  0.91526100  1
  C  C63  1  0.80657900  0.72000000  0.08473900  1
  C  C64  1  0.30657900  0.72000000  0.41526100  1
  C  C65  1  0.69342100  0.72000000  0.58473900  1
  C  C66  1  0.80657900  0.28000000  0.08473900  1
  C  C67  1  0.19342100  0.28000000  0.91526100  1
  C  C68  1  0.03063200  0.73521900  0.67134300  1
  C  C69  1  0.96936800  0.73521900  0.32865700  1
  C  C70  1  0.53063200  0.26478100  0.82865700  1
  C  C71  1  0.46936800  0.26478100  0.17134300  1
  C  C72  1  0.96936800  0.26478100  0.32865700  1
  C  C73  1  0.03063200  0.26478100  0.67134300  1
  C  C74  1  0.46936800  0.73521900  0.17134300  1
  C  C75  1  0.53063200  0.73521900  0.82865700  1
  C  C76  1  0.51974500  0.24168700  0.63673800  1
  C  C77  1  0.48025500  0.24168700  0.36326200  1
  C  C78  1  0.01974500  0.75831300  0.86326200  1
  C  C79  1  0.98025500  0.75831300  0.13673800  1
  C  C80  1  0.48025500  0.75831300  0.36326200  1
  C  C81  1  0.51974500  0.75831300  0.63673800  1
  C  C82  1  0.98025500  0.24168700  0.13673800  1
  C  C83  1  0.01974500  0.24168700  0.86326200  1
  C  C84  1  0.62480800  0.00000000  0.39142800  1
  C  C85  1  0.37519200  0.00000000  0.60857200  1
  C  C86  1  0.12480800  0.00000000  0.10857200  1
  C  C87  1  0.87519200  0.00000000  0.89142800  1
  C  C88  1  0.98574400  0.00000000  0.38249900  1
  C  C89  1  0.01425600  0.00000000  0.61750100  1
  C  C90  1  0.48574400  0.00000000  0.11750100  1
  C  C91  1  0.51425600  0.00000000  0.88249900  1
