# generated using pymatgen
data_CuNi3C
_symmetry_space_group_name_H-M   'P 1'
_cell_length_a   12.85190051
_cell_length_b   12.85190051
_cell_length_c   12.85190051
_cell_angle_alpha   60.00000000
_cell_angle_beta   60.00000000
_cell_angle_gamma   60.00000000
_symmetry_Int_Tables_number   1
_chemical_formula_structural   CuNi3C
_chemical_formula_sum   'Cu24 Ni72 C24'
_cell_volume   1501.02203117
_cell_formula_units_Z   24
loop_
 _symmetry_equiv_pos_site_id
 _symmetry_equiv_pos_as_xyz
  1  'x, y, z'
loop_
 _atom_site_type_symbol
 _atom_site_label
 _atom_site_symmetry_multiplicity
 _atom_site_fract_x
 _atom_site_fract_y
 _atom_site_fract_z
 _atom_site_occupancy
  C  C0  1  0.92056500  0.92056500  0.23830600  1
  C  C1  1  0.23830600  0.92056500  0.92056500  1
  C  C2  1  0.92056500  0.92056500  0.92056500  1
  C  C3  1  0.92056500  0.23830600  0.92056500  1
  C  C4  1  0.42056500  0.73830600  0.42056500  1
  C  C5  1  0.73830600  0.42056500  0.42056500  1
  C  C6  1  0.42056500  0.42056500  0.42056500  1
  C  C7  1  0.42056500  0.42056500  0.73830600  1
  C  C8  1  0.13272700  0.60181800  0.13272700  1
  C  C9  1  0.60181800  0.13272700  0.13272700  1
  C  C10  1  0.13272700  0.13272700  0.60181800  1
  C  C11  1  0.13272700  0.13272700  0.13272700  1
  C  C12  1  0.63272700  0.63272700  0.10181800  1
  C  C13  1  0.10181800  0.63272700  0.63272700  1
  C  C14  1  0.63272700  0.10181800  0.63272700  1
  C  C15  1  0.63272700  0.63272700  0.63272700  1
  Ni  Ni16  1  0.23758500  0.61767000  0.89410200  1
  Ni  Ni17  1  0.89410200  0.61767000  0.25064400  1
  Ni  Ni18  1  0.25064400  0.61767000  0.23758500  1
  Ni  Ni19  1  0.61767000  0.23758500  0.25064400  1
  Ni  Ni20  1  0.61767000  0.89410200  0.23758500  1
  Ni  Ni21  1  0.61767000  0.25064400  0.89410200  1
  Ni  Ni22  1  0.25064400  0.89410200  0.61767000  1
  Ni  Ni23  1  0.23758500  0.25064400  0.61767000  1
  Ni  Ni24  1  0.89410200  0.23758500  0.61767000  1
  Ni  Ni25  1  0.89410200  0.25064400  0.23758500  1
  Ni  Ni26  1  0.25064400  0.23758500  0.89410200  1
  Ni  Ni27  1  0.23758500  0.89410200  0.25064400  1
  Ni  Ni28  1  0.73758500  0.39410200  0.11767000  1
  Ni  Ni29  1  0.39410200  0.75064400  0.11767000  1
  Ni  Ni30  1  0.75064400  0.73758500  0.11767000  1
  Ni  Ni31  1  0.11767000  0.75064400  0.73758500  1
  Ni  Ni32  1  0.11767000  0.73758500  0.39410200  1
  Ni  Ni33  1  0.11767000  0.39410200  0.75064400  1
  Ni  Ni34  1  0.75064400  0.11767000  0.39410200  1
  Ni  Ni35  1  0.73758500  0.11767000  0.75064400  1
  Ni  Ni36  1  0.39410200  0.11767000  0.73758500  1
  Ni  Ni37  1  0.39410200  0.73758500  0.75064400  1
  Ni  Ni38  1  0.75064400  0.39410200  0.73758500  1
  Ni  Ni39  1  0.73758500  0.75064400  0.39410200  1
  Ni  Ni40  1  0.23989000  0.45870900  0.99636900  1
  Ni  Ni41  1  0.99636900  0.45870900  0.30503200  1
  Ni  Ni42  1  0.30503200  0.45870900  0.23989000  1
  Ni  Ni43  1  0.45870900  0.23989000  0.30503200  1
  Ni  Ni44  1  0.45870900  0.99636900  0.23989000  1
  Ni  Ni45  1  0.45870900  0.30503200  0.99636900  1
  Ni  Ni46  1  0.30503200  0.99636900  0.45870900  1
  Ni  Ni47  1  0.23989000  0.30503200  0.45870900  1
  Ni  Ni48  1  0.99636900  0.23989000  0.45870900  1
  Ni  Ni49  1  0.99636900  0.30503200  0.23989000  1
  Ni  Ni50  1  0.30503200  0.23989000  0.99636900  1
  Ni  Ni51  1  0.23989000  0.99636900  0.30503200  1
  Ni  Ni52  1  0.73989000  0.49636900  0.95870900  1
  Ni  Ni53  1  0.49636900  0.80503200  0.95870900  1
  Ni  Ni54  1  0.80503200  0.73989000  0.95870900  1
  Ni  Ni55  1  0.95870900  0.80503200  0.73989000  1
  Ni  Ni56  1  0.95870900  0.73989000  0.49636900  1
  Ni  Ni57  1  0.95870900  0.49636900  0.80503200  1
  Ni  Ni58  1  0.80503200  0.95870900  0.49636900  1
  Ni  Ni59  1  0.73989000  0.95870900  0.80503200  1
  Ni  Ni60  1  0.49636900  0.95870900  0.73989000  1
  Ni  Ni61  1  0.49636900  0.73989000  0.80503200  1
  Ni  Ni62  1  0.80503200  0.49636900  0.73989000  1
  Ni  Ni63  1  0.73989000  0.80503200  0.49636900  1
  Ni  Ni64  1  0.09717000  0.57604900  0.96553000  1
  Ni  Ni65  1  0.96553000  0.57604900  0.36125100  1
  Ni  Ni66  1  0.36125100  0.57604900  0.09717000  1
  Ni  Ni67  1  0.57604900  0.09717000  0.36125100  1
  Ni  Ni68  1  0.57604900  0.96553000  0.09717000  1
  Ni  Ni69  1  0.57604900  0.36125100  0.96553000  1
  Ni  Ni70  1  0.36125100  0.96553000  0.57604900  1
  Ni  Ni71  1  0.09717000  0.36125100  0.57604900  1
  Ni  Ni72  1  0.96553000  0.09717000  0.57604900  1
  Ni  Ni73  1  0.96553000  0.36125100  0.09717000  1
  Ni  Ni74  1  0.36125100  0.09717000  0.96553000  1
  Ni  Ni75  1  0.09717000  0.96553000  0.36125100  1
  Ni  Ni76  1  0.59717000  0.46553000  0.07604900  1
  Ni  Ni77  1  0.46553000  0.86125100  0.07604900  1
  Ni  Ni78  1  0.86125100  0.59717000  0.07604900  1
  Ni  Ni79  1  0.07604900  0.86125100  0.59717000  1
  Ni  Ni80  1  0.07604900  0.59717000  0.46553000  1
  Ni  Ni81  1  0.07604900  0.46553000  0.86125100  1
  Ni  Ni82  1  0.86125100  0.07604900  0.46553000  1
  Ni  Ni83  1  0.59717000  0.07604900  0.86125100  1
  Ni  Ni84  1  0.46553000  0.07604900  0.59717000  1
  Ni  Ni85  1  0.46553000  0.59717000  0.86125100  1
  Ni  Ni86  1  0.86125100  0.46553000  0.59717000  1
  Ni  Ni87  1  0.59717000  0.86125100  0.46553000  1
  Cu  Cu88  1  0.18140000  0.56038400  0.98040100  1
  Cu  Cu89  1  0.98040100  0.56038400  0.27781600  1
  Cu  Cu90  1  0.27781600  0.56038400  0.18140000  1
  Cu  Cu91  1  0.56038400  0.18140000  0.27781600  1
  Cu  Cu92  1  0.56038400  0.98040100  0.18140000  1
  Cu  Cu93  1  0.56038400  0.27781600  0.98040100  1
  Cu  Cu94  1  0.27781600  0.98040100  0.56038400  1
  Cu  Cu95  1  0.18140000  0.27781600  0.56038400  1
  Cu  Cu96  1  0.98040100  0.18140000  0.56038400  1
  Cu  Cu97  1  0.98040100  0.27781600  0.18140000  1
  Cu  Cu98  1  0.27781600  0.18140000  0.98040100  1
  Cu  Cu99  1  0.18140000  0.98040100  0.27781600  1
  Cu  Cu100  1  0.68140000  0.48040100  0.06038400  1
  Cu  Cu101  1  0.48040100  0.77781600  0.06038400  1
  Cu  Cu102  1  0.77781600  0.68140000  0.06038400  1
  Cu  Cu103  1  0.06038400  0.77781600  0.68140000  1
  Cu  Cu104  1  0.06038400  0.68140000  0.48040100  1
  Cu  Cu105  1  0.06038400  0.48040100  0.77781600  1
  Cu  Cu106  1  0.77781600  0.06038400  0.48040100  1
  Cu  Cu107  1  0.68140000  0.06038400  0.77781600  1
  Cu  Cu108  1  0.48040100  0.06038400  0.68140000  1
  Cu  Cu109  1  0.48040100  0.68140000  0.77781600  1
  Cu  Cu110  1  0.77781600  0.48040100  0.68140000  1
  Cu  Cu111  1  0.68140000  0.77781600  0.48040100  1
  C  C112  1  0.06836000  0.79492000  0.06836000  1
  C  C113  1  0.79492000  0.06836000  0.06836000  1
  C  C114  1  0.06836000  0.06836000  0.79492000  1
  C  C115  1  0.06836000  0.06836000  0.06836000  1
  C  C116  1  0.56836000  0.56836000  0.29492000  1
  C  C117  1  0.29492000  0.56836000  0.56836000  1
  C  C118  1  0.56836000  0.29492000  0.56836000  1
  C  C119  1  0.56836000  0.56836000  0.56836000  1
