# generated using pymatgen
data_CuNiC37
_symmetry_space_group_name_H-M   'P 1'
_cell_length_a   7.15494400
_cell_length_b   7.38309603
_cell_length_c   9.09821492
_cell_angle_alpha   66.60514953
_cell_angle_beta   66.84587100
_cell_angle_gamma   90.00000000
_symmetry_Int_Tables_number   1
_chemical_formula_structural   CuNiC37
_chemical_formula_sum   'Cu1 Ni1 C37'
_cell_volume   398.57435635
_cell_formula_units_Z   1
loop_
 _symmetry_equiv_pos_site_id
 _symmetry_equiv_pos_as_xyz
  1  'x, y, z'
loop_
 _atom_site_type_symbol
 _atom_site_label
 _atom_site_symmetry_multiplicity
 _atom_site_fract_x
 _atom_site_fract_y
 _atom_site_fract_z
 _atom_site_occupancy
  Ni  Ni0  1  0.52137900  0.50000000  0.00000000  1
  C  C1  1  0.78364200  0.19014200  0.83140200  1
  C  C2  1  0.38761100  0.98051000  0.82869000  1
  C  C3  1  0.61504400  0.80985800  0.16859800  1
  C  C4  1  0.21630100  0.01949000  0.17131000  1
  C  C5  1  0.01070900  0.18894000  0.68449700  1
  C  C6  1  0.30431800  0.12524700  0.68411100  1
  C  C7  1  0.69520600  0.81106000  0.31550300  1
  C  C8  1  0.98842900  0.87475300  0.31588900  1
  C  C9  1  0.82654200  0.98471500  0.79849800  1
  C  C10  1  0.37587000  0.21714300  0.79789400  1
  C  C11  1  0.62504000  0.01528500  0.20150200  1
  C  C12  1  0.17376400  0.78285700  0.20210600  1
  C  C13  1  0.78868500  0.19012400  0.40299000  1
  C  C14  1  0.81308800  0.40573000  0.39534000  1
  C  C15  1  0.19167500  0.80987600  0.59701000  1
  C  C16  1  0.20842900  0.59427000  0.60466000  1
  C  C17  1  0.96281400  0.55232100  0.89100600  1
  C  C18  1  0.85382000  0.44767900  0.10899400  1
  Cu  Cu19  1  0.00062300  0.00000000  0.00000000  1
  C  C20  1  0.32402400  0.43158300  0.34842400  1
  C  C21  1  0.32118500  0.22255300  0.34643800  1
  C  C22  1  0.67244900  0.56841700  0.65157600  1
  C  C23  1  0.66762300  0.77744700  0.65356200  1
  C  C24  1  0.89214000  0.10194500  0.80671800  1
  C  C25  1  0.30206900  0.09184600  0.80597100  1
  C  C26  1  0.69885700  0.89805500  0.19328200  1
  C  C27  1  0.10804000  0.90815400  0.19402900  1
  C  C28  1  0.25541500  0.43800700  0.49446100  1
  C  C29  1  0.24606600  0.07118200  0.49106000  1
  C  C30  1  0.74987600  0.56199300  0.50553900  1
  C  C31  1  0.73712600  0.92881800  0.50894000  1
  C  C32  1  0.84758900  0.33294800  0.32056800  1
  C  C33  1  0.16815800  0.66705200  0.67943200  1
  C  C34  1  0.39810700  0.58484100  0.19495300  1
  C  C35  1  0.39994100  0.22279000  0.19173400  1
  C  C36  1  0.59306000  0.41515900  0.80504700  1
  C  C37  1  0.59167600  0.77721000  0.80826600  1
  C  C38  1  0.83040800  0.50000000  0.00000000  1
