# generated using pymatgen
data_CuNiC5
_symmetry_space_group_name_H-M   'P 1'
_cell_length_a   6.95057424
_cell_length_b   6.95057424
_cell_length_c   6.95057424
_cell_angle_alpha   128.50867637
_cell_angle_beta   128.50867637
_cell_angle_gamma   75.80242931
_symmetry_Int_Tables_number   1
_chemical_formula_structural   CuNiC5
_chemical_formula_sum   'Cu1 Ni1 C5'
_cell_volume   199.97326135
_cell_formula_units_Z   1
loop_
 _symmetry_equiv_pos_site_id
 _symmetry_equiv_pos_as_xyz
  1  'x, y, z'
loop_
 _atom_site_type_symbol
 _atom_site_label
 _atom_site_symmetry_multiplicity
 _atom_site_fract_x
 _atom_site_fract_y
 _atom_site_fract_z
 _atom_site_occupancy
  C  C0  1  0.50000000  0.50000000  0.00000000  1
  Ni  Ni1  1  0.25000000  0.75000000  0.50000000  1
  Cu  Cu2  1  0.75000000  0.25000000  0.50000000  1
  C  C3  1  0.64710300  0.63460100  0.50037900  1
  C  C4  1  0.13422200  0.14672400  0.49962100  1
  C  C5  1  0.85327600  0.35289700  0.98749800  1
  C  C6  1  0.36539900  0.86577800  0.01250200  1
