# generated using pymatgen
data_Cu4Ni3C13
_symmetry_space_group_name_H-M   'P 1'
_cell_length_a   5.93389245
_cell_length_b   5.93389245
_cell_length_c   11.17814543
_cell_angle_alpha   81.92525178
_cell_angle_beta   81.92525178
_cell_angle_gamma   104.15257103
_symmetry_Int_Tables_number   1
_chemical_formula_structural   Cu4Ni3C13
_chemical_formula_sum   'Cu8 Ni6 C26'
_cell_volume   371.54749488
_cell_formula_units_Z   2
loop_
 _symmetry_equiv_pos_site_id
 _symmetry_equiv_pos_as_xyz
  1  'x, y, z'
loop_
 _atom_site_type_symbol
 _atom_site_label
 _atom_site_symmetry_multiplicity
 _atom_site_fract_x
 _atom_site_fract_y
 _atom_site_fract_z
 _atom_site_occupancy
  C  C0  1  0.49912300  0.50087700  0.00000000  1
  C  C1  1  0.99996800  0.00003200  0.50000000  1
  Ni  Ni2  1  0.27753000  0.83427500  0.22264700  1
  Ni  Ni3  1  0.77832100  0.33336000  0.72152200  1
  Ni  Ni4  1  0.66664000  0.22167900  0.27847800  1
  Ni  Ni5  1  0.16572500  0.72247000  0.77735300  1
  Ni  Ni6  1  0.05663200  0.94336800  0.00000000  1
  Ni  Ni7  1  0.55580700  0.44419300  0.50000000  1
  Cu  Cu8  1  0.97085700  0.41247700  0.02943700  1
  Cu  Cu9  1  0.47101200  0.91376900  0.52874900  1
  Cu  Cu10  1  0.08623100  0.52898800  0.47125100  1
  Cu  Cu11  1  0.58752300  0.02914300  0.97056300  1
  Cu  Cu12  1  0.19188700  0.30776000  0.25128900  1
  Cu  Cu13  1  0.69224000  0.80811300  0.74871100  1
  Cu  Cu14  1  0.74990800  0.74974600  0.25018100  1
  Cu  Cu15  1  0.25025400  0.25009200  0.74981900  1
  C  C16  1  0.54548700  0.13672600  0.45460600  1
  C  C17  1  0.04548900  0.63539900  0.95486000  1
  C  C18  1  0.36460100  0.95451100  0.04514000  1
  C  C19  1  0.86327400  0.45451300  0.54539400  1
  C  C20  1  0.34129200  0.15950400  0.24994000  1
  C  C21  1  0.84049600  0.65870800  0.75006000  1
  C  C22  1  0.67579500  0.52701800  0.32466200  1
  C  C23  1  0.17566000  0.02706600  0.82419800  1
  C  C24  1  0.97293400  0.82434000  0.17580200  1
  C  C25  1  0.47298200  0.32420500  0.67533800  1
  C  C26  1  0.60120600  0.89834400  0.25020700  1
  C  C27  1  0.10165600  0.39879400  0.74979300  1
  C  C28  1  0.76643800  0.35792000  0.11363900  1
  C  C29  1  0.26085500  0.86049900  0.61020500  1
  C  C30  1  0.23574800  0.38673600  0.48566300  1
  C  C31  1  0.74087000  0.89231000  0.98572600  1
  C  C32  1  0.27997600  0.53593500  0.19070400  1
  C  C33  1  0.78753600  0.03606500  0.68496200  1
  C  C34  1  0.96393500  0.21246400  0.31503800  1
  C  C35  1  0.46406500  0.72002400  0.80929600  1
  C  C36  1  0.13950100  0.73914500  0.38979500  1
  C  C37  1  0.64208000  0.23356200  0.88636100  1
  C  C38  1  0.10769000  0.25913000  0.01427400  1
  C  C39  1  0.61326400  0.76425200  0.51433700  1
