# generated using pymatgen
data_Cu3NiC12
_symmetry_space_group_name_H-M   'P 1'
_cell_length_a   6.34843937
_cell_length_b   6.34843937
_cell_length_c   12.58478536
_cell_angle_alpha   89.89927990
_cell_angle_beta   89.89927990
_cell_angle_gamma   119.81924614
_symmetry_Int_Tables_number   1
_chemical_formula_structural   Cu3NiC12
_chemical_formula_sum   'Cu6 Ni2 C24'
_cell_volume   440.04376523
_cell_formula_units_Z   2
loop_
 _symmetry_equiv_pos_site_id
 _symmetry_equiv_pos_as_xyz
  1  'x, y, z'
loop_
 _atom_site_type_symbol
 _atom_site_label
 _atom_site_symmetry_multiplicity
 _atom_site_fract_x
 _atom_site_fract_y
 _atom_site_fract_z
 _atom_site_occupancy
  C  C0  1  0.33138500  0.66861500  0.50000000  1
  C  C1  1  0.66697100  0.33302900  0.00000000  1
  Ni  Ni2  1  0.00014400  0.63952500  0.74920400  1
  Ni  Ni3  1  0.36047500  0.99985600  0.25079600  1
  Cu  Cu4  1  0.64294600  0.99748100  0.74942000  1
  Cu  Cu5  1  0.35848600  0.35589400  0.75126700  1
  Cu  Cu6  1  0.00251900  0.35705400  0.25058000  1
  Cu  Cu7  1  0.64410600  0.64151400  0.24873300  1
  Cu  Cu8  1  0.33016400  0.66983600  0.00000000  1
  Cu  Cu9  1  0.66565700  0.33434300  0.50000000  1
  C  C10  1  0.00140300  0.24447800  0.75040500  1
  C  C11  1  0.25495800  0.01228200  0.74914200  1
  C  C12  1  0.74742800  0.75833400  0.75025500  1
  C  C13  1  0.98771800  0.74504200  0.25085800  1
  C  C14  1  0.75552200  0.99859700  0.24959500  1
  C  C15  1  0.24166600  0.25257200  0.24974500  1
  C  C16  1  0.62083900  0.56292000  0.40539100  1
  C  C17  1  0.93812000  0.37070700  0.40443800  1
  C  C18  1  0.43224600  0.05373200  0.41499000  1
  C  C19  1  0.37815100  0.94554100  0.08565700  1
  C  C20  1  0.06004100  0.43327700  0.09556200  1
  C  C21  1  0.56482000  0.62279400  0.09435100  1
  C  C22  1  0.37720600  0.43518000  0.90564900  1
  C  C23  1  0.05445900  0.62184900  0.91434300  1
  C  C24  1  0.56672300  0.93995900  0.90443800  1
  C  C25  1  0.62929300  0.06188000  0.59556200  1
  C  C26  1  0.94626800  0.56775400  0.58501000  1
  C  C27  1  0.43708000  0.37916100  0.59460900  1
  C  C28  1  0.34014200  0.66881700  0.70875000  1
  C  C29  1  0.66152100  0.32922700  0.79119000  1
  C  C30  1  0.67077300  0.33847900  0.20881000  1
  C  C31  1  0.33118300  0.65985800  0.29125000  1
