# generated using pymatgen
data_Cu4Ni22C35
_symmetry_space_group_name_H-M   'P 1'
_cell_length_a   28.04659122
_cell_length_b   28.04659122
_cell_length_c   14.15462573
_cell_angle_alpha   79.59947920
_cell_angle_beta   79.59947920
_cell_angle_gamma   14.13835703
_symmetry_Int_Tables_number   1
_chemical_formula_structural   Cu4Ni22C35
_chemical_formula_sum   'Cu8 Ni44 C70'
_cell_volume   2674.30618812
_cell_formula_units_Z   2
loop_
 _symmetry_equiv_pos_site_id
 _symmetry_equiv_pos_as_xyz
  1  'x, y, z'
loop_
 _atom_site_type_symbol
 _atom_site_label
 _atom_site_symmetry_multiplicity
 _atom_site_fract_x
 _atom_site_fract_y
 _atom_site_fract_z
 _atom_site_occupancy
  C  C0  1  0.47905800  0.43600200  0.01005100  1
  C  C1  1  0.56399800  0.52094200  0.48994900  1
  C  C2  1  0.52094200  0.56399800  0.98994900  1
  C  C3  1  0.43600200  0.47905800  0.51005100  1
  C  C4  1  0.05642400  0.91252600  0.91853100  1
  C  C5  1  0.08747400  0.94357600  0.58146900  1
  C  C6  1  0.94357600  0.08747400  0.08146900  1
  C  C7  1  0.91252600  0.05642400  0.41853100  1
  C  C8  1  0.99253800  0.90756300  0.75405000  1
  C  C9  1  0.09243700  0.00746200  0.74595000  1
  C  C10  1  0.00746200  0.09243700  0.24595000  1
  C  C11  1  0.90756300  0.99253800  0.25405000  1
  C  C12  1  0.34930100  0.25480700  0.95588800  1
  C  C13  1  0.74519300  0.65069900  0.54411200  1
  C  C14  1  0.65069900  0.74519300  0.04411200  1
  C  C15  1  0.25480700  0.34930100  0.45588800  1
  C  C16  1  0.92044600  0.61540000  0.12631900  1
  C  C17  1  0.38460000  0.07955400  0.37368100  1
  C  C18  1  0.07955400  0.38460000  0.87368100  1
  C  C19  1  0.61540000  0.92044600  0.62631900  1
  C  C20  1  0.90651800  0.63513300  0.35044700  1
  C  C21  1  0.36486700  0.09348200  0.14955300  1
  C  C22  1  0.09348200  0.36486700  0.64955300  1
  C  C23  1  0.63513300  0.90651800  0.85044700  1
  C  C24  1  0.52574300  0.47425700  0.75000000  1
  C  C25  1  0.47425700  0.52574300  0.25000000  1
  C  C26  1  0.98570000  0.83295300  0.01294500  1
  C  C27  1  0.16704700  0.01430000  0.48705500  1
  C  C28  1  0.01430000  0.16704700  0.98705500  1
  C  C29  1  0.83295300  0.98570000  0.51294500  1
  C  C30  1  0.42992900  0.30073800  0.06653800  1
  C  C31  1  0.69926200  0.57007100  0.43346200  1
  C  C32  1  0.57007100  0.69926200  0.93346200  1
  C  C33  1  0.30073800  0.42992900  0.56653800  1
  C  C34  1  0.43363300  0.15821500  0.21510300  1
  C  C35  1  0.84178500  0.56636700  0.28489700  1
  C  C36  1  0.56636700  0.84178500  0.78489700  1
  C  C37  1  0.15821500  0.43363300  0.71510300  1
  C  C38  1  0.49634300  0.29500100  0.80519900  1
  C  C39  1  0.70499900  0.50365700  0.69480100  1
  C  C40  1  0.50365700  0.70499900  0.19480100  1
  C  C41  1  0.29500100  0.49634300  0.30519900  1
  C  C42  1  0.35819700  0.47787700  0.76755800  1
  C  C43  1  0.52212300  0.64180300  0.73244200  1
  C  C44  1  0.64180300  0.52212300  0.23244200  1
  C  C45  1  0.47787700  0.35819700  0.26755800  1
  C  C46  1  0.53884100  0.30631000  0.84452500  1
  C  C47  1  0.69369000  0.46115900  0.65547500  1
  C  C48  1  0.46115900  0.69369000  0.15547500  1
  C  C49  1  0.30631000  0.53884100  0.34452500  1
  C  C50  1  0.59825100  0.24448900  0.73080400  1
  C  C51  1  0.75551100  0.40174900  0.76919600  1
  C  C52  1  0.40174900  0.75551100  0.26919600  1
  C  C53  1  0.24448900  0.59825100  0.23080400  1
  C  C54  1  0.74989600  0.93359000  0.92607900  1
  C  C55  1  0.06641000  0.25010400  0.57392100  1
  C  C56  1  0.25010400  0.06641000  0.07392100  1
  C  C57  1  0.93359000  0.74989600  0.42607900  1
  C  C58  1  0.99649600  0.70533300  0.91103400  1
  C  C59  1  0.29466700  0.00350400  0.58896600  1
  C  C60  1  0.00350400  0.29466700  0.08896600  1
  C  C61  1  0.70533300  0.99649600  0.41103400  1
  C  C62  1  0.91253000  0.72959100  0.92551000  1
  C  C63  1  0.27040900  0.08747000  0.57449000  1
  C  C64  1  0.08747000  0.27040900  0.07449000  1
  C  C65  1  0.72959100  0.91253000  0.42551000  1
  C  C66  1  0.90373600  0.76827800  0.01849600  1
  C  C67  1  0.23172200  0.09626400  0.48150400  1
  C  C68  1  0.09626400  0.23172200  0.98150400  1
  C  C69  1  0.76827800  0.90373600  0.51849600  1
  Ni  Ni70  1  0.71174800  0.22502000  0.85716100  1
  Ni  Ni71  1  0.77498000  0.28825200  0.64283900  1
  Ni  Ni72  1  0.28825200  0.77498000  0.14283900  1
  Ni  Ni73  1  0.22502000  0.71174800  0.35716100  1
  Ni  Ni74  1  0.27334800  0.68379800  0.64643600  1
  Ni  Ni75  1  0.31620200  0.72665200  0.85356400  1
  Ni  Ni76  1  0.72665200  0.31620200  0.35356400  1
  Ni  Ni77  1  0.68379800  0.27334800  0.14643600  1
  Ni  Ni78  1  0.11726300  0.78072900  0.07011300  1
  Ni  Ni79  1  0.21927100  0.88273700  0.42988700  1
  Ni  Ni80  1  0.88273700  0.21927100  0.92988700  1
  Ni  Ni81  1  0.78072900  0.11726300  0.57011300  1
  Ni  Ni82  1  0.00836900  0.80088500  0.84062800  1
  Ni  Ni83  1  0.19911500  0.99163100  0.65937200  1
  Ni  Ni84  1  0.99163100  0.19911500  0.15937200  1
  Ni  Ni85  1  0.80088500  0.00836900  0.34062800  1
  Ni  Ni86  1  0.09736000  0.64755700  0.13455600  1
  Ni  Ni87  1  0.35244300  0.90264000  0.36544400  1
  Ni  Ni88  1  0.90264000  0.35244300  0.86544400  1
  Ni  Ni89  1  0.64755700  0.09736000  0.63455600  1
  Ni  Ni90  1  0.61825800  0.19848900  0.06444700  1
  Ni  Ni91  1  0.80151100  0.38174200  0.43555300  1
  Ni  Ni92  1  0.38174200  0.80151100  0.93555300  1
  Ni  Ni93  1  0.19848900  0.61825800  0.56444700  1
  Ni  Ni94  1  0.40989700  0.28971500  0.90915000  1
  Ni  Ni95  1  0.71028500  0.59010300  0.59085000  1
  Ni  Ni96  1  0.59010300  0.71028500  0.09085000  1
  Ni  Ni97  1  0.28971500  0.40989700  0.40915000  1
  Ni  Ni98  1  0.63021500  0.04774500  0.19018100  1
  Ni  Ni99  1  0.95225500  0.36978500  0.30981900  1
  Ni  Ni100  1  0.36978500  0.95225500  0.80981900  1
  Ni  Ni101  1  0.04774500  0.63021500  0.69018100  1
  Ni  Ni102  1  0.07382300  0.53219600  0.20883400  1
  Ni  Ni103  1  0.46780400  0.92617700  0.29116600  1
  Ni  Ni104  1  0.92617700  0.46780400  0.79116600  1
  Ni  Ni105  1  0.53219600  0.07382300  0.70883400  1
  Ni  Ni106  1  0.53944400  0.00722900  0.08239000  1
  Ni  Ni107  1  0.99277100  0.46055600  0.41761000  1
  Ni  Ni108  1  0.46055600  0.99277000  0.91761000  1
  Ni  Ni109  1  0.00722900  0.53944400  0.58239000  1
  Ni  Ni110  1  0.52889800  0.02493500  0.38762100  1
  Ni  Ni111  1  0.97506500  0.47110200  0.11237900  1
  Ni  Ni112  1  0.47110200  0.97506500  0.61237900  1
  Ni  Ni113  1  0.02493500  0.52889800  0.88762100  1
  Cu  Cu114  1  0.49824300  0.33057500  0.78654800  1
  Cu  Cu115  1  0.66942500  0.50175700  0.71345200  1
  Cu  Cu116  1  0.50175700  0.66942500  0.21345200  1
  Cu  Cu117  1  0.33057500  0.49824300  0.28654800  1
  Cu  Cu118  1  0.89043800  0.78434900  0.94481100  1
  Cu  Cu119  1  0.21565100  0.10956200  0.55518900  1
  Cu  Cu120  1  0.10956200  0.21565100  0.05518900  1
  Cu  Cu121  1  0.78434900  0.89043800  0.44481100  1
