# generated using pymatgen
data_CuNiC5
_symmetry_space_group_name_H-M   'P 1'
_cell_length_a   5.52972000
_cell_length_b   7.70994500
_cell_length_c   10.42869800
_cell_angle_alpha   90.00000000
_cell_angle_beta   90.00000000
_cell_angle_gamma   90.00000000
_symmetry_Int_Tables_number   1
_chemical_formula_structural   CuNiC5
_chemical_formula_sum   'Cu4 Ni4 C20'
_cell_volume   444.61541134
_cell_formula_units_Z   4
loop_
 _symmetry_equiv_pos_site_id
 _symmetry_equiv_pos_as_xyz
  1  'x, y, z'
loop_
 _atom_site_type_symbol
 _atom_site_label
 _atom_site_symmetry_multiplicity
 _atom_site_fract_x
 _atom_site_fract_y
 _atom_site_fract_z
 _atom_site_occupancy
  Ni  Ni0  1  0.25000000  0.14229200  0.43074000  1
  Ni  Ni1  1  0.25000000  0.64229200  0.06926000  1
  Ni  Ni2  1  0.75000000  0.85770800  0.56926000  1
  Ni  Ni3  1  0.75000000  0.35770800  0.93074000  1
  Cu  Cu4  1  0.25000000  0.03413100  0.82634500  1
  Cu  Cu5  1  0.75000000  0.96586900  0.17365500  1
  Cu  Cu6  1  0.25000000  0.53413100  0.67365500  1
  Cu  Cu7  1  0.75000000  0.46586900  0.32634500  1
  C  C8  1  0.25000000  0.70282600  0.39314400  1
  C  C9  1  0.75000000  0.29717400  0.60685600  1
  C  C10  1  0.75000000  0.79717400  0.89314400  1
  C  C11  1  0.25000000  0.20282600  0.10685600  1
  C  C12  1  0.25000000  0.29336300  0.97274800  1
  C  C13  1  0.75000000  0.70663700  0.02725200  1
  C  C14  1  0.25000000  0.79336300  0.52725200  1
  C  C15  1  0.75000000  0.20663700  0.47274800  1
  C  C16  1  0.25000000  0.00286000  0.08260700  1
  C  C17  1  0.75000000  0.99714000  0.91739300  1
  C  C18  1  0.25000000  0.50286000  0.41739300  1
  C  C19  1  0.75000000  0.49714000  0.58260700  1
  C  C20  1  0.48309300  0.75278800  0.31705000  1
  C  C21  1  0.98309300  0.24721200  0.68295000  1
  C  C22  1  0.01690700  0.25278800  0.18295000  1
  C  C23  1  0.51690700  0.74721200  0.81705000  1
  C  C24  1  0.48309300  0.25278800  0.18295000  1
  C  C25  1  0.98309300  0.74721200  0.81705000  1
  C  C26  1  0.01690700  0.75278800  0.31705000  1
  C  C27  1  0.51690700  0.24721200  0.68295000  1
