# generated using pymatgen
data_Cu12Ni2C15
_symmetry_space_group_name_H-M   'P 1'
_cell_length_a   10.88957759
_cell_length_b   11.99191498
_cell_length_c   13.83283826
_cell_angle_alpha   90.00000000
_cell_angle_beta   90.00000000
_cell_angle_gamma   92.65248959
_symmetry_Int_Tables_number   1
_chemical_formula_structural   Cu12Ni2C15
_chemical_formula_sum   'Cu48 Ni8 C60'
_cell_volume   1804.45193387
_cell_formula_units_Z   4
loop_
 _symmetry_equiv_pos_site_id
 _symmetry_equiv_pos_as_xyz
  1  'x, y, z'
loop_
 _atom_site_type_symbol
 _atom_site_label
 _atom_site_symmetry_multiplicity
 _atom_site_fract_x
 _atom_site_fract_y
 _atom_site_fract_z
 _atom_site_occupancy
  C  C0  1  0.45497629  0.33945579  0.13373275  1
  C  C1  1  0.54502371  0.66054421  0.63373275  1
  C  C2  1  0.32213041  0.32043770  0.96300172  1
  C  C3  1  0.67786959  0.67956230  0.46300172  1
  C  C4  1  0.60721514  0.32259019  0.96728945  1
  C  C5  1  0.39278486  0.67740981  0.46728945  1
  C  C6  1  0.64185679  0.19768080  0.99634241  1
  C  C7  1  0.35814321  0.80231920  0.49634241  1
  C  C8  1  0.68710177  0.41333489  0.02876598  1
  C  C9  1  0.31289823  0.58666511  0.52876598  1
  C  C10  1  0.63906148  0.34658844  0.85699231  1
  C  C11  1  0.36093852  0.65341156  0.35699231  1
  C  C12  1  0.22105798  0.21313947  0.78181983  1
  C  C13  1  0.77894202  0.78686053  0.28181983  1
  C  C14  1  0.26610421  0.09914778  0.73313657  1
  C  C15  1  0.73389579  0.90085222  0.23313657  1
  C  C16  1  0.24966595  0.31694922  0.71174573  1
  C  C17  1  0.75033405  0.68305078  0.21174573  1
  C  C18  1  0.07544331  0.20434324  0.79739449  1
  C  C19  1  0.92455669  0.79565676  0.29739449  1
  C  C20  1  0.20917386  0.20194028  0.14056922  1
  C  C21  1  0.79082614  0.79805972  0.64056922  1
  C  C22  1  0.26212520  0.18978277  0.24965462  1
  C  C23  1  0.73787480  0.81021723  0.74965462  1
  C  C24  1  0.18343283  0.08102868  0.09503320  1
  C  C25  1  0.81656717  0.91897132  0.59503320  1
  C  C26  1  0.08076750  0.26098098  0.14344777  1
  C  C27  1  0.91923250  0.73901902  0.64344777  1
  C  C28  1  0.26599846  0.56583864  0.96231131  1
  C  C29  1  0.73400154  0.43416136  0.46231131  1
  C  C30  1  0.13236381  0.60645903  0.99542257  1
  C  C31  1  0.86763619  0.39354097  0.49542257  1
  C  C32  1  0.36839604  0.60116026  0.04028642  1
  C  C33  1  0.63160396  0.39883974  0.54028642  1
  C  C34  1  0.30548490  0.62672373  0.86311735  1
  C  C35  1  0.69451510  0.37327627  0.36311735  1
  C  C36  1  0.63633785  0.18725051  0.12639662  1
  C  C37  1  0.36366215  0.81274949  0.62639662  1
  C  C38  1  0.78797699  0.16135705  0.95547679  1
  C  C39  1  0.21202301  0.83864295  0.45547679  1
  C  C40  1  0.52919386  0.10098613  0.95031493  1
  C  C41  1  0.47080614  0.89901387  0.45031493  1
  C  C42  1  0.33020452  0.32371102  0.28595105  1
  C  C43  1  0.66979548  0.67628898  0.78595105  1
  C  C44  1  0.38062398  0.09318364  0.25441042  1
  C  C45  1  0.61937602  0.90681636  0.75441042  1
  C  C46  1  0.14928255  0.15053898  0.33621515  1
  C  C47  1  0.85071745  0.84946102  0.83621515  1
  C  C48  1  0.01628328  0.53865064  0.92428667  1
  C  C49  1  0.98371672  0.46134936  0.42428667  1
  C  C50  1  0.11971955  0.75430694  0.98464219  1
  C  C51  1  0.88028045  0.24569306  0.48464219  1
  C  C52  1  0.10545881  0.56915850  0.11764269  1
  C  C53  1  0.89454119  0.43084150  0.61764269  1
  C  C54  1  0.26876005  0.99179939  0.82233036  1
  C  C55  1  0.73123995  0.00820061  0.32233036  1
  C  C56  1  0.41825381  0.11930645  0.68723072  1
  C  C57  1  0.58174619  0.88069355  0.18723072  1
  C  C58  1  0.16962887  0.05228347  0.63657851  1
  C  C59  1  0.83037113  0.94771653  0.13657851  1
  Ni  Ni60  1  0.29335785  0.26272501  0.08425809  1
  Ni  Ni61  1  0.70664215  0.73727499  0.58425809  1
  Ni  Ni62  1  0.48572614  0.33858397  0.98779194  1
  Ni  Ni63  1  0.51427386  0.66141603  0.48779194  1
  Ni  Ni64  1  0.27912402  0.23094950  0.86815982  1
  Ni  Ni65  1  0.72087598  0.76905050  0.36815982  1
  Ni  Ni66  1  0.26322839  0.45356546  0.94978677  1
  Ni  Ni67  1  0.73677161  0.54643454  0.44978677  1
  Cu  Cu68  1  0.62700931  0.43221625  0.11496003  1
  Cu  Cu69  1  0.37299069  0.56778375  0.61496003  1
  Cu  Cu70  1  0.80103846  0.38340230  0.05098496  1
  Cu  Cu71  1  0.19896154  0.61659770  0.55098496  1
  Cu  Cu72  1  0.69706174  0.51282837  0.98333680  1
  Cu  Cu73  1  0.30293826  0.48717163  0.48333680  1
  Cu  Cu74  1  0.76040645  0.37421948  0.84349358  1
  Cu  Cu75  1  0.23959355  0.62578052  0.34349358  1
  Cu  Cu76  1  0.57421673  0.43348469  0.82605856  1
  Cu  Cu77  1  0.42578327  0.56651531  0.32605856  1
  Cu  Cu78  1  0.60986825  0.25874659  0.79927057  1
  Cu  Cu79  1  0.39013175  0.74125341  0.29927057  1
  Cu  Cu80  1  0.37213863  0.52105350  0.11178566  1
  Cu  Cu81  1  0.62786137  0.47894650  0.61178566  1
  Cu  Cu82  1  0.48119210  0.60526364  0.99884879  1
  Cu  Cu83  1  0.51880790  0.39473636  0.49884879  1
  Cu  Cu84  1  0.35366947  0.69954450  0.08473638  1
  Cu  Cu85  1  0.64633053  0.30045550  0.58473638  1
  Cu  Cu86  1  0.35466063  0.73241731  0.87636687  1
  Cu  Cu87  1  0.64533937  0.26758269  0.37636687  1
  Cu  Cu88  1  0.39315951  0.56830000  0.81864758  1
  Cu  Cu89  1  0.60684049  0.43170000  0.31864758  1
  Cu  Cu90  1  0.21116081  0.63319407  0.80026424  1
  Cu  Cu91  1  0.78883919  0.36680593  0.30026424  1
  Cu  Cu92  1  0.17815865  0.40280093  0.73574145  1
  Cu  Cu93  1  0.82184135  0.59719907  0.23574145  1
  Cu  Cu94  1  0.36801796  0.35517471  0.72260257  1
  Cu  Cu95  1  0.63198204  0.64482529  0.22260257  1
  Cu  Cu96  1  0.23092769  0.29497268  0.61673435  1
  Cu  Cu97  1  0.76907231  0.70502732  0.11673435  1
  Cu  Cu98  1  0.01136161  0.22475707  0.71575886  1
  Cu  Cu99  1  0.98863839  0.77524293  0.21575886  1
  Cu  Cu100  1  0.04404602  0.28045083  0.86426129  1
  Cu  Cu101  1  0.95595398  0.71954917  0.36426129  1
  Cu  Cu102  1  0.03488000  0.10259525  0.83067503  1
  Cu  Cu103  1  0.96512000  0.89740475  0.33067503  1
  Cu  Cu104  1  0.13513744  0.00596828  0.15925082  1
  Cu  Cu105  1  0.86486256  0.99403172  0.65925082  1
  Cu  Cu106  1  0.10275516  0.08625188  0.02013478  1
  Cu  Cu107  1  0.89724484  0.91374812  0.52013478  1
  Cu  Cu108  1  0.28758567  0.04032818  0.05888789  1
  Cu  Cu109  1  0.71241433  0.95967182  0.55888789  1
  Cu  Cu110  1  0.05943908  0.30531232  0.05531756  1
  Cu  Cu111  1  0.94056092  0.69468768  0.55531756  1
  Cu  Cu112  1  0.07991063  0.34488862  0.20887263  1
  Cu  Cu113  1  0.92008937  0.65511138  0.70887263  1
  Cu  Cu114  1  0.98473502  0.18909352  0.16467230  1
  Cu  Cu115  1  0.01526498  0.81090648  0.66467230  1
