# generated using pymatgen
data_CuNi2C19
_symmetry_space_group_name_H-M   'P 1'
_cell_length_a   9.12699200
_cell_length_b   11.01143900
_cell_length_c   14.91417639
_cell_angle_alpha   60.05004423
_cell_angle_beta   90.00000000
_cell_angle_gamma   90.00000000
_symmetry_Int_Tables_number   1
_chemical_formula_structural   CuNi2C19
_chemical_formula_sum   'Cu4 Ni8 C76'
_cell_volume   1298.73468372
_cell_formula_units_Z   4
loop_
 _symmetry_equiv_pos_site_id
 _symmetry_equiv_pos_as_xyz
  1  'x, y, z'
loop_
 _atom_site_type_symbol
 _atom_site_label
 _atom_site_symmetry_multiplicity
 _atom_site_fract_x
 _atom_site_fract_y
 _atom_site_fract_z
 _atom_site_occupancy
  Ni  Ni0  1  0.74537200  0.45582800  0.03808000  1
  Ni  Ni1  1  0.75462800  0.45582800  0.53808000  1
  Ni  Ni2  1  0.25462800  0.54417200  0.96192000  1
  Ni  Ni3  1  0.24537200  0.54417200  0.46192000  1
  Ni  Ni4  1  0.74708400  0.45626100  0.24500900  1
  Ni  Ni5  1  0.75291600  0.45626100  0.74500900  1
  Ni  Ni6  1  0.25291600  0.54373900  0.75499100  1
  Ni  Ni7  1  0.24708400  0.54373900  0.25499100  1
  Cu  Cu8  1  0.75027600  0.90225400  0.98082700  1
  Cu  Cu9  1  0.74972400  0.90225400  0.48082700  1
  Cu  Cu10  1  0.24972400  0.09774600  0.01917300  1
  Cu  Cu11  1  0.25027600  0.09774600  0.51917300  1
  C  C12  1  0.99696200  0.34818300  0.42780000  1
  C  C13  1  0.50303800  0.34818300  0.92780000  1
  C  C14  1  0.00303800  0.65181700  0.57220000  1
  C  C15  1  0.49696200  0.65181700  0.07220000  1
  C  C16  1  0.99913800  0.64408800  0.06942500  1
  C  C17  1  0.50086200  0.64408800  0.56942500  1
  C  C18  1  0.00086200  0.35591200  0.93057500  1
  C  C19  1  0.49913800  0.35591200  0.43057500  1
  C  C20  1  0.83819700  0.14454500  0.75674200  1
  C  C21  1  0.66180300  0.14454500  0.25674200  1
  C  C22  1  0.16180300  0.85545500  0.24325800  1
  C  C23  1  0.33819700  0.85545500  0.74325800  1
  C  C24  1  0.05843600  0.20637700  0.23073300  1
  C  C25  1  0.44156400  0.20637700  0.73073300  1
  C  C26  1  0.94156400  0.79362300  0.76926700  1
  C  C27  1  0.55843600  0.79362300  0.26926700  1
  C  C28  1  0.88930200  0.51440700  0.11931000  1
  C  C29  1  0.61069800  0.51440700  0.61931000  1
  C  C30  1  0.11069800  0.48559300  0.88069000  1
  C  C31  1  0.38930200  0.48559300  0.38069000  1
  C  C32  1  0.10443000  0.47865700  0.37972000  1
  C  C33  1  0.39557000  0.47865700  0.87972000  1
  C  C34  1  0.89557000  0.52134300  0.62028000  1
  C  C35  1  0.60443000  0.52134300  0.12028000  1
  C  C36  1  0.89720700  0.36293100  0.33803700  1
  C  C37  1  0.60279300  0.36293100  0.83803700  1
  C  C38  1  0.10279300  0.63706900  0.66196300  1
  C  C39  1  0.39720700  0.63706900  0.16196300  1
  C  C40  1  0.09693700  0.62878800  0.16010200  1
  C  C41  1  0.40306300  0.62878800  0.66010200  1
  C  C42  1  0.90306300  0.37121200  0.83989800  1
  C  C43  1  0.59693700  0.37121200  0.33989800  1
  C  C44  1  0.75339000  0.60920700  0.23329400  1
  C  C45  1  0.74661000  0.60920700  0.73329400  1
  C  C46  1  0.24661000  0.39079300  0.76670600  1
  C  C47  1  0.25339000  0.39079300  0.26670600  1
  C  C48  1  0.76605300  0.29562900  0.69893600  1
  C  C49  1  0.73394700  0.29562900  0.19893600  1
  C  C50  1  0.23394700  0.70437100  0.30106400  1
  C  C51  1  0.26605300  0.70437100  0.80106400  1
  C  C52  1  0.09816700  0.62446000  0.99263000  1
  C  C53  1  0.40183300  0.62446000  0.49263000  1
  C  C54  1  0.90183300  0.37554000  0.00737000  1
  C  C55  1  0.59816700  0.37554000  0.50737000  1
  C  C56  1  0.90043500  0.36798400  0.50568600  1
  C  C57  1  0.59956500  0.36798400  0.00568600  1
  C  C58  1  0.09956500  0.63201600  0.49431400  1
  C  C59  1  0.40043500  0.63201600  0.99431400  1
  C  C60  1  0.92407800  0.78311700  0.01491200  1
  C  C61  1  0.57592200  0.78311700  0.51491200  1
  C  C62  1  0.07592200  0.21688300  0.98508800  1
  C  C63  1  0.42407800  0.21688300  0.48508800  1
  C  C64  1  0.07243500  0.20933200  0.47788400  1
  C  C65  1  0.42756500  0.20933200  0.97788400  1
  C  C66  1  0.92756500  0.79066800  0.52211600  1
  C  C67  1  0.57243500  0.79066800  0.02211600  1
  C  C68  1  0.74017800  0.61152400  0.93955100  1
  C  C69  1  0.75982200  0.61152400  0.43955100  1
  C  C70  1  0.25982200  0.38847600  0.06044900  1
  C  C71  1  0.24017800  0.38847600  0.56044900  1
  C  C72  1  0.88101300  0.09522400  0.68040200  1
  C  C73  1  0.61898700  0.09522400  0.18040200  1
  C  C74  1  0.11898700  0.90477600  0.31959800  1
  C  C75  1  0.38101300  0.90477600  0.81959800  1
  C  C76  1  0.72614300  0.04559900  0.83747000  1
  C  C77  1  0.77385700  0.04559900  0.33747000  1
  C  C78  1  0.27385700  0.95440100  0.16253000  1
  C  C79  1  0.22614300  0.95440100  0.66253000  1
  C  C80  1  0.98854700  0.14559700  0.80311600  1
  C  C81  1  0.51145300  0.14559700  0.30311600  1
  C  C82  1  0.01145300  0.85440300  0.19688400  1
  C  C83  1  0.48854700  0.85440300  0.69688400  1
  C  C84  1  0.77416700  0.02451700  0.03992400  1
  C  C85  1  0.72583300  0.02451700  0.53992400  1
  C  C86  1  0.22583300  0.97548300  0.96007600  1
  C  C87  1  0.27416700  0.97548300  0.46007600  1
