# generated using pymatgen
data_Cu4NiC2
_symmetry_space_group_name_H-M   'P 1'
_cell_length_a   9.42884400
_cell_length_b   10.59256400
_cell_length_c   18.96761600
_cell_angle_alpha   90.00000000
_cell_angle_beta   90.00000000
_cell_angle_gamma   90.00000000
_symmetry_Int_Tables_number   1
_chemical_formula_structural   Cu4NiC2
_chemical_formula_sum   'Cu64 Ni16 C32'
_cell_volume   1894.40266429
_cell_formula_units_Z   16
loop_
 _symmetry_equiv_pos_site_id
 _symmetry_equiv_pos_as_xyz
  1  'x, y, z'
loop_
 _atom_site_type_symbol
 _atom_site_label
 _atom_site_symmetry_multiplicity
 _atom_site_fract_x
 _atom_site_fract_y
 _atom_site_fract_z
 _atom_site_occupancy
  C  C0  1  0.86447400  0.12521000  0.38659000  1
  C  C1  1  0.36447400  0.37479000  0.61341000  1
  C  C2  1  0.13552600  0.62521000  0.11341000  1
  C  C3  1  0.63552600  0.87479000  0.88659000  1
  C  C4  1  0.13552600  0.87479000  0.61341000  1
  C  C5  1  0.63552600  0.62521000  0.38659000  1
  C  C6  1  0.86447400  0.37479000  0.88659000  1
  C  C7  1  0.36447400  0.12521000  0.11341000  1
  C  C8  1  0.34198500  0.31879400  0.37946000  1
  C  C9  1  0.84198500  0.18120600  0.62054000  1
  C  C10  1  0.65801500  0.81879400  0.12054000  1
  C  C11  1  0.15801500  0.68120600  0.87946000  1
  C  C12  1  0.65801500  0.68120600  0.62054000  1
  C  C13  1  0.15801500  0.81879400  0.37946000  1
  C  C14  1  0.34198500  0.18120600  0.87946000  1
  C  C15  1  0.84198500  0.31879400  0.12054000  1
  C  C16  1  0.88265000  0.66254700  0.97593500  1
  C  C17  1  0.38265000  0.83745300  0.02406500  1
  C  C18  1  0.11735000  0.16254700  0.52406500  1
  C  C19  1  0.61735000  0.33745300  0.47593500  1
  C  C20  1  0.11735000  0.33745300  0.02406500  1
  C  C21  1  0.61735000  0.16254700  0.97593500  1
  C  C22  1  0.88265000  0.83745300  0.47593500  1
  C  C23  1  0.38265000  0.66254700  0.52406500  1
  C  C24  1  0.24696800  0.05223400  0.27234300  1
  C  C25  1  0.74696800  0.44776600  0.72765700  1
  C  C26  1  0.75303200  0.55223400  0.22765700  1
  C  C27  1  0.25303200  0.94776600  0.77234300  1
  C  C28  1  0.75303200  0.94776600  0.72765700  1
  C  C29  1  0.25303200  0.55223400  0.27234300  1
  C  C30  1  0.24696800  0.44776600  0.77234300  1
  C  C31  1  0.74696800  0.05223400  0.22765700  1
  Ni  Ni32  1  0.96594200  0.61430900  0.52538000  1
  Ni  Ni33  1  0.46594200  0.88569100  0.47462000  1
  Ni  Ni34  1  0.03405800  0.11430900  0.97462000  1
  Ni  Ni35  1  0.53405800  0.38569100  0.02538000  1
  Ni  Ni36  1  0.03405800  0.38569100  0.47462000  1
  Ni  Ni37  1  0.53405800  0.11430900  0.52538000  1
  Ni  Ni38  1  0.96594200  0.88569100  0.02538000  1
  Ni  Ni39  1  0.46594200  0.61430900  0.97462000  1
  Ni  Ni40  1  0.47598600  0.01161100  0.28759100  1
  Ni  Ni41  1  0.97598600  0.48838900  0.71240900  1
  Ni  Ni42  1  0.52401400  0.51161100  0.21240900  1
  Ni  Ni43  1  0.02401400  0.98838900  0.78759100  1
  Ni  Ni44  1  0.52401400  0.98838900  0.71240900  1
  Ni  Ni45  1  0.02401400  0.51161100  0.28759100  1
  Ni  Ni46  1  0.47598600  0.48838900  0.78759100  1
  Ni  Ni47  1  0.97598600  0.01161100  0.21240900  1
  Cu  Cu48  1  0.83137500  0.65023700  0.49002400  1
  Cu  Cu49  1  0.33137500  0.84976300  0.50997600  1
  Cu  Cu50  1  0.16862500  0.15023700  0.00997600  1
  Cu  Cu51  1  0.66862500  0.34976300  0.99002400  1
  Cu  Cu52  1  0.16862500  0.34976300  0.50997600  1
  Cu  Cu53  1  0.66862500  0.15023700  0.49002400  1
  Cu  Cu54  1  0.83137500  0.84976300  0.99002400  1
  Cu  Cu55  1  0.33137500  0.65023700  0.00997600  1
  Cu  Cu56  1  0.91483700  0.30305800  0.49635800  1
  Cu  Cu57  1  0.41483700  0.19694200  0.50364200  1
  Cu  Cu58  1  0.08516300  0.80305800  0.00364200  1
  Cu  Cu59  1  0.58516300  0.69694200  0.99635800  1
  Cu  Cu60  1  0.08516300  0.69694200  0.50364200  1
  Cu  Cu61  1  0.58516300  0.80305800  0.49635800  1
  Cu  Cu62  1  0.91483700  0.19694200  0.99635800  1
  Cu  Cu63  1  0.41483700  0.30305800  0.00364200  1
  Cu  Cu64  1  0.61831600  0.44587300  0.55498700  1
  Cu  Cu65  1  0.11831600  0.05412700  0.44501300  1
  Cu  Cu66  1  0.38168400  0.94587300  0.94501300  1
  Cu  Cu67  1  0.88168400  0.55412700  0.05498700  1
  Cu  Cu68  1  0.38168400  0.55412700  0.44501300  1
  Cu  Cu69  1  0.88168400  0.94587300  0.55498700  1
  Cu  Cu70  1  0.61831600  0.05412700  0.05498700  1
  Cu  Cu71  1  0.11831600  0.44587300  0.94501300  1
  Cu  Cu72  1  0.63075200  0.42941000  0.48156600  1
  Cu  Cu73  1  0.13075200  0.07059000  0.51843400  1
  Cu  Cu74  1  0.36924800  0.92941000  0.01843400  1
  Cu  Cu75  1  0.86924800  0.57059000  0.98156600  1
  Cu  Cu76  1  0.36924800  0.57059000  0.51843400  1
  Cu  Cu77  1  0.86924800  0.92941000  0.48156600  1
  Cu  Cu78  1  0.63075200  0.07059000  0.98156600  1
  Cu  Cu79  1  0.13075200  0.42941000  0.01843400  1
  Cu  Cu80  1  0.55961200  0.00049800  0.22162800  1
  Cu  Cu81  1  0.05961200  0.49950200  0.77837200  1
  Cu  Cu82  1  0.44038800  0.50049800  0.27837200  1
  Cu  Cu83  1  0.94038800  0.99950200  0.72162800  1
  Cu  Cu84  1  0.44038800  0.99950200  0.77837200  1
  Cu  Cu85  1  0.94038800  0.50049800  0.22162800  1
  Cu  Cu86  1  0.55961200  0.49950200  0.72162800  1
  Cu  Cu87  1  0.05961200  0.00049800  0.27837200  1
  Cu  Cu88  1  0.33890700  0.09774500  0.26511800  1
  Cu  Cu89  1  0.83890700  0.40225500  0.73488200  1
  Cu  Cu90  1  0.66109300  0.59774500  0.23488200  1
  Cu  Cu91  1  0.16109300  0.90225500  0.76511800  1
  Cu  Cu92  1  0.66109300  0.90225500  0.73488200  1
  Cu  Cu93  1  0.16109300  0.59774500  0.26511800  1
  Cu  Cu94  1  0.33890700  0.40225500  0.76511800  1
  Cu  Cu95  1  0.83890700  0.09774500  0.23488200  1
  Cu  Cu96  1  0.41686400  0.89128500  0.31144000  1
  Cu  Cu97  1  0.91686400  0.60871500  0.68856000  1
  Cu  Cu98  1  0.58313600  0.39128500  0.18856000  1
  Cu  Cu99  1  0.08313600  0.10871500  0.81144000  1
  Cu  Cu100  1  0.58313600  0.10871500  0.68856000  1
  Cu  Cu101  1  0.08313600  0.39128500  0.31144000  1
  Cu  Cu102  1  0.41686400  0.60871500  0.81144000  1
  Cu  Cu103  1  0.91686400  0.89128500  0.18856000  1
  Cu  Cu104  1  0.54957400  0.08614000  0.34074100  1
  Cu  Cu105  1  0.04957400  0.41386000  0.65925900  1
  Cu  Cu106  1  0.45042600  0.58614000  0.15925900  1
  Cu  Cu107  1  0.95042600  0.91386000  0.84074100  1
  Cu  Cu108  1  0.45042600  0.91386000  0.65925900  1
  Cu  Cu109  1  0.95042600  0.58614000  0.34074100  1
  Cu  Cu110  1  0.54957400  0.41386000  0.84074100  1
  Cu  Cu111  1  0.04957400  0.08614000  0.15925900  1
