# generated using pymatgen
data_Cu11Ni2C9
_symmetry_space_group_name_H-M   'P 1'
_cell_length_a   3.88694798
_cell_length_b   7.54889504
_cell_length_c   9.90764176
_cell_angle_alpha   78.41648759
_cell_angle_beta   90.03802996
_cell_angle_gamma   74.99351552
_symmetry_Int_Tables_number   1
_chemical_formula_structural   Cu11Ni2C9
_chemical_formula_sum   'Cu11 Ni2 C9'
_cell_volume   274.65212864
_cell_formula_units_Z   1
loop_
 _symmetry_equiv_pos_site_id
 _symmetry_equiv_pos_as_xyz
  1  'x, y, z'
loop_
 _atom_site_type_symbol
 _atom_site_label
 _atom_site_symmetry_multiplicity
 _atom_site_fract_x
 _atom_site_fract_y
 _atom_site_fract_z
 _atom_site_occupancy
  C  C0  1  0.52744600  0.94817200  0.54272100  1
  C  C1  1  0.44884200  0.11572400  0.19780600  1
  C  C2  1  0.54352500  0.92472900  0.89178700  1
  C  C3  1  0.13221200  0.74965600  0.14599300  1
  C  C4  1  0.19554600  0.62000400  0.43654500  1
  C  C5  1  0.22958400  0.55192800  0.77784900  1
  C  C6  1  0.77069500  0.47246200  0.24588600  1
  C  C7  1  0.85332900  0.30776300  0.58569600  1
  C  C8  1  0.87064000  0.27168200  0.93794700  1
  Ni  Ni9  1  0.26058700  0.49164100  0.28245500  1
  Ni  Ni10  1  0.83793900  0.33762400  0.10594500  1
  Cu  Cu11  1  0.07179000  0.86880500  0.30712000  1
  Cu  Cu12  1  0.13340800  0.73989200  0.61292000  1
  Cu  Cu13  1  0.15858000  0.69472500  0.90411200  1
  Cu  Cu14  1  0.63579900  0.74125000  0.12349100  1
  Cu  Cu15  1  0.70588400  0.60000100  0.45223600  1
  Cu  Cu16  1  0.76332800  0.48520300  0.76515000  1
  Cu  Cu17  1  0.32370200  0.36788700  0.58986400  1
  Cu  Cu18  1  0.37178500  0.26942500  0.89944800  1
  Cu  Cu19  1  0.90302200  0.21135600  0.42740200  1
  Cu  Cu20  1  0.96814000  0.08938800  0.71211500  1
  Cu  Cu21  1  0.00154600  0.00903200  0.01735100  1
