# generated using pymatgen
data_Cu8NiC32
_symmetry_space_group_name_H-M   'P 1'
_cell_length_a   7.92659834
_cell_length_b   7.89418903
_cell_length_c   11.00336459
_cell_angle_alpha   88.66193233
_cell_angle_beta   91.04765025
_cell_angle_gamma   93.85103325
_symmetry_Int_Tables_number   1
_chemical_formula_structural   Cu8NiC32
_chemical_formula_sum   'Cu8 Ni1 C32'
_cell_volume   686.68682946
_cell_formula_units_Z   1
loop_
 _symmetry_equiv_pos_site_id
 _symmetry_equiv_pos_as_xyz
  1  'x, y, z'
loop_
 _atom_site_type_symbol
 _atom_site_label
 _atom_site_symmetry_multiplicity
 _atom_site_fract_x
 _atom_site_fract_y
 _atom_site_fract_z
 _atom_site_occupancy
  C  C0  1  0.99144760  0.99361956  0.74692036  1
  C  C1  1  0.51350642  0.51656249  0.75381536  1
  C  C2  1  0.04149236  0.01115846  0.25351150  1
  C  C3  1  0.38956048  0.40322855  0.23769048  1
  C  C4  1  0.67342480  0.19585918  0.52144248  1
  C  C5  1  0.17654373  0.68308711  0.97514625  1
  C  C6  1  0.33575805  0.81320007  0.48202174  1
  C  C7  1  0.82733497  0.31830146  0.01639650  1
  Ni  Ni8  1  0.71279184  0.64898655  0.24440168  1
  Cu  Cu9  1  0.98873478  0.51847685  0.68348213  1
  Cu  Cu10  1  0.51397635  0.98924624  0.81689655  1
  Cu  Cu11  1  0.99742571  0.50535900  0.30921321  1
  Cu  Cu12  1  0.50005586  0.99188895  0.18981184  1
  Cu  Cu13  1  0.81544928  0.72576590  0.47688268  1
  Cu  Cu14  1  0.31346386  0.18763512  0.98096111  1
  Cu  Cu15  1  0.18299877  0.29696513  0.52547118  1
  Cu  Cu16  1  0.71330136  0.80178649  0.01867305  1
  C  C17  1  0.90120375  0.49920595  0.81545085  1
  C  C18  1  0.49379693  0.89914505  0.68618508  1
  C  C19  1  0.08920898  0.52325937  0.18033775  1
  C  C20  1  0.51154353  0.08579242  0.31912193  1
  C  C21  1  0.84702253  0.57254343  0.57885335  1
  C  C22  1  0.33447845  0.06421662  0.86272630  1
  C  C23  1  0.12241785  0.41802347  0.40890748  1
  C  C24  1  0.68077041  0.90819258  0.15287644  1
  C  C25  1  0.05315311  0.33485034  0.63730235  1
  C  C26  1  0.55627046  0.84530756  0.92376248  1
  C  C27  1  0.95509776  0.69917641  0.36081839  1
  C  C28  1  0.46415176  0.13351758  0.08043862  1
  C  C29  1  0.14053038  0.66292294  0.70676508  1
  C  C30  1  0.66262238  0.13649590  0.79123616  1
  C  C31  1  0.80780759  0.41545489  0.28771647  1
  C  C32  1  0.34633023  0.84933741  0.21377844  1
  C  C33  1  0.84747944  0.91598294  0.52420312  1
  C  C34  1  0.34101390  0.38911216  0.95385304  1
  C  C35  1  0.16561258  0.09728122  0.49161703  1
  C  C36  1  0.68148572  0.60883790  0.07114249  1
  C  C37  1  0.63277036  0.68578153  0.40878522  1
  C  C38  1  0.12445290  0.16486010  0.03558762  1
  C  C39  1  0.38001978  0.34514251  0.55380722  1
  C  C40  1  0.89849302  0.86109962  0.97198898  1
