# generated using pymatgen
data_Cu5Ni3C29
_symmetry_space_group_name_H-M   'P 1'
_cell_length_a   4.87409924
_cell_length_b   7.65782869
_cell_length_c   9.59429347
_cell_angle_alpha   89.69274219
_cell_angle_beta   90.40769913
_cell_angle_gamma   90.29030636
_symmetry_Int_Tables_number   1
_chemical_formula_structural   Cu5Ni3C29
_chemical_formula_sum   'Cu5 Ni3 C29'
_cell_volume   358.08842394
_cell_formula_units_Z   1
loop_
 _symmetry_equiv_pos_site_id
 _symmetry_equiv_pos_as_xyz
  1  'x, y, z'
loop_
 _atom_site_type_symbol
 _atom_site_label
 _atom_site_symmetry_multiplicity
 _atom_site_fract_x
 _atom_site_fract_y
 _atom_site_fract_z
 _atom_site_occupancy
  C  C0  1  0.99181500  0.39159900  0.83176300  1
  C  C1  1  0.00322400  0.89468400  0.66709000  1
  C  C2  1  0.01046500  0.60390300  0.16226400  1
  C  C3  1  0.97956500  0.11692600  0.33533500  1
  Ni  Ni4  1  0.53004100  0.73421700  0.91230500  1
  Ni  Ni5  1  0.53067100  0.75715100  0.41311100  1
  Ni  Ni6  1  0.46728700  0.26488800  0.08472800  1
  Cu  Cu7  1  0.56059800  0.09689300  0.83240700  1
  Cu  Cu8  1  0.43099900  0.58158200  0.65694900  1
  Cu  Cu9  1  0.42778900  0.91002100  0.15731600  1
  Cu  Cu10  1  0.56616500  0.40356100  0.34947600  1
  Cu  Cu11  1  0.48728200  0.25424900  0.59153100  1
  C  C12  1  0.19989900  0.03733300  0.92474700  1
  C  C13  1  0.80256800  0.52867500  0.57536600  1
  C  C14  1  0.80061800  0.96352000  0.07313500  1
  C  C15  1  0.19594300  0.45196200  0.43212900  1
  C  C16  1  0.43220000  0.03088700  0.50437100  1
  C  C17  1  0.66684900  0.19892700  0.95600700  1
  C  C18  1  0.32320700  0.69724300  0.54084100  1
  C  C19  1  0.32769300  0.80147000  0.03946800  1
  C  C20  1  0.66497700  0.30240700  0.46993500  1
  C  C21  1  0.28830700  0.11153300  0.53968500  1
  C  C22  1  0.76148200  0.60071300  0.96112600  1
  C  C23  1  0.74072000  0.90780200  0.46331700  1
  C  C24  1  0.24128300  0.40267800  0.03795900  1
  C  C25  1  0.66379100  0.17710300  0.70422200  1
  C  C26  1  0.32187900  0.65914400  0.78703200  1
  C  C27  1  0.32235700  0.83110800  0.28840600  1
  C  C28  1  0.67278700  0.32724000  0.21655100  1
  C  C29  1  0.32401100  0.40351800  0.64079900  1
  C  C30  1  0.67765400  0.91577200  0.84668600  1
  C  C31  1  0.69094200  0.58378400  0.35453400  1
  C  C32  1  0.30654200  0.08598900  0.14545700  1
  C  C33  1  0.25243100  0.08800800  0.83447500  1
  C  C34  1  0.73974300  0.58860400  0.65968700  1
  C  C35  1  0.73610600  0.91643800  0.16261300  1
  C  C36  1  0.25950500  0.41216900  0.34057800  1
