# generated using pymatgen
data_Cu3Ni2C19
_symmetry_space_group_name_H-M   'P 1'
_cell_length_a   2.90535600
_cell_length_b   5.14910200
_cell_length_c   14.55986206
_cell_angle_alpha   89.94772103
_cell_angle_beta   90.00000000
_cell_angle_gamma   90.00000000
_symmetry_Int_Tables_number   1
_chemical_formula_structural   Cu3Ni2C19
_chemical_formula_sum   'Cu3 Ni2 C19'
_cell_volume   217.81507289
_cell_formula_units_Z   1
loop_
 _symmetry_equiv_pos_site_id
 _symmetry_equiv_pos_as_xyz
  1  'x, y, z'
loop_
 _atom_site_type_symbol
 _atom_site_label
 _atom_site_symmetry_multiplicity
 _atom_site_fract_x
 _atom_site_fract_y
 _atom_site_fract_z
 _atom_site_occupancy
  C  C0  1  0.50000000  0.82694900  0.17543800  1
  C  C1  1  0.50000000  0.50851800  0.49470700  1
  C  C2  1  0.50000000  0.16622000  0.82850200  1
  C  C3  1  0.00000000  0.30530200  0.18651400  1
  C  C4  1  0.00000000  0.02391100  0.48952000  1
  C  C5  1  0.00000000  0.66568400  0.82726400  1
  C  C6  1  0.50000000  0.16511800  0.33450400  1
  Ni  Ni7  1  0.00000000  0.99740500  0.99995800  1
  Ni  Ni8  1  0.00000000  0.66726500  0.33395500  1
  Cu  Cu9  1  0.00000000  0.33571900  0.66540500  1
  Cu  Cu10  1  0.50000000  0.49687600  0.00036800  1
  Cu  Cu11  1  0.50000000  0.83651600  0.66523600  1
  C  C12  1  0.50000000  0.13645700  0.07502600  1
  C  C13  1  0.50000000  0.81787500  0.40622200  1
  C  C14  1  0.50000000  0.49518600  0.74479900  1
  C  C15  1  0.00000000  0.67599500  0.06956900  1
  C  C16  1  0.00000000  0.36504500  0.41134100  1
  C  C17  1  0.00000000  0.99563200  0.74369100  1
  C  C18  1  0.50000000  0.51294600  0.25892600  1
  C  C19  1  0.50000000  0.17853100  0.59037800  1
  C  C20  1  0.50000000  0.85890400  0.92394000  1
  C  C21  1  0.00000000  0.96941000  0.25524000  1
  C  C22  1  0.00000000  0.67924800  0.59193300  1
  C  C23  1  0.00000000  0.31929100  0.92756500  1
