# generated using pymatgen
data_Cu5Ni3C10
_symmetry_space_group_name_H-M   'P 1'
_cell_length_a   3.85627300
_cell_length_b   14.40026300
_cell_length_c   18.48352085
_cell_angle_alpha   69.53901770
_cell_angle_beta   90.00000000
_cell_angle_gamma   90.00000000
_symmetry_Int_Tables_number   1
_chemical_formula_structural   Cu5Ni3C10
_chemical_formula_sum   'Cu20 Ni12 C40'
_cell_volume   961.65874295
_cell_formula_units_Z   4
loop_
 _symmetry_equiv_pos_site_id
 _symmetry_equiv_pos_as_xyz
  1  'x, y, z'
loop_
 _atom_site_type_symbol
 _atom_site_label
 _atom_site_symmetry_multiplicity
 _atom_site_fract_x
 _atom_site_fract_y
 _atom_site_fract_z
 _atom_site_occupancy
  C  C0  1  0.85635400  0.66903500  0.51863300  1
  C  C1  1  0.14364600  0.33096500  0.48136700  1
  C  C2  1  0.35635400  0.83096500  0.48136700  1
  C  C3  1  0.64364600  0.16903500  0.51863300  1
  C  C4  1  0.89701200  0.95983000  0.37338400  1
  C  C5  1  0.10298800  0.04017000  0.62661600  1
  C  C6  1  0.39701200  0.54017000  0.62661600  1
  C  C7  1  0.60298800  0.45983000  0.37338400  1
  C  C8  1  0.81575300  0.03585800  0.41394900  1
  C  C9  1  0.18424700  0.96414200  0.58605100  1
  C  C10  1  0.31575300  0.46414200  0.58605100  1
  C  C11  1  0.68424700  0.53585800  0.41394900  1
  C  C12  1  0.44313500  0.22128500  0.15628800  1
  C  C13  1  0.55686500  0.77871500  0.84371200  1
  C  C14  1  0.94313500  0.27871500  0.84371200  1
  C  C15  1  0.05686500  0.72128500  0.15628800  1
  C  C16  1  0.86311100  0.88857300  0.13298500  1
  C  C17  1  0.13688900  0.11142700  0.86701500  1
  C  C18  1  0.36311100  0.61142700  0.86701500  1
  C  C19  1  0.63688900  0.38857300  0.13298500  1
  C  C20  1  0.94101800  0.81246500  0.10525100  1
  C  C21  1  0.05898200  0.18753500  0.89474900  1
  C  C22  1  0.44101800  0.68753500  0.89474900  1
  C  C23  1  0.55898200  0.31246500  0.10525100  1
  C  C24  1  0.90418700  0.87328400  0.21122700  1
  C  C25  1  0.09581300  0.12671600  0.78877300  1
  C  C26  1  0.40418700  0.62671600  0.78877300  1
  C  C27  1  0.59581300  0.37328400  0.21122700  1
  C  C28  1  0.55316200  0.73400000  0.65123300  1
  C  C29  1  0.44683800  0.26600000  0.34876700  1
  C  C30  1  0.05316200  0.76600000  0.34876700  1
  C  C31  1  0.94683800  0.23400000  0.65123300  1
  C  C32  1  0.58934900  0.79265500  0.76556900  1
  C  C33  1  0.41065100  0.20734500  0.23443100  1
  C  C34  1  0.08934900  0.70734500  0.23443100  1
  C  C35  1  0.91065100  0.29265500  0.76556900  1
  C  C36  1  0.48480500  0.28229400  0.26385400  1
  C  C37  1  0.51519500  0.71770600  0.73614600  1
  C  C38  1  0.98480500  0.21770600  0.73614600  1
  C  C39  1  0.01519500  0.78229400  0.26385400  1
  Ni  Ni40  1  0.91822500  0.68749100  0.39580800  1
  Ni  Ni41  1  0.08177500  0.31250900  0.60419200  1
  Ni  Ni42  1  0.41822500  0.81250900  0.60419200  1
  Ni  Ni43  1  0.58177500  0.18749100  0.39580800  1
  Ni  Ni44  1  0.84637700  0.96500500  0.42362100  1
  Ni  Ni45  1  0.15362300  0.03499500  0.57637900  1
  Ni  Ni46  1  0.34637700  0.53499500  0.57637900  1
  Ni  Ni47  1  0.65362300  0.46500500  0.42362100  1
  Ni  Ni48  1  0.71499700  0.66658900  0.63562700  1
  Ni  Ni49  1  0.28500300  0.33341100  0.36437300  1
  Ni  Ni50  1  0.21499700  0.83341100  0.36437300  1
  Ni  Ni51  1  0.78500300  0.16658900  0.63562700  1
  Cu  Cu52  1  0.82290900  0.94870900  0.23530800  1
  Cu  Cu53  1  0.17709100  0.05129100  0.76469200  1
  Cu  Cu54  1  0.32290900  0.55129100  0.76469200  1
  Cu  Cu55  1  0.67709100  0.44870900  0.23530800  1
  Cu  Cu56  1  0.13739800  0.64845100  0.12955600  1
  Cu  Cu57  1  0.86260200  0.35154900  0.87044400  1
  Cu  Cu58  1  0.63739800  0.85154900  0.87044400  1
  Cu  Cu59  1  0.36260200  0.14845100  0.12955600  1
  Cu  Cu60  1  0.70568500  0.88173900  0.71814400  1
  Cu  Cu61  1  0.29431500  0.11826100  0.28185600  1
  Cu  Cu62  1  0.20568500  0.61826100  0.28185600  1
  Cu  Cu63  1  0.79431500  0.38173900  0.71814400  1
  Cu  Cu64  1  0.90369200  0.82660500  0.02997400  1
  Cu  Cu65  1  0.09630800  0.17339500  0.97002600  1
  Cu  Cu66  1  0.40369200  0.67339500  0.97002600  1
  Cu  Cu67  1  0.59630800  0.32660500  0.02997400  1
  Cu  Cu68  1  0.74522100  0.97575000  0.08386100  1
  Cu  Cu69  1  0.25477900  0.02425000  0.91613900  1
  Cu  Cu70  1  0.24522100  0.52425000  0.91613900  1
  Cu  Cu71  1  0.75477900  0.47575000  0.08386100  1
