# generated using pymatgen
data_Cu12Ni4C9
_symmetry_space_group_name_H-M   'P 1'
_cell_length_a   8.35550000
_cell_length_b   8.41321938
_cell_length_c   8.43333447
_cell_angle_alpha   107.55085861
_cell_angle_beta   107.46001506
_cell_angle_gamma   107.10651423
_symmetry_Int_Tables_number   1
_chemical_formula_structural   Cu12Ni4C9
_chemical_formula_sum   'Cu12 Ni4 C9'
_cell_volume   488.60936937
_cell_formula_units_Z   1
loop_
 _symmetry_equiv_pos_site_id
 _symmetry_equiv_pos_as_xyz
  1  'x, y, z'
loop_
 _atom_site_type_symbol
 _atom_site_label
 _atom_site_symmetry_multiplicity
 _atom_site_fract_x
 _atom_site_fract_y
 _atom_site_fract_z
 _atom_site_occupancy
  C  C0  1  0.40295300  0.16941100  0.45976100  1
  C  C1  1  0.07204300  0.21731300  0.70320800  1
  C  C2  1  0.22908100  0.70266400  0.07487300  1
  C  C3  1  0.16601700  0.45563800  0.39338000  1
  C  C4  1  0.45840700  0.39855000  0.16890500  1
  C  C5  1  0.70562900  0.07465500  0.21883000  1
  C  C6  1  0.29731100  0.90923900  0.76180200  1
  C  C7  1  0.90911100  0.76057100  0.30361500  1
  C  C8  1  0.76270000  0.30065500  0.91469600  1
  Ni  Ni9  1  0.97469200  0.98554500  0.97835400  1
  Ni  Ni10  1  0.56403000  0.62286100  0.85086800  1
  Ni  Ni11  1  0.62085400  0.84195800  0.55648900  1
  Ni  Ni12  1  0.84206200  0.56216600  0.61431000  1
  Cu  Cu13  1  0.22378900  0.13272400  0.92545800  1
  Cu  Cu14  1  0.12678700  0.91700900  0.21677400  1
  Cu  Cu15  1  0.92026500  0.22102700  0.13468000  1
  Cu  Cu16  1  0.29195000  0.36639600  0.61038700  1
  Cu  Cu17  1  0.36327300  0.60963700  0.29669900  1
  Cu  Cu18  1  0.61728600  0.29463500  0.35808900  1
  Cu  Cu19  1  0.44986400  0.82504400  0.97819200  1
  Cu  Cu20  1  0.81446500  0.97642500  0.44010900  1
  Cu  Cu21  1  0.97474500  0.44488400  0.82130400  1
  Cu  Cu22  1  0.50952200  0.05235300  0.66833600  1
  Cu  Cu23  1  0.05218400  0.66109700  0.50784400  1
  Cu  Cu24  1  0.66257900  0.50914400  0.05463500  1
