# generated using pymatgen
data_Cu7NiC7
_symmetry_space_group_name_H-M   'P 1'
_cell_length_a   5.76104233
_cell_length_b   5.87481478
_cell_length_c   9.78276471
_cell_angle_alpha   102.93094240
_cell_angle_beta   94.79998461
_cell_angle_gamma   114.50305311
_symmetry_Int_Tables_number   1
_chemical_formula_structural   Cu7NiC7
_chemical_formula_sum   'Cu14 Ni2 C14'
_cell_volume   287.76594165
_cell_formula_units_Z   2
loop_
 _symmetry_equiv_pos_site_id
 _symmetry_equiv_pos_as_xyz
  1  'x, y, z'
loop_
 _atom_site_type_symbol
 _atom_site_label
 _atom_site_symmetry_multiplicity
 _atom_site_fract_x
 _atom_site_fract_y
 _atom_site_fract_z
 _atom_site_occupancy
  C  C0  1  0.24910300  0.26454900  0.99151200  1
  C  C1  1  0.75089700  0.73545100  0.00848800  1
  C  C2  1  0.80426200  0.45894400  0.73241600  1
  C  C3  1  0.19573800  0.54105600  0.26758400  1
  C  C4  1  0.28093400  0.94088500  0.72917300  1
  C  C5  1  0.71906600  0.05911500  0.27082700  1
  C  C6  1  0.36866100  0.59289300  0.58713100  1
  C  C7  1  0.63133900  0.40710700  0.41286900  1
  C  C8  1  0.94633100  0.19589000  0.56678400  1
  C  C9  1  0.05366900  0.80411000  0.43321600  1
  C  C10  1  0.70741400  0.26859500  0.98342600  1
  C  C11  1  0.29258600  0.73140500  0.01657400  1
  C  C12  1  0.68155300  0.36704400  0.14210000  1
  C  C13  1  0.31844700  0.63295600  0.85790000  1
  Ni  Ni14  1  0.82798500  0.89112400  0.71705600  1
  Ni  Ni15  1  0.17201500  0.10887600  0.28294400  1
  Cu  Cu16  1  0.20795100  0.06017400  0.77390400  1
  Cu  Cu17  1  0.79204900  0.93982600  0.22609600  1
  Cu  Cu18  1  0.64575500  0.38108800  0.04586900  1
  Cu  Cu19  1  0.35424500  0.61891200  0.95413100  1
  Cu  Cu20  1  0.44338900  0.74398800  0.67665700  1
  Cu  Cu21  1  0.55661100  0.25601200  0.32334300  1
  Cu  Cu22  1  0.82957600  0.06674500  0.89627000  1
  Cu  Cu23  1  0.17042400  0.93325500  0.10373000  1
  Cu  Cu24  1  0.84455400  0.18291400  0.64612300  1
  Cu  Cu25  1  0.15544600  0.81708600  0.35387700  1
  Cu  Cu26  1  0.83318200  0.70326300  0.54112100  1
  Cu  Cu27  1  0.16681800  0.29673700  0.45887900  1
  Cu  Cu28  1  0.80462500  0.61257100  0.80177900  1
  Cu  Cu29  1  0.19537500  0.38742900  0.19822100  1
