# generated using pymatgen
data_Cu(NiC4)2
_symmetry_space_group_name_H-M   'P 1'
_cell_length_a   5.12509554
_cell_length_b   19.48500003
_cell_length_c   5.12886893
_cell_angle_alpha   90.20089979
_cell_angle_beta   91.15264304
_cell_angle_gamma   90.22095123
_symmetry_Int_Tables_number   1
_chemical_formula_structural   Cu(NiC4)2
_chemical_formula_sum   'Cu4 Ni8 C32'
_cell_volume   512.07086925
_cell_formula_units_Z   4
loop_
 _symmetry_equiv_pos_site_id
 _symmetry_equiv_pos_as_xyz
  1  'x, y, z'
loop_
 _atom_site_type_symbol
 _atom_site_label
 _atom_site_symmetry_multiplicity
 _atom_site_fract_x
 _atom_site_fract_y
 _atom_site_fract_z
 _atom_site_occupancy
  C  C0  1  0.93894200  0.41905300  0.49230500  1
  C  C1  1  0.45503700  0.91661800  0.98775100  1
  C  C2  1  0.44979300  0.33444800  0.48802900  1
  C  C3  1  0.94589100  0.83091000  0.99112100  1
  C  C4  1  0.99381100  0.16853900  0.94561700  1
  C  C5  1  0.48581100  0.66692800  0.44653900  1
  C  C6  1  0.99385700  0.08192300  0.44468000  1
  C  C7  1  0.48489400  0.58371000  0.94683400  1
  Ni  Ni8  1  0.59763900  0.42080600  0.97273200  1
  Ni  Ni9  1  0.10263200  0.91650500  0.47246600  1
  Ni  Ni10  1  0.09494900  0.33461100  0.97339300  1
  Ni  Ni11  1  0.60272600  0.83044200  0.47193300  1
  Ni  Ni12  1  0.47853700  0.16851600  0.58882500  1
  Ni  Ni13  1  0.96854100  0.66855300  0.11058500  1
  Ni  Ni14  1  0.47941300  0.08312400  0.08721300  1
  Ni  Ni15  1  0.96640800  0.58170300  0.60973100  1
  Cu  Cu16  1  0.45914600  0.74942400  0.96143100  1
  Cu  Cu17  1  0.45354500  0.50099000  0.46217000  1
  Cu  Cu18  1  0.97419500  0.25099800  0.46885500  1
  Cu  Cu19  1  0.97682500  0.99935500  0.96647700  1
  C  C20  1  0.55763900  0.49585600  0.09955500  1
  C  C21  1  0.04960900  0.99187000  0.59340700  1
  C  C22  1  0.04358000  0.25949700  0.09607900  1
  C  C23  1  0.55947800  0.75556100  0.59793200  1
  C  C24  1  0.59918500  0.24387600  0.53488600  1
  C  C25  1  0.09829700  0.74336700  0.07267600  1
  C  C26  1  0.60314600  0.00839800  0.03146000  1
  C  C27  1  0.09272900  0.50669900  0.57175500  1
  C  C28  1  0.59329000  0.41922200  0.65459300  1
  C  C29  1  0.10309600  0.91405100  0.15398600  1
  C  C30  1  0.09449700  0.33642500  0.65443700  1
  C  C31  1  0.59909500  0.83175000  0.15367600  1
  C  C32  1  0.15989400  0.16544900  0.59132100  1
  C  C33  1  0.65015300  0.66769300  0.10304200  1
  C  C34  1  0.16016900  0.08473200  0.08890900  1
  C  C35  1  0.64810100  0.58300400  0.60233400  1
  C  C36  1  0.37768300  0.36569900  0.09275200  1
  C  C37  1  0.88519700  0.86117900  0.59222100  1
  C  C38  1  0.87810800  0.38983500  0.09290000  1
  C  C39  1  0.38541200  0.88608400  0.59207300  1
  C  C40  1  0.59809600  0.11254100  0.37280100  1
  C  C41  1  0.08704900  0.61416200  0.88899600  1
  C  C42  1  0.59817700  0.13957300  0.87343400  1
  C  C43  1  0.08721100  0.63597800  0.38922000  1
