# generated using pymatgen
data_Cu10Ni5C3
_symmetry_space_group_name_H-M   'P 1'
_cell_length_a   12.69883600
_cell_length_b   7.20091200
_cell_length_c   12.77167813
_cell_angle_alpha   87.05921606
_cell_angle_beta   90.00000000
_cell_angle_gamma   90.00000000
_symmetry_Int_Tables_number   1
_chemical_formula_structural   Cu10Ni5C3
_chemical_formula_sum   'Cu40 Ni20 C12'
_cell_volume   1166.34512938
_cell_formula_units_Z   4
loop_
 _symmetry_equiv_pos_site_id
 _symmetry_equiv_pos_as_xyz
  1  'x, y, z'
loop_
 _atom_site_type_symbol
 _atom_site_label
 _atom_site_symmetry_multiplicity
 _atom_site_fract_x
 _atom_site_fract_y
 _atom_site_fract_z
 _atom_site_occupancy
  C  C0  1  0.63847800  0.27314700  0.28047200  1
  C  C1  1  0.13847800  0.72685300  0.21952800  1
  C  C2  1  0.36152200  0.72685300  0.71952800  1
  C  C3  1  0.86152200  0.27314700  0.78047200  1
  C  C4  1  0.96412000  0.24342100  0.37499300  1
  C  C5  1  0.46412000  0.75657900  0.12500700  1
  C  C6  1  0.03588000  0.75657900  0.62500700  1
  C  C7  1  0.53588000  0.24342100  0.87499300  1
  C  C8  1  0.28788700  0.25512500  0.39992800  1
  C  C9  1  0.78788700  0.74487500  0.10007200  1
  C  C10  1  0.71211300  0.74487500  0.60007200  1
  C  C11  1  0.21211300  0.25512500  0.89992800  1
  Ni  Ni12  1  0.40257700  0.21237900  0.48598400  1
  Ni  Ni13  1  0.90257700  0.78762100  0.01401600  1
  Ni  Ni14  1  0.59742300  0.78762100  0.51401600  1
  Ni  Ni15  1  0.09742300  0.21237900  0.98598400  1
  Ni  Ni16  1  0.35748200  0.09757400  0.27967000  1
  Ni  Ni17  1  0.85748200  0.90242600  0.22033000  1
  Ni  Ni18  1  0.64251800  0.90242600  0.72033000  1
  Ni  Ni19  1  0.14251800  0.09757400  0.77967000  1
  Ni  Ni20  1  0.21072000  0.40720000  0.52027100  1
  Ni  Ni21  1  0.71072000  0.59280000  0.97972900  1
  Ni  Ni22  1  0.78928000  0.59280000  0.47972900  1
  Ni  Ni23  1  0.28928000  0.40720000  0.02027100  1
  Ni  Ni24  1  0.21240900  0.00403700  0.45774100  1
  Ni  Ni25  1  0.71240900  0.99596300  0.04225900  1
  Ni  Ni26  1  0.78759100  0.99596300  0.54225900  1
  Ni  Ni27  1  0.28759100  0.00403700  0.95774100  1
  Ni  Ni28  1  0.36863100  0.50103300  0.33771800  1
  Ni  Ni29  1  0.86863100  0.49896700  0.16228200  1
  Ni  Ni30  1  0.63136900  0.49896700  0.66228200  1
  Ni  Ni31  1  0.13136900  0.50103300  0.83771800  1
  Cu  Cu32  1  0.17825700  0.32408700  0.31685600  1
  Cu  Cu33  1  0.67825700  0.67591300  0.18314400  1
  Cu  Cu34  1  0.82174300  0.67591300  0.68314400  1
  Cu  Cu35  1  0.32174300  0.32408700  0.81685600  1
  Cu  Cu36  1  0.45447000  0.06902800  0.27776100  1
  Cu  Cu37  1  0.95447000  0.93097200  0.22223900  1
  Cu  Cu38  1  0.54553000  0.93097200  0.72223900  1
  Cu  Cu39  1  0.04553000  0.06902800  0.77776100  1
  Cu  Cu40  1  0.29893300  0.03099100  0.21307900  1
  Cu  Cu41  1  0.79893300  0.96900900  0.28692100  1
  Cu  Cu42  1  0.70106700  0.96900900  0.78692100  1
  Cu  Cu43  1  0.20106700  0.03099100  0.71307900  1
  Cu  Cu44  1  0.46556300  0.49129100  0.31904900  1
  Cu  Cu45  1  0.96556300  0.50870900  0.18095100  1
  Cu  Cu46  1  0.53443700  0.50870900  0.68095100  1
  Cu  Cu47  1  0.03443700  0.49129100  0.81904900  1
  Cu  Cu48  1  0.32074500  0.64974900  0.31741000  1
  Cu  Cu49  1  0.82074500  0.35025100  0.18259000  1
  Cu  Cu50  1  0.67925500  0.35025100  0.68259000  1
  Cu  Cu51  1  0.17925500  0.64974900  0.81741000  1
  Cu  Cu52  1  0.26350000  0.47383200  0.59109200  1
  Cu  Cu53  1  0.76350000  0.52616800  0.90890800  1
  Cu  Cu54  1  0.73650000  0.52616800  0.40890800  1
  Cu  Cu55  1  0.23650000  0.47383200  0.09109200  1
  Cu  Cu56  1  0.11280900  0.42747500  0.51659200  1
  Cu  Cu57  1  0.61280900  0.57252500  0.98340800  1
  Cu  Cu58  1  0.88719100  0.57252500  0.48340800  1
  Cu  Cu59  1  0.38719100  0.42747500  0.01659200  1
  Cu  Cu60  1  0.26411000  0.89099500  0.51395700  1
  Cu  Cu61  1  0.76411000  0.10900500  0.98604300  1
  Cu  Cu62  1  0.73589000  0.10900500  0.48604300  1
  Cu  Cu63  1  0.23589000  0.89099500  0.01395700  1
  Cu  Cu64  1  0.11833400  0.96986700  0.43514100  1
  Cu  Cu65  1  0.61833400  0.03013300  0.06485900  1
  Cu  Cu66  1  0.88166600  0.03013300  0.56485900  1
  Cu  Cu67  1  0.38166600  0.96986700  0.93514100  1
  Cu  Cu68  1  0.47823500  0.20149700  0.53811600  1
  Cu  Cu69  1  0.97823500  0.79850300  0.96188400  1
  Cu  Cu70  1  0.52176500  0.79850300  0.46188400  1
  Cu  Cu71  1  0.02176500  0.20149700  0.03811600  1
