# generated using pymatgen
data_Cu2NiC7
_symmetry_space_group_name_H-M   'P 1'
_cell_length_a   5.42227800
_cell_length_b   7.42881100
_cell_length_c   15.24526900
_cell_angle_alpha   90.00000000
_cell_angle_beta   90.00000000
_cell_angle_gamma   90.00000000
_symmetry_Int_Tables_number   1
_chemical_formula_structural   Cu2NiC7
_chemical_formula_sum   'Cu8 Ni4 C28'
_cell_volume   614.09587660
_cell_formula_units_Z   4
loop_
 _symmetry_equiv_pos_site_id
 _symmetry_equiv_pos_as_xyz
  1  'x, y, z'
loop_
 _atom_site_type_symbol
 _atom_site_label
 _atom_site_symmetry_multiplicity
 _atom_site_fract_x
 _atom_site_fract_y
 _atom_site_fract_z
 _atom_site_occupancy
  C  C0  1  0.25000000  0.07412600  0.88941600  1
  C  C1  1  0.25000000  0.42587400  0.38941600  1
  C  C2  1  0.75000000  0.92587400  0.11058400  1
  C  C3  1  0.75000000  0.57412600  0.61058400  1
  Ni  Ni4  1  0.75000000  0.69096600  0.87236300  1
  Ni  Ni5  1  0.75000000  0.80903400  0.37236300  1
  Ni  Ni6  1  0.25000000  0.30903400  0.12763700  1
  Ni  Ni7  1  0.25000000  0.19096600  0.62763700  1
  Cu  Cu8  1  0.25000000  0.61527700  0.97675200  1
  Cu  Cu9  1  0.25000000  0.88472300  0.47675200  1
  Cu  Cu10  1  0.75000000  0.38472300  0.02324800  1
  Cu  Cu11  1  0.75000000  0.11527700  0.52324800  1
  Cu  Cu12  1  0.25000000  0.49399800  0.77470400  1
  Cu  Cu13  1  0.25000000  0.00600200  0.27470400  1
  Cu  Cu14  1  0.75000000  0.50600200  0.22529600  1
  Cu  Cu15  1  0.75000000  0.99399800  0.72529600  1
  C  C16  1  0.25000000  0.57093600  0.08863400  1
  C  C17  1  0.25000000  0.92906400  0.58863400  1
  C  C18  1  0.75000000  0.42906400  0.91136600  1
  C  C19  1  0.75000000  0.07093600  0.41136600  1
  C  C20  1  0.00268000  0.76163500  0.96685300  1
  C  C21  1  0.49732000  0.73836500  0.46685300  1
  C  C22  1  0.50268000  0.23836500  0.03314700  1
  C  C23  1  0.99732000  0.26163500  0.53314700  1
  C  C24  1  0.99732000  0.23836500  0.03314700  1
  C  C25  1  0.50268000  0.26163500  0.53314700  1
  C  C26  1  0.49732000  0.76163500  0.96685300  1
  C  C27  1  0.00268000  0.73836500  0.46685300  1
  C  C28  1  0.25000000  0.45012300  0.66279000  1
  C  C29  1  0.25000000  0.04987700  0.16279000  1
  C  C30  1  0.75000000  0.54987700  0.33721000  1
  C  C31  1  0.75000000  0.95012300  0.83721000  1
  C  C32  1  0.00488500  0.64385600  0.77939100  1
  C  C33  1  0.49511500  0.85614400  0.27939100  1
  C  C34  1  0.50488500  0.35614400  0.22060900  1
  C  C35  1  0.99511500  0.14385600  0.72060900  1
  C  C36  1  0.99511500  0.35614400  0.22060900  1
  C  C37  1  0.50488500  0.14385600  0.72060900  1
  C  C38  1  0.49511500  0.64385600  0.77939100  1
  C  C39  1  0.00488500  0.85614400  0.27939100  1
