# generated using pymatgen
data_Cu(NiC10)2
_symmetry_space_group_name_H-M   'P 1'
_cell_length_a   9.05679600
_cell_length_b   10.72426600
_cell_length_c   11.92698400
_cell_angle_alpha   90.00000000
_cell_angle_beta   90.00000000
_cell_angle_gamma   90.00000000
_symmetry_Int_Tables_number   1
_chemical_formula_structural   Cu(NiC10)2
_chemical_formula_sum   'Cu4 Ni8 C80'
_cell_volume   1158.43801217
_cell_formula_units_Z   4
loop_
 _symmetry_equiv_pos_site_id
 _symmetry_equiv_pos_as_xyz
  1  'x, y, z'
loop_
 _atom_site_type_symbol
 _atom_site_label
 _atom_site_symmetry_multiplicity
 _atom_site_fract_x
 _atom_site_fract_y
 _atom_site_fract_z
 _atom_site_occupancy
  Ni  Ni0  1  0.11666000  0.22794200  0.32122600  1
  Ni  Ni1  1  0.88334000  0.77205800  0.67877400  1
  Ni  Ni2  1  0.88334000  0.77205800  0.32122600  1
  Ni  Ni3  1  0.38334000  0.72794200  0.17877400  1
  Ni  Ni4  1  0.11666000  0.22794200  0.67877400  1
  Ni  Ni5  1  0.61666000  0.27205800  0.82122600  1
  Ni  Ni6  1  0.61666000  0.27205800  0.17877400  1
  Ni  Ni7  1  0.38334000  0.72794200  0.82122600  1
  Cu  Cu8  1  0.00000000  0.00000000  0.00000000  1
  Cu  Cu9  1  0.50000000  0.50000000  0.50000000  1
  Cu  Cu10  1  0.00000000  0.50000000  0.00000000  1
  Cu  Cu11  1  0.50000000  0.00000000  0.50000000  1
  C  C12  1  0.00000000  0.00000000  0.26143400  1
  C  C13  1  0.00000000  0.00000000  0.73856600  1
  C  C14  1  0.50000000  0.50000000  0.23856600  1
  C  C15  1  0.50000000  0.50000000  0.76143400  1
  C  C16  1  0.17698700  0.24907900  0.00000000  1
  C  C17  1  0.82301300  0.75092100  0.00000000  1
  C  C18  1  0.32301300  0.74907900  0.50000000  1
  C  C19  1  0.67698700  0.25092100  0.50000000  1
  C  C20  1  0.39938300  0.15571700  0.29027200  1
  C  C21  1  0.60061700  0.84428300  0.70972800  1
  C  C22  1  0.60061700  0.84428300  0.29027200  1
  C  C23  1  0.10061700  0.65571700  0.20972800  1
  C  C24  1  0.39938300  0.15571700  0.70972800  1
  C  C25  1  0.89938300  0.34428300  0.79027200  1
  C  C26  1  0.89938300  0.34428300  0.20972800  1
  C  C27  1  0.10061700  0.65571700  0.79027200  1
  C  C28  1  0.70452500  0.14790300  0.00000000  1
  C  C29  1  0.29547500  0.85209700  0.00000000  1
  C  C30  1  0.79547500  0.64790300  0.50000000  1
  C  C31  1  0.20452500  0.35209700  0.50000000  1
  C  C32  1  0.31075700  0.11395500  0.36604600  1
  C  C33  1  0.68924300  0.88604500  0.63395400  1
  C  C34  1  0.68924300  0.88604500  0.36604600  1
  C  C35  1  0.18924300  0.61395500  0.13395400  1
  C  C36  1  0.31075700  0.11395500  0.63395400  1
  C  C37  1  0.81075700  0.38604500  0.86604600  1
  C  C38  1  0.81075700  0.38604500  0.13395400  1
  C  C39  1  0.18924300  0.61395500  0.86604600  1
  C  C40  1  0.03278500  0.24772700  0.00000000  1
  C  C41  1  0.96721500  0.75227300  0.00000000  1
  C  C42  1  0.46721500  0.74772700  0.50000000  1
  C  C43  1  0.53278500  0.25227300  0.50000000  1
  C  C44  1  0.03566200  0.37337400  0.20261200  1
  C  C45  1  0.96433800  0.62662600  0.79738800  1
  C  C46  1  0.96433800  0.62662600  0.20261200  1
  C  C47  1  0.46433800  0.87337400  0.29738800  1
  C  C48  1  0.03566200  0.37337400  0.79738800  1
  C  C49  1  0.53566200  0.12662600  0.70261200  1
  C  C50  1  0.53566200  0.12662600  0.29738800  1
  C  C51  1  0.46433800  0.87337400  0.70261200  1
  C  C52  1  0.24284400  0.14688100  0.00000000  1
  C  C53  1  0.75715600  0.85311900  0.00000000  1
  C  C54  1  0.25715600  0.64688100  0.50000000  1
  C  C55  1  0.74284400  0.35311900  0.50000000  1
  C  C56  1  0.59631900  0.22127000  0.00000000  1
  C  C57  1  0.40368100  0.77873000  0.00000000  1
  C  C58  1  0.90368100  0.72127000  0.50000000  1
  C  C59  1  0.09631900  0.27873000  0.50000000  1
  C  C60  1  0.00000000  0.00000000  0.36440200  1
  C  C61  1  0.00000000  0.00000000  0.63559800  1
  C  C62  1  0.50000000  0.50000000  0.13559800  1
  C  C63  1  0.50000000  0.50000000  0.86440200  1
  C  C64  1  0.24041700  0.35278700  0.00000000  1
  C  C65  1  0.75958300  0.64721300  0.00000000  1
  C  C66  1  0.25958300  0.85278700  0.50000000  1
  C  C67  1  0.74041700  0.14721300  0.50000000  1
  C  C68  1  0.26145500  0.38843500  0.40805000  1
  C  C69  1  0.73854500  0.61156500  0.59195000  1
  C  C70  1  0.73854500  0.61156500  0.40805000  1
  C  C71  1  0.23854500  0.88843500  0.09195000  1
  C  C72  1  0.26145500  0.38843500  0.59195000  1
  C  C73  1  0.76145500  0.11156500  0.90805000  1
  C  C74  1  0.76145500  0.11156500  0.09195000  1
  C  C75  1  0.23854500  0.88843500  0.90805000  1
  C  C76  1  0.05734100  0.08964900  0.20412600  1
  C  C77  1  0.94265900  0.91035100  0.79587400  1
  C  C78  1  0.94265900  0.91035100  0.20412600  1
  C  C79  1  0.44265900  0.58964900  0.29587400  1
  C  C80  1  0.05734100  0.08964900  0.79587400  1
  C  C81  1  0.55734100  0.41035100  0.70412600  1
  C  C82  1  0.55734100  0.41035100  0.29587400  1
  C  C83  1  0.44265900  0.58964900  0.70412600  1
  C  C84  1  0.35336300  0.22481600  0.21465000  1
  C  C85  1  0.64663700  0.77518400  0.78535000  1
  C  C86  1  0.64663700  0.77518400  0.21465000  1
  C  C87  1  0.14663700  0.72481600  0.28535000  1
  C  C88  1  0.35336300  0.22481600  0.78535000  1
  C  C89  1  0.85336300  0.27518400  0.71465000  1
  C  C90  1  0.85336300  0.27518400  0.28535000  1
  C  C91  1  0.14663700  0.72481600  0.71465000  1
