# generated using pymatgen
data_Cu4Ni4C15
_symmetry_space_group_name_H-M   'P 1'
_cell_length_a   9.90869488
_cell_length_b   8.05340079
_cell_length_c   7.57361794
_cell_angle_alpha   67.51704540
_cell_angle_beta   85.21804532
_cell_angle_gamma   66.76870821
_symmetry_Int_Tables_number   1
_chemical_formula_structural   Cu4Ni4C15
_chemical_formula_sum   'Cu4 Ni4 C15'
_cell_volume   511.52875046
_cell_formula_units_Z   1
loop_
 _symmetry_equiv_pos_site_id
 _symmetry_equiv_pos_as_xyz
  1  'x, y, z'
loop_
 _atom_site_type_symbol
 _atom_site_label
 _atom_site_symmetry_multiplicity
 _atom_site_fract_x
 _atom_site_fract_y
 _atom_site_fract_z
 _atom_site_occupancy
  C  C0  1  0.50000000  0.00000000  0.50000000  1
  Ni  Ni1  1  0.10641900  0.37270200  0.85831900  1
  Ni  Ni2  1  0.89358100  0.62729800  0.14168100  1
  Ni  Ni3  1  0.90147200  0.14272700  0.78620200  1
  Ni  Ni4  1  0.09852800  0.85727300  0.21379800  1
  Cu  Cu5  1  0.31733700  0.58076200  0.72065600  1
  Cu  Cu6  1  0.68266300  0.41923800  0.27934400  1
  Cu  Cu7  1  0.56034200  0.16482200  0.82726500  1
  Cu  Cu8  1  0.43965800  0.83517800  0.17273500  1
  C  C9  1  0.44417000  0.37244100  0.79324200  1
  C  C10  1  0.55583000  0.62755900  0.20675800  1
  C  C11  1  0.27215300  0.65786200  0.87377600  1
  C  C12  1  0.72784700  0.34213800  0.12622400  1
  C  C13  1  0.16523500  0.27084900  0.00711900  1
  C  C14  1  0.83476500  0.72915100  0.99288100  1
  C  C15  1  0.92497900  0.18477200  0.62828000  1
  C  C16  1  0.07502100  0.81522800  0.37172000  1
  C  C17  1  0.57861000  0.10779000  0.65585300  1
  C  C18  1  0.42139000  0.89221000  0.34414700  1
  C  C19  1  0.29019500  0.09251000  0.57973900  1
  C  C20  1  0.70980500  0.90749000  0.42026100  1
  C  C21  1  0.31159300  0.22624600  0.42741000  1
  C  C22  1  0.68840700  0.77375400  0.57259000  1
