# generated using pymatgen
data_Cu3Ni3C13
_symmetry_space_group_name_H-M   'P 1'
_cell_length_a   7.38763078
_cell_length_b   7.53908890
_cell_length_c   8.92358230
_cell_angle_alpha   73.08148978
_cell_angle_beta   74.58086437
_cell_angle_gamma   88.78038559
_symmetry_Int_Tables_number   1
_chemical_formula_structural   Cu3Ni3C13
_chemical_formula_sum   'Cu6 Ni6 C26'
_cell_volume   457.53401781
_cell_formula_units_Z   2
loop_
 _symmetry_equiv_pos_site_id
 _symmetry_equiv_pos_as_xyz
  1  'x, y, z'
loop_
 _atom_site_type_symbol
 _atom_site_label
 _atom_site_symmetry_multiplicity
 _atom_site_fract_x
 _atom_site_fract_y
 _atom_site_fract_z
 _atom_site_occupancy
  C  C0  1  0.00186700  0.37511100  0.25390500  1
  C  C1  1  0.99813300  0.62488900  0.74609500  1
  C  C2  1  0.66048000  0.25390500  0.29744100  1
  C  C3  1  0.33952000  0.74609500  0.70255900  1
  C  C4  1  0.74599200  0.38095900  0.46968800  1
  C  C5  1  0.25400800  0.61904100  0.53031200  1
  C  C6  1  0.81283800  0.17548700  0.49540200  1
  C  C7  1  0.18716200  0.82451300  0.50459800  1
  C  C8  1  0.07037600  0.66641000  0.27876100  1
  C  C9  1  0.92962400  0.33359000  0.72123900  1
  C  C10  1  0.17405800  0.73714500  0.06246100  1
  C  C11  1  0.82594200  0.26285500  0.93753900  1
  C  C12  1  0.92681000  0.67322200  0.14194400  1
  C  C13  1  0.07319000  0.32677800  0.85805600  1
  C  C14  1  0.54115300  0.94187200  0.32416800  1
  C  C15  1  0.45884700  0.05812800  0.67583200  1
  C  C16  1  0.61283800  0.01579000  0.10589300  1
  C  C17  1  0.38716200  0.98421000  0.89410700  1
  C  C18  1  0.78493300  0.00757800  0.21795400  1
  C  C19  1  0.21506700  0.99242200  0.78204600  1
  C  C20  1  0.35993100  0.34662400  0.18816900  1
  C  C21  1  0.64006900  0.65337600  0.81183100  1
  C  C22  1  0.06629300  0.64709200  0.16271000  1
  C  C23  1  0.93370700  0.35290800  0.83729000  1
  C  C24  1  0.63871100  0.03483100  0.21579800  1
  C  C25  1  0.36128900  0.96516900  0.78420200  1
  Ni  Ni26  1  0.18594500  0.06067500  0.26409900  1
  Ni  Ni27  1  0.81405500  0.93932500  0.73590100  1
  Ni  Ni28  1  0.28142200  0.35178000  0.45905600  1
  Ni  Ni29  1  0.71857800  0.64822000  0.54094400  1
  Ni  Ni30  1  0.54285800  0.63520400  0.09435700  1
  Ni  Ni31  1  0.45714200  0.36479600  0.90564300  1
  Cu  Cu32  1  0.10365300  0.45621200  0.16261800  1
  Cu  Cu33  1  0.89634700  0.54378800  0.83738200  1
  Cu  Cu34  1  0.61330200  0.22842500  0.20876300  1
  Cu  Cu35  1  0.38669800  0.77157500  0.79123700  1
  Cu  Cu36  1  0.79182600  0.28751600  0.41211800  1
  Cu  Cu37  1  0.20817400  0.71248400  0.58788200  1
