# generated using pymatgen
data_CuNiC6
_symmetry_space_group_name_H-M   'P 1'
_cell_length_a   5.69341800
_cell_length_b   7.54884600
_cell_length_c   9.68653900
_cell_angle_alpha   90.00000000
_cell_angle_beta   90.00000000
_cell_angle_gamma   90.00000000
_symmetry_Int_Tables_number   1
_chemical_formula_structural   CuNiC6
_chemical_formula_sum   'Cu4 Ni4 C24'
_cell_volume   416.31519949
_cell_formula_units_Z   4
loop_
 _symmetry_equiv_pos_site_id
 _symmetry_equiv_pos_as_xyz
  1  'x, y, z'
loop_
 _atom_site_type_symbol
 _atom_site_label
 _atom_site_symmetry_multiplicity
 _atom_site_fract_x
 _atom_site_fract_y
 _atom_site_fract_z
 _atom_site_occupancy
  C  C0  1  0.48161800  0.66736500  0.32649100  1
  C  C1  1  0.01838200  0.33263500  0.82649100  1
  C  C2  1  0.51838200  0.16736500  0.17350900  1
  C  C3  1  0.98161800  0.83263500  0.67350900  1
  Ni  Ni4  1  0.74935400  0.74846400  0.99846600  1
  Ni  Ni5  1  0.75064600  0.25153600  0.49846600  1
  Ni  Ni6  1  0.25064600  0.24846400  0.50153400  1
  Ni  Ni7  1  0.24935400  0.75153600  0.00153400  1
  Cu  Cu8  1  0.98002600  0.40746200  0.16940000  1
  Cu  Cu9  1  0.51997400  0.59253800  0.66940000  1
  Cu  Cu10  1  0.01997400  0.90746200  0.33060000  1
  Cu  Cu11  1  0.48002600  0.09253800  0.83060000  1
  C  C12  1  0.00065500  0.58977500  0.04599400  1
  C  C13  1  0.49934500  0.41022500  0.54599400  1
  C  C14  1  0.99934500  0.08977500  0.45400600  1
  C  C15  1  0.50065500  0.91022500  0.95400600  1
  C  C16  1  0.90858100  0.23877900  0.06115300  1
  C  C17  1  0.59141900  0.76122100  0.56115300  1
  C  C18  1  0.09141900  0.73877900  0.43884700  1
  C  C19  1  0.40858100  0.26122100  0.93884700  1
  C  C20  1  0.24578000  0.39633100  0.24854400  1
  C  C21  1  0.25422000  0.60366900  0.74854400  1
  C  C22  1  0.75422000  0.89633100  0.25145600  1
  C  C23  1  0.74578000  0.10366900  0.75145600  1
  C  C24  1  0.74922200  0.43178700  0.27934700  1
  C  C25  1  0.75077800  0.56821300  0.77934700  1
  C  C26  1  0.25077800  0.93178700  0.22065300  1
  C  C27  1  0.24922200  0.06821300  0.72065300  1
  C  C28  1  0.49913200  0.63329800  0.07718600  1
  C  C29  1  0.00086800  0.36670200  0.57718600  1
  C  C30  1  0.50086800  0.13329800  0.42281400  1
  C  C31  1  0.99913200  0.86670200  0.92281400  1
