# generated using pymatgen
data_CuNiC16
_symmetry_space_group_name_H-M   'P 1'
_cell_length_a   7.28968620
_cell_length_b   7.28968620
_cell_length_c   10.07134225
_cell_angle_alpha   66.96473160
_cell_angle_beta   66.96473160
_cell_angle_gamma   70.23063238
_symmetry_Int_Tables_number   1
_chemical_formula_structural   CuNiC16
_chemical_formula_sum   'Cu2 Ni2 C32'
_cell_volume   442.28103260
_cell_formula_units_Z   2
loop_
 _symmetry_equiv_pos_site_id
 _symmetry_equiv_pos_as_xyz
  1  'x, y, z'
loop_
 _atom_site_type_symbol
 _atom_site_label
 _atom_site_symmetry_multiplicity
 _atom_site_fract_x
 _atom_site_fract_y
 _atom_site_fract_z
 _atom_site_occupancy
  Ni  Ni0  1  0.95320400  0.04679600  0.25000000  1
  Ni  Ni1  1  0.04679600  0.95320400  0.75000000  1
  Cu  Cu2  1  0.00000000  0.50000000  0.00000000  1
  Cu  Cu3  1  0.50000000  0.00000000  0.50000000  1
  C  C4  1  0.70464900  0.68425200  0.30568200  1
  C  C5  1  0.31574800  0.29535100  0.19431800  1
  C  C6  1  0.29535100  0.31574800  0.69431800  1
  C  C7  1  0.68425200  0.70464900  0.80568200  1
  C  C8  1  0.74537500  0.26816700  0.52405000  1
  C  C9  1  0.73183300  0.25462500  0.97595000  1
  C  C10  1  0.25462500  0.73183300  0.47595000  1
  C  C11  1  0.26816700  0.74537500  0.02405000  1
  C  C12  1  0.46737200  0.68492300  0.34988300  1
  C  C13  1  0.31507700  0.53262800  0.15011700  1
  C  C14  1  0.53262800  0.31507700  0.65011700  1
  C  C15  1  0.68492300  0.46737200  0.84988300  1
  C  C16  1  0.78482800  0.49514500  0.43587800  1
  C  C17  1  0.50485500  0.21517200  0.06412200  1
  C  C18  1  0.21517200  0.50485500  0.56412200  1
  C  C19  1  0.49514500  0.78482800  0.93587800  1
  C  C20  1  0.80690800  0.65035300  0.15535400  1
  C  C21  1  0.34964700  0.19309200  0.34464600  1
  C  C22  1  0.19309200  0.34964700  0.84464600  1
  C  C23  1  0.65035300  0.80690800  0.65535400  1
  C  C24  1  0.72128100  0.87415700  0.32504300  1
  C  C25  1  0.12584300  0.27871900  0.17495700  1
  C  C26  1  0.27871900  0.12584300  0.67495700  1
  C  C27  1  0.87415700  0.72128100  0.82504300  1
  C  C28  1  0.71518300  0.18580800  0.41783300  1
  C  C29  1  0.81419200  0.28481700  0.08216700  1
  C  C30  1  0.28481700  0.81419200  0.58216700  1
  C  C31  1  0.18580800  0.71518300  0.91783300  1
  C  C32  1  0.90660200  0.15147600  0.59808900  1
  C  C33  1  0.84852400  0.09339800  0.90191100  1
  C  C34  1  0.09339800  0.84852400  0.40191100  1
  C  C35  1  0.15147600  0.90660200  0.09808900  1
