# generated using pymatgen
data_CuNiC5
_symmetry_space_group_name_H-M   'P 1'
_cell_length_a   9.61966900
_cell_length_b   5.15566700
_cell_length_c   7.40567610
_cell_angle_alpha   69.39802697
_cell_angle_beta   90.00000000
_cell_angle_gamma   90.00000000
_symmetry_Int_Tables_number   1
_chemical_formula_structural   CuNiC5
_chemical_formula_sum   'Cu4 Ni4 C20'
_cell_volume   343.80132915
_cell_formula_units_Z   4
loop_
 _symmetry_equiv_pos_site_id
 _symmetry_equiv_pos_as_xyz
  1  'x, y, z'
loop_
 _atom_site_type_symbol
 _atom_site_label
 _atom_site_symmetry_multiplicity
 _atom_site_fract_x
 _atom_site_fract_y
 _atom_site_fract_z
 _atom_site_occupancy
  Ni  Ni0  1  0.01391100  0.52319100  0.74660100  1
  Ni  Ni1  1  0.51391100  0.47680900  0.75339900  1
  Ni  Ni2  1  0.98608900  0.47680900  0.25339900  1
  Ni  Ni3  1  0.48608900  0.52319100  0.24660100  1
  Cu  Cu4  1  0.75448300  0.10053600  0.60152700  1
  Cu  Cu5  1  0.25448300  0.89946400  0.89847300  1
  Cu  Cu6  1  0.24551700  0.89946400  0.39847300  1
  Cu  Cu7  1  0.74551700  0.10053600  0.10152700  1
  C  C8  1  0.88710500  0.39850700  0.55695600  1
  C  C9  1  0.38710500  0.60149300  0.94304400  1
  C  C10  1  0.11289500  0.60149300  0.44304400  1
  C  C11  1  0.61289500  0.39850700  0.05695600  1
  C  C12  1  0.60760300  0.36352600  0.50177800  1
  C  C13  1  0.10760300  0.63647400  0.99822200  1
  C  C14  1  0.39239700  0.63647400  0.49822200  1
  C  C15  1  0.89239700  0.36352600  0.00177800  1
  C  C16  1  0.40536400  0.14192500  0.80577600  1
  C  C17  1  0.90536400  0.85807500  0.69422400  1
  C  C18  1  0.59463600  0.85807500  0.19422400  1
  C  C19  1  0.09463600  0.14192500  0.30577600  1
  C  C20  1  0.12839300  0.19882100  0.85224700  1
  C  C21  1  0.62839300  0.80117900  0.64775300  1
  C  C22  1  0.87160700  0.80117900  0.14775300  1
  C  C23  1  0.37160700  0.19882100  0.35224700  1
  C  C24  1  0.69863500  0.14531400  0.83969800  1
  C  C25  1  0.19863500  0.85468600  0.66030200  1
  C  C26  1  0.30136500  0.85468600  0.16030200  1
  C  C27  1  0.80136500  0.14531400  0.33969800  1
