# generated using pymatgen
data_CuNiC9
_symmetry_space_group_name_H-M   'P 1'
_cell_length_a   11.01625300
_cell_length_b   7.79844100
_cell_length_c   8.75211424
_cell_angle_alpha   74.49268179
_cell_angle_beta   90.00000000
_cell_angle_gamma   90.00000000
_symmetry_Int_Tables_number   1
_chemical_formula_structural   CuNiC9
_chemical_formula_sum   'Cu4 Ni4 C36'
_cell_volume   724.51903323
_cell_formula_units_Z   4
loop_
 _symmetry_equiv_pos_site_id
 _symmetry_equiv_pos_as_xyz
  1  'x, y, z'
loop_
 _atom_site_type_symbol
 _atom_site_label
 _atom_site_symmetry_multiplicity
 _atom_site_fract_x
 _atom_site_fract_y
 _atom_site_fract_z
 _atom_site_occupancy
  Ni  Ni0  1  0.18008900  0.30981800  0.56070000  1
  Ni  Ni1  1  0.68008900  0.69018200  0.93930000  1
  Ni  Ni2  1  0.81991100  0.69018200  0.43930000  1
  Ni  Ni3  1  0.31991100  0.30981800  0.06070000  1
  Cu  Cu4  1  0.09764400  0.73386800  0.74864800  1
  Cu  Cu5  1  0.59764400  0.26613200  0.75135200  1
  Cu  Cu6  1  0.90235600  0.26613200  0.25135200  1
  Cu  Cu7  1  0.40235600  0.73386800  0.24864800  1
  C  C8  1  0.10004600  0.63058700  0.18373800  1
  C  C9  1  0.60004600  0.36941300  0.31626200  1
  C  C10  1  0.89995400  0.36941300  0.81626200  1
  C  C11  1  0.39995400  0.63058700  0.68373800  1
  C  C12  1  0.13789900  0.93703300  0.31442500  1
  C  C13  1  0.63789900  0.06296700  0.18557500  1
  C  C14  1  0.86210100  0.06296700  0.68557500  1
  C  C15  1  0.36210100  0.93703300  0.81442500  1
  C  C16  1  0.09119500  0.64329500  0.00798800  1
  C  C17  1  0.59119500  0.35670500  0.49201200  1
  C  C18  1  0.90880500  0.35670500  0.99201200  1
  C  C19  1  0.40880500  0.64329500  0.50798800  1
  C  C20  1  0.11060400  0.83273100  0.48508800  1
  C  C21  1  0.61060400  0.16726900  0.01491200  1
  C  C22  1  0.88939600  0.16726900  0.51491200  1
  C  C23  1  0.38939600  0.83273100  0.98508800  1
  C  C24  1  0.92091100  0.87837800  0.73280400  1
  C  C25  1  0.42091100  0.12162200  0.76719600  1
  C  C26  1  0.07908900  0.12162200  0.26719600  1
  C  C27  1  0.57908900  0.87837800  0.23280400  1
  C  C28  1  0.27228100  0.57740900  0.75164200  1
  C  C29  1  0.77228100  0.42259100  0.74835800  1
  C  C30  1  0.72771900  0.42259100  0.24835800  1
  C  C31  1  0.22771900  0.57740900  0.25164200  1
  C  C32  1  0.99782400  0.49164500  0.71845000  1
  C  C33  1  0.49782400  0.50835500  0.78155000  1
  C  C34  1  0.00217600  0.50835500  0.28155000  1
  C  C35  1  0.50217600  0.49164500  0.21845000  1
  C  C36  1  0.22672700  0.94842400  0.77181900  1
  C  C37  1  0.72672700  0.05157600  0.72818100  1
  C  C38  1  0.77327300  0.05157600  0.22818100  1
  C  C39  1  0.27327300  0.94842400  0.27181900  1
  C  C40  1  0.07073500  0.82947800  0.20091300  1
  C  C41  1  0.57073500  0.17052200  0.29908700  1
  C  C42  1  0.92926500  0.17052200  0.79908700  1
  C  C43  1  0.42926500  0.82947800  0.70091300  1
