# generated using pymatgen
data_CuNiC3
_symmetry_space_group_name_H-M   'P 1'
_cell_length_a   15.47897893
_cell_length_b   15.47897893
_cell_length_c   15.47897935
_cell_angle_alpha   90.20473349
_cell_angle_beta   90.20473349
_cell_angle_gamma   90.20473612
_symmetry_Int_Tables_number   1
_chemical_formula_structural   CuNiC3
_chemical_formula_sum   'Cu1 Ni1 C3'
_cell_volume   3708.67350250
_cell_formula_units_Z   1
loop_
 _symmetry_equiv_pos_site_id
 _symmetry_equiv_pos_as_xyz
  1  'x, y, z'
loop_
 _atom_site_type_symbol
 _atom_site_label
 _atom_site_symmetry_multiplicity
 _atom_site_fract_x
 _atom_site_fract_y
 _atom_site_fract_z
 _atom_site_occupancy
  C  C0  1  0.51645800  0.43408500  0.43408500  1
  C  C1  1  0.43408500  0.51645800  0.43408500  1
  C  C2  1  0.43408500  0.43408500  0.51645800  1
  Ni  Ni3  1  0.47374000  0.47374000  0.47374000  1
  Cu  Cu4  1  0.55427800  0.55427800  0.55427800  1
