# generated using pymatgen
data_CuNiC2
_symmetry_space_group_name_H-M   'P 1'
_cell_length_a   7.16636762
_cell_length_b   7.16636762
_cell_length_c   7.16636762
_cell_angle_alpha   131.51594630
_cell_angle_beta   131.39337116
_cell_angle_gamma   71.09175582
_symmetry_Int_Tables_number   1
_chemical_formula_structural   CuNiC2
_chemical_formula_sum   'Cu2 Ni2 C4'
_cell_volume   202.41658729
_cell_formula_units_Z   2
loop_
 _symmetry_equiv_pos_site_id
 _symmetry_equiv_pos_as_xyz
  1  'x, y, z'
loop_
 _atom_site_type_symbol
 _atom_site_label
 _atom_site_symmetry_multiplicity
 _atom_site_fract_x
 _atom_site_fract_y
 _atom_site_fract_z
 _atom_site_occupancy
  C  C0  1  0.13372600  0.88372600  0.25000000  1
  C  C1  1  0.36627400  0.61627400  0.75000000  1
  C  C2  1  0.63422600  0.38422600  0.25000000  1
  C  C3  1  0.86577400  0.11577400  0.75000000  1
  Ni  Ni4  1  0.25000000  0.48652300  0.23652300  1
  Ni  Ni5  1  0.75000000  0.01347700  0.26347700  1
  Cu  Cu6  1  0.50590400  0.25000000  0.75590400  1
  Cu  Cu7  1  0.99409600  0.75000000  0.74409600  1
