# generated using pymatgen
data_Cu15NiC9
_symmetry_space_group_name_H-M   'P 1'
_cell_length_a   13.24361600
_cell_length_b   13.24361600
_cell_length_c   13.24361600
_cell_angle_alpha   90.00000000
_cell_angle_beta   90.00000000
_cell_angle_gamma   90.00000000
_symmetry_Int_Tables_number   1
_chemical_formula_structural   Cu15NiC9
_chemical_formula_sum   'Cu60 Ni4 C36'
_cell_volume   2322.84237177
_cell_formula_units_Z   4
loop_
 _symmetry_equiv_pos_site_id
 _symmetry_equiv_pos_as_xyz
  1  'x, y, z'
loop_
 _atom_site_type_symbol
 _atom_site_label
 _atom_site_symmetry_multiplicity
 _atom_site_fract_x
 _atom_site_fract_y
 _atom_site_fract_z
 _atom_site_occupancy
  C  C0  1  0.33857000  0.33857000  0.33857000  1
  C  C1  1  0.16143000  0.66143000  0.83857000  1
  C  C2  1  0.66143000  0.83857000  0.16143000  1
  C  C3  1  0.83857000  0.16143000  0.66143000  1
  C  C4  1  0.17715100  0.17715100  0.17715100  1
  C  C5  1  0.32284900  0.82284900  0.67715100  1
  C  C6  1  0.82284900  0.67715100  0.32284900  1
  C  C7  1  0.67715100  0.32284900  0.82284900  1
  C  C8  1  0.50942500  0.50942500  0.50942500  1
  C  C9  1  0.99057500  0.49057500  0.00942500  1
  C  C10  1  0.49057500  0.00942500  0.99057500  1
  C  C11  1  0.00942500  0.99057500  0.49057500  1
  C  C12  1  0.15234700  0.58210200  0.21644300  1
  C  C13  1  0.34765300  0.41789800  0.71644300  1
  C  C14  1  0.84765300  0.08210200  0.28355700  1
  C  C15  1  0.21644300  0.15234700  0.58210200  1
  C  C16  1  0.65234700  0.91789800  0.78355700  1
  C  C17  1  0.71644300  0.34765300  0.41789800  1
  C  C18  1  0.28355700  0.84765300  0.08210200  1
  C  C19  1  0.78355700  0.65234700  0.91789800  1
  C  C20  1  0.58210200  0.21644300  0.15234700  1
  C  C21  1  0.08210200  0.28355700  0.84765300  1
  C  C22  1  0.91789800  0.78355700  0.65234700  1
  C  C23  1  0.41789800  0.71644300  0.34765300  1
  C  C24  1  0.04726800  0.44920600  0.42529700  1
  C  C25  1  0.45273200  0.55079400  0.92529700  1
  C  C26  1  0.95273200  0.94920600  0.07470300  1
  C  C27  1  0.42529700  0.04726800  0.44920600  1
  C  C28  1  0.54726800  0.05079400  0.57470300  1
  C  C29  1  0.92529700  0.45273200  0.55079400  1
  C  C30  1  0.07470300  0.95273200  0.94920600  1
  C  C31  1  0.57470300  0.54726800  0.05079400  1
  C  C32  1  0.44920600  0.42529700  0.04726800  1
  C  C33  1  0.94920600  0.07470300  0.95273200  1
  C  C34  1  0.05079400  0.57470300  0.54726800  1
  C  C35  1  0.55079400  0.92529700  0.45273200  1
  Ni  Ni36  1  0.96467300  0.96467300  0.96467300  1
  Ni  Ni37  1  0.53532700  0.03532700  0.46467300  1
  Ni  Ni38  1  0.03532700  0.46467300  0.53532700  1
  Ni  Ni39  1  0.46467300  0.53532700  0.03532700  1
  Cu  Cu40  1  0.11486000  0.37016000  0.42282000  1
  Cu  Cu41  1  0.38514000  0.62984000  0.92282000  1
  Cu  Cu42  1  0.88514000  0.87016000  0.07718000  1
  Cu  Cu43  1  0.42282000  0.11486000  0.37016000  1
  Cu  Cu44  1  0.61486000  0.12984000  0.57718000  1
  Cu  Cu45  1  0.92282000  0.38514000  0.62984000  1
  Cu  Cu46  1  0.07718000  0.88514000  0.87016000  1
  Cu  Cu47  1  0.57718000  0.61486000  0.12984000  1
  Cu  Cu48  1  0.37016000  0.42282000  0.11486000  1
  Cu  Cu49  1  0.87016000  0.07718000  0.88514000  1
  Cu  Cu50  1  0.12984000  0.57718000  0.61486000  1
  Cu  Cu51  1  0.62984000  0.92282000  0.38514000  1
  Cu  Cu52  1  0.20257800  0.35152400  0.21935000  1
  Cu  Cu53  1  0.29742200  0.64847600  0.71935000  1
  Cu  Cu54  1  0.79742200  0.85152400  0.28065000  1
  Cu  Cu55  1  0.21935000  0.20257800  0.35152400  1
  Cu  Cu56  1  0.70257800  0.14847600  0.78065000  1
  Cu  Cu57  1  0.71935000  0.29742200  0.64847600  1
  Cu  Cu58  1  0.28065000  0.79742200  0.85152400  1
  Cu  Cu59  1  0.78065000  0.70257800  0.14847600  1
  Cu  Cu60  1  0.35152400  0.21935000  0.20257800  1
  Cu  Cu61  1  0.85152400  0.28065000  0.79742200  1
  Cu  Cu62  1  0.14847600  0.78065000  0.70257800  1
  Cu  Cu63  1  0.64847600  0.71935000  0.29742200  1
  Cu  Cu64  1  0.94260200  0.07840300  0.30993100  1
  Cu  Cu65  1  0.55739800  0.92159700  0.80993100  1
  Cu  Cu66  1  0.05739800  0.57840300  0.19006900  1
  Cu  Cu67  1  0.30993100  0.94260200  0.07840300  1
  Cu  Cu68  1  0.44260200  0.42159700  0.69006900  1
  Cu  Cu69  1  0.80993100  0.55739800  0.92159700  1
  Cu  Cu70  1  0.19006900  0.05739800  0.57840300  1
  Cu  Cu71  1  0.69006900  0.44260200  0.42159700  1
  Cu  Cu72  1  0.07840300  0.30993100  0.94260200  1
  Cu  Cu73  1  0.57840300  0.19006900  0.05739800  1
  Cu  Cu74  1  0.42159700  0.69006900  0.44260200  1
  Cu  Cu75  1  0.92159700  0.80993100  0.55739800  1
  Cu  Cu76  1  0.97853300  0.71426400  0.34863200  1
  Cu  Cu77  1  0.52146700  0.28573600  0.84863200  1
  Cu  Cu78  1  0.02146700  0.21426400  0.15136800  1
  Cu  Cu79  1  0.34863200  0.97853300  0.71426400  1
  Cu  Cu80  1  0.47853300  0.78573600  0.65136800  1
  Cu  Cu81  1  0.84863200  0.52146700  0.28573600  1
  Cu  Cu82  1  0.15136800  0.02146700  0.21426400  1
  Cu  Cu83  1  0.65136800  0.47853300  0.78573600  1
  Cu  Cu84  1  0.71426400  0.34863200  0.97853300  1
  Cu  Cu85  1  0.21426400  0.15136800  0.02146700  1
  Cu  Cu86  1  0.78573600  0.65136800  0.47853300  1
  Cu  Cu87  1  0.28573600  0.84863200  0.52146700  1
  Cu  Cu88  1  0.32009700  0.50011100  0.34427900  1
  Cu  Cu89  1  0.17990300  0.49988900  0.84427900  1
  Cu  Cu90  1  0.67990300  0.00011100  0.15572100  1
  Cu  Cu91  1  0.34427900  0.32009700  0.50011100  1
  Cu  Cu92  1  0.82009700  0.99988900  0.65572100  1
  Cu  Cu93  1  0.84427900  0.17990300  0.49988900  1
  Cu  Cu94  1  0.15572100  0.67990300  0.00011100  1
  Cu  Cu95  1  0.65572100  0.82009700  0.99988900  1
  Cu  Cu96  1  0.50011100  0.34427900  0.32009700  1
  Cu  Cu97  1  0.00011100  0.15572100  0.67990300  1
  Cu  Cu98  1  0.99988900  0.65572100  0.82009700  1
  Cu  Cu99  1  0.49988900  0.84427900  0.17990300  1
