# generated using pymatgen
data_Cu(NiC2)8
_symmetry_space_group_name_H-M   'P 1'
_cell_length_a   13.94900065
_cell_length_b   13.76564537
_cell_length_c   24.94928206
_cell_angle_alpha   90.00000000
_cell_angle_beta   90.00000000
_cell_angle_gamma   118.92378141
_symmetry_Int_Tables_number   1
_chemical_formula_structural   Cu(NiC2)8
_chemical_formula_sum   'Cu4 Ni32 C64'
_cell_volume   4193.11448930
_cell_formula_units_Z   4
loop_
 _symmetry_equiv_pos_site_id
 _symmetry_equiv_pos_as_xyz
  1  'x, y, z'
loop_
 _atom_site_type_symbol
 _atom_site_label
 _atom_site_symmetry_multiplicity
 _atom_site_fract_x
 _atom_site_fract_y
 _atom_site_fract_z
 _atom_site_occupancy
  C  C0  1  0.90928030  0.44387073  0.60562925  1
  C  C1  1  0.09071970  0.05612927  0.10562925  1
  C  C2  1  0.09071970  0.55612927  0.39437075  1
  C  C3  1  0.90928030  0.94387073  0.89437075  1
  C  C4  1  0.91257235  0.22899939  0.84268444  1
  C  C5  1  0.08742765  0.27100061  0.34268444  1
  C  C6  1  0.08742765  0.77100061  0.15731556  1
  C  C7  1  0.91257235  0.72899939  0.65731556  1
  C  C8  1  0.87581195  0.37830634  0.11596275  1
  C  C9  1  0.12418805  0.12169366  0.61596275  1
  C  C10  1  0.12418805  0.62169366  0.88403725  1
  C  C11  1  0.87581195  0.87830634  0.38403725  1
  C  C12  1  0.85863615  0.13731968  0.69168822  1
  C  C13  1  0.14136385  0.36268032  0.19168822  1
  C  C14  1  0.14136385  0.86268032  0.30831178  1
  C  C15  1  0.85863615  0.63731968  0.80831178  1
  C  C16  1  0.83105056  0.40815308  0.93129991  1
  C  C17  1  0.16894944  0.09184692  0.43129991  1
  C  C18  1  0.16894944  0.59184692  0.06870009  1
  C  C19  1  0.83105056  0.90815308  0.56870009  1
  C  C20  1  0.82898491  0.20910444  0.27434886  1
  C  C21  1  0.17101509  0.29089556  0.77434886  1
  C  C22  1  0.17101509  0.79089556  0.72565114  1
  C  C23  1  0.82898491  0.70910444  0.22565114  1
  C  C24  1  0.80224128  0.98573963  0.16189332  1
  C  C25  1  0.19775872  0.51426037  0.66189332  1
  C  C26  1  0.19775872  0.01426037  0.83810668  1
  C  C27  1  0.80224128  0.48573963  0.33810668  1
  C  C28  1  0.73011836  0.33631952  0.74548649  1
  C  C29  1  0.26988164  0.16368048  0.24548649  1
  C  C30  1  0.26988164  0.66368048  0.25451351  1
  C  C31  1  0.73011836  0.83631952  0.75451351  1
  C  C32  1  0.49670742  0.21560047  0.52508919  1
  C  C33  1  0.50329258  0.28439953  0.02508919  1
  C  C34  1  0.50329258  0.78439953  0.47491081  1
  C  C35  1  0.49670742  0.71560047  0.97491081  1
  C  C36  1  0.47836496  0.40029276  0.87606782  1
  C  C37  1  0.52163504  0.09970724  0.37606782  1
  C  C38  1  0.52163504  0.59970724  0.12393218  1
  C  C39  1  0.47836496  0.90029276  0.62393218  1
  C  C40  1  0.37977051  0.15618710  0.70151013  1
  C  C41  1  0.62022949  0.34381290  0.20151013  1
  C  C42  1  0.62022949  0.84381290  0.29848987  1
  C  C43  1  0.37977051  0.65618710  0.79848987  1
  C  C44  1  0.27963878  0.45444072  0.50579229  1
  C  C45  1  0.72036122  0.04555928  0.00579229  1
  C  C46  1  0.72036122  0.54555928  0.49420771  1
  C  C47  1  0.27963878  0.95444072  0.99420771  1
  Ni  Ni48  1  0.95972641  0.21794380  0.50378960  1
  Ni  Ni49  1  0.04027359  0.28205620  0.00378960  1
  Ni  Ni50  1  0.04027359  0.78205620  0.49621040  1
  Ni  Ni51  1  0.95972641  0.71794380  0.99621040  1
  Ni  Ni52  1  0.81202902  0.79547680  0.04576159  1
  Ni  Ni53  1  0.18797098  0.70452320  0.54576159  1
  Ni  Ni54  1  0.18797098  0.20452320  0.95423841  1
  Ni  Ni55  1  0.81202902  0.29547680  0.45423841  1
  Ni  Ni56  1  0.72795279  0.12987589  0.54268011  1
  Ni  Ni57  1  0.27204721  0.37012411  0.04268011  1
  Ni  Ni58  1  0.27204721  0.87012411  0.45731989  1
  Ni  Ni59  1  0.72795279  0.62987589  0.95731989  1
  Ni  Ni60  1  0.23015083  0.43487854  0.93503479  1
  Ni  Ni61  1  0.76984917  0.06512146  0.43503479  1
  Ni  Ni62  1  0.76984917  0.56512146  0.06496521  1
  Ni  Ni63  1  0.23015083  0.93487854  0.56496521  1
  Ni  Ni64  1  0.54795847  0.14023308  0.87421109  1
  Ni  Ni65  1  0.45204153  0.35976692  0.37421109  1
  Ni  Ni66  1  0.45204153  0.85976692  0.12578891  1
  Ni  Ni67  1  0.54795847  0.64023308  0.62578891  1
  Ni  Ni68  1  0.52188655  0.00939950  0.77164565  1
  Ni  Ni69  1  0.47811345  0.49060050  0.27164565  1
  Ni  Ni70  1  0.47811345  0.99060050  0.22835435  1
  Ni  Ni71  1  0.52188655  0.50939950  0.72835435  1
  Ni  Ni72  1  0.62606247  0.96998367  0.86505622  1
  Ni  Ni73  1  0.37393753  0.53001633  0.36505622  1
  Ni  Ni74  1  0.37393753  0.03001633  0.13494378  1
  Ni  Ni75  1  0.62606247  0.46998367  0.63494378  1
  Ni  Ni76  1  0.39182531  0.89987926  0.86966991  1
  Ni  Ni77  1  0.60817469  0.60012074  0.36966991  1
  Ni  Ni78  1  0.60817469  0.10012074  0.13033009  1
  Ni  Ni79  1  0.39182531  0.39987926  0.63033009  1
  Cu  Cu80  1  0.99131807  0.00873863  0.25920669  1
  Cu  Cu81  1  0.00868193  0.49126137  0.75920669  1
  Cu  Cu82  1  0.00868193  0.99126137  0.74079331  1
  Cu  Cu83  1  0.99131807  0.50873863  0.24079331  1
  C  C84  1  0.97692256  0.36250184  0.72670309  1
  C  C85  1  0.02307744  0.13749816  0.22670309  1
  C  C86  1  0.02307744  0.63749816  0.27329691  1
  C  C87  1  0.97692256  0.86250184  0.77329691  1
  C  C88  1  0.96439356  0.06976937  0.78225692  1
  C  C89  1  0.03560644  0.43023063  0.28225692  1
  C  C90  1  0.03560644  0.93023063  0.21774308  1
  C  C91  1  0.96439356  0.56976937  0.71774308  1
  C  C92  1  0.93495952  0.46246681  0.82223747  1
  C  C93  1  0.06504048  0.03753319  0.32223747  1
  C  C94  1  0.06504048  0.53753319  0.17776253  1
  C  C95  1  0.93495952  0.96246681  0.67776253  1
  C  C96  1  0.84504209  0.42637584  0.23067106  1
  C  C97  1  0.15495791  0.07362416  0.73067106  1
  C  C98  1  0.15495791  0.57362416  0.76932894  1
  C  C99  1  0.84504209  0.92637584  0.26932894  1
