# generated using pymatgen
data_Cu7NiC
_symmetry_space_group_name_H-M   'P 1'
_cell_length_a   9.63943100
_cell_length_b   11.49430700
_cell_length_c   6.78232241
_cell_angle_alpha   90.00000000
_cell_angle_beta   93.23569384
_cell_angle_gamma   90.00000000
_symmetry_Int_Tables_number   1
_chemical_formula_structural   Cu7NiC
_chemical_formula_sum   'Cu28 Ni4 C4'
_cell_volume   750.27368717
_cell_formula_units_Z   4
loop_
 _symmetry_equiv_pos_site_id
 _symmetry_equiv_pos_as_xyz
  1  'x, y, z'
loop_
 _atom_site_type_symbol
 _atom_site_label
 _atom_site_symmetry_multiplicity
 _atom_site_fract_x
 _atom_site_fract_y
 _atom_site_fract_z
 _atom_site_occupancy
  C  C0  1  0.67997700  0.27718700  0.92416000  1
  C  C1  1  0.32002300  0.77718700  0.57584000  1
  C  C2  1  0.32002300  0.72281300  0.07584000  1
  C  C3  1  0.67997700  0.22281300  0.42416000  1
  Ni  Ni4  1  0.21645100  0.52381800  0.73662500  1
  Ni  Ni5  1  0.78354900  0.02381800  0.76337500  1
  Ni  Ni6  1  0.78354900  0.47618200  0.26337500  1
  Ni  Ni7  1  0.21645100  0.97618200  0.23662500  1
  Cu  Cu8  1  0.73407400  0.28289800  0.67709200  1
  Cu  Cu9  1  0.26592600  0.78289800  0.82290800  1
  Cu  Cu10  1  0.26592600  0.71710200  0.32290800  1
  Cu  Cu11  1  0.73407400  0.21710200  0.17709200  1
  Cu  Cu12  1  0.16183200  0.24673500  0.73661700  1
  Cu  Cu13  1  0.83816800  0.74673500  0.76338300  1
  Cu  Cu14  1  0.83816800  0.75326500  0.26338300  1
  Cu  Cu15  1  0.16183200  0.25326500  0.23661700  1
  Cu  Cu16  1  0.78538000  0.08002400  0.50304600  1
  Cu  Cu17  1  0.21462000  0.58002400  0.99695400  1
  Cu  Cu18  1  0.21462000  0.91997600  0.49695400  1
  Cu  Cu19  1  0.78538000  0.41997600  0.00304600  1
  Cu  Cu20  1  0.92916200  0.09542400  0.88188900  1
  Cu  Cu21  1  0.07083800  0.59542400  0.61811100  1
  Cu  Cu22  1  0.07083800  0.90457600  0.11811100  1
  Cu  Cu23  1  0.92916200  0.40457600  0.38188900  1
  Cu  Cu24  1  0.52317000  0.32628900  0.92427700  1
  Cu  Cu25  1  0.47683000  0.82628900  0.57572300  1
  Cu  Cu26  1  0.47683000  0.67371100  0.07572300  1
  Cu  Cu27  1  0.52317000  0.17371100  0.42427700  1
  Cu  Cu28  1  0.63678700  0.10327500  0.86458900  1
  Cu  Cu29  1  0.36321300  0.60327500  0.63541100  1
  Cu  Cu30  1  0.36321300  0.89672500  0.13541100  1
  Cu  Cu31  1  0.63678700  0.39672500  0.36458900  1
  Cu  Cu32  1  0.24769600  0.19882400  0.63615500  1
  Cu  Cu33  1  0.75230400  0.69882400  0.86384500  1
  Cu  Cu34  1  0.75230400  0.80117600  0.36384500  1
  Cu  Cu35  1  0.24769600  0.30117600  0.13615500  1
