# generated using pymatgen
data_Cu2Ni2C15
_symmetry_space_group_name_H-M   'P 1'
_cell_length_a   9.49198017
_cell_length_b   13.20679653
_cell_length_c   15.62705473
_cell_angle_alpha   107.34909592
_cell_angle_beta   90.00000000
_cell_angle_gamma   111.06087656
_symmetry_Int_Tables_number   1
_chemical_formula_structural   Cu2Ni2C15
_chemical_formula_sum   'Cu16 Ni16 C120'
_cell_volume   1732.28206673
_cell_formula_units_Z   8
loop_
 _symmetry_equiv_pos_site_id
 _symmetry_equiv_pos_as_xyz
  1  'x, y, z'
loop_
 _atom_site_type_symbol
 _atom_site_label
 _atom_site_symmetry_multiplicity
 _atom_site_fract_x
 _atom_site_fract_y
 _atom_site_fract_z
 _atom_site_occupancy
  C  C0  1  0.65626053  0.29506043  0.38049530  1
  C  C1  1  0.36120010  0.70493957  0.11950470  1
  C  C2  1  0.34373947  0.70493957  0.61950470  1
  C  C3  1  0.63879990  0.29506043  0.88049530  1
  C  C4  1  0.63876171  -0.00000000  0.25000000  1
  C  C5  1  0.36123829  -0.00000000  0.75000000  1
  C  C6  1  0.50000000  0.50000000  0.50000000  1
  C  C7  1  -0.00000000  0.50000000  -0.00000000  1
  C  C8  1  0.57364254  0.12235350  0.45979662  1
  C  C9  1  0.45128904  0.87764650  0.04020338  1
  C  C10  1  0.42635746  0.87764650  0.54020338  1
  C  C11  1  0.54871096  0.12235350  0.95979662  1
  C  C12  1  0.43105942  0.07819721  0.39151794  1
  C  C13  1  0.35286221  0.92180279  0.10848206  1
  C  C14  1  0.56894058  0.92180279  0.60848206  1
  C  C15  1  0.64713779  0.07819721  0.89151794  1
  C  C16  1  0.79292627  0.57185085  0.48738873  1
  C  C17  1  0.22107542  0.42814915  0.01261127  1
  C  C18  1  0.20707373  0.42814915  0.51261127  1
  C  C19  1  0.77892458  0.57185085  0.98738873  1
  C  C20  1  0.75232332  0.52545629  0.38249140  1
  C  C21  1  0.22686702  0.47454371  0.11750860  1
  C  C22  1  0.24767668  0.47454371  0.61750860  1
  C  C23  1  0.77313298  0.52545629  0.88249140  1
  C  C24  1  0.10632173  0.10712032  0.23932486  1
  C  C25  1  0.99920141  0.89287968  0.26067514  1
  C  C26  1  0.89367827  0.89287968  0.76067514  1
  C  C27  1  0.00079859  0.10712032  0.73932486  1
  C  C28  1  0.23880878  0.24874324  0.24636910  1
  C  C29  1  0.99006554  0.75125676  0.25363090  1
  C  C30  1  0.76119122  0.75125676  0.75363090  1
  C  C31  1  0.00993446  0.24874324  0.74636910  1
  C  C32  1  0.30655162  0.13433336  0.23675852  1
  C  C33  1  0.17221826  0.86566664  0.26324148  1
  C  C34  1  0.69344838  0.86566664  0.76324148  1
  C  C35  1  0.82778174  0.13433336  0.73675852  1
  C  C36  1  0.00700369  0.09682977  0.50821352  1
  C  C37  1  0.91017392  0.90317023  0.99178648  1
  C  C38  1  0.99299631  0.90317023  0.49178648  1
  C  C39  1  0.08982608  0.09682977  0.00821352  1
  C  C40  1  0.99688989  0.23040129  0.57547544  1
  C  C41  1  0.76648859  0.76959871  0.92452456  1
  C  C42  1  0.00311011  0.76959871  0.42452456  1
  C  C43  1  0.23351141  0.23040129  0.07547544  1
  C  C44  1  0.82419562  0.10954865  0.52336658  1
  C  C45  1  0.71464696  0.89045135  0.97663342  1
  C  C46  1  0.17580438  0.89045135  0.47663342  1
  C  C47  1  0.28535304  0.10954865  0.02336658  1
  C  C48  1  0.54365504  0.39257711  0.08359063  1
  C  C49  1  0.15107793  0.60742289  0.41640937  1
  C  C50  1  0.45634496  0.60742289  0.91640937  1
  C  C51  1  0.84892207  0.39257711  0.58359063  1
  C  C52  1  0.50606837  0.46637353  0.19261571  1
  C  C53  1  0.03969484  0.53362647  0.30738429  1
  C  C54  1  0.49393163  0.53362647  0.80738429  1
  C  C55  1  0.96030516  0.46637353  0.69261571  1
  C  C56  1  0.61875929  0.54676151  0.12417453  1
  C  C57  1  0.07199778  0.45323849  0.37582547  1
  C  C58  1  0.38124071  0.45323849  0.87582547  1
  C  C59  1  0.92800222  0.54676151  0.62417453  1
  C  C60  1  0.90151850  0.28709752  0.09820387  1
  C  C61  1  0.61442097  0.71290248  0.40179613  1
  C  C62  1  0.09848150  0.71290248  0.90179613  1
  C  C63  1  0.38557903  0.28709752  0.59820387  1
  C  C64  1  0.92985174  0.25628962  0.20020555  1
  C  C65  1  0.67356212  0.74371038  0.29979445  1
  C  C66  1  0.07014826  0.74371038  0.79979445  1
  C  C67  1  0.32643788  0.25628962  0.70020555  1
  C  C68  1  0.83029407  0.14064473  0.09787244  1
  C  C69  1  0.68964935  0.85935527  0.40212756  1
  C  C70  1  0.16970593  0.85935527  0.90212756  1
  C  C71  1  0.31035065  0.14064473  0.59787244  1
  Ni  Ni72  1  0.22213500  0.17064168  0.26325870  1
  Ni  Ni73  1  0.05149333  0.82935832  0.23674130  1
  Ni  Ni74  1  0.77786500  0.82935832  0.73674130  1
  Ni  Ni75  1  0.94850667  0.17064168  0.76325870  1
  Ni  Ni76  1  0.94384040  0.15349338  0.51686941  1
  Ni  Ni77  1  0.79034703  0.84650662  0.98313059  1
  Ni  Ni78  1  0.05615960  0.84650662  0.48313059  1
  Ni  Ni79  1  0.20965297  0.15349338  0.01686941  1
  Ni  Ni80  1  0.58829606  0.46888612  0.14343622  1
  Ni  Ni81  1  0.11940995  0.53111388  0.35656378  1
  Ni  Ni82  1  0.41170394  0.53111388  0.85656378  1
  Ni  Ni83  1  0.88059005  0.46888612  0.64343622  1
  Ni  Ni84  1  0.85415500  0.22980899  0.13800466  1
  Ni  Ni85  1  0.62434601  0.77019101  0.36199534  1
  Ni  Ni86  1  0.14584500  0.77019101  0.86199534  1
  Ni  Ni87  1  0.37565399  0.22980899  0.63800466  1
  Cu  Cu88  1  0.24921401  0.20826953  0.38260004  1
  Cu  Cu89  1  0.04094448  0.79173047  0.11739996  1
  Cu  Cu90  1  0.75078599  0.79173047  0.61739996  1
  Cu  Cu91  1  0.95905552  0.20826953  0.88260004  1
  Cu  Cu92  1  0.95386944  0.19717402  0.41908483  1
  Cu  Cu93  1  0.75669542  0.80282598  0.08091517  1
  Cu  Cu94  1  0.04613056  0.80282598  0.58091517  1
  Cu  Cu95  1  0.24330458  0.19717402  0.91908483  1
  Cu  Cu96  1  0.75711219  0.47242754  0.19453855  1
  Cu  Cu97  1  0.28468465  0.52757246  0.30546145  1
  Cu  Cu98  1  0.24288781  0.52757246  0.80546145  1
  Cu  Cu99  1  0.71531535  0.47242754  0.69453855  1
  Cu  Cu100  1  0.67732588  0.23795336  0.16813129  1
  Cu  Cu101  1  0.43937252  0.76204664  0.33186871  1
  Cu  Cu102  1  0.32267412  0.76204664  0.83186871  1
  Cu  Cu103  1  0.56062748  0.23795336  0.66813129  1
  C  C104  1  0.13172772  0.26874013  0.41980830  1
  C  C105  1  0.86298759  0.73125987  0.08019170  1
  C  C106  1  0.86827228  0.73125987  0.58019170  1
  C  C107  1  0.13701241  0.26874013  0.91980830  1
  C  C108  1  0.71073313  0.36533386  0.23253488  1
  C  C109  1  0.34539928  0.63466614  0.26746512  1
  C  C110  1  0.28926687  0.63466614  0.76746512  1
  C  C111  1  0.65460072  0.36533386  0.73253488  1
  C  C112  1  0.54147008  0.09911929  0.39470549  1
  C  C113  1  0.44235079  0.90088071  0.10529451  1
  C  C114  1  0.45852992  0.90088071  0.60529451  1
  C  C115  1  0.55764921  0.09911929  0.89470549  1
  C  C116  1  0.72944874  0.50373813  0.43744331  1
  C  C117  1  0.22571061  0.49626187  0.06255669  1
  C  C118  1  0.27055126  0.49626187  0.56255669  1
  C  C119  1  0.77428939  0.50373813  0.93744331  1
  C  C120  1  0.40148854  0.29801709  0.41375895  1
  C  C121  1  0.10347146  0.70198291  0.08624105  1
  C  C122  1  0.59851146  0.70198291  0.58624105  1
  C  C123  1  0.89652854  0.29801709  0.91375895  1
  C  C124  1  0.22586439  0.10367511  0.40512531  1
  C  C125  1  0.12218928  0.89632489  0.09487469  1
  C  C126  1  0.77413561  0.89632489  0.59487469  1
  C  C127  1  0.87781072  0.10367511  0.90512531  1
  C  C128  1  0.88045779  0.27980712  0.43317054  1
  C  C129  1  0.60065067  0.72019288  0.06682946  1
  C  C130  1  0.11954221  0.72019288  0.56682946  1
  C  C131  1  0.39934933  0.27980712  0.93317054  1
  C  C132  1  0.88802786  0.09390599  0.34047976  1
  C  C133  1  0.79412187  0.90609401  0.15952024  1
  C  C134  1  0.11197214  0.90609401  0.65952024  1
  C  C135  1  0.20587813  0.09390599  0.84047976  1
  C  C136  1  0.81170519  0.57372327  0.27552540  1
  C  C137  1  0.23798192  0.42627673  0.22447460  1
  C  C138  1  0.18829481  0.42627673  0.72447460  1
  C  C139  1  0.76201808  0.57372327  0.77552540  1
  C  C140  1  0.86115177  0.46781216  0.12577241  1
  C  C141  1  0.39333961  0.53218784  0.37422759  1
  C  C142  1  0.13884823  0.53218784  0.87422759  1
  C  C143  1  0.60666039  0.46781216  0.62577241  1
  C  C144  1  0.62367436  0.16693019  0.22704064  1
  C  C145  1  0.45674417  0.83306981  0.27295936  1
  C  C146  1  0.37632564  0.83306981  0.77295936  1
  C  C147  1  0.54325583  0.16693019  0.72704064  1
  C  C148  1  0.57701729  0.20326189  0.08490692  1
  C  C149  1  0.37375540  0.79673811  0.41509308  1
  C  C150  1  0.42298271  0.79673811  0.91509308  1
  C  C151  1  0.62624460  0.20326189  0.58490692  1
