# generated using pymatgen
data_Cu2NiC
_symmetry_space_group_name_H-M   'P 1'
_cell_length_a   4.48366500
_cell_length_b   5.25668100
_cell_length_c   6.88140903
_cell_angle_alpha   73.40347972
_cell_angle_beta   90.00000000
_cell_angle_gamma   90.00000000
_symmetry_Int_Tables_number   1
_chemical_formula_structural   Cu2NiC
_chemical_formula_sum   'Cu4 Ni2 C2'
_cell_volume   155.43246443
_cell_formula_units_Z   2
loop_
 _symmetry_equiv_pos_site_id
 _symmetry_equiv_pos_as_xyz
  1  'x, y, z'
loop_
 _atom_site_type_symbol
 _atom_site_label
 _atom_site_symmetry_multiplicity
 _atom_site_fract_x
 _atom_site_fract_y
 _atom_site_fract_z
 _atom_site_occupancy
  C  C0  1  0.25000000  0.19265600  0.65445400  1
  C  C1  1  0.75000000  0.80734400  0.34554600  1
  Ni  Ni2  1  0.25000000  0.21814000  0.09922000  1
  Ni  Ni3  1  0.75000000  0.78186000  0.90078000  1
  Cu  Cu4  1  0.25000000  0.75205700  0.54434700  1
  Cu  Cu5  1  0.75000000  0.24794300  0.45565300  1
  Cu  Cu6  1  0.25000000  0.61760400  0.38158800  1
  Cu  Cu7  1  0.75000000  0.38239600  0.61841200  1
