# generated using pymatgen
data_CuNiC54
_symmetry_space_group_name_H-M   'P 1'
_cell_length_a   8.64978728
_cell_length_b   8.64978728
_cell_length_c   18.20096438
_cell_angle_alpha   80.73825209
_cell_angle_beta   80.73825209
_cell_angle_gamma   93.02908403
_symmetry_Int_Tables_number   1
_chemical_formula_structural   CuNiC54
_chemical_formula_sum   'Cu2 Ni2 C108'
_cell_volume   1322.15872682
_cell_formula_units_Z   2
loop_
 _symmetry_equiv_pos_site_id
 _symmetry_equiv_pos_as_xyz
  1  'x, y, z'
loop_
 _atom_site_type_symbol
 _atom_site_label
 _atom_site_symmetry_multiplicity
 _atom_site_fract_x
 _atom_site_fract_y
 _atom_site_fract_z
 _atom_site_occupancy
  Ni  Ni0  1  0.25687000  0.74313000  0.25000000  1
  Ni  Ni1  1  0.74313000  0.25687000  0.75000000  1
  Cu  Cu2  1  0.50000000  0.00000000  0.50000000  1
  Cu  Cu3  1  0.00000000  0.50000000  0.00000000  1
  C  C4  1  0.65315700  0.67827100  0.58564600  1
  C  C5  1  0.34684300  0.32172900  0.41435400  1
  C  C6  1  0.96833000  0.03167000  0.25000000  1
  C  C7  1  0.67827100  0.65315700  0.08564600  1
  C  C8  1  0.32172900  0.34684300  0.91435400  1
  C  C9  1  0.03167000  0.96833000  0.75000000  1
  C  C10  1  0.01972800  0.82484500  0.54364500  1
  C  C11  1  0.50194000  0.31711100  0.62360200  1
  C  C12  1  0.49806000  0.68288900  0.37639800  1
  C  C13  1  0.98027200  0.17515500  0.45635500  1
  C  C14  1  0.35849200  0.16102700  0.20876100  1
  C  C15  1  0.83897300  0.64150800  0.29123900  1
  C  C16  1  0.82484500  0.01972800  0.04364500  1
  C  C17  1  0.31711100  0.50194000  0.12360200  1
  C  C18  1  0.68288900  0.49806000  0.87639800  1
  C  C19  1  0.17515500  0.98027200  0.95635500  1
  C  C20  1  0.16102700  0.35849200  0.70876100  1
  C  C21  1  0.64150800  0.83897300  0.79123900  1
  C  C22  1  0.31013500  0.59202400  0.54064200  1
  C  C23  1  0.20250500  0.12766800  0.58322300  1
  C  C24  1  0.74847800  0.02770800  0.62451300  1
  C  C25  1  0.25152200  0.97229200  0.37548700  1
  C  C26  1  0.79749500  0.87233200  0.41677700  1
  C  C27  1  0.68986500  0.40797600  0.45935800  1
  C  C28  1  0.64045400  0.91999700  0.20889900  1
  C  C29  1  0.54439600  0.45560400  0.25000000  1
  C  C30  1  0.08000300  0.35954600  0.29110100  1
  C  C31  1  0.59202400  0.31013500  0.04064200  1
  C  C32  1  0.12766800  0.20250500  0.08322300  1
  C  C33  1  0.02770800  0.74847800  0.12451300  1
  C  C34  1  0.97229200  0.25152200  0.87548700  1
  C  C35  1  0.87233200  0.79749500  0.91677700  1
  C  C36  1  0.40797600  0.68986500  0.95935800  1
  C  C37  1  0.91999700  0.64045400  0.70889900  1
  C  C38  1  0.45560400  0.54439600  0.75000000  1
  C  C39  1  0.35954600  0.08000300  0.79110100  1
  C  C40  1  0.86322300  0.69664500  0.63142200  1
  C  C41  1  0.29925800  0.44448900  0.60539400  1
  C  C42  1  0.10518300  0.16452700  0.65708700  1
  C  C43  1  0.18441400  0.95126600  0.57843900  1
  C  C44  1  0.14531900  0.64904600  0.54019500  1
  C  C45  1  0.62747200  0.91360700  0.60410300  1
  C  C46  1  0.43182100  0.71700800  0.55190800  1
  C  C47  1  0.68620800  0.19178700  0.62858900  1
  C  C48  1  0.38186800  0.15915200  0.58288300  1
  C  C49  1  0.36498600  0.53405600  0.46364400  1
  C  C50  1  0.16591100  0.22981200  0.50992700  1
  C  C51  1  0.89955600  0.04121400  0.56248200  1
  C  C52  1  0.10044400  0.95878600  0.43751800  1
  C  C53  1  0.83408900  0.77018800  0.49007300  1
  C  C54  1  0.63501400  0.46594400  0.53635600  1
  C  C55  1  0.61813200  0.84084800  0.41711700  1
  C  C56  1  0.31379200  0.80821300  0.37141100  1
  C  C57  1  0.56817900  0.28299200  0.44809200  1
  C  C58  1  0.37252800  0.08639300  0.39589700  1
  C  C59  1  0.85468100  0.35095400  0.45980500  1
  C  C60  1  0.81558600  0.04873400  0.42156100  1
  C  C61  1  0.20260700  0.03009200  0.29700000  1
  C  C62  1  0.89481700  0.83547300  0.34291300  1
  C  C63  1  0.70074200  0.55551100  0.39460600  1
  C  C64  1  0.62794200  0.77074700  0.27323800  1
  C  C65  1  0.44027800  0.50056400  0.32202200  1
  C  C66  1  0.13677700  0.30335500  0.36857800  1
  C  C67  1  0.50865200  0.27960000  0.25128900  1
  C  C68  1  0.47050200  0.97040600  0.20791600  1
  C  C69  1  0.95593800  0.24375200  0.27863100  1
  C  C70  1  0.75624800  0.04406200  0.22136900  1
  C  C71  1  0.02959400  0.52949800  0.29208400  1
  C  C72  1  0.72040000  0.49134800  0.24871100  1
  C  C73  1  0.69664500  0.86322300  0.13142200  1
  C  C74  1  0.49943600  0.55972200  0.17797800  1
  C  C75  1  0.22925300  0.37205800  0.22676200  1
  C  C76  1  0.44448900  0.29925800  0.10539400  1
  C  C77  1  0.16452700  0.10518300  0.15708700  1
  C  C78  1  0.96990800  0.79739300  0.20300000  1
  C  C79  1  0.95126600  0.18441400  0.07843900  1
  C  C80  1  0.64904600  0.14531900  0.04019500  1
  C  C81  1  0.91360700  0.62747200  0.10410300  1
  C  C82  1  0.71700800  0.43182100  0.05190800  1
  C  C83  1  0.19178700  0.68620800  0.12858900  1
  C  C84  1  0.15915200  0.38186800  0.08288300  1
  C  C85  1  0.53405600  0.36498600  0.96364400  1
  C  C86  1  0.22981200  0.16591100  0.00992700  1
  C  C87  1  0.04121400  0.89955600  0.06248200  1
  C  C88  1  0.95878600  0.10044400  0.93751800  1
  C  C89  1  0.77018800  0.83408900  0.99007300  1
  C  C90  1  0.46594400  0.63501400  0.03635600  1
  C  C91  1  0.84084800  0.61813200  0.91711700  1
  C  C92  1  0.80821300  0.31379200  0.87141100  1
  C  C93  1  0.28299200  0.56817900  0.94809200  1
  C  C94  1  0.08639300  0.37252800  0.89589700  1
  C  C95  1  0.35095400  0.85468100  0.95980500  1
  C  C96  1  0.04873400  0.81558600  0.92156100  1
  C  C97  1  0.03009200  0.20260700  0.79700000  1
  C  C98  1  0.83547300  0.89481700  0.84291300  1
  C  C99  1  0.55551100  0.70074200  0.89460600  1
  C  C100  1  0.77074700  0.62794200  0.77323800  1
  C  C101  1  0.50056400  0.44027800  0.82202200  1
  C  C102  1  0.30335500  0.13677700  0.86857800  1
  C  C103  1  0.27960000  0.50865200  0.75128900  1
  C  C104  1  0.97040600  0.47050200  0.70791600  1
  C  C105  1  0.24375200  0.95593800  0.77863100  1
  C  C106  1  0.04406200  0.75624800  0.72136900  1
  C  C107  1  0.52949800  0.02959400  0.79208400  1
  C  C108  1  0.49134800  0.72040000  0.74871100  1
  C  C109  1  0.55972200  0.49943600  0.67797800  1
  C  C110  1  0.37205800  0.22925300  0.72676200  1
  C  C111  1  0.79739300  0.96990800  0.70300000  1
