# generated using pymatgen
data_CuNiC5
_symmetry_space_group_name_H-M   'P 1'
_cell_length_a   6.06522700
_cell_length_b   7.91603100
_cell_length_c   10.91210100
_cell_angle_alpha   90.00000000
_cell_angle_beta   90.00000000
_cell_angle_gamma   90.00000000
_symmetry_Int_Tables_number   1
_chemical_formula_structural   CuNiC5
_chemical_formula_sum   'Cu4 Ni4 C20'
_cell_volume   523.91752156
_cell_formula_units_Z   4
loop_
 _symmetry_equiv_pos_site_id
 _symmetry_equiv_pos_as_xyz
  1  'x, y, z'
loop_
 _atom_site_type_symbol
 _atom_site_label
 _atom_site_symmetry_multiplicity
 _atom_site_fract_x
 _atom_site_fract_y
 _atom_site_fract_z
 _atom_site_occupancy
  C  C0  1  0.25000000  0.18311400  0.59333200  1
  C  C1  1  0.25000000  0.68311400  0.90666800  1
  C  C2  1  0.75000000  0.81688600  0.40666800  1
  C  C3  1  0.75000000  0.31688600  0.09333200  1
  Ni  Ni4  1  0.25000000  0.23013300  0.92076200  1
  Ni  Ni5  1  0.25000000  0.73013300  0.57923800  1
  Ni  Ni6  1  0.75000000  0.76986700  0.07923800  1
  Ni  Ni7  1  0.75000000  0.26986700  0.42076200  1
  Cu  Cu8  1  0.25000000  0.48482600  0.30463400  1
  Cu  Cu9  1  0.25000000  0.98482600  0.19536600  1
  Cu  Cu10  1  0.75000000  0.51517400  0.69536600  1
  Cu  Cu11  1  0.75000000  0.01517400  0.80463400  1
  C  C12  1  0.05116200  0.29638800  0.85527900  1
  C  C13  1  0.44883800  0.79638800  0.64472100  1
  C  C14  1  0.55116200  0.70361200  0.14472100  1
  C  C15  1  0.94883800  0.20361200  0.35527900  1
  C  C16  1  0.94883800  0.70361200  0.14472100  1
  C  C17  1  0.55116200  0.20361200  0.35527900  1
  C  C18  1  0.44883800  0.29638800  0.85527900  1
  C  C19  1  0.05116200  0.79638800  0.64472100  1
  C  C20  1  0.25000000  0.04332600  0.91256800  1
  C  C21  1  0.25000000  0.54332600  0.58743200  1
  C  C22  1  0.75000000  0.95667400  0.08743200  1
  C  C23  1  0.75000000  0.45667400  0.41256800  1
  C  C24  1  0.25000000  0.78633900  0.44953400  1
  C  C25  1  0.25000000  0.28633900  0.05046600  1
  C  C26  1  0.75000000  0.21366100  0.55046600  1
  C  C27  1  0.75000000  0.71366100  0.94953400  1
