# generated using pymatgen
data_CuNiC5
_symmetry_space_group_name_H-M   'P 1'
_cell_length_a   7.59524600
_cell_length_b   8.21216400
_cell_length_c   16.38848373
_cell_angle_alpha   60.00027801
_cell_angle_beta   90.00000000
_cell_angle_gamma   90.00000000
_symmetry_Int_Tables_number   1
_chemical_formula_structural   CuNiC5
_chemical_formula_sum   'Cu12 Ni12 C60'
_cell_volume   885.25845044
_cell_formula_units_Z   12
loop_
 _symmetry_equiv_pos_site_id
 _symmetry_equiv_pos_as_xyz
  1  'x, y, z'
loop_
 _atom_site_type_symbol
 _atom_site_label
 _atom_site_symmetry_multiplicity
 _atom_site_fract_x
 _atom_site_fract_y
 _atom_site_fract_z
 _atom_site_occupancy
  C  C0  1  0.49614000  0.49901400  0.75105500  1
  C  C1  1  0.99614000  0.50098600  0.74894500  1
  C  C2  1  0.50386000  0.50098600  0.24894500  1
  C  C3  1  0.00386000  0.49901400  0.25105500  1
  C  C4  1  0.44039900  0.16351300  0.58810900  1
  C  C5  1  0.05960100  0.16351300  0.08810900  1
  C  C6  1  0.55960100  0.83648700  0.41189100  1
  C  C7  1  0.94039900  0.83648700  0.91189100  1
  C  C8  1  0.56752100  0.82787800  0.92226500  1
  C  C9  1  0.06752100  0.17212200  0.57773500  1
  C  C10  1  0.43247900  0.17212200  0.07773500  1
  C  C11  1  0.93247900  0.82787800  0.42226500  1
  Ni  Ni12  1  0.84529600  0.81640500  0.26258600  1
  Ni  Ni13  1  0.65974600  0.15963300  0.90829600  1
  Ni  Ni14  1  0.15974600  0.84036700  0.59170400  1
  Ni  Ni15  1  0.34025400  0.84036700  0.09170400  1
  Ni  Ni16  1  0.84025400  0.15963300  0.40829600  1
  Ni  Ni17  1  0.15699600  0.47480300  0.92019400  1
  Ni  Ni18  1  0.65699600  0.52519700  0.57980600  1
  Ni  Ni19  1  0.84300400  0.52519700  0.07980600  1
  Ni  Ni20  1  0.34300400  0.47480300  0.42019400  1
  Ni  Ni21  1  0.65470400  0.81640500  0.76258600  1
  Ni  Ni22  1  0.15470400  0.18359500  0.73741400  1
  Ni  Ni23  1  0.34529600  0.18359500  0.23741400  1
  Cu  Cu24  1  0.23207000  0.81010100  0.26850100  1
  Cu  Cu25  1  0.73207000  0.18989900  0.23149900  1
  Cu  Cu26  1  0.76793000  0.18989900  0.73149900  1
  Cu  Cu27  1  0.26793000  0.81010100  0.76850100  1
  Cu  Cu28  1  0.73132300  0.46347500  0.42405900  1
  Cu  Cu29  1  0.23132300  0.53652500  0.07594100  1
  Cu  Cu30  1  0.26867700  0.53652500  0.57594100  1
  Cu  Cu31  1  0.76867700  0.46347500  0.92405900  1
  Cu  Cu32  1  0.23363500  0.15035100  0.40595700  1
  Cu  Cu33  1  0.73363500  0.84964900  0.09404300  1
  Cu  Cu34  1  0.76636500  0.84964900  0.59404300  1
  Cu  Cu35  1  0.26636500  0.15035100  0.90595700  1
  C  C36  1  0.12471100  0.70748300  0.54426000  1
  C  C37  1  0.03683900  0.76191800  0.31726300  1
  C  C38  1  0.53683900  0.23808200  0.18273700  1
  C  C39  1  0.96316100  0.23808200  0.68273700  1
  C  C40  1  0.46316100  0.76191800  0.81726300  1
  C  C41  1  0.53526200  0.36843700  0.44839100  1
  C  C42  1  0.03526200  0.63156300  0.05160900  1
  C  C43  1  0.46473800  0.63156300  0.55160900  1
  C  C44  1  0.96473800  0.36843700  0.94839100  1
  C  C45  1  0.03489200  0.10202000  0.38427300  1
  C  C46  1  0.53489200  0.89798000  0.11572700  1
  C  C47  1  0.96510800  0.89798000  0.61572700  1
  C  C48  1  0.12473100  0.08733600  0.85139000  1
  C  C49  1  0.62473100  0.91266400  0.64861000  1
  C  C50  1  0.87526900  0.91266400  0.14861000  1
  C  C51  1  0.37526900  0.08733600  0.35139000  1
  C  C52  1  0.62471100  0.29251700  0.95574000  1
  C  C53  1  0.46510800  0.10202000  0.88427300  1
  C  C54  1  0.37528900  0.70748300  0.04426000  1
  C  C55  1  0.87528900  0.29251700  0.45574000  1
  C  C56  1  0.76105000  0.95739800  0.97817000  1
  C  C57  1  0.62290000  0.29719500  0.64619400  1
  C  C58  1  0.87710000  0.29719500  0.14619400  1
  C  C59  1  0.37710000  0.70280500  0.35380600  1
  C  C60  1  0.74418300  0.27138900  0.30500500  1
  C  C61  1  0.24418300  0.72861100  0.19499500  1
  C  C62  1  0.25581700  0.72861100  0.69499500  1
  C  C63  1  0.75581700  0.27138900  0.80500500  1
  C  C64  1  0.74498500  0.61193500  0.30967200  1
  C  C65  1  0.24498500  0.38806500  0.19032800  1
  C  C66  1  0.25501500  0.38806500  0.69032800  1
  C  C67  1  0.75501500  0.61193500  0.80967200  1
  C  C68  1  0.24578500  0.37904200  0.36498500  1
  C  C69  1  0.74578500  0.62095800  0.13501500  1
  C  C70  1  0.75421500  0.62095800  0.63501500  1
  C  C71  1  0.25421500  0.37904200  0.86498500  1
  C  C72  1  0.75740000  0.95907200  0.29453200  1
  C  C73  1  0.25740000  0.04092800  0.20546800  1
  C  C74  1  0.24260000  0.04092800  0.70546800  1
  C  C75  1  0.74260000  0.95907200  0.79453200  1
  C  C76  1  0.75602800  0.58568800  0.47878800  1
  C  C77  1  0.25602800  0.41431200  0.02121200  1
  C  C78  1  0.24397200  0.41431200  0.52121200  1
  C  C79  1  0.74397200  0.58568800  0.97878800  1
  C  C80  1  0.73895000  0.95739800  0.47817000  1
  C  C81  1  0.23895000  0.04260200  0.02183000  1
  C  C82  1  0.26105000  0.04260200  0.52183000  1
  C  C83  1  0.12290000  0.70280500  0.85380600  1
