# generated using pymatgen
data_Cu4NiC11
_symmetry_space_group_name_H-M   'P 1'
_cell_length_a   10.30006446
_cell_length_b   10.29105071
_cell_length_c   14.56653543
_cell_angle_alpha   89.44161205
_cell_angle_beta   90.65762413
_cell_angle_gamma   120.15394338
_symmetry_Int_Tables_number   1
_chemical_formula_structural   Cu4NiC11
_chemical_formula_sum   'Cu24 Ni6 C66'
_cell_volume   1334.98863456
_cell_formula_units_Z   6
loop_
 _symmetry_equiv_pos_site_id
 _symmetry_equiv_pos_as_xyz
  1  'x, y, z'
loop_
 _atom_site_type_symbol
 _atom_site_label
 _atom_site_symmetry_multiplicity
 _atom_site_fract_x
 _atom_site_fract_y
 _atom_site_fract_z
 _atom_site_occupancy
  C  C0  1  0.00505894  0.00594465  0.25056078  1
  C  C1  1  0.99502030  0.99363626  0.75057360  1
  C  C2  1  0.33670143  0.67031006  0.25052419  1
  C  C3  1  0.32999145  0.66215217  0.75053650  1
  C  C4  1  0.66950750  0.33691355  0.25048662  1
  C  C5  1  0.66367034  0.32991595  0.75049242  1
  Ni  Ni6  1  0.99810546  0.50212896  0.75114239  1
  Ni  Ni7  1  0.49937542  0.00224570  0.25083095  1
  Ni  Ni8  1  0.50024451  0.99751999  0.75036810  1
  Ni  Ni9  1  0.50465066  0.50408632  0.75007756  1
  Ni  Ni10  1  0.00210425  0.49851336  0.25042474  1
  Ni  Ni11  1  0.49552631  0.49597742  0.25031478  1
  Cu  Cu12  1  0.23868519  0.88909142  0.39325229  1
  Cu  Cu13  1  0.23944760  0.35202311  0.10605385  1
  Cu  Cu14  1  0.88420302  0.23534418  0.89032066  1
  Cu  Cu15  1  0.64503171  0.88329631  0.89291186  1
  Cu  Cu16  1  0.35122324  0.23981494  0.39474604  1
  Cu  Cu17  1  0.76429666  0.65059148  0.11168544  1
  Cu  Cu18  1  0.76418698  0.11589171  0.39106648  1
  Cu  Cu19  1  0.64889169  0.76038142  0.60634056  1
  Cu  Cu20  1  0.64925545  0.88738429  0.10975274  1
  Cu  Cu21  1  0.88922631  0.23932729  0.10724016  1
  Cu  Cu22  1  0.23633376  0.88299284  0.61016882  1
  Cu  Cu23  1  0.11064044  0.76125190  0.89368954  1
  Cu  Cu24  1  0.11565760  0.35458603  0.39409248  1
  Cu  Cu25  1  0.35025554  0.11294521  0.89101839  1
  Cu  Cu26  1  0.35394452  0.11584504  0.10780064  1
  Cu  Cu27  1  0.23582048  0.35065011  0.88916837  1
  Cu  Cu28  1  0.64962276  0.76420396  0.38943395  1
  Cu  Cu29  1  0.34992164  0.23504017  0.61167749  1
  Cu  Cu30  1  0.11364281  0.35060358  0.61093324  1
  Cu  Cu31  1  0.88509522  0.64606619  0.60720344  1
  Cu  Cu32  1  0.76019223  0.64815859  0.89464605  1
  Cu  Cu33  1  0.11597269  0.76419802  0.11064525  1
  Cu  Cu34  1  0.88687043  0.64942475  0.39049124  1
  Cu  Cu35  1  0.76156254  0.11092699  0.60814354  1
  C  C36  1  0.87101220  0.60411468  0.49875625  1
  C  C37  1  0.27436561  0.06068832  0.37045214  1
  C  C38  1  0.73465878  0.60696785  0.00360246  1
  C  C39  1  0.50527789  0.65791945  0.66968058  1
  C  C40  1  0.66243986  0.15890597  0.32662135  1
  C  C41  1  0.34266209  0.85118649  0.33008147  1
  C  C42  1  0.22109016  0.94359251  0.13314225  1
  C  C43  1  0.49851446  0.15893210  0.17235495  1
  C  C44  1  0.78198022  0.72122160  0.63023676  1
  C  C45  1  0.39561572  0.12942431  0.99947305  1
  C  C46  1  0.27862161  0.22054123  0.86565332  1
  C  C47  1  0.73453472  0.12709921  0.49920743  1
  C  C48  1  0.26648902  0.87170994  0.50205960  1
  C  C49  1  0.21639948  0.27350127  0.63527980  1
  C  C50  1  0.60563474  0.73442414  0.49741669  1
  C  C51  1  0.21384533  0.94118429  0.86919188  1
  C  C52  1  0.65599710  0.14720410  0.67071259  1
  C  C53  1  0.84321463  0.50191149  0.67142689  1
  C  C54  1  0.15903849  0.49947612  0.32957753  1
  C  C55  1  0.06045275  0.27392100  0.13021351  1
  C  C56  1  0.15463927  0.49485131  0.67532118  1
  C  C57  1  0.60288138  0.86958888  0.00130296  1
  C  C58  1  0.27783106  0.05544843  0.63585995  1
  C  C59  1  0.27832190  0.21870629  0.13029763  1
  C  C60  1  0.72548085  0.78389584  0.13469312  1
  C  C61  1  0.16018630  0.66272230  0.17530626  1
  C  C62  1  0.34194816  0.49554935  0.16968218  1
  C  C63  1  0.85172684  0.34392095  0.17008679  1
  C  C64  1  0.39311858  0.26512177  0.50365371  1
  C  C65  1  0.94330293  0.22216682  0.36874081  1
  C  C66  1  0.21720732  0.27782629  0.37092168  1
  C  C67  1  0.72248496  0.78232249  0.87009192  1
  C  C68  1  0.94084629  0.21846905  0.63356858  1
  C  C69  1  0.93885611  0.72424145  0.87026484  1
  C  C70  1  0.33838752  0.49654364  0.82460136  1
  C  C71  1  0.15007259  0.65805229  0.83061420  1
  C  C72  1  0.72600175  0.94414774  0.36571632  1
  C  C73  1  0.78290341  0.05990023  0.13197589  1
  C  C74  1  0.49237826  0.14943064  0.82761904  1
  C  C75  1  0.26569113  0.39517683  0.99718395  1
  C  C76  1  0.78053342  0.72256520  0.36575949  1
  C  C77  1  0.33655912  0.83698725  0.67515729  1
  C  C78  1  0.05887309  0.78446188  0.36847719  1
  C  C79  1  0.94402180  0.72434549  0.13592167  1
  C  C80  1  0.84231079  0.33799949  0.82606560  1
  C  C81  1  0.50612571  0.84820252  0.17367189  1
  C  C82  1  0.66062056  0.50621069  0.17561812  1
  C  C83  1  0.50414957  0.66171860  0.32490303  1
  C  C84  1  0.77619354  0.05609275  0.86751758  1
  C  C85  1  0.72767043  0.93973458  0.63078687  1
  C  C86  1  0.49432587  0.33906329  0.67558254  1
  C  C87  1  0.05717907  0.77962470  0.63247284  1
  C  C88  1  0.65659349  0.50440614  0.83161928  1
  C  C89  1  0.87320236  0.26600817  0.99832758  1
  C  C90  1  0.49940778  0.83791717  0.82789855  1
  C  C91  1  0.13014669  0.39683212  0.50268318  1
  C  C92  1  0.84838178  0.50642838  0.32672887  1
  C  C93  1  0.05584660  0.27309662  0.86525822  1
  C  C94  1  0.49442389  0.34309659  0.33151279  1
  C  C95  1  0.12738593  0.73381580  0.00257540  1
