# generated using pymatgen
data_CuNi2C
_symmetry_space_group_name_H-M   'P 1'
_cell_length_a   5.85926100
_cell_length_b   5.85406700
_cell_length_c   20.93322900
_cell_angle_alpha   90.00000000
_cell_angle_beta   90.00235312
_cell_angle_gamma   90.00000000
_symmetry_Int_Tables_number   1
_chemical_formula_structural   CuNi2C
_chemical_formula_sum   'Cu8 Ni16 C8'
_cell_volume   718.02035633
_cell_formula_units_Z   8
loop_
 _symmetry_equiv_pos_site_id
 _symmetry_equiv_pos_as_xyz
  1  'x, y, z'
loop_
 _atom_site_type_symbol
 _atom_site_label
 _atom_site_symmetry_multiplicity
 _atom_site_fract_x
 _atom_site_fract_y
 _atom_site_fract_z
 _atom_site_occupancy
  C  C0  1  0.25001300  0.51418600  0.61797000  1
  C  C1  1  0.74998500  0.48581500  0.38203000  1
  C  C2  1  0.74998500  0.51418600  0.88203000  1
  C  C3  1  0.25001300  0.48581500  0.11797000  1
  C  C4  1  0.25001900  0.01435700  0.88182500  1
  C  C5  1  0.74997900  0.98564400  0.11817500  1
  C  C6  1  0.74997900  0.01435700  0.61817600  1
  C  C7  1  0.25001900  0.98564400  0.38182400  1
  Ni  Ni8  1  0.52984100  0.24740300  0.00015100  1
  Ni  Ni9  1  0.02991400  0.75265200  0.99985100  1
  Ni  Ni10  1  0.47015800  0.24740300  0.49984900  1
  Ni  Ni11  1  0.97008800  0.75265200  0.50014900  1
  Ni  Ni12  1  0.47015800  0.75259600  0.99984900  1
  Ni  Ni13  1  0.97008800  0.24734700  0.00014900  1
  Ni  Ni14  1  0.52984100  0.75259600  0.50015100  1
  Ni  Ni15  1  0.02991400  0.24734700  0.49985100  1
  Ni  Ni16  1  0.25000800  0.01427000  0.65974000  1
  Ni  Ni17  1  0.74999000  0.98573000  0.34026100  1
  Ni  Ni18  1  0.74999000  0.01427000  0.84026000  1
  Ni  Ni19  1  0.25000800  0.98573000  0.15974000  1
  Ni  Ni20  1  0.25000000  0.51422100  0.84041500  1
  Ni  Ni21  1  0.74999800  0.48577800  0.15958500  1
  Ni  Ni22  1  0.74999800  0.51422100  0.65958500  1
  Ni  Ni23  1  0.25000000  0.48577800  0.34041500  1
  Cu  Cu24  1  0.50000000  0.23067800  0.25000000  1
  Cu  Cu25  1  0.00000000  0.76931300  0.75000000  1
  Cu  Cu26  1  0.50000000  0.76932300  0.75000000  1
  Cu  Cu27  1  0.00000000  0.23068800  0.25000000  1
  Cu  Cu28  1  0.50000000  0.73049700  0.25000000  1
  Cu  Cu29  1  0.00000000  0.26949900  0.75000000  1
  Cu  Cu30  1  0.50000000  0.26950300  0.75000000  1
  Cu  Cu31  1  0.00000000  0.73050100  0.25000000  1
