# generated using pymatgen
data_Cu2NiC4
_symmetry_space_group_name_H-M   'P 1'
_cell_length_a   7.65770089
_cell_length_b   7.65770089
_cell_length_c   7.65770089
_cell_angle_alpha   108.55538313
_cell_angle_beta   108.55538313
_cell_angle_gamma   111.31884497
_symmetry_Int_Tables_number   1
_chemical_formula_structural   Cu2NiC4
_chemical_formula_sum   'Cu4 Ni2 C8'
_cell_volume   345.40867344
_cell_formula_units_Z   2
loop_
 _symmetry_equiv_pos_site_id
 _symmetry_equiv_pos_as_xyz
  1  'x, y, z'
loop_
 _atom_site_type_symbol
 _atom_site_label
 _atom_site_symmetry_multiplicity
 _atom_site_fract_x
 _atom_site_fract_y
 _atom_site_fract_z
 _atom_site_occupancy
  Ni  Ni0  1  0.00000000  0.00000000  0.00000000  1
  Ni  Ni1  1  0.25000000  0.75000000  0.50000000  1
  Cu  Cu2  1  0.74072800  0.87500000  0.36572800  1
  Cu  Cu3  1  0.12500000  0.49072800  0.86572800  1
  Cu  Cu4  1  0.50927200  0.37500000  0.63427200  1
  Cu  Cu5  1  0.62500000  0.25927200  0.13427200  1
  C  C6  1  0.36197600  0.60596500  0.24280500  1
  C  C7  1  0.39403500  0.63684000  0.75601100  1
  C  C8  1  0.36316000  0.11917100  0.75719500  1
  C  C9  1  0.88082900  0.63802400  0.24398900  1
  C  C10  1  0.88684000  0.14403500  0.25601100  1
  C  C11  1  0.36917100  0.11316000  0.25719500  1
  C  C12  1  0.88802400  0.63082900  0.74398900  1
  C  C13  1  0.85596500  0.11197600  0.74280500  1
