# generated using pymatgen
data_Cu2NiC42
_symmetry_space_group_name_H-M   'P 1'
_cell_length_a   7.61252612
_cell_length_b   15.18404859
_cell_length_c   13.13307238
_cell_angle_alpha   30.31187714
_cell_angle_beta   54.55717550
_cell_angle_gamma   59.90302677
_symmetry_Int_Tables_number   1
_chemical_formula_structural   Cu2NiC42
_chemical_formula_sum   'Cu2 Ni1 C42'
_cell_volume   624.18826628
_cell_formula_units_Z   1
loop_
 _symmetry_equiv_pos_site_id
 _symmetry_equiv_pos_as_xyz
  1  'x, y, z'
loop_
 _atom_site_type_symbol
 _atom_site_label
 _atom_site_symmetry_multiplicity
 _atom_site_fract_x
 _atom_site_fract_y
 _atom_site_fract_z
 _atom_site_occupancy
  C  C0  1  0.00929600  0.99602800  0.99468500  1
  C  C1  1  0.96006800  0.49583700  0.04447100  1
  C  C2  1  0.50042600  0.99084900  0.00873200  1
  C  C3  1  0.51394800  0.24320400  0.98557100  1
  C  C4  1  0.50292500  0.49888400  0.99832900  1
  C  C5  1  0.49316300  0.23341600  0.50201400  1
  C  C6  1  0.02867000  0.24371700  0.98466500  1
  C  C7  1  0.50263600  0.74835800  0.01551300  1
  C  C8  1  0.01069500  0.00461600  0.48367300  1
  C  C9  1  0.51831200  0.77371100  0.48923500  1
  C  C10  1  0.96922300  0.74761800  0.01679400  1
  C  C11  1  0.03585200  0.23384800  0.50193700  1
  C  C12  1  0.00620100  0.49821800  0.49589800  1
  C  C13  1  0.95564500  0.77327700  0.48934200  1
  Ni  Ni14  1  0.21936800  0.52427800  0.75612300  1
  Cu  Cu15  1  0.50535700  0.49249800  0.50214900  1
  Cu  Cu16  1  0.49775300  0.99946600  0.50272800  1
  C  C17  1  0.14982800  0.24906100  0.10080600  1
  C  C18  1  0.12936100  0.50768100  0.13309100  1
  C  C19  1  0.13791400  0.25461300  0.60769100  1
  C  C20  1  0.41817800  0.22956100  0.35229300  1
  C  C21  1  0.13769100  0.73365100  0.12889900  1
  C  C22  1  0.58936800  0.50768800  0.13312400  1
  C  C23  1  0.13294600  0.98859600  0.13832500  1
  C  C24  1  0.40952900  0.01075400  0.85412100  1
  C  C25  1  0.20208600  0.55309000  0.57618200  1
  C  C26  1  0.40169100  0.44617400  0.45241100  1
  C  C27  1  0.59134000  0.72101700  0.18756000  1
  C  C28  1  0.86707100  0.22639600  0.40684200  1
  C  C29  1  0.15501600  0.77909500  0.56550100  1
  C  C30  1  0.42127600  0.26477800  0.81406300  1
  C  C31  1  0.80199300  0.44659900  0.45167700  1
  C  C32  1  0.53853000  0.55408400  0.57489000  1
  C  C33  1  0.61300100  0.98855600  0.13835300  1
  C  C34  1  0.86094700  0.01059600  0.85417100  1
  C  C35  1  0.38328900  0.49722000  0.87215700  1
  C  C36  1  0.20058500  0.94855000  0.66621200  1
  C  C37  1  0.42564400  0.05018400  0.33391900  1
  C  C38  1  0.86724400  0.27955600  0.85295700  1
  C  C39  1  0.86865100  0.72737700  0.40365900  1
  C  C40  1  0.58207900  0.77120100  0.64675100  1
  C  C41  1  0.80518900  0.05076200  0.33321800  1
  C  C42  1  0.57240700  0.94967100  0.66472100  1
  C  C43  1  0.87734500  0.49700000  0.87239200  1
  C  C44  1  0.87133600  0.76700100  0.86215600  1
