# generated using pymatgen
data_CuNi3C14
_symmetry_space_group_name_H-M   'P 1'
_cell_length_a   11.05269361
_cell_length_b   11.51490735
_cell_length_c   17.84834942
_cell_angle_alpha   108.72015119
_cell_angle_beta   108.20194227
_cell_angle_gamma   90.28101942
_symmetry_Int_Tables_number   1
_chemical_formula_structural   CuNi3C14
_chemical_formula_sum   'Cu8 Ni24 C112'
_cell_volume   2029.74000461
_cell_formula_units_Z   8
loop_
 _symmetry_equiv_pos_site_id
 _symmetry_equiv_pos_as_xyz
  1  'x, y, z'
loop_
 _atom_site_type_symbol
 _atom_site_label
 _atom_site_symmetry_multiplicity
 _atom_site_fract_x
 _atom_site_fract_y
 _atom_site_fract_z
 _atom_site_occupancy
  C  C0  1  0.30412187  0.06399086  0.61223372  1
  C  C1  1  0.30418544  0.56181698  0.61313166  1
  C  C2  1  0.81251798  0.06146308  0.61348757  1
  C  C3  1  0.80532067  0.56576660  0.61675076  1
  C  C4  1  0.18446141  0.43297484  0.38004284  1
  C  C5  1  0.19007132  0.43524058  0.88497888  1
  C  C6  1  0.18626208  0.93626496  0.37979422  1
  C  C7  1  0.68685942  0.43444285  0.38059305  1
  C  C8  1  0.68728394  0.93694129  0.38009197  1
  C  C9  1  0.04894589  0.30882713  0.12076260  1
  C  C10  1  0.05871553  0.29844418  0.61442205  1
  C  C11  1  0.05853409  0.80766178  0.61758316  1
  C  C12  1  0.55500024  0.29944338  0.61358575  1
  C  C13  1  0.43811801  0.19175432  0.37719795  1
  C  C14  1  0.43783039  0.19686296  0.88660509  1
  C  C15  1  0.44114870  0.69746271  0.38240913  1
  C  C16  1  0.43980542  0.69751086  0.88757165  1
  C  C17  1  0.94056720  0.19951418  0.38076761  1
  C  C18  1  0.94199192  0.19426554  0.88472759  1
  C  C19  1  0.94726468  0.69022422  0.38136578  1
  C  C20  1  0.30641165  0.05965757  0.11413429  1
  C  C21  1  0.30227485  0.56718098  0.11323458  1
  C  C22  1  0.79975373  0.06377075  0.11162281  1
  C  C23  1  0.80397865  0.56214358  0.11770017  1
  C  C24  1  0.18951729  0.93936807  0.88622307  1
  C  C25  1  0.70039204  0.43624587  0.89187265  1
  C  C26  1  0.69230092  0.93427368  0.88387583  1
  C  C27  1  0.05191365  0.80317663  0.11537610  1
  C  C28  1  0.55468088  0.30089877  0.11621835  1
  C  C29  1  0.54715338  0.80462380  0.11843510  1
  C  C30  1  0.56055539  0.79598289  0.61367693  1
  C  C31  1  0.93778120  0.70146371  0.88639033  1
  Ni  Ni32  1  0.00461195  0.00004030  0.00010503  1
  Ni  Ni33  1  0.00046062  0.99558827  0.49491673  1
  Ni  Ni34  1  0.00301088  0.50307443  0.99824075  1
  Ni  Ni35  1  0.00233057  0.50250723  0.50391468  1
  Ni  Ni36  1  0.50536795  0.99596955  0.99754435  1
  Ni  Ni37  1  0.50733291  0.99937773  0.50413820  1
  Ni  Ni38  1  0.50573613  0.49968036  0.00063670  1
  Ni  Ni39  1  0.50251482  0.49770094  0.49898299  1
  Ni  Ni40  1  0.25539292  0.25196556  0.00528399  1
  Ni  Ni41  1  0.25318296  0.25041258  0.50045294  1
  Ni  Ni42  1  0.25025344  0.75037502  0.99937024  1
  Ni  Ni43  1  0.25998984  0.75119539  0.50367673  1
  Ni  Ni44  1  0.75007607  0.24657691  0.99618431  1
  Ni  Ni45  1  0.75355997  0.25183857  0.50225166  1
  Ni  Ni46  1  0.75280194  0.74863201  0.00198806  1
  Ni  Ni47  1  0.75286584  0.75023646  0.49908026  1
  Ni  Ni48  1  0.11713247  0.11870770  0.24263098  1
  Ni  Ni49  1  0.12175198  0.12599312  0.75146819  1
  Ni  Ni50  1  0.12351043  0.62622576  0.24820931  1
  Ni  Ni51  1  0.62224098  0.12308231  0.24728891  1
  Ni  Ni52  1  0.61922883  0.62098987  0.24730407  1
  Ni  Ni53  1  0.36664447  0.88103603  0.25329905  1
  Ni  Ni54  1  0.85992202  0.37795414  0.24767007  1
  Ni  Ni55  1  0.87034451  0.87750791  0.75105659  1
  Cu  Cu56  1  0.11221053  0.61123893  0.75325890  1
  Cu  Cu57  1  0.61237303  0.10092570  0.74776680  1
  Cu  Cu58  1  0.61825217  0.60665716  0.75335178  1
  Cu  Cu59  1  0.36514751  0.39778539  0.24490111  1
  Cu  Cu60  1  0.36816095  0.39840628  0.75611886  1
  Cu  Cu61  1  0.36811832  0.90021997  0.75129510  1
  Cu  Cu62  1  0.85836020  0.39462697  0.75300104  1
  Cu  Cu63  1  0.86138934  0.89417353  0.24488088  1
  C  C64  1  0.11284265  0.11467149  0.47474963  1
  C  C65  1  0.11663538  0.11061184  0.97417865  1
  C  C66  1  0.12371033  0.62249357  0.48625651  1
  C  C67  1  0.10799991  0.61362152  0.96811344  1
  C  C68  1  0.61691112  0.11823973  0.48300760  1
  C  C69  1  0.61343303  0.10497185  0.96927080  1
  C  C70  1  0.61542433  0.61952038  0.47836876  1
  C  C71  1  0.61490639  0.60546888  0.97016272  1
  C  C72  1  0.13528096  0.38941794  0.02314783  1
  C  C73  1  0.13890445  0.38693612  0.52851664  1
  C  C74  1  0.13600421  0.88545317  0.02609571  1
  C  C75  1  0.14466580  0.88033834  0.52594607  1
  C  C76  1  0.63340338  0.38082346  0.02189246  1
  C  C77  1  0.64103494  0.38478411  0.52657352  1
  C  C78  1  0.63529061  0.88013070  0.02747281  1
  C  C79  1  0.64070000  0.88358518  0.52759219  1
  C  C80  1  0.37021047  0.10874677  0.48634864  1
  C  C81  1  0.36496490  0.09946502  0.97216848  1
  C  C82  1  0.36717676  0.61281019  0.47879755  1
  C  C83  1  0.36609296  0.60714317  0.97732077  1
  C  C84  1  0.86243916  0.11542143  0.47862582  1
  C  C85  1  0.86094014  0.10145494  0.96969009  1
  C  C86  1  0.86412720  0.61500416  0.47817118  1
  C  C87  1  0.86458645  0.60924553  0.96989344  1
  C  C88  1  0.39269601  0.39662231  0.03125402  1
  C  C89  1  0.39098239  0.39102039  0.52844318  1
  C  C90  1  0.38797393  0.89315428  0.02395775  1
  C  C91  1  0.39802601  0.88692247  0.52857913  1
  C  C92  1  0.87982067  0.40004137  0.02011620  1
  C  C93  1  0.88807584  0.38813986  0.52773768  1
  C  C94  1  0.88885076  0.89529441  0.02738786  1
  C  C95  1  0.88710014  0.88546127  0.52105046  1
  C  C96  1  0.08439181  0.10799437  0.12089555  1
  C  C97  1  0.08085006  0.10459920  0.62983776  1
  C  C98  1  0.08888205  0.60838450  0.12119578  1
  C  C99  1  0.09483885  0.62322755  0.64456896  1
  C  C100  1  0.58595347  0.10461601  0.12020602  1
  C  C101  1  0.58385656  0.10290678  0.63200419  1
  C  C102  1  0.59137077  0.60995928  0.12285273  1
  C  C103  1  0.60248432  0.61798470  0.64436443  1
  C  C104  1  0.45809132  0.37674153  0.35548410  1
  C  C105  1  0.45217629  0.39619035  0.87178720  1
  C  C106  1  0.45455518  0.90076060  0.37960321  1
  C  C107  1  0.46435485  0.88717049  0.86766762  1
  C  C108  1  0.95747471  0.39364339  0.36892119  1
  C  C109  1  0.94395360  0.39339539  0.86950890  1
  C  C110  1  0.95087500  0.87805326  0.35691315  1
  C  C111  1  0.96102604  0.89364971  0.87476964  1
  C  C112  1  0.36164116  0.26282458  0.13984572  1
  C  C113  1  0.34493707  0.27843839  0.64658034  1
  C  C114  1  0.35230931  0.76883801  0.13504099  1
  C  C115  1  0.34697541  0.77590934  0.63432170  1
  C  C116  1  0.84015983  0.26545483  0.12887801  1
  C  C117  1  0.82758131  0.28047441  0.63419377  1
  C  C118  1  0.86375054  0.76272965  0.14098821  1
  C  C119  1  0.82391822  0.77477120  0.62524997  1
  C  C120  1  0.20176680  0.22535491  0.36507613  1
  C  C121  1  0.21056109  0.23117057  0.87133585  1
  C  C122  1  0.19954854  0.72880215  0.37807426  1
  C  C123  1  0.20991418  0.73325504  0.86034446  1
  C  C124  1  0.69740332  0.22617947  0.37672112  1
  C  C125  1  0.70239176  0.22625297  0.85535185  1
  C  C126  1  0.69158245  0.73032315  0.37461770  1
  C  C127  1  0.71772551  0.73043071  0.85936264  1
  C  C128  1  0.41542564  0.06457837  0.24398900  1
  C  C129  1  0.42130233  0.07120278  0.75030636  1
  C  C130  1  0.40681380  0.56874213  0.24376392  1
  C  C131  1  0.42766574  0.57029341  0.75190037  1
  C  C132  1  0.90146752  0.06717973  0.24280375  1
  C  C133  1  0.90249216  0.07310168  0.74933778  1
  C  C134  1  0.91670584  0.56484428  0.24559449  1
  C  C135  1  0.92485102  0.56559574  0.75618874  1
  C  C136  1  0.18371200  0.43347953  0.25034086  1
  C  C137  1  0.17642373  0.43889638  0.75098199  1
  C  C138  1  0.15495066  0.92700637  0.24554695  1
  C  C139  1  0.18709376  0.93407757  0.75680696  1
  C  C140  1  0.65253292  0.42668775  0.24573018  1
  C  C141  1  0.67121906  0.42908183  0.75665058  1
  C  C142  1  0.67576435  0.92505257  0.24636637  1
  C  C143  1  0.64507043  0.92231587  0.74910846  1
