# generated using pymatgen
data_Cu2Ni2C15
_symmetry_space_group_name_H-M   'P 1'
_cell_length_a   5.45222900
_cell_length_b   5.48027793
_cell_length_c   7.71605349
_cell_angle_alpha   89.81431337
_cell_angle_beta   89.94102644
_cell_angle_gamma   89.72760691
_symmetry_Int_Tables_number   1
_chemical_formula_structural   Cu2Ni2C15
_chemical_formula_sum   'Cu2 Ni2 C15'
_cell_volume   230.54966223
_cell_formula_units_Z   1
loop_
 _symmetry_equiv_pos_site_id
 _symmetry_equiv_pos_as_xyz
  1  'x, y, z'
loop_
 _atom_site_type_symbol
 _atom_site_label
 _atom_site_symmetry_multiplicity
 _atom_site_fract_x
 _atom_site_fract_y
 _atom_site_fract_z
 _atom_site_occupancy
  C  C0  1  0.02572400  0.00031200  0.25003600  1
  C  C1  1  0.98346000  0.99390500  0.74910300  1
  C  C2  1  0.52270500  0.49489500  0.25068200  1
  Ni  Ni3  1  0.49906800  0.99900800  0.50362100  1
  Ni  Ni4  1  0.00481800  0.49618100  0.99609300  1
  Cu  Cu5  1  0.49914700  0.00120400  0.99464500  1
  Cu  Cu6  1  0.00764700  0.49622900  0.50499800  1
  C  C7  1  0.98739700  0.56011800  0.24786000  1
  C  C8  1  0.78192900  0.22465100  0.03447900  1
  C  C9  1  0.77653700  0.21873300  0.46589200  1
  C  C10  1  0.73980100  0.73212600  0.97484300  1
  C  C11  1  0.73147700  0.73583100  0.52597900  1
  C  C12  1  0.49961000  0.05449900  0.74667600  1
  C  C13  1  0.50150400  0.94143300  0.25186900  1
  C  C14  1  0.26813300  0.26055800  0.45712100  1
  C  C15  1  0.26504400  0.26824300  0.04424500  1
  C  C16  1  0.21824100  0.78608500  0.51468700  1
  C  C17  1  0.21215400  0.78311300  0.98432500  1
  C  C18  1  0.00995600  0.44247500  0.75266300  1
