# generated using pymatgen
data_Cu3NiC37
_symmetry_space_group_name_H-M   'P 1'
_cell_length_a   8.81214909
_cell_length_b   8.81214909
_cell_length_c   8.81214898
_cell_angle_alpha   59.74429120
_cell_angle_beta   59.74429120
_cell_angle_gamma   59.74429201
_symmetry_Int_Tables_number   1
_chemical_formula_structural   Cu3NiC37
_chemical_formula_sum   'Cu3 Ni1 C37'
_cell_volume   481.06226421
_cell_formula_units_Z   1
loop_
 _symmetry_equiv_pos_site_id
 _symmetry_equiv_pos_as_xyz
  1  'x, y, z'
loop_
 _atom_site_type_symbol
 _atom_site_label
 _atom_site_symmetry_multiplicity
 _atom_site_fract_x
 _atom_site_fract_y
 _atom_site_fract_z
 _atom_site_occupancy
  C  C0  1  0.27757600  0.10846800  0.77552400  1
  C  C1  1  0.77552400  0.27757600  0.10846800  1
  C  C2  1  0.10846800  0.77552400  0.27757600  1
  C  C3  1  0.47580200  0.47580200  0.47580200  1
  C  C4  1  0.84861200  0.29202900  0.65786500  1
  C  C5  1  0.29202900  0.65786500  0.84861200  1
  C  C6  1  0.65786500  0.84861200  0.29202900  1
  Ni  Ni7  1  0.85578600  0.85578600  0.85578600  1
  Cu  Cu8  1  0.35182100  0.35182100  0.35182100  1
  Cu  Cu9  1  0.14688000  0.14688000  0.14688000  1
  Cu  Cu10  1  0.64900500  0.64900500  0.64900500  1
  C  C11  1  0.75562700  0.03978200  0.45759000  1
  C  C12  1  0.03978200  0.45759000  0.75562700  1
  C  C13  1  0.45759000  0.75562700  0.03978200  1
  C  C14  1  0.54146900  0.25339800  0.95602400  1
  C  C15  1  0.95602400  0.54146900  0.25339800  1
  C  C16  1  0.25339800  0.95602400  0.54146900  1
  C  C17  1  0.87532500  0.47244200  0.72022900  1
  C  C18  1  0.47244200  0.72022900  0.87532500  1
  C  C19  1  0.72022900  0.87532500  0.47244200  1
  C  C20  1  0.92833800  0.04923700  0.27434400  1
  C  C21  1  0.79845300  0.00182900  0.62312400  1
  C  C22  1  0.59515600  0.22741200  0.42644600  1
  C  C23  1  0.04923700  0.27434400  0.92833800  1
  C  C24  1  0.22741200  0.42644600  0.59515600  1
  C  C25  1  0.42644600  0.59515600  0.22741200  1
  C  C26  1  0.37522600  0.21598500  0.98571700  1
  C  C27  1  0.73584400  0.10899900  0.89181700  1
  C  C28  1  0.98571700  0.37522600  0.21598500  1
  C  C29  1  0.00182900  0.62312400  0.79845300  1
  C  C30  1  0.27434400  0.92833800  0.04923700  1
  C  C31  1  0.62312400  0.79845300  0.00182900  1
  C  C32  1  0.53504200  0.44114400  0.78677300  1
  C  C33  1  0.78677300  0.53504200  0.44114400  1
  C  C34  1  0.89181700  0.73584400  0.10899900  1
  C  C35  1  0.44114400  0.78677300  0.53504200  1
  C  C36  1  0.21598500  0.98571700  0.37522600  1
  C  C37  1  0.10899900  0.89181700  0.73584400  1
  C  C38  1  0.26525900  0.12712100  0.53648000  1
  C  C39  1  0.53648000  0.26525900  0.12712100  1
  C  C40  1  0.12712100  0.53648000  0.26525900  1
