# generated using pymatgen
data_CuNiC8
_symmetry_space_group_name_H-M   'P 1'
_cell_length_a   5.72425500
_cell_length_b   5.57158200
_cell_length_c   9.58406257
_cell_angle_alpha   55.43531115
_cell_angle_beta   90.00000000
_cell_angle_gamma   90.00000000
_symmetry_Int_Tables_number   1
_chemical_formula_structural   CuNiC8
_chemical_formula_sum   'Cu2 Ni2 C16'
_cell_volume   251.71172746
_cell_formula_units_Z   2
loop_
 _symmetry_equiv_pos_site_id
 _symmetry_equiv_pos_as_xyz
  1  'x, y, z'
loop_
 _atom_site_type_symbol
 _atom_site_label
 _atom_site_symmetry_multiplicity
 _atom_site_fract_x
 _atom_site_fract_y
 _atom_site_fract_z
 _atom_site_occupancy
  Ni  Ni0  1  0.79563600  0.23362800  0.25198800  1
  Ni  Ni1  1  0.20436400  0.23362800  0.75198800  1
  Cu  Cu2  1  0.28922400  0.76594300  0.24694900  1
  Cu  Cu3  1  0.71077600  0.76594300  0.74694900  1
  C  C4  1  0.24988900  0.99965200  0.50091700  1
  C  C5  1  0.75011100  0.99965200  0.00091700  1
  C  C6  1  0.24933300  0.50038400  0.99968900  1
  C  C7  1  0.75066700  0.50038400  0.49968900  1
  C  C8  1  0.77861400  0.33599500  0.75265700  1
  C  C9  1  0.03489000  0.14964000  0.05220600  1
  C  C10  1  0.04343100  0.75248200  0.45500900  1
  C  C11  1  0.54617800  0.25124100  0.04658100  1
  C  C12  1  0.53788000  0.85549000  0.44547400  1
  C  C13  1  0.27351300  0.65554300  0.74853200  1
  C  C14  1  0.22138600  0.33599500  0.25265700  1
  C  C15  1  0.96511000  0.14964000  0.55220600  1
  C  C16  1  0.95656900  0.75248200  0.95500900  1
  C  C17  1  0.45382200  0.25124100  0.54658100  1
  C  C18  1  0.46212000  0.85549000  0.94547400  1
  C  C19  1  0.72648700  0.65554300  0.24853200  1
