# generated using pymatgen
data_Cu(NiC3)2
_symmetry_space_group_name_H-M   'P 1'
_cell_length_a   5.29349700
_cell_length_b   5.47148100
_cell_length_c   7.68604300
_cell_angle_alpha   90.00000000
_cell_angle_beta   90.00000000
_cell_angle_gamma   90.00000000
_symmetry_Int_Tables_number   1
_chemical_formula_structural   Cu(NiC3)2
_chemical_formula_sum   'Cu2 Ni4 C12'
_cell_volume   222.61292526
_cell_formula_units_Z   2
loop_
 _symmetry_equiv_pos_site_id
 _symmetry_equiv_pos_as_xyz
  1  'x, y, z'
loop_
 _atom_site_type_symbol
 _atom_site_label
 _atom_site_symmetry_multiplicity
 _atom_site_fract_x
 _atom_site_fract_y
 _atom_site_fract_z
 _atom_site_occupancy
  Ni  Ni0  1  0.50604000  0.75368000  0.74858300  1
  Ni  Ni1  1  0.00604000  0.24632000  0.75141700  1
  Ni  Ni2  1  0.00604000  0.24632000  0.24858300  1
  Ni  Ni3  1  0.50604000  0.75368000  0.25141700  1
  Cu  Cu4  1  0.50751800  0.28615000  0.50000000  1
  Cu  Cu5  1  0.00751800  0.71385000  0.00000000  1
  C  C6  1  0.67586200  0.06954700  0.31221400  1
  C  C7  1  0.17586200  0.93045300  0.18778600  1
  C  C8  1  0.79049600  0.53771600  0.70660500  1
  C  C9  1  0.29049600  0.46228400  0.79339500  1
  C  C10  1  0.29049600  0.46228400  0.20660500  1
  C  C11  1  0.79049600  0.53771600  0.29339500  1
  C  C12  1  0.17586200  0.93045300  0.81221400  1
  C  C13  1  0.67586200  0.06954700  0.68778600  1
  C  C14  1  0.13069100  0.22109100  0.50000000  1
  C  C15  1  0.63069100  0.77890900  0.00000000  1
  C  C16  1  0.42732400  0.70789600  0.50000000  1
  C  C17  1  0.92732400  0.29210400  0.00000000  1
