# generated using pymatgen
data_CuNiC30
_symmetry_space_group_name_H-M   'P 1'
_cell_length_a   4.47959200
_cell_length_b   8.80000400
_cell_length_c   8.94088000
_cell_angle_alpha   90.00000000
_cell_angle_beta   90.00000000
_cell_angle_gamma   90.00000000
_symmetry_Int_Tables_number   1
_chemical_formula_structural   CuNiC30
_chemical_formula_sum   'Cu1 Ni1 C30'
_cell_volume   352.45331199
_cell_formula_units_Z   1
loop_
 _symmetry_equiv_pos_site_id
 _symmetry_equiv_pos_as_xyz
  1  'x, y, z'
loop_
 _atom_site_type_symbol
 _atom_site_label
 _atom_site_symmetry_multiplicity
 _atom_site_fract_x
 _atom_site_fract_y
 _atom_site_fract_z
 _atom_site_occupancy
  Ni  Ni0  1  0.00000000  0.00000000  0.50000000  1
  Cu  Cu1  1  0.00000000  0.00000000  0.00000000  1
  C  C2  1  0.00000000  0.50000000  0.00000000  1
  C  C3  1  0.00000000  0.50000000  0.50000000  1
  C  C4  1  0.50000000  0.00000000  0.25439200  1
  C  C5  1  0.50000000  0.00000000  0.74560800  1
  C  C6  1  0.50000000  0.50000000  0.25144900  1
  C  C7  1  0.50000000  0.50000000  0.74855100  1
  C  C8  1  0.50000000  0.26404800  0.00000000  1
  C  C9  1  0.50000000  0.26226900  0.50000000  1
  C  C10  1  0.50000000  0.73595200  0.00000000  1
  C  C11  1  0.50000000  0.73773100  0.50000000  1
  C  C12  1  0.00000000  0.26359800  0.25260600  1
  C  C13  1  0.00000000  0.26359800  0.74739400  1
  C  C14  1  0.00000000  0.73640200  0.25260600  1
  C  C15  1  0.00000000  0.73640200  0.74739400  1
  C  C16  1  0.00000000  0.26130900  0.00000000  1
  C  C17  1  0.00000000  0.27302200  0.50000000  1
  C  C18  1  0.00000000  0.73869100  0.00000000  1
  C  C19  1  0.00000000  0.72697800  0.50000000  1
  C  C20  1  0.50000000  0.24994200  0.25065200  1
  C  C21  1  0.50000000  0.24994200  0.74934800  1
  C  C22  1  0.50000000  0.75005800  0.25065200  1
  C  C23  1  0.50000000  0.75005800  0.74934800  1
  C  C24  1  0.50000000  0.00000000  0.00000000  1
  C  C25  1  0.50000000  0.00000000  0.50000000  1
  C  C26  1  0.50000000  0.50000000  0.00000000  1
  C  C27  1  0.50000000  0.50000000  0.50000000  1
  C  C28  1  0.00000000  0.00000000  0.24111200  1
  C  C29  1  0.00000000  0.00000000  0.75888800  1
  C  C30  1  0.00000000  0.50000000  0.24651300  1
  C  C31  1  0.00000000  0.50000000  0.75348700  1
