# generated using pymatgen
data_Cu25(Ni3C)2
_symmetry_space_group_name_H-M   'P 1'
_cell_length_a   7.18879730
_cell_length_b   7.18879730
_cell_length_c   20.51047000
_cell_angle_alpha   90.00000000
_cell_angle_beta   90.00000000
_cell_angle_gamma   106.65422729
_symmetry_Int_Tables_number   1
_chemical_formula_structural   Cu25(Ni3C)2
_chemical_formula_sum   'Cu50 Ni12 C4'
_cell_volume   1015.49329456
_cell_formula_units_Z   2
loop_
 _symmetry_equiv_pos_site_id
 _symmetry_equiv_pos_as_xyz
  1  'x, y, z'
loop_
 _atom_site_type_symbol
 _atom_site_label
 _atom_site_symmetry_multiplicity
 _atom_site_fract_x
 _atom_site_fract_y
 _atom_site_fract_z
 _atom_site_occupancy
  C  C0  1  0.87870800  0.12129100  0.75000000  1
  C  C1  1  0.12129200  0.87870800  0.25000000  1
  C  C2  1  0.58578200  0.58578200  0.00000000  1
  C  C3  1  0.41421800  0.41421800  0.50000000  1
  Ni  Ni4  1  0.87151600  0.12848400  0.25000000  1
  Ni  Ni5  1  0.12848400  0.87151600  0.75000000  1
  Ni  Ni6  1  0.62101000  0.37899000  0.75000000  1
  Ni  Ni7  1  0.37899000  0.62101000  0.25000000  1
  Ni  Ni8  1  0.76653100  0.95859100  0.61883900  1
  Ni  Ni9  1  0.95859100  0.76653100  0.38116100  1
  Ni  Ni10  1  0.23346900  0.04140900  0.11883900  1
  Ni  Ni11  1  0.04140900  0.23346900  0.88116100  1
  Ni  Ni12  1  0.64275900  0.18637400  0.43783200  1
  Ni  Ni13  1  0.18637400  0.64275900  0.56216800  1
  Ni  Ni14  1  0.35724100  0.81362600  0.93783200  1
  Ni  Ni15  1  0.81362600  0.35724100  0.06216800  1
  Cu  Cu16  1  0.19571400  0.05698700  0.74559100  1
  Cu  Cu17  1  0.05698700  0.19571400  0.25440900  1
  Cu  Cu18  1  0.80428600  0.94301300  0.24559100  1
  Cu  Cu19  1  0.94301300  0.80428600  0.75440900  1
  Cu  Cu20  1  0.23539500  0.76460500  0.75000000  1
  Cu  Cu21  1  0.76460500  0.23539500  0.25000000  1
  Cu  Cu22  1  0.65729700  0.29200800  0.69812400  1
  Cu  Cu23  1  0.29200800  0.65729700  0.30187600  1
  Cu  Cu24  1  0.34270300  0.70799200  0.19812400  1
  Cu  Cu25  1  0.70799200  0.34270300  0.80187600  1
  Cu  Cu26  1  0.51594300  0.48405700  0.75000000  1
  Cu  Cu27  1  0.48405700  0.51594300  0.25000000  1
  Cu  Cu28  1  0.65387700  0.89819000  0.66712800  1
  Cu  Cu29  1  0.89819000  0.65387700  0.33287200  1
  Cu  Cu30  1  0.34612300  0.10181000  0.16712800  1
  Cu  Cu31  1  0.10181000  0.34612300  0.83287200  1
  Cu  Cu32  1  0.92738300  0.08725100  0.63122100  1
  Cu  Cu33  1  0.08725100  0.92738300  0.36877900  1
  Cu  Cu34  1  0.07261700  0.91274900  0.13122100  1
  Cu  Cu35  1  0.91274900  0.07261700  0.86877900  1
  Cu  Cu36  1  0.72414800  0.89746900  0.56285700  1
  Cu  Cu37  1  0.89746900  0.72414800  0.43714300  1
  Cu  Cu38  1  0.27585200  0.10253100  0.06285700  1
  Cu  Cu39  1  0.10253100  0.27585200  0.93714300  1
  Cu  Cu40  1  0.46855700  0.17094000  0.41750900  1
  Cu  Cu41  1  0.17094000  0.46855700  0.58249100  1
  Cu  Cu42  1  0.53144300  0.82906000  0.91750900  1
  Cu  Cu43  1  0.82906000  0.53144300  0.08249100  1
  Cu  Cu44  1  0.70339800  0.30383100  0.48536200  1
  Cu  Cu45  1  0.30383100  0.70339800  0.51463800  1
  Cu  Cu46  1  0.29660200  0.69616900  0.98536200  1
  Cu  Cu47  1  0.69616900  0.29660200  0.01463800  1
  Cu  Cu48  1  0.74110000  0.09203700  0.41270800  1
  Cu  Cu49  1  0.09203800  0.74110000  0.58729200  1
  Cu  Cu50  1  0.25890000  0.90796200  0.91270800  1
  Cu  Cu51  1  0.90796200  0.25890000  0.08729200  1
  Cu  Cu52  1  0.99936500  0.42867900  0.70141500  1
  Cu  Cu53  1  0.42867900  0.99936500  0.29858500  1
  Cu  Cu54  1  0.00063500  0.57132100  0.20141500  1
  Cu  Cu55  1  0.57132100  0.00063500  0.79858500  1
  Cu  Cu56  1  0.86458300  0.86458300  0.00000000  1
  Cu  Cu57  1  0.13541700  0.13541700  0.50000000  1
  Cu  Cu58  1  0.50488200  0.43768900  0.90132000  1
  Cu  Cu59  1  0.43768900  0.50488200  0.09868000  1
  Cu  Cu60  1  0.49511800  0.56231100  0.40132000  1
  Cu  Cu61  1  0.56231100  0.49511800  0.59868000  1
  Cu  Cu62  1  0.35784900  0.17003900  0.57928300  1
  Cu  Cu63  1  0.17003900  0.35784900  0.42071700  1
  Cu  Cu64  1  0.64215100  0.82996100  0.07928300  1
  Cu  Cu65  1  0.82996100  0.64215100  0.92071700  1
