# generated using pymatgen
data_Cu(NiC2)4
_symmetry_space_group_name_H-M   'P 1'
_cell_length_a   12.61599759
_cell_length_b   12.61599759
_cell_length_c   5.76026991
_cell_angle_alpha   77.00346018
_cell_angle_beta   77.00346018
_cell_angle_gamma   15.26660038
_symmetry_Int_Tables_number   1
_chemical_formula_structural   Cu(NiC2)4
_chemical_formula_sum   'Cu1 Ni4 C8'
_cell_volume   235.11303492
_cell_formula_units_Z   1
loop_
 _symmetry_equiv_pos_site_id
 _symmetry_equiv_pos_as_xyz
  1  'x, y, z'
loop_
 _atom_site_type_symbol
 _atom_site_label
 _atom_site_symmetry_multiplicity
 _atom_site_fract_x
 _atom_site_fract_y
 _atom_site_fract_z
 _atom_site_occupancy
  Ni  Ni0  1  0.38344400  0.38344400  0.60944500  1
  Ni  Ni1  1  0.88028500  0.88028500  0.12699500  1
  Ni  Ni2  1  0.61655600  0.61655600  0.39055500  1
  Ni  Ni3  1  0.11971600  0.11971600  0.87300500  1
  Cu  Cu4  1  0.00000000  0.00000000  0.00000000  1
  C  C5  1  0.18294500  0.18294500  0.47973400  1
  C  C6  1  0.68230200  0.68230200  0.98672900  1
  C  C7  1  0.31769800  0.31769800  0.01327100  1
  C  C8  1  0.81705500  0.81705500  0.52026600  1
  C  C9  1  0.44699300  0.44699300  0.89158900  1
  C  C10  1  0.94810600  0.94810600  0.38092400  1
  C  C11  1  0.05189400  0.05189400  0.61907600  1
  C  C12  1  0.55300700  0.55300700  0.10841100  1
