# generated using pymatgen
data_Cu4NiC
_symmetry_space_group_name_H-M   'P 1'
_cell_length_a   5.41688300
_cell_length_b   7.14174000
_cell_length_c   8.82994100
_cell_angle_alpha   90.00000000
_cell_angle_beta   90.00000000
_cell_angle_gamma   90.00000000
_symmetry_Int_Tables_number   1
_chemical_formula_structural   Cu4NiC
_chemical_formula_sum   'Cu16 Ni4 C4'
_cell_volume   341.59483260
_cell_formula_units_Z   4
loop_
 _symmetry_equiv_pos_site_id
 _symmetry_equiv_pos_as_xyz
  1  'x, y, z'
loop_
 _atom_site_type_symbol
 _atom_site_label
 _atom_site_symmetry_multiplicity
 _atom_site_fract_x
 _atom_site_fract_y
 _atom_site_fract_z
 _atom_site_occupancy
  C  C0  1  0.25000000  0.65808200  0.18587800  1
  C  C1  1  0.75000000  0.34191800  0.81412200  1
  C  C2  1  0.75000000  0.15808200  0.31412200  1
  C  C3  1  0.25000000  0.84191800  0.68587800  1
  Ni  Ni4  1  0.25000000  0.20168400  0.06042200  1
  Ni  Ni5  1  0.75000000  0.79831600  0.93957800  1
  Ni  Ni6  1  0.75000000  0.70168400  0.43957800  1
  Ni  Ni7  1  0.25000000  0.29831600  0.56042200  1
  Cu  Cu8  1  0.25000000  0.37159300  0.41555300  1
  Cu  Cu9  1  0.75000000  0.62840700  0.58444700  1
  Cu  Cu10  1  0.75000000  0.87159300  0.08444700  1
  Cu  Cu11  1  0.25000000  0.12840700  0.91555300  1
  Cu  Cu12  1  0.03929000  0.30752400  0.07963200  1
  Cu  Cu13  1  0.96071000  0.69247600  0.92036800  1
  Cu  Cu14  1  0.96071000  0.80752400  0.42036800  1
  Cu  Cu15  1  0.53929000  0.69247600  0.92036800  1
  Cu  Cu16  1  0.03929000  0.19247600  0.57963200  1
  Cu  Cu17  1  0.46071000  0.30752400  0.07963200  1
  Cu  Cu18  1  0.46071000  0.19247600  0.57963200  1
  Cu  Cu19  1  0.53929000  0.80752400  0.42036800  1
  Cu  Cu20  1  0.25000000  0.05465200  0.16179300  1
  Cu  Cu21  1  0.75000000  0.94534800  0.83820700  1
  Cu  Cu22  1  0.75000000  0.55465200  0.33820700  1
  Cu  Cu23  1  0.25000000  0.44534800  0.66179300  1
