# generated using pymatgen
data_Cu23Ni11C3
_symmetry_space_group_name_H-M   'P 1'
_cell_length_a   12.05783939
_cell_length_b   12.05783939
_cell_length_c   12.05783939
_cell_angle_alpha   60.00000000
_cell_angle_beta   60.00000000
_cell_angle_gamma   60.00000000
_symmetry_Int_Tables_number   1
_chemical_formula_structural   Cu23Ni11C3
_chemical_formula_sum   'Cu46 Ni22 C6'
_cell_volume   1239.63402090
_cell_formula_units_Z   2
loop_
 _symmetry_equiv_pos_site_id
 _symmetry_equiv_pos_as_xyz
  1  'x, y, z'
loop_
 _atom_site_type_symbol
 _atom_site_label
 _atom_site_symmetry_multiplicity
 _atom_site_fract_x
 _atom_site_fract_y
 _atom_site_fract_z
 _atom_site_occupancy
  C  C0  1  0.00000000  0.00000000  0.50000000  1
  C  C1  1  0.50000000  0.00000000  0.50000000  1
  C  C2  1  0.00000000  0.50000000  0.50000000  1
  C  C3  1  0.50000000  0.50000000  0.00000000  1
  C  C4  1  0.00000000  0.50000000  0.00000000  1
  C  C5  1  0.50000000  0.00000000  0.00000000  1
  Ni  Ni6  1  0.82856100  0.82856100  0.17143900  1
  Ni  Ni7  1  0.17143900  0.82856100  0.17143900  1
  Ni  Ni8  1  0.82856100  0.17143900  0.17143900  1
  Ni  Ni9  1  0.17143900  0.17143900  0.82856100  1
  Ni  Ni10  1  0.82856100  0.17143900  0.82856100  1
  Ni  Ni11  1  0.17143900  0.82856100  0.82856100  1
  Ni  Ni12  1  0.83488000  0.83488000  0.49535900  1
  Ni  Ni13  1  0.83488000  0.49535900  0.83488000  1
  Ni  Ni14  1  0.49535900  0.83488000  0.83488000  1
  Ni  Ni15  1  0.83488000  0.83488000  0.83488000  1
  Ni  Ni16  1  0.16512000  0.16512000  0.50464100  1
  Ni  Ni17  1  0.16512000  0.50464100  0.16512000  1
  Ni  Ni18  1  0.50464100  0.16512000  0.16512000  1
  Ni  Ni19  1  0.16512000  0.16512000  0.16512000  1
  Ni  Ni20  1  0.60664400  0.60664400  0.18006900  1
  Ni  Ni21  1  0.60664400  0.18006900  0.60664400  1
  Ni  Ni22  1  0.18006900  0.60664400  0.60664400  1
  Ni  Ni23  1  0.60664400  0.60664400  0.60664400  1
  Ni  Ni24  1  0.39335600  0.39335600  0.81993100  1
  Ni  Ni25  1  0.39335600  0.81993100  0.39335600  1
  Ni  Ni26  1  0.81993100  0.39335600  0.39335600  1
  Ni  Ni27  1  0.39335600  0.39335600  0.39335600  1
  Cu  Cu28  1  0.91737200  0.91737200  0.24788300  1
  Cu  Cu29  1  0.91737200  0.24788300  0.91737200  1
  Cu  Cu30  1  0.24788300  0.91737200  0.91737200  1
  Cu  Cu31  1  0.91737200  0.91737200  0.91737200  1
  Cu  Cu32  1  0.08262800  0.08262800  0.75211700  1
  Cu  Cu33  1  0.08262800  0.75211700  0.08262800  1
  Cu  Cu34  1  0.75211700  0.08262800  0.08262800  1
  Cu  Cu35  1  0.08262800  0.08262800  0.08262800  1
  Cu  Cu36  1  0.69177200  0.69177200  0.92468300  1
  Cu  Cu37  1  0.69177200  0.92468300  0.69177200  1
  Cu  Cu38  1  0.92468300  0.69177200  0.69177200  1
  Cu  Cu39  1  0.69177200  0.69177200  0.69177200  1
  Cu  Cu40  1  0.30822800  0.30822800  0.07531700  1
  Cu  Cu41  1  0.30822800  0.07531700  0.30822800  1
  Cu  Cu42  1  0.07531700  0.30822800  0.30822800  1
  Cu  Cu43  1  0.30822800  0.30822800  0.30822800  1
  Cu  Cu44  1  0.62535700  0.62535700  0.37464300  1
  Cu  Cu45  1  0.37464300  0.62535700  0.37464300  1
  Cu  Cu46  1  0.62535700  0.37464300  0.37464300  1
  Cu  Cu47  1  0.37464300  0.37464300  0.62535700  1
  Cu  Cu48  1  0.62535700  0.37464300  0.62535700  1
  Cu  Cu49  1  0.37464300  0.62535700  0.62535700  1
  Cu  Cu50  1  0.74812500  0.08292900  0.42082200  1
  Cu  Cu51  1  0.74812500  0.74812500  0.42082200  1
  Cu  Cu52  1  0.08292900  0.74812500  0.42082200  1
  Cu  Cu53  1  0.74812500  0.42082200  0.08292900  1
  Cu  Cu54  1  0.08292900  0.42082200  0.74812500  1
  Cu  Cu55  1  0.74812500  0.42082200  0.74812500  1
  Cu  Cu56  1  0.42082200  0.74812500  0.74812500  1
  Cu  Cu57  1  0.42082200  0.08292900  0.74812500  1
  Cu  Cu58  1  0.42082200  0.74812500  0.08292900  1
  Cu  Cu59  1  0.08292900  0.74812500  0.74812500  1
  Cu  Cu60  1  0.74812500  0.74812500  0.08292900  1
  Cu  Cu61  1  0.74812500  0.08292900  0.74812500  1
  Cu  Cu62  1  0.25187500  0.91707100  0.57917800  1
  Cu  Cu63  1  0.25187500  0.25187500  0.57917800  1
  Cu  Cu64  1  0.91707100  0.25187500  0.57917800  1
  Cu  Cu65  1  0.25187500  0.57917800  0.91707100  1
  Cu  Cu66  1  0.91707100  0.57917800  0.25187500  1
  Cu  Cu67  1  0.25187500  0.57917800  0.25187500  1
  Cu  Cu68  1  0.57917800  0.25187500  0.25187500  1
  Cu  Cu69  1  0.57917800  0.91707100  0.25187500  1
  Cu  Cu70  1  0.57917800  0.25187500  0.91707100  1
  Cu  Cu71  1  0.91707100  0.25187500  0.25187500  1
  Cu  Cu72  1  0.25187500  0.25187500  0.91707100  1
  Cu  Cu73  1  0.25187500  0.91707100  0.25187500  1
