# generated using pymatgen
data_Cu12NiC3
_symmetry_space_group_name_H-M   'P 1'
_cell_length_a   8.46029070
_cell_length_b   8.46029070
_cell_length_c   8.49338774
_cell_angle_alpha   64.20220750
_cell_angle_beta   64.20220750
_cell_angle_gamma   90.54405216
_symmetry_Int_Tables_number   1
_chemical_formula_structural   Cu12NiC3
_chemical_formula_sum   'Cu24 Ni2 C6'
_cell_volume   477.72445404
_cell_formula_units_Z   2
loop_
 _symmetry_equiv_pos_site_id
 _symmetry_equiv_pos_as_xyz
  1  'x, y, z'
loop_
 _atom_site_type_symbol
 _atom_site_label
 _atom_site_symmetry_multiplicity
 _atom_site_fract_x
 _atom_site_fract_y
 _atom_site_fract_z
 _atom_site_occupancy
  C  C0  1  0.83316600  0.83316600  0.33520500  1
  C  C1  1  0.18194400  0.18194400  0.65940900  1
  C  C2  1  0.27904700  0.61478500  0.78802500  1
  C  C3  1  0.61478500  0.27904700  0.78802500  1
  C  C4  1  0.76653300  0.40209100  0.17725300  1
  C  C5  1  0.40209100  0.76653300  0.17725300  1
  Ni  Ni6  1  0.12216200  0.12216200  0.51085000  1
  Ni  Ni7  1  0.91394200  0.91394200  0.45690500  1
  Cu  Cu8  1  0.41396900  0.05740900  0.11210800  1
  Cu  Cu9  1  0.05740900  0.41396900  0.11210800  1
  Cu  Cu10  1  0.36454900  0.14770200  0.78727000  1
  Cu  Cu11  1  0.14770200  0.36454900  0.78727000  1
  Cu  Cu12  1  0.12780500  0.78900400  0.23853400  1
  Cu  Cu13  1  0.78900400  0.12780500  0.23853400  1
  Cu  Cu14  1  0.33965400  0.68058700  0.99351100  1
  Cu  Cu15  1  0.68058700  0.33965400  0.99351100  1
  Cu  Cu16  1  0.28796100  0.73766500  0.49053500  1
  Cu  Cu17  1  0.73766500  0.28796100  0.49053500  1
  Cu  Cu18  1  0.60228800  0.97329800  0.86487200  1
  Cu  Cu19  1  0.97329800  0.60228800  0.86487200  1
  Cu  Cu20  1  0.63752300  0.85030000  0.22211500  1
  Cu  Cu21  1  0.85030000  0.63752300  0.22211500  1
  Cu  Cu22  1  0.88434000  0.22800200  0.74409900  1
  Cu  Cu23  1  0.22800200  0.88434000  0.74409900  1
  Cu  Cu24  1  0.47973900  0.25986800  0.39649000  1
  Cu  Cu25  1  0.25986800  0.47973900  0.39649000  1
  Cu  Cu26  1  0.55554600  0.79452400  0.59566800  1
  Cu  Cu27  1  0.79452400  0.55554600  0.59566800  1
  Cu  Cu28  1  0.00300800  0.00300800  0.99777000  1
  Cu  Cu29  1  0.40227000  0.40227000  0.93778000  1
  Cu  Cu30  1  0.61656400  0.61656400  0.09399200  1
  Cu  Cu31  1  0.49855400  0.49855400  0.58812900  1
