# generated using pymatgen
data_Cu10Ni7
_symmetry_space_group_name_H-M   'P 1'
_cell_length_a   10.44823747
_cell_length_b   10.44823747
_cell_length_c   10.44823693
_cell_angle_alpha   89.70749548
_cell_angle_beta   89.70749548
_cell_angle_gamma   89.70749573
_symmetry_Int_Tables_number   1
_chemical_formula_structural   Cu10Ni7
_chemical_formula_sum   'Cu20 Ni14'
_cell_volume   1140.54430691
_cell_formula_units_Z   2
loop_
 _symmetry_equiv_pos_site_id
 _symmetry_equiv_pos_as_xyz
  1  'x, y, z'
loop_
 _atom_site_type_symbol
 _atom_site_label
 _atom_site_symmetry_multiplicity
 _atom_site_fract_x
 _atom_site_fract_y
 _atom_site_fract_z
 _atom_site_occupancy
  Ni  Ni0  1  0.56949600  0.56949600  0.56949600  1
  Ni  Ni1  1  0.43050400  0.43050400  0.43050400  1
  Ni  Ni2  1  0.34183100  0.16646000  0.74375600  1
  Ni  Ni3  1  0.16646000  0.74375600  0.34183100  1
  Ni  Ni4  1  0.74375600  0.34183100  0.16646000  1
  Ni  Ni5  1  0.83354000  0.65816900  0.25624400  1
  Ni  Ni6  1  0.65816900  0.25624400  0.83354000  1
  Ni  Ni7  1  0.25624400  0.83354000  0.65816900  1
  Ni  Ni8  1  0.57837500  0.88640700  0.84687100  1
  Ni  Ni9  1  0.88640700  0.84687100  0.57837500  1
  Ni  Ni10  1  0.84687100  0.57837500  0.88640700  1
  Ni  Ni11  1  0.11359300  0.42162500  0.15312900  1
  Ni  Ni12  1  0.42162500  0.15312900  0.11359300  1
  Ni  Ni13  1  0.15312900  0.11359300  0.42162500  1
  Cu  Cu14  1  0.83282200  0.83282200  0.83282200  1
  Cu  Cu15  1  0.16717800  0.16717800  0.16717800  1
  Cu  Cu16  1  0.00000000  0.82369700  0.17630300  1
  Cu  Cu17  1  0.82369700  0.17630300  0.00000000  1
  Cu  Cu18  1  0.17630300  0.00000000  0.82369700  1
  Cu  Cu19  1  0.50000000  0.91646900  0.08353100  1
  Cu  Cu20  1  0.91646900  0.08353100  0.50000000  1
  Cu  Cu21  1  0.08353100  0.50000000  0.91646900  1
  Cu  Cu22  1  0.43917300  0.68528900  0.76258900  1
  Cu  Cu23  1  0.68528900  0.76258900  0.43917300  1
  Cu  Cu24  1  0.76258900  0.43917300  0.68528900  1
  Cu  Cu25  1  0.31471100  0.56082700  0.23741100  1
  Cu  Cu26  1  0.56082700  0.23741100  0.31471100  1
  Cu  Cu27  1  0.23741100  0.31471100  0.56082700  1
  Cu  Cu28  1  0.57369100  0.07466400  0.67061700  1
  Cu  Cu29  1  0.07466400  0.67061700  0.57369100  1
  Cu  Cu30  1  0.67061700  0.57369100  0.07466400  1
  Cu  Cu31  1  0.92533600  0.42630900  0.32938300  1
  Cu  Cu32  1  0.42630900  0.32938300  0.92533600  1
  Cu  Cu33  1  0.32938300  0.92533600  0.42630900  1
