# generated using pymatgen
data_CuNi2C9
_symmetry_space_group_name_H-M   'P 1'
_cell_length_a   7.91256700
_cell_length_b   5.32788100
_cell_length_c   7.92719814
_cell_angle_alpha   89.93474066
_cell_angle_beta   90.00000000
_cell_angle_gamma   90.00000000
_symmetry_Int_Tables_number   1
_chemical_formula_structural   CuNi2C9
_chemical_formula_sum   'Cu2 Ni4 C18'
_cell_volume   334.18838266
_cell_formula_units_Z   2
loop_
 _symmetry_equiv_pos_site_id
 _symmetry_equiv_pos_as_xyz
  1  'x, y, z'
loop_
 _atom_site_type_symbol
 _atom_site_label
 _atom_site_symmetry_multiplicity
 _atom_site_fract_x
 _atom_site_fract_y
 _atom_site_fract_z
 _atom_site_occupancy
  C  C0  1  0.84005400  0.51311000  0.07834300  1
  C  C1  1  0.34005400  0.48689000  0.92165700  1
  C  C2  1  0.16470300  0.50975900  0.40215200  1
  C  C3  1  0.66470300  0.49024100  0.59784800  1
  Ni  Ni4  1  0.49986700  0.99994500  0.25004000  1
  Ni  Ni5  1  0.99986700  0.00005500  0.74996000  1
  Ni  Ni6  1  0.64211400  0.96622100  0.89224500  1
  Ni  Ni7  1  0.14211400  0.03377900  0.10775500  1
  Cu  Cu8  1  0.35842200  0.96001600  0.60801600  1
  Cu  Cu9  1  0.85842200  0.03998400  0.39198400  1
  C  C10  1  0.99266400  0.16223000  0.25452300  1
  C  C11  1  0.49266400  0.83777000  0.74547700  1
  C  C12  1  0.64115300  0.29060300  0.88725300  1
  C  C13  1  0.14115300  0.70939700  0.11274700  1
  C  C14  1  0.35810300  0.26338300  0.60441500  1
  C  C15  1  0.85810300  0.73661700  0.39558500  1
  C  C16  1  0.58272300  0.81492300  0.08503700  1
  C  C17  1  0.08272300  0.18507700  0.91496300  1
  C  C18  1  0.41375600  0.82567700  0.42608900  1
  C  C19  1  0.91375600  0.17432300  0.57391100  1
  C  C20  1  0.67388900  0.17134300  0.34154700  1
  C  C21  1  0.17388900  0.82865700  0.65845300  1
  C  C22  1  0.33255000  0.18814200  0.17328200  1
  C  C23  1  0.83255000  0.81185800  0.82671800  1
