# generated using pymatgen
data_CuNiC8
_symmetry_space_group_name_H-M   'P 1'
_cell_length_a   5.66410300
_cell_length_b   5.51452100
_cell_length_c   9.60351992
_cell_angle_alpha   54.82511388
_cell_angle_beta   90.00000000
_cell_angle_gamma   90.00000000
_symmetry_Int_Tables_number   1
_chemical_formula_structural   CuNiC8
_chemical_formula_sum   'Cu2 Ni2 C16'
_cell_volume   245.18995515
_cell_formula_units_Z   2
loop_
 _symmetry_equiv_pos_site_id
 _symmetry_equiv_pos_as_xyz
  1  'x, y, z'
loop_
 _atom_site_type_symbol
 _atom_site_label
 _atom_site_symmetry_multiplicity
 _atom_site_fract_x
 _atom_site_fract_y
 _atom_site_fract_z
 _atom_site_occupancy
  C  C0  1  0.94322500  0.23809700  0.74936500  1
  C  C1  1  0.55677500  0.23809700  0.24936500  1
  C  C2  1  0.05677500  0.76190300  0.25063500  1
  C  C3  1  0.44322500  0.76190300  0.75063500  1
  Ni  Ni4  1  0.50000000  0.50000000  0.50000000  1
  Ni  Ni5  1  0.00000000  0.50000000  0.00000000  1
  Cu  Cu6  1  0.00000000  0.00000000  0.50000000  1
  Cu  Cu7  1  0.50000000  0.00000000  0.00000000  1
  C  C8  1  0.80252800  0.15928200  0.04648600  1
  C  C9  1  0.69747200  0.15928200  0.54648600  1
  C  C10  1  0.19747200  0.84071800  0.95351400  1
  C  C11  1  0.51883000  0.34702700  0.74279500  1
  C  C12  1  0.79074700  0.74081700  0.45294900  1
  C  C13  1  0.20925300  0.25918300  0.54705100  1
  C  C14  1  0.98117000  0.34702700  0.24279500  1
  C  C15  1  0.48117000  0.65297300  0.25720500  1
  C  C16  1  0.30252800  0.84071800  0.45351400  1
  C  C17  1  0.01883000  0.65297300  0.75720500  1
  C  C18  1  0.70925300  0.74081700  0.95294900  1
  C  C19  1  0.29074700  0.25918300  0.04705100  1
