# generated using pymatgen
data_CuNiC30
_symmetry_space_group_name_H-M   'P 1'
_cell_length_a   8.58214293
_cell_length_b   8.96503483
_cell_length_c   4.42206216
_cell_angle_alpha   90.00000000
_cell_angle_beta   90.00000000
_cell_angle_gamma   90.00000000
_symmetry_Int_Tables_number   1
_chemical_formula_structural   CuNiC30
_chemical_formula_sum   'Cu1 Ni1 C30'
_cell_volume   340.22997041
_cell_formula_units_Z   1
loop_
 _symmetry_equiv_pos_site_id
 _symmetry_equiv_pos_as_xyz
  1  'x, y, z'
loop_
 _atom_site_type_symbol
 _atom_site_label
 _atom_site_symmetry_multiplicity
 _atom_site_fract_x
 _atom_site_fract_y
 _atom_site_fract_z
 _atom_site_occupancy
  C  C0  1  0.50000000  -0.00000000  -0.00000000  1
  C  C1  1  0.50000000  0.50000000  -0.00000000  1
  C  C2  1  0.00000000  0.24726866  0.50000000  1
  C  C3  1  0.00000000  0.75273134  0.50000000  1
  C  C4  1  0.50000000  0.24723486  0.50000000  1
  C  C5  1  0.50000000  0.75276514  0.50000000  1
  C  C6  1  0.24990399  -0.00000000  0.50000000  1
  C  C7  1  0.25991991  0.50000000  0.50000000  1
  C  C8  1  0.75009601  -0.00000000  0.50000000  1
  C  C9  1  0.74008009  0.50000000  0.50000000  1
  C  C10  1  0.25253272  0.24942439  -0.00000000  1
  C  C11  1  0.25253272  0.75057561  0.00000000  1
  C  C12  1  0.74746728  0.24942439  0.00000000  1
  C  C13  1  0.74746728  0.75057561  0.00000000  1
  Ni  Ni14  1  0.00000000  -0.00000000  -0.00000000  1
  Cu  Cu15  1  0.00000000  0.50000000  -0.00000000  1
  C  C16  1  0.23269907  -0.00000000  0.00000000  1
  C  C17  1  0.27701821  0.50000000  -0.00000000  1
  C  C18  1  0.76730093  -0.00000000  -0.00000000  1
  C  C19  1  0.72298179  0.50000000  -0.00000000  1
  C  C20  1  0.24914461  0.24734539  0.50000000  1
  C  C21  1  0.24914461  0.75265461  0.50000000  1
  C  C22  1  0.75085539  0.24734539  0.50000000  1
  C  C23  1  0.75085539  0.75265461  0.50000000  1
  C  C24  1  0.00000000  -0.00000000  0.50000000  1
  C  C25  1  0.00000000  0.50000000  0.50000000  1
  C  C26  1  0.50000000  -0.00000000  0.50000000  1
  C  C27  1  0.50000000  0.50000000  0.50000000  1
  C  C28  1  0.00000000  0.18359585  -0.00000000  1
  C  C29  1  0.00000000  0.81640415  0.00000000  1
  C  C30  1  0.50000000  0.23747409  -0.00000000  1
  C  C31  1  0.50000000  0.76252591  0.00000000  1
