# generated using pymatgen
data_Cu6Ni4C27
_symmetry_space_group_name_H-M   'P 1'
_cell_length_a   7.24934600
_cell_length_b   8.73702909
_cell_length_c   10.60895104
_cell_angle_alpha   105.34826635
_cell_angle_beta   106.34195073
_cell_angle_gamma   104.24045012
_symmetry_Int_Tables_number   1
_chemical_formula_structural   Cu6Ni4C27
_chemical_formula_sum   'Cu6 Ni4 C27'
_cell_volume   583.32619222
_cell_formula_units_Z   1
loop_
 _symmetry_equiv_pos_site_id
 _symmetry_equiv_pos_as_xyz
  1  'x, y, z'
loop_
 _atom_site_type_symbol
 _atom_site_label
 _atom_site_symmetry_multiplicity
 _atom_site_fract_x
 _atom_site_fract_y
 _atom_site_fract_z
 _atom_site_occupancy
  C  C0  1  0.00000000  0.50000000  0.50000000  1
  C  C1  1  0.29283400  0.30114600  0.79590800  1
  C  C2  1  0.70716600  0.69885400  0.20409200  1
  Ni  Ni3  1  0.37284100  0.96059500  0.59967400  1
  Ni  Ni4  1  0.62715900  0.03940500  0.40032600  1
  Ni  Ni5  1  0.04325800  0.20653600  0.01332800  1
  Ni  Ni6  1  0.95674200  0.79346400  0.98667200  1
  Cu  Cu7  1  0.78795900  0.33962200  0.73280800  1
  Cu  Cu8  1  0.21204100  0.66037800  0.26719200  1
  Cu  Cu9  1  0.88493000  0.90372400  0.67003000  1
  Cu  Cu10  1  0.39211200  0.74630500  0.86764700  1
  Cu  Cu11  1  0.11507000  0.09627600  0.32997000  1
  Cu  Cu12  1  0.60788800  0.25369500  0.13235300  1
  C  C13  1  0.84178800  0.68849900  0.58186200  1
  C  C14  1  0.15821200  0.31150100  0.41813800  1
  C  C15  1  0.24085600  0.53303200  0.73938700  1
  C  C16  1  0.75914400  0.46696800  0.26061300  1
  C  C17  1  0.79394500  0.28324700  0.54921800  1
  C  C18  1  0.20605500  0.71675300  0.45078200  1
  C  C19  1  0.67001100  0.95841100  0.58358000  1
  C  C20  1  0.32998900  0.04158900  0.41642000  1
  C  C21  1  0.62648500  0.74371600  0.98890100  1
  C  C22  1  0.37351500  0.25628400  0.01109900  1
  C  C23  1  0.47830400  0.78133300  0.28370900  1
  C  C24  1  0.52169600  0.21866700  0.71629100  1
  C  C25  1  0.11521400  0.01982200  0.65300400  1
  C  C26  1  0.07970300  0.05968900  0.14696800  1
  C  C27  1  0.92029700  0.94031100  0.85303200  1
  C  C28  1  0.56466400  0.12545000  0.23253900  1
  C  C29  1  0.43533600  0.87455000  0.76746100  1
  C  C30  1  0.17368600  0.44562400  0.16473700  1
  C  C31  1  0.82631400  0.55437600  0.83526300  1
  C  C32  1  0.99399300  0.27347400  0.83650500  1
  C  C33  1  0.00600700  0.72652600  0.16349500  1
  C  C34  1  0.24492900  0.81292400  0.96383200  1
  C  C35  1  0.75507100  0.18707600  0.03616800  1
  C  C36  1  0.88478600  0.98017800  0.34699600  1
