# generated using pymatgen
data_CuNiC8
_symmetry_space_group_name_H-M   'P 1'
_cell_length_a   5.57174108
_cell_length_b   7.94116753
_cell_length_c   5.61032747
_cell_angle_alpha   90.05342427
_cell_angle_beta   90.21941827
_cell_angle_gamma   89.76298083
_symmetry_Int_Tables_number   1
_chemical_formula_structural   CuNiC8
_chemical_formula_sum   'Cu2 Ni2 C16'
_cell_volume   248.23122650
_cell_formula_units_Z   2
loop_
 _symmetry_equiv_pos_site_id
 _symmetry_equiv_pos_as_xyz
  1  'x, y, z'
loop_
 _atom_site_type_symbol
 _atom_site_label
 _atom_site_symmetry_multiplicity
 _atom_site_fract_x
 _atom_site_fract_y
 _atom_site_fract_z
 _atom_site_occupancy
  C  C0  1  0.99610800  0.74280900  0.48631300  1
  C  C1  1  0.49610800  0.24280600  0.98631300  1
  C  C2  1  0.47308600  0.76009500  0.01109100  1
  C  C3  1  0.97308900  0.26009200  0.51109200  1
  Ni  Ni4  1  0.98466400  0.50146500  0.99878200  1
  Ni  Ni5  1  0.48463900  0.00145600  0.49880600  1
  Cu  Cu6  1  0.98469700  0.00151800  0.99866700  1
  Cu  Cu7  1  0.48469700  0.50151900  0.49866800  1
  C  C8  1  0.43778200  0.74221900  0.43843300  1
  C  C9  1  0.93777800  0.24223200  0.93842900  1
  C  C10  1  0.03148200  0.76080300  0.05887600  1
  C  C11  1  0.53148000  0.26081700  0.55887200  1
  C  C12  1  0.16616000  0.04989000  0.28984600  1
  C  C13  1  0.66616100  0.54988600  0.78986000  1
  C  C14  1  0.30327800  0.45325200  0.20737600  1
  C  C15  1  0.80328600  0.95324700  0.70738400  1
  C  C16  1  0.78484100  0.49903200  0.31812500  1
  C  C17  1  0.28483400  0.99903200  0.81812700  1
  C  C18  1  0.68457200  0.00393800  0.17920200  1
  C  C19  1  0.18456100  0.50393900  0.67921000  1
