# generated using pymatgen
data_Cu6Ni3C2
_symmetry_space_group_name_H-M   'P 1'
_cell_length_a   3.46684800
_cell_length_b   5.80028032
_cell_length_c   5.80028032
_cell_angle_alpha   96.72865232
_cell_angle_beta   90.00000000
_cell_angle_gamma   90.00000000
_symmetry_Int_Tables_number   1
_chemical_formula_structural   Cu6Ni3C2
_chemical_formula_sum   'Cu6 Ni3 C2'
_cell_volume   115.83267222
_cell_formula_units_Z   1
loop_
 _symmetry_equiv_pos_site_id
 _symmetry_equiv_pos_as_xyz
  1  'x, y, z'
loop_
 _atom_site_type_symbol
 _atom_site_label
 _atom_site_symmetry_multiplicity
 _atom_site_fract_x
 _atom_site_fract_y
 _atom_site_fract_z
 _atom_site_occupancy
  C  C0  1  0.00000000  0.27717600  0.72282400  1
  C  C1  1  0.00000000  0.72282400  0.27717600  1
  Ni  Ni2  1  0.50000000  0.00000000  0.00000000  1
  Ni  Ni3  1  0.00000000  0.77441400  0.77441400  1
  Ni  Ni4  1  0.00000000  0.22558600  0.22558600  1
  Cu  Cu5  1  0.50000000  0.91587800  0.61505100  1
  Cu  Cu6  1  0.50000000  0.08412200  0.38494900  1
  Cu  Cu7  1  0.50000000  0.61505100  0.91587800  1
  Cu  Cu8  1  0.50000000  0.38494900  0.08412200  1
  Cu  Cu9  1  0.50000000  0.61308600  0.61308600  1
  Cu  Cu10  1  0.50000000  0.38691400  0.38691400  1
