# generated using pymatgen
data_CuNiC9
_symmetry_space_group_name_H-M   'P 1'
_cell_length_a   6.74637815
_cell_length_b   6.74637815
_cell_length_c   6.74637791
_cell_angle_alpha   91.93305495
_cell_angle_beta   91.93305495
_cell_angle_gamma   91.93306362
_symmetry_Int_Tables_number   1
_chemical_formula_structural   CuNiC9
_chemical_formula_sum   'Cu2 Ni2 C18'
_cell_volume   306.51575208
_cell_formula_units_Z   2
loop_
 _symmetry_equiv_pos_site_id
 _symmetry_equiv_pos_as_xyz
  1  'x, y, z'
loop_
 _atom_site_type_symbol
 _atom_site_label
 _atom_site_symmetry_multiplicity
 _atom_site_fract_x
 _atom_site_fract_y
 _atom_site_fract_z
 _atom_site_occupancy
  C  C0  1  0.61435000  0.25000000  0.88565000  1
  C  C1  1  0.88565000  0.61435000  0.25000000  1
  C  C2  1  0.75000000  0.11435000  0.38565000  1
  C  C3  1  0.38565000  0.75000000  0.11435000  1
  C  C4  1  0.11435000  0.38565000  0.75000000  1
  C  C5  1  0.25000000  0.88565000  0.61435000  1
  Ni  Ni6  1  0.25000000  0.25000000  0.25000000  1
  Ni  Ni7  1  0.75000000  0.75000000  0.75000000  1
  Cu  Cu8  1  0.00000000  0.00000000  0.00000000  1
  Cu  Cu9  1  0.50000000  0.50000000  0.50000000  1
  C  C10  1  0.59237600  0.78567500  0.45923200  1
  C  C11  1  0.45923200  0.59237600  0.78567500  1
  C  C12  1  0.78567500  0.45923200  0.59237600  1
  C  C13  1  0.90762400  0.04076800  0.71432500  1
  C  C14  1  0.71432500  0.90762400  0.04076800  1
  C  C15  1  0.04076800  0.71432500  0.90762400  1
  C  C16  1  0.40762400  0.21432500  0.54076800  1
  C  C17  1  0.54076800  0.40762400  0.21432500  1
  C  C18  1  0.21432500  0.54076800  0.40762400  1
  C  C19  1  0.09237600  0.95923200  0.28567500  1
  C  C20  1  0.95923200  0.28567500  0.09237600  1
  C  C21  1  0.28567500  0.09237600  0.95923200  1
