# generated using pymatgen
data_CuNiC4
_symmetry_space_group_name_H-M   'P 1'
_cell_length_a   8.81493738
_cell_length_b   8.81493738
_cell_length_c   8.81493738
_cell_angle_alpha   60.00000000
_cell_angle_beta   60.00000000
_cell_angle_gamma   60.00000000
_symmetry_Int_Tables_number   1
_chemical_formula_structural   CuNiC4
_chemical_formula_sum   'Cu4 Ni4 C16'
_cell_volume   484.33147944
_cell_formula_units_Z   4
loop_
 _symmetry_equiv_pos_site_id
 _symmetry_equiv_pos_as_xyz
  1  'x, y, z'
loop_
 _atom_site_type_symbol
 _atom_site_label
 _atom_site_symmetry_multiplicity
 _atom_site_fract_x
 _atom_site_fract_y
 _atom_site_fract_z
 _atom_site_occupancy
  C  C0  1  0.19121700  0.60292800  0.60292800  1
  C  C1  1  0.60292800  0.19121700  0.60292800  1
  C  C2  1  0.60292800  0.60292800  0.60292800  1
  C  C3  1  0.60292800  0.60292800  0.19121700  1
  C  C4  1  0.45149000  0.45149000  0.04851000  1
  C  C5  1  0.04851000  0.04851000  0.45149000  1
  C  C6  1  0.45149000  0.04851000  0.04851000  1
  C  C7  1  0.04851000  0.45149000  0.45149000  1
  C  C8  1  0.04851000  0.45149000  0.04851000  1
  C  C9  1  0.45149000  0.04851000  0.45149000  1
  C  C10  1  0.81532600  0.81532600  0.18467400  1
  C  C11  1  0.18467400  0.18467400  0.81532600  1
  C  C12  1  0.81532600  0.18467400  0.18467400  1
  C  C13  1  0.18467400  0.81532600  0.81532600  1
  C  C14  1  0.18467400  0.81532600  0.18467400  1
  C  C15  1  0.81532600  0.18467400  0.81532600  1
  Ni  Ni16  1  0.82426200  0.39191300  0.39191300  1
  Ni  Ni17  1  0.39191300  0.82426200  0.39191300  1
  Ni  Ni18  1  0.39191300  0.39191300  0.39191300  1
  Ni  Ni19  1  0.39191300  0.39191300  0.82426200  1
  Cu  Cu20  1  0.50241300  0.83252900  0.83252900  1
  Cu  Cu21  1  0.83252900  0.50241300  0.83252900  1
  Cu  Cu22  1  0.83252900  0.83252900  0.83252900  1
  Cu  Cu23  1  0.83252900  0.83252900  0.50241300  1
