# generated using pymatgen
data_Cu2Ni2C3
_symmetry_space_group_name_H-M   'P 1'
_cell_length_a   7.13645028
_cell_length_b   7.13645028
_cell_length_c   6.70708234
_cell_angle_alpha   63.88629714
_cell_angle_beta   63.88629714
_cell_angle_gamma   31.65796986
_symmetry_Int_Tables_number   1
_chemical_formula_structural   Cu2Ni2C3
_chemical_formula_sum   'Cu2 Ni2 C3'
_cell_volume   159.41703376
_cell_formula_units_Z   1
loop_
 _symmetry_equiv_pos_site_id
 _symmetry_equiv_pos_as_xyz
  1  'x, y, z'
loop_
 _atom_site_type_symbol
 _atom_site_label
 _atom_site_symmetry_multiplicity
 _atom_site_fract_x
 _atom_site_fract_y
 _atom_site_fract_z
 _atom_site_occupancy
  C  C0  1  0.00000000  0.00000000  0.00000000  1
  C  C1  1  0.26298000  0.26298000  0.77336400  1
  C  C2  1  0.73702000  0.73702000  0.22663600  1
  Ni  Ni3  1  0.36795000  0.36795000  0.30104700  1
  Ni  Ni4  1  0.63205000  0.63205000  0.69895300  1
  Cu  Cu5  1  0.12794700  0.12794700  0.18739100  1
  Cu  Cu6  1  0.87205300  0.87205300  0.81260900  1
