# generated using pymatgen
data_Cu2Ni24C17
_symmetry_space_group_name_H-M   'P 1'
_cell_length_a   8.16660477
_cell_length_b   10.76297727
_cell_length_c   10.49503513
_cell_angle_alpha   120.80185021
_cell_angle_beta   90.00000000
_cell_angle_gamma   90.00000000
_symmetry_Int_Tables_number   1
_chemical_formula_structural   Cu2Ni24C17
_chemical_formula_sum   'Cu2 Ni24 C17'
_cell_volume   792.35971180
_cell_formula_units_Z   1
loop_
 _symmetry_equiv_pos_site_id
 _symmetry_equiv_pos_as_xyz
  1  'x, y, z'
loop_
 _atom_site_type_symbol
 _atom_site_label
 _atom_site_symmetry_multiplicity
 _atom_site_fract_x
 _atom_site_fract_y
 _atom_site_fract_z
 _atom_site_occupancy
  C  C0  1  0.54587106  0.60325275  0.29141914  1
  C  C1  1  0.00521733  0.34546325  0.65892293  1
  C  C2  1  0.49478267  0.34546325  0.65892293  1
  C  C3  1  0.95412894  0.60325275  0.29141914  1
  C  C4  1  0.75000000  0.19095114  0.97214745  1
  C  C5  1  0.75000000  0.98957123  0.23440865  1
  C  C6  1  0.75000000  0.76667251  0.77323708  1
  C  C7  1  0.25000000  0.72638108  0.99511504  1
  C  C8  1  0.25000000  0.01009394  0.77184554  1
  C  C9  1  0.25000000  0.25831885  0.23722280  1
  C  C10  1  0.25000000  0.76830847  0.38416551  1
  C  C11  1  0.75000000  0.96780351  0.59367504  1
  C  C12  1  0.75000000  0.38095327  0.36973321  1
  C  C13  1  0.75000000  0.60657445  0.00768834  1
  C  C14  1  0.25000000  0.06187233  0.40143018  1
  C  C15  1  0.25000000  0.61244430  0.62859879  1
  C  C16  1  0.25000000  0.38358638  0.99377165  1
  Ni  Ni17  1  0.75000000  0.14940455  0.65307715  1
  Ni  Ni18  1  0.75000000  0.29360914  0.46576282  1
  Ni  Ni19  1  0.75000000  0.52191683  0.81854388  1
  Ni  Ni20  1  0.25000000  0.87474737  0.29073172  1
  Ni  Ni21  1  0.25000000  0.73282708  0.53923124  1
  Ni  Ni22  1  0.25000000  0.56905993  0.20005862  1
  Ni  Ni23  1  0.75000000  0.85083678  0.40164248  1
  Ni  Ni24  1  0.75000000  0.56764613  0.47551104  1
  Ni  Ni25  1  0.75000000  0.48388389  0.06976624  1
  Ni  Ni26  1  0.25000000  0.11451263  0.58588097  1
  Ni  Ni27  1  0.25000000  0.41795627  0.52330784  1
  Ni  Ni28  1  0.25000000  0.44683716  0.86872298  1
  Ni  Ni29  1  0.58410360  0.93079859  0.67040938  1
  Ni  Ni30  1  0.58276018  0.34023927  0.25515257  1
  Ni  Ni31  1  0.58139404  0.71363746  0.08544817  1
  Ni  Ni32  1  0.07933624  0.12066254  0.35542634  1
  Ni  Ni33  1  0.07755027  0.65171751  0.74491714  1
  Ni  Ni34  1  0.08531397  0.26782800  0.97074535  1
  Ni  Ni35  1  0.42066376  0.12066254  0.35542634  1
  Ni  Ni36  1  0.42244973  0.65171751  0.74491714  1
  Ni  Ni37  1  0.41468603  0.26782800  0.97074535  1
  Ni  Ni38  1  0.91589640  0.93079859  0.67040938  1
  Ni  Ni39  1  0.91723982  0.34023927  0.25515257  1
  Ni  Ni40  1  0.91860596  0.71363746  0.08544817  1
  Cu  Cu41  1  0.57270760  0.98739152  0.00867086  1
  Cu  Cu42  1  0.92729240  0.98739152  0.00867086  1
