# generated using pymatgen
data_Cu3NiC16
_symmetry_space_group_name_H-M   'P 1'
_cell_length_a   7.61934500
_cell_length_b   5.35136300
_cell_length_c   5.65368340
_cell_angle_alpha   89.44797945
_cell_angle_beta   90.00000000
_cell_angle_gamma   90.00000000
_symmetry_Int_Tables_number   1
_chemical_formula_structural   Cu3NiC16
_chemical_formula_sum   'Cu3 Ni1 C16'
_cell_volume   230.51191463
_cell_formula_units_Z   1
loop_
 _symmetry_equiv_pos_site_id
 _symmetry_equiv_pos_as_xyz
  1  'x, y, z'
loop_
 _atom_site_type_symbol
 _atom_site_label
 _atom_site_symmetry_multiplicity
 _atom_site_fract_x
 _atom_site_fract_y
 _atom_site_fract_z
 _atom_site_occupancy
  Ni  Ni0  1  0.50000000  0.48523600  0.56033900  1
  Cu  Cu1  1  0.50000000  0.01732600  0.06693200  1
  Cu  Cu2  1  0.00000000  0.51746200  0.43202700  1
  Cu  Cu3  1  0.00000000  0.98395500  0.93311600  1
  C  C4  1  0.25228300  0.00238000  0.50070700  1
  C  C5  1  0.74829100  0.49841400  0.99800000  1
  C  C6  1  0.74771700  0.00238000  0.50070700  1
  C  C7  1  0.25170900  0.49841400  0.99800000  1
  C  C8  1  0.50000000  0.60546600  0.97098400  1
  C  C9  1  0.50000000  0.90599500  0.46350700  1
  C  C10  1  0.00000000  0.39697100  0.03310000  1
  C  C11  1  0.00000000  0.10569200  0.53325300  1
  C  C12  1  0.29719000  0.19942900  0.81521800  1
  C  C13  1  0.70173900  0.29432100  0.29753600  1
  C  C14  1  0.80472400  0.79104100  0.19259600  1
  C  C15  1  0.19106800  0.70536400  0.69931600  1
  C  C16  1  0.19527600  0.79104100  0.19259600  1
  C  C17  1  0.80893200  0.70536400  0.69931600  1
  C  C18  1  0.70281000  0.19942900  0.81521800  1
  C  C19  1  0.29826100  0.29432100  0.29753600  1
