# generated using pymatgen
data_Cu14NiC
_symmetry_space_group_name_H-M   'P 1'
_cell_length_a   6.31820740
_cell_length_b   6.15441719
_cell_length_c   10.22373601
_cell_angle_alpha   90.00000000
_cell_angle_beta   90.00000000
_cell_angle_gamma   119.14610377
_symmetry_Int_Tables_number   1
_chemical_formula_structural   Cu14NiC
_chemical_formula_sum   'Cu14 Ni1 C1'
_cell_volume   347.21140372
_cell_formula_units_Z   1
loop_
 _symmetry_equiv_pos_site_id
 _symmetry_equiv_pos_as_xyz
  1  'x, y, z'
loop_
 _atom_site_type_symbol
 _atom_site_label
 _atom_site_symmetry_multiplicity
 _atom_site_fract_x
 _atom_site_fract_y
 _atom_site_fract_z
 _atom_site_occupancy
  Ni  Ni0  1  0.15978606  0.82989253  0.12500000  1
  Cu  Cu1  1  0.16509442  0.33254671  0.62500000  1
  Cu  Cu2  1  0.16686047  0.83342973  0.62500000  1
  Cu  Cu3  1  0.66508221  0.33529082  0.12500000  1
  Cu  Cu4  1  0.66515645  0.33120162  0.62500000  1
  Cu  Cu5  1  0.66508221  0.82979040  0.12500000  1
  Cu  Cu6  1  0.66515645  0.83395383  0.62500000  1
  Cu  Cu7  1  0.33238383  0.16705484  0.37113235  1
  Cu  Cu8  1  0.33238383  0.16705484  0.87886765  1
  Cu  Cu9  1  0.33238383  0.66532999  0.37113235  1
  Cu  Cu10  1  0.33238383  0.66532999  0.87886765  1
  Cu  Cu11  1  0.83884073  0.16942086  0.36993714  1
  Cu  Cu12  1  0.83884073  0.16942086  0.88006286  1
  Cu  Cu13  1  0.83724056  0.66862078  0.37546110  1
  Cu  Cu14  1  0.83724056  0.66862078  0.87453890  1
  C  C15  1  0.16608382  0.33304141  0.12500000  1
