# generated using pymatgen
data_CuNi2C7
_symmetry_space_group_name_H-M   'P 1'
_cell_length_a   5.97954128
_cell_length_b   6.14159700
_cell_length_c   8.55320450
_cell_angle_alpha   90.00000000
_cell_angle_beta   90.00835820
_cell_angle_gamma   90.00000000
_symmetry_Int_Tables_number   1
_chemical_formula_structural   CuNi2C7
_chemical_formula_sum   'Cu2 Ni4 C14'
_cell_volume   314.10730344
_cell_formula_units_Z   2
loop_
 _symmetry_equiv_pos_site_id
 _symmetry_equiv_pos_as_xyz
  1  'x, y, z'
loop_
 _atom_site_type_symbol
 _atom_site_label
 _atom_site_symmetry_multiplicity
 _atom_site_fract_x
 _atom_site_fract_y
 _atom_site_fract_z
 _atom_site_occupancy
  Ni  Ni0  1  0.01252000  0.45332300  0.25213500  1
  Ni  Ni1  1  0.98748000  0.54667700  0.74786500  1
  Ni  Ni2  1  0.48748000  0.95332300  0.24786500  1
  Ni  Ni3  1  0.51252000  0.04667700  0.75213500  1
  Cu  Cu4  1  0.00000000  0.00000000  0.50000000  1
  Cu  Cu5  1  0.50000000  0.50000000  0.00000000  1
  C  C6  1  0.00000000  0.00000000  0.00000000  1
  C  C7  1  0.50000000  0.50000000  0.50000000  1
  C  C8  1  0.90320400  0.03884100  0.24120100  1
  C  C9  1  0.09679600  0.96115900  0.75879900  1
  C  C10  1  0.59679600  0.53884100  0.25879900  1
  C  C11  1  0.40320400  0.46115900  0.74120100  1
  C  C12  1  0.19513700  0.71424700  0.05514300  1
  C  C13  1  0.80486300  0.28575300  0.94485700  1
  C  C14  1  0.30486300  0.21424700  0.44485700  1
  C  C15  1  0.69513700  0.78575300  0.55514300  1
  C  C16  1  0.28916300  0.19709100  0.04787200  1
  C  C17  1  0.71083700  0.80290900  0.95212800  1
  C  C18  1  0.21083700  0.69709100  0.45212800  1
  C  C19  1  0.78916300  0.30290900  0.54787200  1
