# generated using pymatgen
data_Cu6NiC30
_symmetry_space_group_name_H-M   'P 1'
_cell_length_a   8.97888017
_cell_length_b   8.71516764
_cell_length_c   8.81985705
_cell_angle_alpha   110.94577116
_cell_angle_beta   106.37238002
_cell_angle_gamma   105.70045223
_symmetry_Int_Tables_number   1
_chemical_formula_structural   Cu6NiC30
_chemical_formula_sum   'Cu6 Ni1 C30'
_cell_volume   562.81410525
_cell_formula_units_Z   1
loop_
 _symmetry_equiv_pos_site_id
 _symmetry_equiv_pos_as_xyz
  1  'x, y, z'
loop_
 _atom_site_type_symbol
 _atom_site_label
 _atom_site_symmetry_multiplicity
 _atom_site_fract_x
 _atom_site_fract_y
 _atom_site_fract_z
 _atom_site_occupancy
  Ni  Ni0  1  0.10840000  0.88095800  0.74905500  1
  Cu  Cu1  1  0.05235600  0.44924900  0.26273400  1
  Cu  Cu2  1  0.22907500  0.04581000  0.45485500  1
  Cu  Cu3  1  0.73019400  0.95595300  0.54239500  1
  Cu  Cu4  1  0.54688400  0.76963300  0.91387200  1
  Cu  Cu5  1  0.48006800  0.28320300  0.05654300  1
  Cu  Cu6  1  0.92868900  0.51263000  0.75308800  1
  C  C7  1  0.59068000  0.39933400  0.78347100  1
  C  C8  1  0.09801700  0.26104400  0.88410500  1
  C  C9  1  0.86256200  0.08029100  0.29004400  1
  C  C10  1  0.29919100  0.89445500  0.07284300  1
  C  C11  1  0.79181300  0.57635500  0.39114400  1
  C  C12  1  0.36089700  0.78625400  0.57927100  1
  C  C13  1  0.40826100  0.29184000  0.64219900  1
  C  C14  1  0.89372000  0.63079200  0.59412500  1
  C  C15  1  0.92869500  0.59154600  0.31408700  1
  C  C16  1  0.42449900  0.80507300  0.05962400  1
  C  C17  1  0.29150400  0.31746900  0.93720400  1
  C  C18  1  0.75111400  0.97505200  0.08334200  1
  C  C19  1  0.54690100  0.90432700  0.63505800  1
  C  C20  1  0.30504700  0.96364200  0.25743800  1
  C  C21  1  0.99830400  0.05468800  0.74718400  1
  C  C22  1  0.27529300  0.64467900  0.37755900  1
  C  C23  1  0.75261900  0.08275200  0.39522800  1
  C  C24  1  0.98687100  0.99845900  0.34238300  1
  C  C25  1  0.34935800  0.68722100  0.69556400  1
  C  C26  1  0.25507000  0.90299900  0.61198500  1
  C  C27  1  0.96313200  0.27843600  0.33364500  1
  C  C28  1  0.71404300  0.70830800  0.38005200  1
  C  C29  1  0.71594700  0.33936800  0.70956200  1
  C  C30  1  0.11439200  0.76250700  0.92003500  1
  C  C31  1  0.05225500  0.37354100  0.79296900  1
  C  C32  1  0.65306900  0.37949000  0.29313900  1
  C  C33  1  0.65265800  0.60490700  0.84293700  1
  C  C34  1  0.33399000  0.04359600  0.00852300  1
  C  C35  1  0.61917600  0.36788700  0.95198100  1
  C  C36  1  0.05439900  0.29396200  0.04560600  1
