# generated using pymatgen
data_Cu2(Ni2C7)3
_symmetry_space_group_name_H-M   'P 1'
_cell_length_a   5.98100365
_cell_length_b   5.98100365
_cell_length_c   30.38119500
_cell_angle_alpha   90.00000000
_cell_angle_beta   90.00000000
_cell_angle_gamma   119.99999613
_symmetry_Int_Tables_number   1
_chemical_formula_structural   Cu2(Ni2C7)3
_chemical_formula_sum   'Cu4 Ni12 C42'
_cell_volume   941.20372158
_cell_formula_units_Z   2
loop_
 _symmetry_equiv_pos_site_id
 _symmetry_equiv_pos_as_xyz
  1  'x, y, z'
loop_
 _atom_site_type_symbol
 _atom_site_label
 _atom_site_symmetry_multiplicity
 _atom_site_fract_x
 _atom_site_fract_y
 _atom_site_fract_z
 _atom_site_occupancy
  Ni  Ni0  1  0.33333300  0.66666700  0.18026100  1
  Ni  Ni1  1  0.66666700  0.33333300  0.81973900  1
  Ni  Ni2  1  0.66666700  0.33333300  0.68026100  1
  Ni  Ni3  1  0.33333300  0.66666700  0.31973900  1
  Ni  Ni4  1  0.00000000  0.00000000  0.00000000  1
  Ni  Ni5  1  0.00000000  0.00000000  0.50000000  1
  Ni  Ni6  1  0.33333300  0.66666700  0.59014900  1
  Ni  Ni7  1  0.66666700  0.33333300  0.40985100  1
  Ni  Ni8  1  0.66666700  0.33333300  0.09014900  1
  Ni  Ni9  1  0.33333300  0.66666700  0.90985100  1
  Ni  Ni10  1  0.00000000  0.00000000  0.25000000  1
  Ni  Ni11  1  0.00000000  0.00000000  0.75000000  1
  Cu  Cu12  1  0.00000000  0.00000000  0.12490700  1
  Cu  Cu13  1  0.00000000  0.00000000  0.87509300  1
  Cu  Cu14  1  0.00000000  0.00000000  0.62490700  1
  Cu  Cu15  1  0.00000000  0.00000000  0.37509300  1
  C  C16  1  0.33333300  0.66666700  0.70167700  1
  C  C17  1  0.66666700  0.33333300  0.29832300  1
  C  C18  1  0.66666700  0.33333300  0.20167700  1
  C  C19  1  0.33333300  0.66666700  0.79832300  1
  C  C20  1  0.33333300  0.66666700  0.05202900  1
  C  C21  1  0.66666700  0.33333300  0.94797100  1
  C  C22  1  0.66666700  0.33333300  0.55202900  1
  C  C23  1  0.33333300  0.66666700  0.44797100  1
  C  C24  1  0.33333300  0.66666700  0.50384300  1
  C  C25  1  0.66666700  0.33333300  0.49615700  1
  C  C26  1  0.66666700  0.33333300  0.00384300  1
  C  C27  1  0.33333300  0.66666700  0.99615700  1
  C  C28  1  0.17490700  0.34981400  0.66980000  1
  C  C29  1  0.82509300  0.65018600  0.33020000  1
  C  C30  1  0.65018600  0.82509300  0.66980000  1
  C  C31  1  0.82509300  0.65018600  0.16980000  1
  C  C32  1  0.34981400  0.17490700  0.33020000  1
  C  C33  1  0.17490700  0.34981400  0.83020000  1
  C  C34  1  0.17490700  0.82509300  0.66980000  1
  C  C35  1  0.34981400  0.17490700  0.16980000  1
  C  C36  1  0.82509300  0.17490700  0.33020000  1
  C  C37  1  0.65018600  0.82509300  0.83020000  1
  C  C38  1  0.82509300  0.17490700  0.16980000  1
  C  C39  1  0.17490700  0.82509300  0.83020000  1
  C  C40  1  0.51551000  0.03102000  0.25000000  1
  C  C41  1  0.48449000  0.96898000  0.75000000  1
  C  C42  1  0.96898000  0.48449000  0.25000000  1
  C  C43  1  0.03102000  0.51551000  0.75000000  1
  C  C44  1  0.51551000  0.48449000  0.25000000  1
  C  C45  1  0.48449000  0.51551000  0.75000000  1
  C  C46  1  0.17760500  0.35521000  0.07250600  1
  C  C47  1  0.82239500  0.64479000  0.92749400  1
  C  C48  1  0.64479000  0.82239500  0.07250600  1
  C  C49  1  0.82239500  0.64479000  0.57250600  1
  C  C50  1  0.35521000  0.17760500  0.92749400  1
  C  C51  1  0.17760500  0.35521000  0.42749400  1
  C  C52  1  0.17760500  0.82239500  0.07250600  1
  C  C53  1  0.35521000  0.17760500  0.57250600  1
  C  C54  1  0.82239500  0.17760500  0.92749400  1
  C  C55  1  0.64479000  0.82239500  0.42749400  1
  C  C56  1  0.82239500  0.17760500  0.57250600  1
  C  C57  1  0.17760500  0.82239500  0.42749400  1
