# generated using pymatgen
data_CuNi3C
_symmetry_space_group_name_H-M   'P 1'
_cell_length_a   4.23529600
_cell_length_b   4.23529600
_cell_length_c   5.76199113
_cell_angle_alpha   111.56276123
_cell_angle_beta   111.56276123
_cell_angle_gamma   90.00000000
_symmetry_Int_Tables_number   1
_chemical_formula_structural   CuNi3C
_chemical_formula_sum   'Cu1 Ni3 C1'
_cell_volume   88.29970656
_cell_formula_units_Z   1
loop_
 _symmetry_equiv_pos_site_id
 _symmetry_equiv_pos_as_xyz
  1  'x, y, z'
loop_
 _atom_site_type_symbol
 _atom_site_label
 _atom_site_symmetry_multiplicity
 _atom_site_fract_x
 _atom_site_fract_y
 _atom_site_fract_z
 _atom_site_occupancy
  C  C0  1  0.99788700  0.99788700  0.99577400  1
  Ni  Ni1  1  0.41427400  0.41427400  0.82854800  1
  Ni  Ni2  1  0.76415000  0.26415000  0.52830000  1
  Ni  Ni3  1  0.26415000  0.76415000  0.52830000  1
  Cu  Cu4  1  0.65354000  0.65354000  0.30708000  1
