# generated using pymatgen
data_CuNiC4
_symmetry_space_group_name_H-M   'P 1'
_cell_length_a   5.87560700
_cell_length_b   5.84635600
_cell_length_c   5.85243541
_cell_angle_alpha   89.75522781
_cell_angle_beta   90.00000000
_cell_angle_gamma   90.00000000
_symmetry_Int_Tables_number   1
_chemical_formula_structural   CuNiC4
_chemical_formula_sum   'Cu2 Ni2 C8'
_cell_volume   201.03453171
_cell_formula_units_Z   2
loop_
 _symmetry_equiv_pos_site_id
 _symmetry_equiv_pos_as_xyz
  1  'x, y, z'
loop_
 _atom_site_type_symbol
 _atom_site_label
 _atom_site_symmetry_multiplicity
 _atom_site_fract_x
 _atom_site_fract_y
 _atom_site_fract_z
 _atom_site_occupancy
  Ni  Ni0  1  0.50000000  0.00000000  0.50000000  1
  Ni  Ni1  1  0.00000000  0.50000000  0.50000000  1
  Cu  Cu2  1  0.50000000  0.50000000  0.00000000  1
  Cu  Cu3  1  0.00000000  0.00000000  0.00000000  1
  C  C4  1  0.12023000  0.61723200  0.13048000  1
  C  C5  1  0.62023000  0.88276800  0.86952000  1
  C  C6  1  0.87140700  0.12942600  0.38285500  1
  C  C7  1  0.37140700  0.37057400  0.61714500  1
  C  C8  1  0.87977000  0.38276800  0.86952000  1
  C  C9  1  0.37977000  0.11723200  0.13048000  1
  C  C10  1  0.12859300  0.87057400  0.61714500  1
  C  C11  1  0.62859300  0.62942600  0.38285500  1
