# generated using pymatgen
data_Cu2NiC12
_symmetry_space_group_name_H-M   'P 1'
_cell_length_a   16.01892400
_cell_length_b   5.45902000
_cell_length_c   10.55088513
_cell_angle_alpha   89.44045651
_cell_angle_beta   90.00000000
_cell_angle_gamma   90.00000000
_symmetry_Int_Tables_number   1
_chemical_formula_structural   Cu2NiC12
_chemical_formula_sum   'Cu8 Ni4 C48'
_cell_volume   922.60586451
_cell_formula_units_Z   4
loop_
 _symmetry_equiv_pos_site_id
 _symmetry_equiv_pos_as_xyz
  1  'x, y, z'
loop_
 _atom_site_type_symbol
 _atom_site_label
 _atom_site_symmetry_multiplicity
 _atom_site_fract_x
 _atom_site_fract_y
 _atom_site_fract_z
 _atom_site_occupancy
  Ni  Ni0  1  0.76628100  0.04699100  0.38534000  1
  Ni  Ni1  1  0.26628100  0.95300900  0.11466000  1
  Ni  Ni2  1  0.23371900  0.95300900  0.61466000  1
  Ni  Ni3  1  0.73371900  0.04699100  0.88534000  1
  C  C4  1  0.59111900  0.99109100  0.42117500  1
  C  C5  1  0.09111900  0.00890900  0.07882500  1
  C  C6  1  0.40888100  0.00890900  0.57882500  1
  C  C7  1  0.90888100  0.99109100  0.92117500  1
  Cu  Cu8  1  0.77902900  0.54582800  0.63594700  1
  Cu  Cu9  1  0.27902900  0.45417200  0.86405300  1
  Cu  Cu10  1  0.22097100  0.45417200  0.36405300  1
  Cu  Cu11  1  0.72097100  0.54582800  0.13594700  1
  Cu  Cu12  1  0.97405800  0.28763100  0.25474700  1
  Cu  Cu13  1  0.47405800  0.71236900  0.24525300  1
  Cu  Cu14  1  0.02594200  0.71236900  0.74525300  1
  Cu  Cu15  1  0.52594200  0.28763100  0.75474700  1
  C  C16  1  0.64930800  0.00872600  0.45373300  1
  C  C17  1  0.14930800  0.99127400  0.04626700  1
  C  C18  1  0.35069200  0.99127400  0.54626700  1
  C  C19  1  0.85069200  0.00872600  0.95373300  1
  C  C20  1  0.79356600  0.73554600  0.47857500  1
  C  C21  1  0.29356600  0.26445400  0.02142500  1
  C  C22  1  0.20643400  0.26445400  0.52142500  1
  C  C23  1  0.70643400  0.73554600  0.97857500  1
  C  C24  1  0.79654500  0.24280600  0.54044000  1
  C  C25  1  0.29654500  0.75719400  0.95956000  1
  C  C26  1  0.20345500  0.75719400  0.45956000  1
  C  C27  1  0.70345500  0.24280600  0.04044000  1
  C  C28  1  0.76750800  0.35509800  0.79437300  1
  C  C29  1  0.26750800  0.64490200  0.70562700  1
  C  C30  1  0.23249200  0.64490200  0.20562700  1
  C  C31  1  0.73249200  0.35509800  0.29437300  1
  C  C32  1  0.76218200  0.85058000  0.73028700  1
  C  C33  1  0.26218200  0.14942000  0.76971300  1
  C  C34  1  0.23781800  0.14942000  0.26971300  1
  C  C35  1  0.73781800  0.85058000  0.23028700  1
  C  C36  1  0.88468000  0.06757100  0.32037100  1
  C  C37  1  0.38468000  0.93242900  0.17962900  1
  C  C38  1  0.11532000  0.93242900  0.67962900  1
  C  C39  1  0.61532000  0.06757100  0.82037100  1
  C  C40  1  0.94379000  0.52847000  0.37884000  1
  C  C41  1  0.44379000  0.47153000  0.12116000  1
  C  C42  1  0.05621000  0.47153000  0.62116000  1
  C  C43  1  0.55621000  0.52847000  0.87884000  1
  C  C44  1  0.89351500  0.43563500  0.13786600  1
  C  C45  1  0.39351500  0.56436500  0.36213400  1
  C  C46  1  0.10648500  0.56436500  0.86213400  1
  C  C47  1  0.60648500  0.43563500  0.63786600  1
  C  C48  1  0.06150400  0.49619800  0.19174700  1
  C  C49  1  0.56150400  0.50380200  0.30825300  1
  C  C50  1  0.93849600  0.50380200  0.80825300  1
  C  C51  1  0.43849600  0.49619800  0.69174700  1
  C  C52  1  0.00588200  0.03968100  0.12660700  1
  C  C53  1  0.50588200  0.96031900  0.37339300  1
  C  C54  1  0.99411800  0.96031900  0.87339300  1
  C  C55  1  0.49411800  0.03968100  0.62660700  1
  C  C56  1  0.05495700  0.14278300  0.37091700  1
  C  C57  1  0.55495700  0.85721700  0.12908300  1
  C  C58  1  0.94504300  0.85721700  0.62908300  1
  C  C59  1  0.44504300  0.14278300  0.87091700  1
