# generated using pymatgen
data_CuNiC8
_symmetry_space_group_name_H-M   'P 1'
_cell_length_a   5.66377583
_cell_length_b   5.82606400
_cell_length_c   8.10996590
_cell_angle_alpha   90.00000000
_cell_angle_beta   90.12825910
_cell_angle_gamma   90.00000000
_symmetry_Int_Tables_number   1
_chemical_formula_structural   CuNiC8
_chemical_formula_sum   'Cu2 Ni2 C16'
_cell_volume   267.60809542
_cell_formula_units_Z   2
loop_
 _symmetry_equiv_pos_site_id
 _symmetry_equiv_pos_as_xyz
  1  'x, y, z'
loop_
 _atom_site_type_symbol
 _atom_site_label
 _atom_site_symmetry_multiplicity
 _atom_site_fract_x
 _atom_site_fract_y
 _atom_site_fract_z
 _atom_site_occupancy
  C  C0  1  0.01067300  0.45031300  0.25038500  1
  C  C1  1  0.98932700  0.54968700  0.74961500  1
  C  C2  1  0.48932700  0.95031300  0.24961500  1
  C  C3  1  0.51067300  0.04968700  0.75038500  1
  Ni  Ni4  1  0.00000000  0.00000000  0.00000000  1
  Ni  Ni5  1  0.50000000  0.50000000  0.50000000  1
  Cu  Cu6  1  0.00000000  0.00000000  0.50000000  1
  Cu  Cu7  1  0.50000000  0.50000000  0.00000000  1
  C  C8  1  0.19965400  0.69705400  0.04927900  1
  C  C9  1  0.80034600  0.30294600  0.95072100  1
  C  C10  1  0.30034600  0.19705400  0.45072100  1
  C  C11  1  0.69965400  0.80294600  0.54927900  1
  C  C12  1  0.30496000  0.20061900  0.04878200  1
  C  C13  1  0.69504000  0.79938100  0.95121800  1
  C  C14  1  0.19504000  0.70061900  0.45121800  1
  C  C15  1  0.80496000  0.29938100  0.54878200  1
  C  C16  1  0.90660200  0.03162800  0.25074600  1
  C  C17  1  0.09339800  0.96837200  0.74925400  1
  C  C18  1  0.59339800  0.53162800  0.24925400  1
  C  C19  1  0.40660200  0.46837200  0.75074600  1
