# generated using pymatgen
data_Cu6NiC12
_symmetry_space_group_name_H-M   'P 1'
_cell_length_a   5.29500224
_cell_length_b   8.10738061
_cell_length_c   6.00184234
_cell_angle_alpha   95.78372982
_cell_angle_beta   100.01978582
_cell_angle_gamma   83.63962171
_symmetry_Int_Tables_number   1
_chemical_formula_structural   Cu6NiC12
_chemical_formula_sum   'Cu6 Ni1 C12'
_cell_volume   251.28338368
_cell_formula_units_Z   1
loop_
 _symmetry_equiv_pos_site_id
 _symmetry_equiv_pos_as_xyz
  1  'x, y, z'
loop_
 _atom_site_type_symbol
 _atom_site_label
 _atom_site_symmetry_multiplicity
 _atom_site_fract_x
 _atom_site_fract_y
 _atom_site_fract_z
 _atom_site_occupancy
  Ni  Ni0  1  0.50425000  0.18398700  0.17957700  1
  Cu  Cu1  1  0.44001900  0.96605000  0.55050100  1
  Cu  Cu2  1  0.63287400  0.65924400  0.15373500  1
  Cu  Cu3  1  0.53404300  0.35963100  0.76330300  1
  Cu  Cu4  1  0.95711600  0.66445900  0.67216200  1
  Cu  Cu5  1  0.00768800  0.32725500  0.32054900  1
  Cu  Cu6  1  0.99761900  0.97065800  0.99921400  1
  C  C7  1  0.84472600  0.74774900  0.94775400  1
  C  C8  1  0.65882500  0.75060500  0.48463500  1
  C  C9  1  0.67935400  0.39207400  0.13139100  1
  C  C10  1  0.34500800  0.23244800  0.47094000  1
  C  C11  1  0.85706700  0.39944400  0.62710800  1
  C  C12  1  0.86134100  0.09499700  0.30415200  1
  C  C13  1  0.61754200  0.09877000  0.86476300  1
  C  C14  1  0.31226900  0.58202200  0.84642500  1
  C  C15  1  0.38417300  0.94397400  0.17377500  1
  C  C16  1  0.09914900  0.56536100  0.38562700  1
  C  C17  1  0.14748000  0.22801900  0.02057500  1
  C  C18  1  0.13334200  0.90825000  0.68714600  1
