# generated using pymatgen
data_CuNiC2
_symmetry_space_group_name_H-M   'P 1'
_cell_length_a   6.59704077
_cell_length_b   6.59704077
_cell_length_c   6.59704077
_cell_angle_alpha   105.25583762
_cell_angle_beta   105.25583762
_cell_angle_gamma   118.27740683
_symmetry_Int_Tables_number   1
_chemical_formula_structural   CuNiC2
_chemical_formula_sum   'Cu2 Ni2 C4'
_cell_volume   217.04682830
_cell_formula_units_Z   2
loop_
 _symmetry_equiv_pos_site_id
 _symmetry_equiv_pos_as_xyz
  1  'x, y, z'
loop_
 _atom_site_type_symbol
 _atom_site_label
 _atom_site_symmetry_multiplicity
 _atom_site_fract_x
 _atom_site_fract_y
 _atom_site_fract_z
 _atom_site_occupancy
  Ni  Ni0  1  0.75000000  0.75000000  0.00000000  1
  Ni  Ni1  1  0.25000000  0.25000000  0.00000000  1
  Cu  Cu2  1  0.75000000  0.25000000  0.50000000  1
  Cu  Cu3  1  0.25000000  0.75000000  0.50000000  1
  C  C4  1  0.16480700  0.33519200  0.50000000  1
  C  C5  1  0.83519300  0.66480800  0.50000000  1
  C  C6  1  0.66480700  0.16480700  0.82961400  1
  C  C7  1  0.33519300  0.83519300  0.17038600  1
