# generated using pymatgen
data_CuNiC5
_symmetry_space_group_name_H-M   'P 1'
_cell_length_a   6.94169900
_cell_length_b   7.19639100
_cell_length_c   12.41058300
_cell_angle_alpha   90.00000000
_cell_angle_beta   90.00000000
_cell_angle_gamma   90.00000000
_symmetry_Int_Tables_number   1
_chemical_formula_structural   CuNiC5
_chemical_formula_sum   'Cu4 Ni4 C20'
_cell_volume   619.97291026
_cell_formula_units_Z   4
loop_
 _symmetry_equiv_pos_site_id
 _symmetry_equiv_pos_as_xyz
  1  'x, y, z'
loop_
 _atom_site_type_symbol
 _atom_site_label
 _atom_site_symmetry_multiplicity
 _atom_site_fract_x
 _atom_site_fract_y
 _atom_site_fract_z
 _atom_site_occupancy
  Ni  Ni0  1  0.07398500  0.25000000  0.02344600  1
  Ni  Ni1  1  0.92601500  0.75000000  0.97655400  1
  Ni  Ni2  1  0.42601500  0.75000000  0.52344600  1
  Ni  Ni3  1  0.57398500  0.25000000  0.47655400  1
  Cu  Cu4  1  0.00387800  0.75000000  0.22950500  1
  Cu  Cu5  1  0.99612200  0.25000000  0.77049500  1
  Cu  Cu6  1  0.49612200  0.25000000  0.72950500  1
  Cu  Cu7  1  0.50387800  0.75000000  0.27049500  1
  C  C8  1  0.17674100  0.25000000  0.37935900  1
  C  C9  1  0.82325900  0.75000000  0.62064100  1
  C  C10  1  0.32325900  0.75000000  0.87935900  1
  C  C11  1  0.67674100  0.25000000  0.12064100  1
  C  C12  1  0.12607900  0.49812600  0.87197000  1
  C  C13  1  0.87392100  0.50187400  0.12803000  1
  C  C14  1  0.37392100  0.50187400  0.37197000  1
  C  C15  1  0.62607900  0.49812600  0.62803000  1
  C  C16  1  0.62607900  0.00187400  0.62803000  1
  C  C17  1  0.37392100  0.99812600  0.37197000  1
  C  C18  1  0.87392100  0.99812600  0.12803000  1
  C  C19  1  0.12607900  0.00187400  0.87197000  1
  C  C20  1  0.86679800  0.25000000  0.39210900  1
  C  C21  1  0.13320200  0.75000000  0.60789100  1
  C  C22  1  0.63320200  0.75000000  0.89210900  1
  C  C23  1  0.36679800  0.25000000  0.10789100  1
  C  C24  1  0.28714600  0.75000000  0.13502400  1
  C  C25  1  0.71285400  0.25000000  0.86497600  1
  C  C26  1  0.21285400  0.25000000  0.63502400  1
  C  C27  1  0.78714600  0.75000000  0.36497600  1
