# generated using pymatgen
data_Cu2NiC11
_symmetry_space_group_name_H-M   'P 1'
_cell_length_a   6.46338500
_cell_length_b   6.62677656
_cell_length_c   6.65497378
_cell_angle_alpha   72.07414207
_cell_angle_beta   72.14537813
_cell_angle_gamma   71.52358525
_symmetry_Int_Tables_number   1
_chemical_formula_structural   Cu2NiC11
_chemical_formula_sum   'Cu4 Ni2 C22'
_cell_volume   250.22733404
_cell_formula_units_Z   2
loop_
 _symmetry_equiv_pos_site_id
 _symmetry_equiv_pos_as_xyz
  1  'x, y, z'
loop_
 _atom_site_type_symbol
 _atom_site_label
 _atom_site_symmetry_multiplicity
 _atom_site_fract_x
 _atom_site_fract_y
 _atom_site_fract_z
 _atom_site_occupancy
  C  C0  1  0.56328800  0.64946000  0.29471400  1
  C  C1  1  0.43671200  0.35054000  0.70528600  1
  C  C2  1  0.28756000  0.06685100  0.14938200  1
  C  C3  1  0.71244000  0.93314900  0.85061800  1
  C  C4  1  0.85213400  0.20531400  0.43251000  1
  C  C5  1  0.00000000  0.50000000  0.00000000  1
  C  C6  1  0.14786600  0.79468600  0.56749000  1
  C  C7  1  0.50000000  0.00000000  0.50000000  1
  Ni  Ni8  1  0.78240000  0.57699900  0.63963100  1
  Ni  Ni9  1  0.21760000  0.42300100  0.36036900  1
  Cu  Cu10  1  0.64650800  0.28008100  0.07480200  1
  Cu  Cu11  1  0.35349200  0.71991900  0.92519800  1
  Cu  Cu12  1  0.08399700  0.13689600  0.77785300  1
  Cu  Cu13  1  0.91600300  0.86310400  0.22214700  1
  C  C14  1  0.48242200  0.66776600  0.61856900  1
  C  C15  1  0.32337000  0.39694800  0.06193600  1
  C  C16  1  0.17744100  0.13152600  0.46025200  1
  C  C17  1  0.63037000  0.96155800  0.17055500  1
  C  C18  1  0.76126100  0.26503900  0.75131000  1
  C  C19  1  0.89896800  0.53878700  0.34307000  1
  C  C20  1  0.05236300  0.81979100  0.89462800  1
  C  C21  1  0.67663000  0.60305200  0.93806400  1
  C  C22  1  0.51757800  0.33223400  0.38143100  1
  C  C23  1  0.36963000  0.03844200  0.82944500  1
  C  C24  1  0.82255900  0.86847400  0.53974800  1
  C  C25  1  0.94763700  0.18020900  0.10537200  1
  C  C26  1  0.10103200  0.46121300  0.65693000  1
  C  C27  1  0.23873900  0.73496100  0.24869000  1
