# generated using pymatgen
data_Cu3NiC9
_symmetry_space_group_name_H-M   'P 1'
_cell_length_a   7.59565682
_cell_length_b   7.59565682
_cell_length_c   10.56521112
_cell_angle_alpha   46.66195330
_cell_angle_beta   46.66195330
_cell_angle_gamma   24.39162454
_symmetry_Int_Tables_number   1
_chemical_formula_structural   Cu3NiC9
_chemical_formula_sum   'Cu3 Ni1 C9'
_cell_volume   179.23698635
_cell_formula_units_Z   1
loop_
 _symmetry_equiv_pos_site_id
 _symmetry_equiv_pos_as_xyz
  1  'x, y, z'
loop_
 _atom_site_type_symbol
 _atom_site_label
 _atom_site_symmetry_multiplicity
 _atom_site_fract_x
 _atom_site_fract_y
 _atom_site_fract_z
 _atom_site_occupancy
  C  C0  1  0.49908800  0.49908800  0.99810500  1
  Ni  Ni1  1  0.34942200  0.34942200  0.81463400  1
  Cu  Cu2  1  0.65764900  0.65764900  0.16973000  1
  Cu  Cu3  1  0.15973500  0.15973500  0.49213000  1
  Cu  Cu4  1  0.83615000  0.83615000  0.52039800  1
  C  C5  1  0.15176400  0.15176400  0.04653100  1
  C  C6  1  0.84910500  0.84910500  0.94621300  1
  C  C7  1  0.20079000  0.20079000  0.64888600  1
  C  C8  1  0.79647700  0.79647700  0.36036900  1
  C  C9  1  0.53885000  0.53885000  0.62706200  1
  C  C10  1  0.46019600  0.46019600  0.37311300  1
  C  C11  1  0.16532500  0.16532500  0.29205000  1
  C  C12  1  0.83545000  0.83545000  0.71077900  1
