# generated using pymatgen
data_Cu2NiC8
_symmetry_space_group_name_H-M   'P 1'
_cell_length_a   14.93299500
_cell_length_b   3.37434700
_cell_length_c   9.35990798
_cell_angle_alpha   83.02729502
_cell_angle_beta   90.00000000
_cell_angle_gamma   90.00000000
_symmetry_Int_Tables_number   1
_chemical_formula_structural   Cu2NiC8
_chemical_formula_sum   'Cu8 Ni4 C32'
_cell_volume   468.14921867
_cell_formula_units_Z   4
loop_
 _symmetry_equiv_pos_site_id
 _symmetry_equiv_pos_as_xyz
  1  'x, y, z'
loop_
 _atom_site_type_symbol
 _atom_site_label
 _atom_site_symmetry_multiplicity
 _atom_site_fract_x
 _atom_site_fract_y
 _atom_site_fract_z
 _atom_site_occupancy
  Ni  Ni0  1  0.13814200  0.26687600  0.86370800  1
  Ni  Ni1  1  0.86185800  0.73312400  0.13629200  1
  Ni  Ni2  1  0.63814200  0.73312400  0.63629200  1
  Ni  Ni3  1  0.36185800  0.26687600  0.36370800  1
  Cu  Cu4  1  0.25934600  0.84657200  0.62338700  1
  Cu  Cu5  1  0.74065400  0.15342800  0.37661300  1
  Cu  Cu6  1  0.75934600  0.15342800  0.87661300  1
  Cu  Cu7  1  0.24065400  0.84657200  0.12338700  1
  Cu  Cu8  1  0.04320300  0.79944000  0.63463600  1
  Cu  Cu9  1  0.95679700  0.20056000  0.36536400  1
  Cu  Cu10  1  0.54320300  0.20056000  0.86536400  1
  Cu  Cu11  1  0.45679700  0.79944000  0.13463600  1
  C  C12  1  0.42066200  0.66671400  0.66723100  1
  C  C13  1  0.57933800  0.33328600  0.33276900  1
  C  C14  1  0.92066200  0.33328600  0.83276900  1
  C  C15  1  0.07933800  0.66671400  0.16723100  1
  C  C16  1  0.84797700  0.68249700  0.59603500  1
  C  C17  1  0.15202300  0.31750300  0.40396500  1
  C  C18  1  0.34797700  0.31750300  0.90396500  1
  C  C19  1  0.65202300  0.68249700  0.09603500  1
  C  C20  1  0.00685400  0.39120100  0.79373000  1
  C  C21  1  0.99314600  0.60879900  0.20627000  1
  C  C22  1  0.50685400  0.60879900  0.70627000  1
  C  C23  1  0.49314600  0.39120100  0.29373000  1
  C  C24  1  0.38413100  0.86224700  0.54482700  1
  C  C25  1  0.61586900  0.13775300  0.45517300  1
  C  C26  1  0.88413100  0.13775300  0.95517300  1
  C  C27  1  0.11586900  0.86224700  0.04482700  1
  C  C28  1  0.92648900  0.81845300  0.53594400  1
  C  C29  1  0.07351100  0.18154700  0.46405600  1
  C  C30  1  0.42648900  0.18154700  0.96405600  1
  C  C31  1  0.57351100  0.81845300  0.03594400  1
  C  C32  1  0.15493700  0.80676000  0.73774300  1
  C  C33  1  0.84506300  0.19324000  0.26225700  1
  C  C34  1  0.65493700  0.19324000  0.76225700  1
  C  C35  1  0.34506300  0.80676000  0.23774300  1
  C  C36  1  0.76597300  0.73047900  0.53154800  1
  C  C37  1  0.23402700  0.26952100  0.46845200  1
  C  C38  1  0.26597300  0.26952100  0.96845200  1
  C  C39  1  0.73402700  0.73047900  0.03154800  1
  C  C40  1  0.34874300  0.52527400  0.76326800  1
  C  C41  1  0.65125700  0.47472600  0.23673200  1
  C  C42  1  0.84874300  0.47472600  0.73673200  1
  C  C43  1  0.15125700  0.52527400  0.26326800  1
