# generated using pymatgen
data_CuNi4C13
_symmetry_space_group_name_H-M   'P 1'
_cell_length_a   6.12921700
_cell_length_b   8.55598800
_cell_length_c   37.24421240
_cell_angle_alpha   90.00000000
_cell_angle_beta   93.07454470
_cell_angle_gamma   90.00000000
_symmetry_Int_Tables_number   1
_chemical_formula_structural   CuNi4C13
_chemical_formula_sum   'Cu8 Ni32 C104'
_cell_volume   1950.33127133
_cell_formula_units_Z   8
loop_
 _symmetry_equiv_pos_site_id
 _symmetry_equiv_pos_as_xyz
  1  'x, y, z'
loop_
 _atom_site_type_symbol
 _atom_site_label
 _atom_site_symmetry_multiplicity
 _atom_site_fract_x
 _atom_site_fract_y
 _atom_site_fract_z
 _atom_site_occupancy
  C  C0  1  0.71676100  0.81176300  0.59138000  1
  C  C1  1  0.28323900  0.31176300  0.90862000  1
  C  C2  1  0.28323900  0.18823700  0.40862000  1
  C  C3  1  0.71676100  0.68823700  0.09138000  1
  C  C4  1  0.39910200  0.75290900  0.65785600  1
  C  C5  1  0.60089800  0.25290900  0.84214400  1
  C  C6  1  0.60089800  0.24709100  0.34214400  1
  C  C7  1  0.39910200  0.74709100  0.15785600  1
  C  C8  1  0.32665900  0.96312900  0.79407300  1
  C  C9  1  0.67334100  0.46312900  0.70592700  1
  C  C10  1  0.67334100  0.03687100  0.20592700  1
  C  C11  1  0.32665900  0.53687100  0.29407300  1
  C  C12  1  0.60013800  0.96815100  0.78272300  1
  C  C13  1  0.39986200  0.46815100  0.71727700  1
  C  C14  1  0.39986200  0.03184900  0.21727700  1
  C  C15  1  0.60013800  0.53184900  0.28272300  1
  C  C16  1  0.06095000  0.87144400  0.75500500  1
  C  C17  1  0.93905000  0.37144400  0.74499500  1
  C  C18  1  0.93905000  0.12855600  0.24499500  1
  C  C19  1  0.06095000  0.62855600  0.25500500  1
  C  C20  1  0.12012300  0.80132000  0.71251900  1
  C  C21  1  0.87987700  0.30132000  0.78748100  1
  C  C22  1  0.87987700  0.19868000  0.28748100  1
  C  C23  1  0.12012300  0.69868000  0.21251900  1
  C  C24  1  0.01729300  0.47252200  0.57905100  1
  C  C25  1  0.98270700  0.97252200  0.92094900  1
  C  C26  1  0.98270700  0.52747800  0.42094900  1
  C  C27  1  0.01729300  0.02747800  0.07905100  1
  C  C28  1  0.11455100  0.49868500  0.62382400  1
  C  C29  1  0.88544900  0.99868500  0.87617600  1
  C  C30  1  0.88544900  0.50131500  0.37617600  1
  C  C31  1  0.11455100  0.00131500  0.12382400  1
  C  C32  1  0.26492200  0.46116900  0.53215400  1
  C  C33  1  0.73507800  0.96116900  0.96784600  1
  C  C34  1  0.73507800  0.53883100  0.46784600  1
  C  C35  1  0.26492200  0.03883100  0.03215400  1
  C  C36  1  0.53372500  0.52437900  0.54229700  1
  C  C37  1  0.46627500  0.02437900  0.95770300  1
  C  C38  1  0.46627500  0.47562100  0.45770300  1
  C  C39  1  0.53372500  0.97562100  0.04229700  1
  C  C40  1  0.86972700  0.27656500  0.65115300  1
  C  C41  1  0.13027300  0.77656500  0.84884700  1
  C  C42  1  0.13027300  0.72343500  0.34884700  1
  C  C43  1  0.86972700  0.22343500  0.15115300  1
  C  C44  1  0.75532600  0.13010200  0.62235300  1
  C  C45  1  0.24467400  0.63010200  0.87764700  1
  C  C46  1  0.24467400  0.86989800  0.37764700  1
  C  C47  1  0.75532600  0.36989800  0.12235300  1
  C  C48  1  0.20046400  0.24967400  0.67835200  1
  C  C49  1  0.79953600  0.74967400  0.82164800  1
  C  C50  1  0.79953600  0.75032600  0.32164800  1
  C  C51  1  0.20046400  0.25032600  0.17835200  1
  C  C52  1  0.35116000  0.07314500  0.67528200  1
  C  C53  1  0.64884000  0.57314500  0.82471800  1
  C  C54  1  0.64884000  0.92685500  0.32471800  1
  C  C55  1  0.35116000  0.42685500  0.17528200  1
  C  C56  1  0.77749600  0.24375300  0.49090200  1
  C  C57  1  0.22250400  0.74375300  0.00909800  1
  C  C58  1  0.22250400  0.75624700  0.50909800  1
  C  C59  1  0.77749600  0.25624700  0.99090200  1
  C  C60  1  0.50389900  0.20961200  0.50028200  1
  C  C61  1  0.49610100  0.70961200  0.99971800  1
  C  C62  1  0.49610100  0.79038800  0.49971800  1
  C  C63  1  0.50389900  0.29038800  0.00028200  1
  C  C64  1  0.05443200  0.15440400  0.52724900  1
  C  C65  1  0.94556800  0.65440400  0.97275100  1
  C  C66  1  0.94556800  0.84559600  0.47275100  1
  C  C67  1  0.05443200  0.34559600  0.02724900  1
  C  C68  1  0.00873400  0.05195400  0.56690000  1
  C  C69  1  0.99126600  0.55195400  0.93310000  1
  C  C70  1  0.99126600  0.94804600  0.43310000  1
  C  C71  1  0.00873400  0.44804600  0.06690000  1
  C  C72  1  0.38370400  0.88347100  0.74345400  1
  C  C73  1  0.61629600  0.38347100  0.75654600  1
  C  C74  1  0.61629600  0.11652900  0.25654600  1
  C  C75  1  0.38370400  0.61652900  0.24345400  1
  C  C76  1  0.34495900  0.51374900  0.58560300  1
  C  C77  1  0.65504100  0.01374900  0.91439700  1
  C  C78  1  0.65504100  0.48625100  0.41439700  1
  C  C79  1  0.34495900  0.98625100  0.08560300  1
  C  C80  1  0.05510900  0.07959700  0.64688900  1
  C  C81  1  0.94489100  0.57959600  0.85311100  1
  C  C82  1  0.94489100  0.92040400  0.35311100  1
  C  C83  1  0.05510900  0.42040300  0.14688900  1
  C  C84  1  0.73199500  0.12709400  0.53808000  1
  C  C85  1  0.26800500  0.62709400  0.96192000  1
  C  C86  1  0.26800500  0.87290600  0.46192000  1
  C  C87  1  0.73199500  0.37290600  0.03808000  1
  C  C88  1  0.58015100  0.86344600  0.71254300  1
  C  C89  1  0.41984900  0.36344600  0.78745700  1
  C  C90  1  0.41984900  0.13655400  0.28745700  1
  C  C91  1  0.58015100  0.63655400  0.21254300  1
  C  C92  1  0.56089400  0.55992400  0.61609600  1
  C  C93  1  0.43910600  0.05992400  0.88390400  1
  C  C94  1  0.43910600  0.44007600  0.38390400  1
  C  C95  1  0.56089400  0.94007600  0.11609600  1
  C  C96  1  0.07790700  0.89756700  0.62713300  1
  C  C97  1  0.92209300  0.39756700  0.87286700  1
  C  C98  1  0.92209300  0.10243300  0.37286700  1
  C  C99  1  0.07790700  0.60243300  0.12713300  1
  C  C100  1  0.54089300  0.05723900  0.56628700  1
  C  C101  1  0.45910700  0.55723900  0.93371300  1
  C  C102  1  0.45910700  0.94276100  0.43371300  1
  C  C103  1  0.54089300  0.44276100  0.06628700  1
  Ni  Ni104  1  0.44309300  0.93370600  0.77660100  1
  Ni  Ni105  1  0.55690700  0.43370600  0.72339900  1
  Ni  Ni106  1  0.55690700  0.06629400  0.22339900  1
  Ni  Ni107  1  0.44309300  0.56629400  0.27660100  1
  Ni  Ni108  1  0.17217100  0.85181600  0.73610300  1
  Ni  Ni109  1  0.82782900  0.35181600  0.76389700  1
  Ni  Ni110  1  0.82782900  0.14818400  0.26389700  1
  Ni  Ni111  1  0.17217100  0.64818400  0.23610300  1
  Ni  Ni112  1  0.14578300  0.48758500  0.59710800  1
  Ni  Ni113  1  0.85421700  0.98758500  0.90289200  1
  Ni  Ni114  1  0.85421700  0.51241500  0.40289200  1
  Ni  Ni115  1  0.14578300  0.01241500  0.09710800  1
  Ni  Ni116  1  0.38189200  0.49814900  0.55093700  1
  Ni  Ni117  1  0.61810800  0.99814900  0.94906300  1
  Ni  Ni118  1  0.61810800  0.50185100  0.44906300  1
  Ni  Ni119  1  0.38189200  0.00185100  0.05093700  1
  Ni  Ni120  1  0.87422700  0.16552900  0.64093800  1
  Ni  Ni121  1  0.12577300  0.66552900  0.85906200  1
  Ni  Ni122  1  0.12577300  0.83447100  0.35906200  1
  Ni  Ni123  1  0.87422700  0.33447100  0.14093800  1
  Ni  Ni124  1  0.21767300  0.13929100  0.66788800  1
  Ni  Ni125  1  0.78232700  0.63929100  0.83211200  1
  Ni  Ni126  1  0.78232700  0.86070900  0.33211200  1
  Ni  Ni127  1  0.21767300  0.36070900  0.16788800  1
  Ni  Ni128  1  0.66586300  0.20177500  0.50792900  1
  Ni  Ni129  1  0.33413700  0.70177500  0.99207100  1
  Ni  Ni130  1  0.33413700  0.79822500  0.49207100  1
  Ni  Ni131  1  0.66586300  0.29822500  0.00792900  1
  Ni  Ni132  1  0.94814200  0.11417100  0.54532100  1
  Ni  Ni133  1  0.05185800  0.61417100  0.95467900  1
  Ni  Ni134  1  0.05185800  0.88582900  0.45467900  1
  Ni  Ni135  1  0.94814200  0.38582900  0.04532100  1
  Cu  Cu136  1  0.84180100  0.67177900  0.52536200  1
  Cu  Cu137  1  0.15819900  0.17177900  0.97463800  1
  Cu  Cu138  1  0.15819900  0.32822100  0.47463800  1
  Cu  Cu139  1  0.84180100  0.82822100  0.02536200  1
  Cu  Cu140  1  0.05196100  0.49134700  0.68439400  1
  Cu  Cu141  1  0.94803900  0.99134700  0.81560600  1
  Cu  Cu142  1  0.94803900  0.50865300  0.31560600  1
  Cu  Cu143  1  0.05196100  0.00865300  0.18439400  1
