# generated using pymatgen
data_Cu30Ni8C5
_symmetry_space_group_name_H-M   'P 1'
_cell_length_a   7.14074033
_cell_length_b   7.16844531
_cell_length_c   14.54837793
_cell_angle_alpha   90.22078422
_cell_angle_beta   90.66984046
_cell_angle_gamma   113.77863517
_symmetry_Int_Tables_number   1
_chemical_formula_structural   Cu30Ni8C5
_chemical_formula_sum   'Cu30 Ni8 C5'
_cell_volume   681.40829375
_cell_formula_units_Z   1
loop_
 _symmetry_equiv_pos_site_id
 _symmetry_equiv_pos_as_xyz
  1  'x, y, z'
loop_
 _atom_site_type_symbol
 _atom_site_label
 _atom_site_symmetry_multiplicity
 _atom_site_fract_x
 _atom_site_fract_y
 _atom_site_fract_z
 _atom_site_occupancy
  C  C0  1  0.09802376  0.44130294  0.43044765  1
  C  C1  1  0.91055495  0.57568493  0.95403076  1
  C  C2  1  0.06809334  0.10033074  0.63920220  1
  C  C3  1  0.58741132  0.77738806  0.27164234  1
  C  C4  1  0.42309244  0.21870559  0.77610940  1
  Ni  Ni5  1  0.50233393  0.74854902  0.03566970  1
  Ni  Ni6  1  0.51015361  0.26231616  0.52776915  1
  Ni  Ni7  1  0.75098782  0.29126913  0.19265352  1
  Ni  Ni8  1  0.23431113  0.68476580  0.69500009  1
  Ni  Ni9  1  0.16313893  0.95420581  0.31219079  1
  Ni  Ni10  1  0.83700542  0.05523995  0.82484724  1
  Ni  Ni11  1  0.74491001  0.85580053  0.51633096  1
  Ni  Ni12  1  0.23373148  0.13774954  0.05105770  1
  Cu  Cu13  1  0.39191579  0.69299993  0.15207985  1
  Cu  Cu14  1  0.60556542  0.29575326  0.64922686  1
  Cu  Cu15  1  0.26444367  0.62711191  0.97001005  1
  Cu  Cu16  1  0.74647659  0.40048465  0.46821879  1
  Cu  Cu17  1  0.59078212  0.53897199  0.02786588  1
  Cu  Cu18  1  0.40668832  0.46218934  0.52794892  1
  Cu  Cu19  1  0.75318461  0.03120910  0.18111703  1
  Cu  Cu20  1  0.24261643  0.95316196  0.67728804  1
  Cu  Cu21  1  0.91302897  0.40576974  0.09492997  1
  Cu  Cu22  1  0.07590284  0.55971256  0.59654505  1
  Cu  Cu23  1  0.93872922  0.38005304  0.28626797  1
  Cu  Cu24  1  0.05380108  0.60589590  0.78811866  1
  Cu  Cu25  1  0.42995434  0.98713499  0.29014426  1
  Cu  Cu26  1  0.56841877  0.01492001  0.79283925  1
  Cu  Cu27  1  0.23862960  0.19180653  0.37660037  1
  Cu  Cu28  1  0.76583477  0.81488819  0.88245396  1
  Cu  Cu29  1  0.10817905  0.77552379  0.40962630  1
  Cu  Cu30  1  0.88759422  0.23216008  0.92028666  1
  Cu  Cu31  1  0.52087511  0.91355637  0.52267887  1
  Cu  Cu32  1  0.46621085  0.08827227  0.04386863  1
  Cu  Cu33  1  0.79733307  0.86310721  0.64482102  1
  Cu  Cu34  1  0.23376498  0.18367940  0.17372069  1
  Cu  Cu35  1  0.96091210  0.12086241  0.51699099  1
  Cu  Cu36  1  0.03595480  0.87636152  0.04060128  1
  Cu  Cu37  1  0.76877561  0.92525013  0.36430284  1
  Cu  Cu38  1  0.23751233  0.08571809  0.85985336  1
  Cu  Cu39  1  0.39186629  0.60158285  0.33919827  1
  Cu  Cu40  1  0.61460492  0.41114100  0.83901645  1
  Cu  Cu41  1  0.72736027  0.64231369  0.22948562  1
  Cu  Cu42  1  0.25489172  0.32621088  0.71718358  1
