# generated using pymatgen
data_Cu6Ni2C
_symmetry_space_group_name_H-M   'P 1'
_cell_length_a   6.34934503
_cell_length_b   6.34934503
_cell_length_c   11.67602362
_cell_angle_alpha   67.52056552
_cell_angle_beta   67.52056552
_cell_angle_gamma   65.32179622
_symmetry_Int_Tables_number   1
_chemical_formula_structural   Cu6Ni2C
_chemical_formula_sum   'Cu12 Ni4 C2'
_cell_volume   381.06164387
_cell_formula_units_Z   2
loop_
 _symmetry_equiv_pos_site_id
 _symmetry_equiv_pos_as_xyz
  1  'x, y, z'
loop_
 _atom_site_type_symbol
 _atom_site_label
 _atom_site_symmetry_multiplicity
 _atom_site_fract_x
 _atom_site_fract_y
 _atom_site_fract_z
 _atom_site_occupancy
  C  C0  1  0.17059000  0.82941000  0.25000000  1
  C  C1  1  0.82941000  0.17059000  0.75000000  1
  Ni  Ni2  1  0.58736100  0.24232800  0.42192500  1
  Ni  Ni3  1  0.75767200  0.41263900  0.07807500  1
  Ni  Ni4  1  0.41263900  0.75767200  0.57807500  1
  Ni  Ni5  1  0.24232800  0.58736100  0.92192500  1
  Cu  Cu6  1  0.41768900  0.41529600  0.42175000  1
  Cu  Cu7  1  0.58470400  0.58231100  0.07825000  1
  Cu  Cu8  1  0.58231100  0.58470400  0.57825000  1
  Cu  Cu9  1  0.41529600  0.41768900  0.92175000  1
  Cu  Cu10  1  0.75658700  0.06769800  0.42206200  1
  Cu  Cu11  1  0.93230200  0.24341300  0.07793800  1
  Cu  Cu12  1  0.24341300  0.93230200  0.57793800  1
  Cu  Cu13  1  0.06769800  0.75658700  0.92206200  1
  Cu  Cu14  1  0.02112900  0.66431700  0.24626600  1
  Cu  Cu15  1  0.33568300  0.97887100  0.25373400  1
  Cu  Cu16  1  0.97887100  0.33568300  0.75373400  1
  Cu  Cu17  1  0.66431700  0.02112900  0.74626600  1
