# generated using pymatgen
data_CuNi3C2
_symmetry_space_group_name_H-M   'P 1'
_cell_length_a   3.28650541
_cell_length_b   3.28650541
_cell_length_c   37.40032300
_cell_angle_alpha   90.00000000
_cell_angle_beta   90.00000000
_cell_angle_gamma   119.99998805
_symmetry_Int_Tables_number   1
_chemical_formula_structural   CuNi3C2
_chemical_formula_sum   'Cu2 Ni6 C4'
_cell_volume   349.84424892
_cell_formula_units_Z   2
loop_
 _symmetry_equiv_pos_site_id
 _symmetry_equiv_pos_as_xyz
  1  'x, y, z'
loop_
 _atom_site_type_symbol
 _atom_site_label
 _atom_site_symmetry_multiplicity
 _atom_site_fract_x
 _atom_site_fract_y
 _atom_site_fract_z
 _atom_site_occupancy
  C  C0  1  0.00000000  0.00000000  0.46965700  1
  C  C1  1  0.00000000  0.00000000  0.09391800  1
  C  C2  1  0.33333300  0.66666700  0.28179200  1
  C  C3  1  0.33333300  0.66666700  0.65754500  1
  Ni  Ni4  1  0.00000000  0.00000000  0.32714900  1
  Ni  Ni5  1  0.00000000  0.00000000  0.70290700  1
  Ni  Ni6  1  0.33333300  0.66666700  0.42458800  1
  Ni  Ni7  1  0.33333300  0.66666700  0.51474500  1
  Ni  Ni8  1  0.00000000  0.00000000  0.23643900  1
  Ni  Ni9  1  0.00000000  0.00000000  0.61216500  1
  Cu  Cu10  1  0.33333300  0.66666700  0.05273700  1
  Cu  Cu11  1  0.33333300  0.66666700  0.13510500  1
