# generated using pymatgen
data_Cu6NiC36
_symmetry_space_group_name_H-M   'P 1'
_cell_length_a   6.05069460
_cell_length_b   6.04869756
_cell_length_c   18.59582381
_cell_angle_alpha   60.47924563
_cell_angle_beta   60.71030781
_cell_angle_gamma   59.24994908
_symmetry_Int_Tables_number   1
_chemical_formula_structural   Cu6NiC36
_chemical_formula_sum   'Cu6 Ni1 C36'
_cell_volume   482.66443185
_cell_formula_units_Z   1
loop_
 _symmetry_equiv_pos_site_id
 _symmetry_equiv_pos_as_xyz
  1  'x, y, z'
loop_
 _atom_site_type_symbol
 _atom_site_label
 _atom_site_symmetry_multiplicity
 _atom_site_fract_x
 _atom_site_fract_y
 _atom_site_fract_z
 _atom_site_occupancy
  Ni  Ni0  1  0.99912682  0.99564370  0.16826403  1
  C  C1  1  0.00080649  0.49884970  0.16616338  1
  C  C2  1  0.49829854  0.49592248  0.16751955  1
  C  C3  1  0.00394287  0.49078684  0.50475862  1
  C  C4  1  0.50123257  0.99764148  0.16632113  1
  C  C5  1  0.50003331  0.49888890  0.33547590  1
  C  C6  1  0.49550520  0.49311773  0.50441513  1
  C  C7  1  0.99918239  0.50856604  0.82827864  1
  C  C8  1  0.49337178  0.00173479  0.50495998  1
  C  C9  1  0.50537059  0.00163954  0.82825293  1
  C  C10  1  0.49733824  0.50228870  0.66568944  1
  C  C11  1  0.50562803  0.50824871  0.82819108  1
  C  C12  1  0.87306860  0.87224512  0.95931339  1
  Cu  Cu13  1  0.15451265  0.15487138  0.01429456  1
  Cu  Cu14  1  0.12924737  0.12892384  0.37332431  1
  Cu  Cu15  1  0.49657021  0.49688770  0.00214652  1
  Cu  Cu16  1  0.12587365  0.12982537  0.70574205  1
  Cu  Cu17  1  0.84057244  0.84459295  0.32186104  1
  Cu  Cu18  1  0.87411480  0.87496263  0.62338584  1
  C  C19  1  0.24330797  0.24405405  0.08770142  1
  C  C20  1  0.26603746  0.26503289  0.23856356  1
  C  C21  1  0.24723069  0.74587818  0.08885869  1
  C  C22  1  0.74552140  0.24725954  0.08901174  1
  C  C23  1  0.26056736  0.74206489  0.24676567  1
  C  C24  1  0.26513905  0.27006333  0.41713228  1
  C  C25  1  0.74837991  0.25586325  0.24636414  1
  C  C26  1  0.74154353  0.73837949  0.08795812  1
  C  C27  1  0.26625774  0.72109864  0.41976277  1
  C  C28  1  0.25929910  0.26161106  0.57680784  1
  C  C29  1  0.75048692  0.74485058  0.24881409  1
  C  C30  1  0.72031603  0.26971585  0.41887649  1
  C  C31  1  0.27564848  0.73046778  0.58398698  1
  C  C32  1  0.25203237  0.26707919  0.75292764  1
  C  C33  1  0.73792127  0.27420278  0.58252202  1
  C  C34  1  0.72815898  0.72400473  0.44061213  1
  C  C35  1  0.27388157  0.27387737  0.89383641  1
  C  C36  1  0.26199636  0.72286681  0.75302792  1
  C  C37  1  0.73832388  0.72819325  0.58502689  1
  C  C38  1  0.71886723  0.25435043  0.75179888  1
  C  C39  1  0.27277639  0.75773418  0.91018379  1
  C  C40  1  0.73673851  0.74104122  0.75909604  1
  C  C41  1  0.74020675  0.27348685  0.90994974  1
  C  C42  1  0.75555653  0.74077102  0.90991125  1
