# generated using pymatgen
data_CuNiC8
_symmetry_space_group_name_H-M   'P 1'
_cell_length_a   5.26628335
_cell_length_b   5.26390802
_cell_length_c   7.86451833
_cell_angle_alpha   89.99296205
_cell_angle_beta   88.88183166
_cell_angle_gamma   90.00528014
_symmetry_Int_Tables_number   1
_chemical_formula_structural   CuNiC8
_chemical_formula_sum   'Cu2 Ni2 C16'
_cell_volume   217.97261239
_cell_formula_units_Z   2
loop_
 _symmetry_equiv_pos_site_id
 _symmetry_equiv_pos_as_xyz
  1  'x, y, z'
loop_
 _atom_site_type_symbol
 _atom_site_label
 _atom_site_symmetry_multiplicity
 _atom_site_fract_x
 _atom_site_fract_y
 _atom_site_fract_z
 _atom_site_occupancy
  C  C0  1  0.01155200  0.02718200  0.26110600  1
  C  C1  1  0.48859200  0.52723800  0.23884100  1
  C  C2  1  0.98844900  0.97281700  0.73889300  1
  C  C3  1  0.51140900  0.47276100  0.76115900  1
  Ni  Ni4  1  0.50000000  0.00000000  0.00000000  1
  Ni  Ni5  1  0.00000000  0.50000100  0.50000000  1
  Cu  Cu6  1  0.49999800  0.00000200  0.50000000  1
  Cu  Cu7  1  0.00000200  0.49999800  0.00000100  1
  C  C8  1  0.65438200  0.31127400  0.41631700  1
  C  C9  1  0.84566700  0.81120500  0.08371800  1
  C  C10  1  0.34562000  0.68872600  0.58368300  1
  C  C11  1  0.15433100  0.18879500  0.91628100  1
  C  C12  1  0.18033400  0.17028200  0.55049300  1
  C  C13  1  0.31967700  0.67035100  0.94952400  1
  C  C14  1  0.81966600  0.82971900  0.44950700  1
  C  C15  1  0.68032300  0.32964700  0.05047600  1
  C  C16  1  0.11573300  0.40590400  0.23321900  1
  C  C17  1  0.38435200  0.90595600  0.26675400  1
  C  C18  1  0.61564900  0.09404400  0.73324700  1
  C  C19  1  0.88426700  0.59409700  0.76678000  1
