# generated using pymatgen
data_Cu10Ni2C
_symmetry_space_group_name_H-M   'P 1'
_cell_length_a   13.56665548
_cell_length_b   12.43019727
_cell_length_c   6.77116128
_cell_angle_alpha   84.44179332
_cell_angle_beta   65.77255844
_cell_angle_gamma   29.78564824
_symmetry_Int_Tables_number   1
_chemical_formula_structural   Cu10Ni2C
_chemical_formula_sum   'Cu20 Ni4 C2'
_cell_volume   424.15447738
_cell_formula_units_Z   2
loop_
 _symmetry_equiv_pos_site_id
 _symmetry_equiv_pos_as_xyz
  1  'x, y, z'
loop_
 _atom_site_type_symbol
 _atom_site_label
 _atom_site_symmetry_multiplicity
 _atom_site_fract_x
 _atom_site_fract_y
 _atom_site_fract_z
 _atom_site_occupancy
  C  C0  1  0.24702700  0.25297300  0.24702700  1
  C  C1  1  0.99702700  0.00297300  0.99702700  1
  Ni  Ni2  1  0.87286400  0.45113600  0.62743300  1
  Ni  Ni3  1  0.62743300  0.04856700  0.87286400  1
  Ni  Ni4  1  0.20143300  0.62256700  0.79886400  1
  Ni  Ni5  1  0.79886400  0.37713600  0.20143300  1
  Cu  Cu6  1  0.81895600  0.59851400  0.58860900  1
  Cu  Cu7  1  0.58860900  0.99392100  0.81895600  1
  Cu  Cu8  1  0.25607900  0.66139100  0.65148600  1
  Cu  Cu9  1  0.65148600  0.43104400  0.25607900  1
  Cu  Cu10  1  0.12184800  0.19821600  0.46742400  1
  Cu  Cu11  1  0.46742400  0.21251300  0.12184800  1
  Cu  Cu12  1  0.03748700  0.78257600  0.05178400  1
  Cu  Cu13  1  0.05178400  0.12815200  0.03748700  1
  Cu  Cu14  1  0.69935000  0.54697700  0.80487700  1
  Cu  Cu15  1  0.80487700  0.94879600  0.69935000  1
  Cu  Cu16  1  0.30120400  0.44512300  0.70302300  1
  Cu  Cu17  1  0.70302300  0.55065000  0.30120400  1
  Cu  Cu18  1  0.21447500  0.29070100  0.70418100  1
  Cu  Cu19  1  0.70418100  0.79064400  0.21447500  1
  Cu  Cu20  1  0.45935600  0.54581900  0.95929900  1
  Cu  Cu21  1  0.95929900  0.03552500  0.45935600  1
  Cu  Cu22  1  0.83123400  0.73895800  0.22092400  1
  Cu  Cu23  1  0.22092400  0.20888500  0.83123400  1
  Cu  Cu24  1  0.04111500  0.02907600  0.51104200  1
  Cu  Cu25  1  0.51104200  0.41876600  0.04111500  1
