# generated using pymatgen
data_Cu2(NiC3)3
_symmetry_space_group_name_H-M   'P 1'
_cell_length_a   9.67557432
_cell_length_b   9.67557432
_cell_length_c   6.91387421
_cell_angle_alpha   80.03771784
_cell_angle_beta   80.03771784
_cell_angle_gamma   32.53535198
_symmetry_Int_Tables_number   1
_chemical_formula_structural   Cu2(NiC3)3
_chemical_formula_sum   'Cu4 Ni6 C18'
_cell_volume   342.40680188
_cell_formula_units_Z   2
loop_
 _symmetry_equiv_pos_site_id
 _symmetry_equiv_pos_as_xyz
  1  'x, y, z'
loop_
 _atom_site_type_symbol
 _atom_site_label
 _atom_site_symmetry_multiplicity
 _atom_site_fract_x
 _atom_site_fract_y
 _atom_site_fract_z
 _atom_site_occupancy
  Ni  Ni0  1  0.00000000  0.00000000  0.50000000  1
  Ni  Ni1  1  0.00000000  0.00000000  0.00000000  1
  Ni  Ni2  1  0.11793800  0.27898800  0.46454700  1
  Ni  Ni3  1  0.72101200  0.88206200  0.03545300  1
  Ni  Ni4  1  0.88206200  0.72101200  0.53545300  1
  Ni  Ni5  1  0.27898800  0.11793800  0.96454700  1
  Cu  Cu6  1  0.61076700  0.53522500  0.61088100  1
  Cu  Cu7  1  0.46477500  0.38923300  0.88911900  1
  Cu  Cu8  1  0.38923300  0.46477500  0.38911900  1
  Cu  Cu9  1  0.53522500  0.61076700  0.11088100  1
  C  C10  1  0.95965600  0.22357300  0.51250200  1
  C  C11  1  0.77642700  0.04034400  0.98749800  1
  C  C12  1  0.04034400  0.77642700  0.48749800  1
  C  C13  1  0.22357300  0.95965600  0.01250200  1
  C  C14  1  0.79377000  0.59166100  0.56424100  1
  C  C15  1  0.40833900  0.20623000  0.93575900  1
  C  C16  1  0.20623000  0.40833900  0.43575900  1
  C  C17  1  0.59166100  0.79377000  0.06424100  1
  C  C18  1  0.61346200  0.30062400  0.61276200  1
  C  C19  1  0.69937600  0.38653800  0.88723800  1
  C  C20  1  0.38653800  0.69937600  0.38723800  1
  C  C21  1  0.30062400  0.61346200  0.11276200  1
  C  C22  1  0.90659900  0.70212900  0.80834400  1
  C  C23  1  0.29787100  0.09340100  0.69165600  1
  C  C24  1  0.09340100  0.29787100  0.19165600  1
  C  C25  1  0.70212900  0.90659900  0.30834400  1
  C  C26  1  0.18538300  0.81461700  0.75000000  1
  C  C27  1  0.81461700  0.18538300  0.25000000  1
