# generated using pymatgen
data_Cu27(NiC7)2
_symmetry_space_group_name_H-M   'P 1'
_cell_length_a   14.09783900
_cell_length_b   8.27270600
_cell_length_c   9.89393319
_cell_angle_alpha   89.97189048
_cell_angle_beta   90.00000000
_cell_angle_gamma   90.00000000
_symmetry_Int_Tables_number   1
_chemical_formula_structural   Cu27(NiC7)2
_chemical_formula_sum   'Cu54 Ni4 C28'
_cell_volume   1153.90235078
_cell_formula_units_Z   2
loop_
 _symmetry_equiv_pos_site_id
 _symmetry_equiv_pos_as_xyz
  1  'x, y, z'
loop_
 _atom_site_type_symbol
 _atom_site_label
 _atom_site_symmetry_multiplicity
 _atom_site_fract_x
 _atom_site_fract_y
 _atom_site_fract_z
 _atom_site_occupancy
  C  C0  1  0.83279500  0.59493900  0.04000500  1
  C  C1  1  0.66302200  0.09407400  0.54281500  1
  C  C2  1  0.16302200  0.90592600  0.45718500  1
  C  C3  1  0.33279500  0.40506100  0.95999500  1
  C  C4  1  0.80369100  0.70700000  0.67568700  1
  C  C5  1  0.69470500  0.20725500  0.17592500  1
  C  C6  1  0.19470500  0.79274500  0.82407500  1
  C  C7  1  0.30369100  0.29300000  0.32431300  1
  C  C8  1  0.80329800  0.70524800  0.41402200  1
  C  C9  1  0.69649600  0.20438400  0.91547500  1
  C  C10  1  0.19649600  0.79561600  0.08452500  1
  C  C11  1  0.30329800  0.29475200  0.58597800  1
  C  C12  1  0.05010300  0.75050000  0.95906200  1
  C  C13  1  0.44890400  0.25638500  0.45807900  1
  C  C14  1  0.94890400  0.74361500  0.54192100  1
  C  C15  1  0.55010300  0.24950000  0.04093800  1
  C  C16  1  0.80688000  0.99615300  0.04465000  1
  C  C17  1  0.69473100  0.49275400  0.54686800  1
  C  C18  1  0.19473100  0.50724600  0.45313200  1
  C  C19  1  0.30688000  0.00384700  0.95535000  1
  C  C20  1  0.74414300  0.44687500  0.31051300  1
  C  C21  1  0.75461600  0.94497900  0.81218800  1
  C  C22  1  0.25461600  0.05502100  0.18781200  1
  C  C23  1  0.24414300  0.55312500  0.68948700  1
  C  C24  1  0.74266700  0.44589700  0.78187800  1
  C  C25  1  0.75960500  0.94995200  0.28207400  1
  C  C26  1  0.25960500  0.05004800  0.71792600  1
  C  C27  1  0.24266700  0.55410300  0.21812200  1
  Ni  Ni28  1  0.58233700  0.68868200  0.03844400  1
  Ni  Ni29  1  0.94253400  0.20847600  0.56290100  1
  Ni  Ni30  1  0.44253400  0.79152400  0.43709900  1
  Ni  Ni31  1  0.08233700  0.31131800  0.96155600  1
  Cu  Cu32  1  0.74683700  0.36165500  0.19245000  1
  Cu  Cu33  1  0.75117800  0.86023100  0.69364900  1
  Cu  Cu34  1  0.25117800  0.13976900  0.30635100  1
  Cu  Cu35  1  0.24683700  0.63834500  0.80755000  1
  Cu  Cu36  1  0.77651100  0.60332500  0.29849500  1
  Cu  Cu37  1  0.72397000  0.10186400  0.80070800  1
  Cu  Cu38  1  0.22397000  0.89813600  0.19929200  1
  Cu  Cu39  1  0.27651100  0.39667500  0.70150500  1
  Cu  Cu40  1  0.89760000  0.07116900  0.02603500  1
  Cu  Cu41  1  0.60424500  0.56983600  0.54922200  1
  Cu  Cu42  1  0.10424500  0.43016400  0.45077800  1
  Cu  Cu43  1  0.39760000  0.92883100  0.97396500  1
  Cu  Cu44  1  0.79980900  0.89344500  0.16581900  1
  Cu  Cu45  1  0.70944200  0.38320800  0.66305900  1
  Cu  Cu46  1  0.20944200  0.61679200  0.33694100  1
  Cu  Cu47  1  0.29980900  0.10655500  0.83418100  1
  Cu  Cu48  1  0.09486400  0.76432400  0.83698400  1
  Cu  Cu49  1  0.40340600  0.26420100  0.33644100  1
  Cu  Cu50  1  0.90340600  0.73579900  0.66355900  1
  Cu  Cu51  1  0.59486400  0.23567600  0.16301600  1
  Cu  Cu52  1  0.95891900  0.53212700  0.17216100  1
  Cu  Cu53  1  0.54724400  0.03888600  0.65329800  1
  Cu  Cu54  1  0.04724400  0.96111400  0.34670200  1
  Cu  Cu55  1  0.45891900  0.46787300  0.82783900  1
  Cu  Cu56  1  0.78386400  0.59693300  0.78999400  1
  Cu  Cu57  1  0.71514900  0.09831500  0.29074900  1
  Cu  Cu58  1  0.21514900  0.90168500  0.70925100  1
  Cu  Cu59  1  0.28386400  0.40306700  0.21000600  1
  Cu  Cu60  1  0.92371600  0.37269800  0.00710800  1
  Cu  Cu61  1  0.55589100  0.86431500  0.47311600  1
  Cu  Cu62  1  0.05589100  0.13568500  0.52688400  1
  Cu  Cu63  1  0.42371600  0.62730200  0.99289200  1
  Cu  Cu64  1  0.09626900  0.77900500  0.07803200  1
  Cu  Cu65  1  0.40355800  0.28191800  0.57786200  1
  Cu  Cu66  1  0.90355800  0.71808200  0.42213800  1
  Cu  Cu67  1  0.59626900  0.22099500  0.92196800  1
  Cu  Cu68  1  0.95553300  0.70522000  0.96668800  1
  Cu  Cu69  1  0.54447600  0.21854900  0.46378600  1
  Cu  Cu70  1  0.04447600  0.78145100  0.53621400  1
  Cu  Cu71  1  0.45553300  0.29478000  0.03331200  1
  Cu  Cu72  1  0.74260100  0.36565500  0.90240900  1
  Cu  Cu73  1  0.75733600  0.86631000  0.40178500  1
  Cu  Cu74  1  0.25733600  0.13369000  0.59821500  1
  Cu  Cu75  1  0.24260100  0.63434500  0.09759100  1
  Cu  Cu76  1  0.73316900  0.12899400  0.04715600  1
  Cu  Cu77  1  0.76619100  0.62945600  0.54608800  1
  Cu  Cu78  1  0.26619100  0.37054400  0.45391200  1
  Cu  Cu79  1  0.23316900  0.87100600  0.95284400  1
  Cu  Cu80  1  0.78505400  0.88236200  0.93315400  1
  Cu  Cu81  1  0.71419400  0.38500800  0.43123900  1
  Cu  Cu82  1  0.21419400  0.61499200  0.56876100  1
  Cu  Cu83  1  0.28505400  0.11763800  0.06684600  1
  Cu  Cu84  1  0.02644700  0.29948100  0.18841800  1
  Cu  Cu85  1  0.52644700  0.70051900  0.81158200  1
