# generated using pymatgen
data_Cu2Ni4C5
_symmetry_space_group_name_H-M   'P 1'
_cell_length_a   5.38682402
_cell_length_b   6.03436460
_cell_length_c   7.48562134
_cell_angle_alpha   86.90366210
_cell_angle_beta   106.68573290
_cell_angle_gamma   107.60742787
_symmetry_Int_Tables_number   1
_chemical_formula_structural   Cu2Ni4C5
_chemical_formula_sum   'Cu2 Ni4 C5'
_cell_volume   222.01918146
_cell_formula_units_Z   1
loop_
 _symmetry_equiv_pos_site_id
 _symmetry_equiv_pos_as_xyz
  1  'x, y, z'
loop_
 _atom_site_type_symbol
 _atom_site_label
 _atom_site_symmetry_multiplicity
 _atom_site_fract_x
 _atom_site_fract_y
 _atom_site_fract_z
 _atom_site_occupancy
  C  C0  1  0.72932200  0.68217200  0.40185700  1
  C  C1  1  0.23575500  0.37445200  0.67315700  1
  C  C2  1  0.68211200  0.09251900  0.79244000  1
  C  C3  1  0.06239000  0.31922700  0.17080100  1
  C  C4  1  0.14157500  0.83407900  0.89691500  1
  Ni  Ni5  1  0.94123900  0.93924900  0.75781400  1
  Ni  Ni6  1  0.11565800  0.51270700  0.30490300  1
  Ni  Ni7  1  0.77733300  0.24320400  0.05433500  1
  Ni  Ni8  1  0.36470000  0.82319700  0.81248300  1
  Cu  Cu9  1  0.05796000  0.08747100  0.33243300  1
  Cu  Cu10  1  0.69751200  0.34172500  0.63619600  1
