# generated using pymatgen
data_Cu5Ni2C25
_symmetry_space_group_name_H-M   'P 1'
_cell_length_a   5.90534500
_cell_length_b   5.91159125
_cell_length_c   8.59538152
_cell_angle_alpha   70.53946520
_cell_angle_beta   87.96970143
_cell_angle_gamma   86.71032946
_symmetry_Int_Tables_number   1
_chemical_formula_structural   Cu5Ni2C25
_chemical_formula_sum   'Cu5 Ni2 C25'
_cell_volume   282.41370367
_cell_formula_units_Z   1
loop_
 _symmetry_equiv_pos_site_id
 _symmetry_equiv_pos_as_xyz
  1  'x, y, z'
loop_
 _atom_site_type_symbol
 _atom_site_label
 _atom_site_symmetry_multiplicity
 _atom_site_fract_x
 _atom_site_fract_y
 _atom_site_fract_z
 _atom_site_occupancy
  C  C0  1  0.75441400  0.86364900  0.75793700  1
  C  C1  1  0.00035500  0.74955700  0.50079600  1
  C  C2  1  0.75562800  0.37874400  0.75522600  1
  C  C3  1  0.99868700  0.24920300  0.50147100  1
  C  C4  1  0.24429900  0.13686400  0.24305600  1
  C  C5  1  0.24642500  0.62024800  0.24407800  1
  C  C6  1  0.50101900  0.50034000  0.99979800  1
  C  C7  1  0.49980200  0.99969900  0.99990600  1
  C  C8  1  0.99954800  0.49976900  0.99978100  1
  Ni  Ni9  1  0.99961400  0.00024300  0.99923300  1
  Ni  Ni10  1  0.50074100  0.75030700  0.50090100  1
  Cu  Cu11  1  0.24186500  0.86392400  0.75270700  1
  Cu  Cu12  1  0.75548600  0.62501300  0.24969200  1
  Cu  Cu13  1  0.24736600  0.37748700  0.75177100  1
  Cu  Cu14  1  0.49913900  0.25171100  0.49875400  1
  Cu  Cu15  1  0.75762200  0.13601700  0.24549900  1
  C  C16  1  0.00291100  0.09990600  0.75988100  1
  C  C17  1  0.25995300  0.98198500  0.51146800  1
  C  C18  1  0.01938500  0.60846700  0.74867700  1
  C  C19  1  0.28210800  0.51032900  0.50758900  1
  C  C20  1  0.50895600  0.35372200  0.26370500  1
  C  C21  1  0.51541500  0.85564300  0.26454400  1
  C  C22  1  0.77197500  0.76444500  0.01465300  1
  C  C23  1  0.75568500  0.23133200  0.01184600  1
  C  C24  1  0.49492100  0.64483800  0.74039500  1
  C  C25  1  0.73858100  0.51592100  0.49085700  1
  C  C26  1  0.48144100  0.14822200  0.73115600  1
  C  C27  1  0.71921900  0.99368900  0.49002700  1
  C  C28  1  0.99592500  0.90204100  0.23648600  1
  C  C29  1  0.98011600  0.38463000  0.25604100  1
  C  C30  1  0.22786400  0.23291200  0.98581600  1
  C  C31  1  0.24353700  0.76914200  0.98625500  1
