# generated using pymatgen
data_CuNi2C5
_symmetry_space_group_name_H-M   'P 1'
_cell_length_a   7.50673500
_cell_length_b   8.09706700
_cell_length_c   11.95469400
_cell_angle_alpha   90.00000000
_cell_angle_beta   90.00000000
_cell_angle_gamma   90.00000000
_symmetry_Int_Tables_number   1
_chemical_formula_structural   CuNi2C5
_chemical_formula_sum   'Cu4 Ni8 C20'
_cell_volume   726.63662137
_cell_formula_units_Z   4
loop_
 _symmetry_equiv_pos_site_id
 _symmetry_equiv_pos_as_xyz
  1  'x, y, z'
loop_
 _atom_site_type_symbol
 _atom_site_label
 _atom_site_symmetry_multiplicity
 _atom_site_fract_x
 _atom_site_fract_y
 _atom_site_fract_z
 _atom_site_occupancy
  Ni  Ni0  1  0.52351200  0.49952900  0.32265200  1
  Ni  Ni1  1  0.97648800  0.00047100  0.82265200  1
  Ni  Ni2  1  0.47648800  0.99952900  0.67734800  1
  Ni  Ni3  1  0.02351200  0.50047100  0.17734800  1
  Ni  Ni4  1  0.47648800  0.50047100  0.67734800  1
  Ni  Ni5  1  0.02351200  0.99952900  0.17734800  1
  Ni  Ni6  1  0.52351200  0.00047100  0.32265200  1
  Ni  Ni7  1  0.97648800  0.49952900  0.82265200  1
  Cu  Cu8  1  0.07219500  0.75000000  0.49131600  1
  Cu  Cu9  1  0.42780500  0.75000000  0.99131600  1
  Cu  Cu10  1  0.92780500  0.25000000  0.50868400  1
  Cu  Cu11  1  0.57219500  0.25000000  0.00868400  1
  C  C12  1  0.83991600  0.95732800  0.59484300  1
  C  C13  1  0.66008400  0.54267200  0.09484300  1
  C  C14  1  0.16008400  0.45732800  0.40515700  1
  C  C15  1  0.33991600  0.04267200  0.90515700  1
  C  C16  1  0.16008400  0.04267200  0.40515700  1
  C  C17  1  0.33991600  0.45732800  0.90515700  1
  C  C18  1  0.83991600  0.54267200  0.59484300  1
  C  C19  1  0.66008400  0.95732800  0.09484300  1
  C  C20  1  0.83013100  0.75000000  0.31415000  1
  C  C21  1  0.66986900  0.75000000  0.81415000  1
  C  C22  1  0.16986900  0.25000000  0.68585000  1
  C  C23  1  0.33013100  0.25000000  0.18585000  1
  C  C24  1  0.45415700  0.75000000  0.49935500  1
  C  C25  1  0.04584300  0.75000000  0.99935500  1
  C  C26  1  0.54584300  0.25000000  0.50064500  1
  C  C27  1  0.95415700  0.25000000  0.00064500  1
  C  C28  1  0.19633600  0.75000000  0.71371700  1
  C  C29  1  0.30366400  0.75000000  0.21371700  1
  C  C30  1  0.80366400  0.25000000  0.28628300  1
  C  C31  1  0.69633600  0.25000000  0.78628300  1
