# generated using pymatgen
data_Cu9Ni6C
_symmetry_space_group_name_H-M   'P 1'
_cell_length_a   7.77464983
_cell_length_b   13.85073586
_cell_length_c   11.35461500
_cell_angle_alpha   90.00000000
_cell_angle_beta   90.00000000
_cell_angle_gamma   27.03075774
_symmetry_Int_Tables_number   1
_chemical_formula_structural   Cu9Ni6C
_chemical_formula_sum   'Cu18 Ni12 C2'
_cell_volume   555.68685264
_cell_formula_units_Z   2
loop_
 _symmetry_equiv_pos_site_id
 _symmetry_equiv_pos_as_xyz
  1  'x, y, z'
loop_
 _atom_site_type_symbol
 _atom_site_label
 _atom_site_symmetry_multiplicity
 _atom_site_fract_x
 _atom_site_fract_y
 _atom_site_fract_z
 _atom_site_occupancy
  C  C0  1  0.00000000  0.27983800  0.25000000  1
  C  C1  1  0.00000000  0.72016200  0.75000000  1
  Ni  Ni2  1  0.68176600  0.79226200  0.25000000  1
  Ni  Ni3  1  0.68176600  0.52597100  0.75000000  1
  Ni  Ni4  1  0.31823400  0.20773800  0.75000000  1
  Ni  Ni5  1  0.31823400  0.47402900  0.25000000  1
  Ni  Ni6  1  0.68124300  0.30272700  0.90249800  1
  Ni  Ni7  1  0.68124300  0.01603000  0.09750200  1
  Ni  Ni8  1  0.68124300  0.30272700  0.59750200  1
  Ni  Ni9  1  0.68124300  0.01603000  0.40249800  1
  Ni  Ni10  1  0.31875700  0.69727300  0.09750200  1
  Ni  Ni11  1  0.31875700  0.98397000  0.90249800  1
  Ni  Ni12  1  0.31875700  0.69727300  0.40249800  1
  Ni  Ni13  1  0.31875700  0.98397000  0.59750200  1
  Cu  Cu14  1  0.00000000  0.58725800  0.25000000  1
  Cu  Cu15  1  0.00000000  0.41274200  0.75000000  1
  Cu  Cu16  1  0.38271800  0.97961800  0.25000000  1
  Cu  Cu17  1  0.38271800  0.63766200  0.75000000  1
  Cu  Cu18  1  0.61728200  0.02038200  0.75000000  1
  Cu  Cu19  1  0.61728200  0.36233800  0.25000000  1
  Cu  Cu20  1  0.00000000  0.11825600  0.94873000  1
  Cu  Cu21  1  0.00000000  0.88174400  0.05127000  1
  Cu  Cu22  1  0.00000000  0.11825600  0.55127000  1
  Cu  Cu23  1  0.00000000  0.88174400  0.44873000  1
  Cu  Cu24  1  0.38060700  0.47390300  0.86507600  1
  Cu  Cu25  1  0.38060700  0.14549000  0.13492400  1
  Cu  Cu26  1  0.38060700  0.47390300  0.63492400  1
  Cu  Cu27  1  0.38060700  0.14549000  0.36507600  1
  Cu  Cu28  1  0.61939300  0.52609700  0.13492400  1
  Cu  Cu29  1  0.61939300  0.85451000  0.86507600  1
  Cu  Cu30  1  0.61939300  0.52609700  0.36507600  1
  Cu  Cu31  1  0.61939300  0.85451000  0.63492400  1
