# generated using pymatgen
data_CuNi4C9
_symmetry_space_group_name_H-M   'P 1'
_cell_length_a   7.16645793
_cell_length_b   7.16645793
_cell_length_c   7.16645793
_cell_angle_alpha   60.00000000
_cell_angle_beta   60.00000000
_cell_angle_gamma   60.00000000
_symmetry_Int_Tables_number   1
_chemical_formula_structural   CuNi4C9
_chemical_formula_sum   'Cu1 Ni4 C9'
_cell_volume   260.25475288
_cell_formula_units_Z   1
loop_
 _symmetry_equiv_pos_site_id
 _symmetry_equiv_pos_as_xyz
  1  'x, y, z'
loop_
 _atom_site_type_symbol
 _atom_site_label
 _atom_site_symmetry_multiplicity
 _atom_site_fract_x
 _atom_site_fract_y
 _atom_site_fract_z
 _atom_site_occupancy
  Ni  Ni0  1  0.62093900  0.12635400  0.12635400  1
  Ni  Ni1  1  0.12635400  0.62093900  0.12635400  1
  Ni  Ni2  1  0.12635400  0.12635400  0.62093900  1
  Ni  Ni3  1  0.12635400  0.12635400  0.12635400  1
  C  C4  1  0.75000000  0.75000000  0.75000000  1
  Cu  Cu5  1  0.50000000  0.50000000  0.50000000  1
  C  C6  1  0.32604800  0.89131700  0.89131700  1
  C  C7  1  0.89131700  0.32604800  0.89131700  1
  C  C8  1  0.89131700  0.89131700  0.32604800  1
  C  C9  1  0.89131700  0.89131700  0.89131700  1
  C  C10  1  0.89601300  0.36799600  0.36799600  1
  C  C11  1  0.36799600  0.89601300  0.36799600  1
  C  C12  1  0.36799600  0.36799600  0.89601300  1
  C  C13  1  0.36799600  0.36799600  0.36799600  1
