# generated using pymatgen
data_CuNiC7
_symmetry_space_group_name_H-M   'P 1'
_cell_length_a   5.84402300
_cell_length_b   6.31633866
_cell_length_c   8.50979328
_cell_angle_alpha   101.67634323
_cell_angle_beta   90.00000000
_cell_angle_gamma   90.00000000
_symmetry_Int_Tables_number   1
_chemical_formula_structural   CuNiC7
_chemical_formula_sum   'Cu2 Ni2 C14'
_cell_volume   307.62027186
_cell_formula_units_Z   2
loop_
 _symmetry_equiv_pos_site_id
 _symmetry_equiv_pos_as_xyz
  1  'x, y, z'
loop_
 _atom_site_type_symbol
 _atom_site_label
 _atom_site_symmetry_multiplicity
 _atom_site_fract_x
 _atom_site_fract_y
 _atom_site_fract_z
 _atom_site_occupancy
  Ni  Ni0  1  0.70273900  0.65751400  0.68744800  1
  Ni  Ni1  1  0.20273900  0.34248600  0.31255200  1
  Cu  Cu2  1  0.71081600  0.81304600  0.22467400  1
  Cu  Cu3  1  0.21081600  0.18695400  0.77532600  1
  C  C4  1  0.88015800  0.44484100  0.47334600  1
  C  C5  1  0.38015800  0.55515900  0.52665400  1
  C  C6  1  0.41734900  0.93090600  0.76557400  1
  C  C7  1  0.91734900  0.06909400  0.23442600  1
  C  C8  1  0.94824900  0.97686800  0.76322500  1
  C  C9  1  0.44824900  0.02313200  0.23677500  1
  C  C10  1  0.00435300  0.44285600  0.78657300  1
  C  C11  1  0.50435300  0.55714400  0.21342700  1
  C  C12  1  0.70581200  0.75897900  0.98426600  1
  C  C13  1  0.20581200  0.24102100  0.01573400  1
  C  C14  1  0.71295400  0.85829600  0.46533400  1
  C  C15  1  0.21295400  0.14170400  0.53466600  1
  C  C16  1  0.49392900  0.37140500  0.78183400  1
  C  C17  1  0.99392900  0.62859500  0.21816600  1
