# generated using pymatgen
data_Cu7NiC7
_symmetry_space_group_name_H-M   'P 1'
_cell_length_a   5.76104300
_cell_length_b   5.87481434
_cell_length_c   9.78276498
_cell_angle_alpha   102.93094036
_cell_angle_beta   94.79998428
_cell_angle_gamma   114.50304594
_symmetry_Int_Tables_number   1
_chemical_formula_structural   Cu7NiC7
_chemical_formula_sum   'Cu14 Ni2 C14'
_cell_volume   287.76598430
_cell_formula_units_Z   2
loop_
 _symmetry_equiv_pos_site_id
 _symmetry_equiv_pos_as_xyz
  1  'x, y, z'
loop_
 _atom_site_type_symbol
 _atom_site_label
 _atom_site_symmetry_multiplicity
 _atom_site_fract_x
 _atom_site_fract_y
 _atom_site_fract_z
 _atom_site_occupancy
  C  C0  1  0.25759000  0.27303700  0.99151200  1
  C  C1  1  0.74241000  0.72696300  0.00848800  1
  C  C2  1  0.07184600  0.72652900  0.73241600  1
  C  C3  1  0.92815400  0.27347100  0.26758400  1
  C  C4  1  0.55176100  0.21171200  0.72917300  1
  C  C5  1  0.44823900  0.78828800  0.27082700  1
  C  C6  1  0.78153100  0.00576200  0.58713100  1
  C  C7  1  0.21846900  0.99423800  0.41286900  1
  C  C8  1  0.37954700  0.62910600  0.56678400  1
  C  C9  1  0.62045300  0.37089400  0.43321600  1
  C  C10  1  0.72398800  0.28516800  0.98342600  1
  C  C11  1  0.27601200  0.71483200  0.01657400  1
  C  C12  1  0.53945300  0.22494400  0.14210000  1
  C  C13  1  0.46054700  0.77505600  0.85790000  1
  Ni  Ni14  1  0.11092900  0.17406700  0.71705600  1
  Ni  Ni15  1  0.88907100  0.82593300  0.28294400  1
  Cu  Cu16  1  0.43404600  0.28627000  0.77390400  1
  Cu  Cu17  1  0.56595400  0.71373000  0.22609600  1
  Cu  Cu18  1  0.59988600  0.33521900  0.04586900  1
  Cu  Cu19  1  0.40011400  0.66478100  0.95413100  1
  Cu  Cu20  1  0.76673300  0.06733100  0.67665700  1
  Cu  Cu21  1  0.23326700  0.93266900  0.32334300  1
  Cu  Cu22  1  0.93330600  0.17047500  0.89627000  1
  Cu  Cu23  1  0.06669400  0.82952500  0.10373000  1
  Cu  Cu24  1  0.19843100  0.53679200  0.64612300  1
  Cu  Cu25  1  0.80156900  0.46320800  0.35387700  1
  Cu  Cu26  1  0.29206200  0.16214200  0.54112100  1
  Cu  Cu27  1  0.70793800  0.83785800  0.45887900  1
  Cu  Cu28  1  0.00284600  0.81079200  0.80177900  1
  Cu  Cu29  1  0.99715400  0.18920800  0.19822100  1
