# generated using pymatgen
data_Cu8Ni2C3
_symmetry_space_group_name_H-M   'P 1'
_cell_length_a   7.35246300
_cell_length_b   7.15203300
_cell_length_c   9.20491605
_cell_angle_alpha   80.60305219
_cell_angle_beta   90.00000000
_cell_angle_gamma   90.00000000
_symmetry_Int_Tables_number   1
_chemical_formula_structural   Cu8Ni2C3
_chemical_formula_sum   'Cu16 Ni4 C6'
_cell_volume   477.54563028
_cell_formula_units_Z   2
loop_
 _symmetry_equiv_pos_site_id
 _symmetry_equiv_pos_as_xyz
  1  'x, y, z'
loop_
 _atom_site_type_symbol
 _atom_site_label
 _atom_site_symmetry_multiplicity
 _atom_site_fract_x
 _atom_site_fract_y
 _atom_site_fract_z
 _atom_site_occupancy
  C  C0  1  0.23868500  0.94910200  0.99397200  1
  C  C1  1  0.73868500  0.05089800  0.00602800  1
  C  C2  1  0.53296300  0.93754700  0.64113300  1
  C  C3  1  0.03296300  0.06245300  0.35886700  1
  C  C4  1  0.43023600  0.15721700  0.25044600  1
  C  C5  1  0.93023600  0.84278300  0.74955400  1
  Ni  Ni6  1  0.96659800  0.53457200  0.21427100  1
  Ni  Ni7  1  0.46659800  0.46542800  0.78572900  1
  Ni  Ni8  1  0.51295100  0.59870300  0.40376200  1
  Ni  Ni9  1  0.01295100  0.40129700  0.59623800  1
  Cu  Cu10  1  0.22534300  0.26935200  0.34111700  1
  Cu  Cu11  1  0.72534300  0.73064800  0.65888300  1
  Cu  Cu12  1  0.57223300  0.34688300  0.17771100  1
  Cu  Cu13  1  0.07223300  0.65311700  0.82228900  1
  Cu  Cu14  1  0.56093500  0.07291800  0.42931000  1
  Cu  Cu15  1  0.06093500  0.92708200  0.57069000  1
  Cu  Cu16  1  0.27825900  0.18511200  0.05989800  1
  Cu  Cu17  1  0.77825900  0.81488800  0.94010200  1
  Cu  Cu18  1  0.73320400  0.08078300  0.69022900  1
  Cu  Cu19  1  0.23320400  0.91921700  0.30977100  1
  Cu  Cu20  1  0.05405700  0.04303800  0.84609700  1
  Cu  Cu21  1  0.55405700  0.95696200  0.15390300  1
  Cu  Cu22  1  0.43495200  0.99802700  0.85354000  1
  Cu  Cu23  1  0.93495200  0.00197300  0.14646000  1
  Cu  Cu24  1  0.40594500  0.40453800  0.68683400  1
  Cu  Cu25  1  0.90594500  0.59546200  0.31316600  1
