# generated using pymatgen
data_Cu2NiC11
_symmetry_space_group_name_H-M   'P 1'
_cell_length_a   5.12552050
_cell_length_b   5.12552050
_cell_length_c   17.62396863
_cell_angle_alpha   84.91080118
_cell_angle_beta   84.91080118
_cell_angle_gamma   33.02118496
_symmetry_Int_Tables_number   1
_chemical_formula_structural   Cu2NiC11
_chemical_formula_sum   'Cu4 Ni2 C22'
_cell_volume   251.22841987
_cell_formula_units_Z   2
loop_
 _symmetry_equiv_pos_site_id
 _symmetry_equiv_pos_as_xyz
  1  'x, y, z'
loop_
 _atom_site_type_symbol
 _atom_site_label
 _atom_site_symmetry_multiplicity
 _atom_site_fract_x
 _atom_site_fract_y
 _atom_site_fract_z
 _atom_site_occupancy
  C  C0  1  0.28926200  0.28926200  0.92420300  1
  C  C1  1  0.85081600  0.85081600  0.78550400  1
  C  C2  1  0.43239700  0.43239700  0.63517000  1
  C  C3  1  0.99256400  0.99256400  0.49635800  1
  C  C4  1  0.57729700  0.57729700  0.35972800  1
  C  C5  1  0.14797100  0.14797100  0.22111400  1
  C  C6  1  0.71087100  0.71087100  0.07805800  1
  C  C7  1  0.27904600  0.27904600  0.42771900  1
  Ni  Ni8  1  0.99953300  0.99953300  0.00075300  1
  Ni  Ni9  1  0.14412200  0.14412200  0.71225900  1
  Cu  Cu10  1  0.56989100  0.56989100  0.85589100  1
  Cu  Cu11  1  0.71069700  0.71069700  0.55727500  1
  Cu  Cu12  1  0.85986500  0.85986500  0.29280000  1
  Cu  Cu13  1  0.43312700  0.43312700  0.14854800  1
  C  C14  1  0.37490100  0.37490100  0.03498000  1
  C  C15  1  0.93269500  0.93269500  0.90147000  1
  C  C16  1  0.51561300  0.51561300  0.74256600  1
  C  C17  1  0.08492500  0.08492500  0.61148900  1
  C  C18  1  0.63645400  0.63645400  0.46837900  1
  C  C19  1  0.23110100  0.23110100  0.31830100  1
  C  C20  1  0.80027300  0.80027300  0.18756800  1
  C  C21  1  0.20766900  0.20766900  0.81480600  1
  C  C22  1  0.76765300  0.76765300  0.68157700  1
  C  C23  1  0.34354100  0.34354100  0.53743300  1
  C  C24  1  0.92320900  0.92320900  0.38052400  1
  C  C25  1  0.49383100  0.49383100  0.25221900  1
  C  C26  1  0.06526100  0.06526100  0.10261400  1
  C  C27  1  0.62541700  0.62541700  0.97069300  1
