# generated using pymatgen
data_CuNi7C32
_symmetry_space_group_name_H-M   'P 1'
_cell_length_a   7.84495942
_cell_length_b   7.84495942
_cell_length_c   7.84436803
_cell_angle_alpha   89.99621929
_cell_angle_beta   89.99621929
_cell_angle_gamma   89.99663283
_symmetry_Int_Tables_number   1
_chemical_formula_structural   CuNi7C32
_chemical_formula_sum   'Cu1 Ni7 C32'
_cell_volume   482.76898469
_cell_formula_units_Z   1
loop_
 _symmetry_equiv_pos_site_id
 _symmetry_equiv_pos_as_xyz
  1  'x, y, z'
loop_
 _atom_site_type_symbol
 _atom_site_label
 _atom_site_symmetry_multiplicity
 _atom_site_fract_x
 _atom_site_fract_y
 _atom_site_fract_z
 _atom_site_occupancy
  C  C0  1  0.25020200  0.74979200  0.74980000  1
  C  C1  1  0.74979800  0.74979800  0.74979000  1
  C  C2  1  0.25020800  0.25020800  0.74979300  1
  C  C3  1  0.74979200  0.25020200  0.74980000  1
  C  C4  1  0.25021400  0.25021400  0.25021700  1
  C  C5  1  0.25020500  0.74979600  0.25020000  1
  C  C6  1  0.74979200  0.74979200  0.25019700  1
  C  C7  1  0.74979600  0.25020500  0.25020000  1
  Ni  Ni8  1  0.50018800  0.99979700  0.00058500  1
  Ni  Ni9  1  0.99979700  0.50018800  0.00058500  1
  Ni  Ni10  1  0.50020700  0.50020700  0.00060100  1
  Ni  Ni11  1  0.99979900  0.99979900  0.49943100  1
  Ni  Ni12  1  0.50020400  0.99979300  0.49939400  1
  Ni  Ni13  1  0.99979300  0.50020400  0.49939400  1
  Ni  Ni14  1  0.50020400  0.50020400  0.49939300  1
  Cu  Cu15  1  0.99973500  0.99973500  0.00079000  1
  C  C16  1  0.99998100  0.99998100  0.74963600  1
  C  C17  1  0.50000600  0.99998200  0.74982600  1
  C  C18  1  0.99998200  0.50000600  0.74982600  1
  C  C19  1  0.50001200  0.50001200  0.74993100  1
  C  C20  1  0.99902100  0.99902100  0.25052500  1
  C  C21  1  0.50102500  0.99898000  0.25015500  1
  C  C22  1  0.99898000  0.50102500  0.25015500  1
  C  C23  1  0.50102200  0.50102200  0.25006500  1
  C  C24  1  0.99998600  0.74952000  0.00198800  1
  C  C25  1  0.50000600  0.74984000  0.00207300  1
  C  C26  1  0.99900900  0.25041700  0.00102400  1
  C  C27  1  0.50103900  0.25016000  0.00106500  1
  C  C28  1  0.99999000  0.74983800  0.49791600  1
  C  C29  1  0.50000700  0.74993200  0.49791800  1
  C  C30  1  0.99896600  0.25016000  0.49893600  1
  C  C31  1  0.50103900  0.25005800  0.49892900  1
  C  C32  1  0.25041700  0.99900900  0.00102400  1
  C  C33  1  0.74952000  0.99998600  0.00198800  1
  C  C34  1  0.25016000  0.50103900  0.00106500  1
  C  C35  1  0.74984000  0.50000600  0.00207300  1
  C  C36  1  0.25016000  0.99896600  0.49893600  1
  C  C37  1  0.74983800  0.99999000  0.49791600  1
  C  C38  1  0.25005800  0.50103900  0.49892900  1
  C  C39  1  0.74993200  0.50000700  0.49791800  1
