# generated using pymatgen
data_Cu3NiC14
_symmetry_space_group_name_H-M   'P 1'
_cell_length_a   3.90308400
_cell_length_b   5.48735300
_cell_length_c   10.62791545
_cell_angle_alpha   89.85411763
_cell_angle_beta   90.00000000
_cell_angle_gamma   90.00000000
_symmetry_Int_Tables_number   1
_chemical_formula_structural   Cu3NiC14
_chemical_formula_sum   'Cu3 Ni1 C14'
_cell_volume   227.62370088
_cell_formula_units_Z   1
loop_
 _symmetry_equiv_pos_site_id
 _symmetry_equiv_pos_as_xyz
  1  'x, y, z'
loop_
 _atom_site_type_symbol
 _atom_site_label
 _atom_site_symmetry_multiplicity
 _atom_site_fract_x
 _atom_site_fract_y
 _atom_site_fract_z
 _atom_site_occupancy
  Ni  Ni0  1  0.50000000  0.19776800  0.13830300  1
  Cu  Cu1  1  0.50000000  0.80645400  0.86583300  1
  Cu  Cu2  1  0.50000000  0.68981200  0.35628700  1
  Cu  Cu3  1  0.50000000  0.30703700  0.63870900  1
  C  C4  1  0.00000000  0.21077200  0.39232600  1
  C  C5  1  0.00000000  0.79073400  0.60567200  1
  C  C6  1  0.00000000  0.71178200  0.10868500  1
  C  C7  1  0.00000000  0.28988100  0.89377900  1
  C  C8  1  0.50000000  0.21338900  0.40194500  1
  C  C9  1  0.50000000  0.78516300  0.60327600  1
  C  C10  1  0.50000000  0.70976200  0.10158000  1
  C  C11  1  0.50000000  0.28843300  0.88822700  1
  C  C12  1  0.00000000  0.49741300  0.50211500  1
  C  C13  1  0.00000000  0.98539800  0.99043900  1
  C  C14  1  0.00000000  0.45244600  0.22638900  1
  C  C15  1  0.00000000  0.56528800  0.78498800  1
  C  C16  1  0.00000000  0.93205000  0.28950000  1
  C  C17  1  0.00000000  0.06642000  0.71194700  1
