# generated using pymatgen
data_Cu6Ni8C15
_symmetry_space_group_name_H-M   'P 1'
_cell_length_a   7.04859098
_cell_length_b   7.04859098
_cell_length_c   14.49239101
_cell_angle_alpha   78.88154812
_cell_angle_beta   78.88154812
_cell_angle_gamma   66.98594296
_symmetry_Int_Tables_number   1
_chemical_formula_structural   Cu6Ni8C15
_chemical_formula_sum   'Cu12 Ni16 C30'
_cell_volume   644.75235906
_cell_formula_units_Z   2
loop_
 _symmetry_equiv_pos_site_id
 _symmetry_equiv_pos_as_xyz
  1  'x, y, z'
loop_
 _atom_site_type_symbol
 _atom_site_label
 _atom_site_symmetry_multiplicity
 _atom_site_fract_x
 _atom_site_fract_y
 _atom_site_fract_z
 _atom_site_occupancy
  C  C0  1  0.33368700  0.66631300  0.25000000  1
  C  C1  1  0.66631300  0.33368700  0.75000000  1
  C  C2  1  0.73410700  0.52787100  0.16455100  1
  C  C3  1  0.47212900  0.26589300  0.33544900  1
  C  C4  1  0.26589300  0.47212900  0.83544900  1
  C  C5  1  0.52787100  0.73410700  0.66455100  1
  C  C6  1  0.68848400  0.73353300  0.01004000  1
  C  C7  1  0.26646700  0.31151600  0.48996000  1
  C  C8  1  0.31151600  0.26646700  0.98996000  1
  C  C9  1  0.73353300  0.68848400  0.51004000  1
  C  C10  1  0.47912500  0.81353900  0.89588600  1
  C  C11  1  0.18646100  0.52087500  0.60411400  1
  C  C12  1  0.52087500  0.18646100  0.10411400  1
  C  C13  1  0.81353900  0.47912500  0.39588600  1
  C  C14  1  0.64709900  0.77730800  0.17640200  1
  C  C15  1  0.22269200  0.35290100  0.32359800  1
  C  C16  1  0.35290100  0.22269200  0.82359800  1
  C  C17  1  0.77730800  0.64709900  0.67640200  1
  C  C18  1  0.21997500  0.81976800  0.92671400  1
  C  C19  1  0.18023200  0.78002500  0.57328600  1
  C  C20  1  0.78002500  0.18023200  0.07328600  1
  C  C21  1  0.81976800  0.21997500  0.42671400  1
  C  C22  1  0.38119000  0.74896800  0.03801600  1
  C  C23  1  0.25103200  0.61881000  0.46198400  1
  C  C24  1  0.61881000  0.25103200  0.96198400  1
  C  C25  1  0.74896800  0.38119000  0.53801600  1
  C  C26  1  0.17435200  0.72745000  0.11852700  1
  C  C27  1  0.27255000  0.82564800  0.38147300  1
  C  C28  1  0.82564800  0.27255000  0.88147300  1
  C  C29  1  0.72745000  0.17435200  0.61852700  1
  Ni  Ni30  1  0.60719300  0.66662100  0.15684300  1
  Ni  Ni31  1  0.33337900  0.39280700  0.34315700  1
  Ni  Ni32  1  0.39280700  0.33337900  0.84315700  1
  Ni  Ni33  1  0.66662100  0.60719300  0.65684300  1
  Ni  Ni34  1  0.56708700  0.72041100  0.06186200  1
  Ni  Ni35  1  0.27958900  0.43291300  0.43813800  1
  Ni  Ni36  1  0.43291300  0.27958900  0.93813800  1
  Ni  Ni37  1  0.72041100  0.56708700  0.56186200  1
  Ni  Ni38  1  0.35908300  0.79737700  0.94616600  1
  Ni  Ni39  1  0.20262300  0.64091700  0.55383400  1
  Ni  Ni40  1  0.64091700  0.20262300  0.05383400  1
  Ni  Ni41  1  0.79737700  0.35908300  0.44616600  1
  Ni  Ni42  1  0.88532900  0.74559500  0.83834800  1
  Ni  Ni43  1  0.25440500  0.11467100  0.66165200  1
  Ni  Ni44  1  0.11467100  0.25440500  0.16165200  1
  Ni  Ni45  1  0.74559500  0.88532900  0.33834800  1
  Cu  Cu46  1  0.70326600  0.83049600  0.81399300  1
  Cu  Cu47  1  0.16950400  0.29673400  0.68600700  1
  Cu  Cu48  1  0.29673400  0.16950400  0.18600700  1
  Cu  Cu49  1  0.83049600  0.70326600  0.31399300  1
  Cu  Cu50  1  0.91387200  0.73279500  0.92345800  1
  Cu  Cu51  1  0.26720500  0.08612800  0.57654200  1
  Cu  Cu52  1  0.08612800  0.26720500  0.07654200  1
  Cu  Cu53  1  0.73279500  0.91387200  0.42345800  1
  Cu  Cu54  1  0.03810000  0.67363200  0.77662700  1
  Cu  Cu55  1  0.32636800  0.96190000  0.72337300  1
  Cu  Cu56  1  0.96190000  0.32636800  0.22337300  1
  Cu  Cu57  1  0.67363200  0.03810000  0.27662700  1
