# generated using pymatgen
data_Cu6NiC
_symmetry_space_group_name_H-M   'P 1'
_cell_length_a   4.69741800
_cell_length_b   6.29785100
_cell_length_c   10.99341800
_cell_angle_alpha   90.00000000
_cell_angle_beta   90.00000000
_cell_angle_gamma   90.00000000
_symmetry_Int_Tables_number   1
_chemical_formula_structural   Cu6NiC
_chemical_formula_sum   'Cu12 Ni2 C2'
_cell_volume   325.22530563
_cell_formula_units_Z   2
loop_
 _symmetry_equiv_pos_site_id
 _symmetry_equiv_pos_as_xyz
  1  'x, y, z'
loop_
 _atom_site_type_symbol
 _atom_site_label
 _atom_site_symmetry_multiplicity
 _atom_site_fract_x
 _atom_site_fract_y
 _atom_site_fract_z
 _atom_site_occupancy
  Ni  Ni0  1  0.50000000  0.50000000  0.18988000  1
  Ni  Ni1  1  0.50000000  0.00000000  0.68988000  1
  Cu  Cu2  1  0.00000000  0.74469000  0.09124800  1
  Cu  Cu3  1  0.00000000  0.25531000  0.09124800  1
  Cu  Cu4  1  0.00000000  0.00000000  0.33162400  1
  Cu  Cu5  1  0.50000000  0.25525200  0.42318900  1
  Cu  Cu6  1  0.50000000  0.74474800  0.42318900  1
  Cu  Cu7  1  0.50000000  0.00000000  0.17009700  1
  Cu  Cu8  1  0.00000000  0.24469000  0.59124800  1
  Cu  Cu9  1  0.00000000  0.75531000  0.59124800  1
  Cu  Cu10  1  0.00000000  0.50000000  0.83162400  1
  Cu  Cu11  1  0.50000000  0.75525200  0.92318900  1
  Cu  Cu12  1  0.50000000  0.24474800  0.92318900  1
  Cu  Cu13  1  0.50000000  0.50000000  0.67009700  1
  C  C14  1  0.00000000  0.50000000  0.27952400  1
  C  C15  1  0.00000000  0.00000000  0.77952400  1
