# generated using pymatgen
data_Cu(NiC)2
_symmetry_space_group_name_H-M   'P 1'
_cell_length_a   8.21563900
_cell_length_b   8.21920064
_cell_length_c   8.22800939
_cell_angle_alpha   109.59115730
_cell_angle_beta   109.43630530
_cell_angle_gamma   109.31135197
_symmetry_Int_Tables_number   1
_chemical_formula_structural   Cu(NiC)2
_chemical_formula_sum   'Cu8 Ni16 C16'
_cell_volume   428.09719792
_cell_formula_units_Z   8
loop_
 _symmetry_equiv_pos_site_id
 _symmetry_equiv_pos_as_xyz
  1  'x, y, z'
loop_
 _atom_site_type_symbol
 _atom_site_label
 _atom_site_symmetry_multiplicity
 _atom_site_fract_x
 _atom_site_fract_y
 _atom_site_fract_z
 _atom_site_occupancy
  C  C0  1  0.74263800  0.20459800  0.04243300  1
  C  C1  1  0.99008200  0.98940800  0.00040500  1
  C  C2  1  0.98773200  0.49318200  0.49869600  1
  C  C3  1  0.50242200  0.49649200  0.98840000  1
  C  C4  1  0.29821200  0.04851000  0.24290900  1
  C  C5  1  0.20232400  0.45228000  0.75126200  1
  C  C6  1  0.03692300  0.73728300  0.71419900  1
  C  C7  1  0.55369100  0.76772400  0.20400600  1
  C  C8  1  0.74235900  0.70676500  0.54957300  1
  C  C9  1  0.24720900  0.29067200  0.46279800  1
  C  C10  1  0.45852700  0.25354800  0.78548100  1
  C  C11  1  0.96974000  0.25253800  0.29712100  1
  C  C12  1  0.50400000  0.99290900  0.51212100  1
  C  C13  1  0.79492300  0.54574400  0.24993500  1
  C  C14  1  0.71086800  0.96011000  0.74568300  1
  C  C15  1  0.24543900  0.78563800  0.95153200  1
  Ni  Ni16  1  0.48945600  0.95022900  0.27458100  1
  Ni  Ni17  1  0.22477200  0.26315200  0.22746900  1
  Ni  Ni18  1  0.76516200  0.77544100  0.27319800  1
  Ni  Ni19  1  0.95263600  0.46278100  0.77389300  1
  Ni  Ni20  1  0.23505100  0.22544500  0.72393800  1
  Ni  Ni21  1  0.73676700  0.96303100  0.48780000  1
  Ni  Ni22  1  0.54999800  0.27592400  0.99036000  1
  Ni  Ni23  1  0.05113700  0.54151800  0.22491900  1
  Ni  Ni24  1  0.99337100  0.76809900  0.95853200  1
  Ni  Ni25  1  0.77375500  0.73131700  0.77587100  1
  Ni  Ni26  1  0.96186200  0.22732600  0.55192500  1
  Ni  Ni27  1  0.45664000  0.51139700  0.76757000  1
  Ni  Ni28  1  0.27751200  0.72563400  0.73384400  1
  Ni  Ni29  1  0.77751400  0.01201100  0.95039100  1
  Ni  Ni30  1  0.72600200  0.45139300  0.54018500  1
  Ni  Ni31  1  0.50627400  0.04676000  0.72735900  1
  Cu  Cu32  1  0.27618600  0.54741100  0.45969100  1
  Cu  Cu33  1  0.22362900  0.99237900  0.05454500  1
  Cu  Cu34  1  0.72559300  0.27797600  0.26292000  1
  Cu  Cu35  1  0.53699500  0.49026100  0.23934500  1
  Cu  Cu36  1  0.04512500  0.77739100  0.44856500  1
  Cu  Cu37  1  0.00852200  0.23717400  0.03967600  1
  Cu  Cu38  1  0.26598000  0.04151100  0.50513900  1
  Cu  Cu39  1  0.45297500  0.72703900  0.01173100  1
