# generated using pymatgen
data_Cu12Ni4C5
_symmetry_space_group_name_H-M   'P 1'
_cell_length_a   6.69044520
_cell_length_b   10.11434794
_cell_length_c   10.75179592
_cell_angle_alpha   91.35465114
_cell_angle_beta   91.27895748
_cell_angle_gamma   94.89712155
_symmetry_Int_Tables_number   1
_chemical_formula_structural   Cu12Ni4C5
_chemical_formula_sum   'Cu12 Ni4 C5'
_cell_volume   724.49365396
_cell_formula_units_Z   1
loop_
 _symmetry_equiv_pos_site_id
 _symmetry_equiv_pos_as_xyz
  1  'x, y, z'
loop_
 _atom_site_type_symbol
 _atom_site_label
 _atom_site_symmetry_multiplicity
 _atom_site_fract_x
 _atom_site_fract_y
 _atom_site_fract_z
 _atom_site_occupancy
  C  C0  1  0.08662200  0.05074500  0.04781200  1
  Ni  Ni1  1  0.39017600  0.31484800  0.24498700  1
  Ni  Ni2  1  0.61406200  0.69175000  0.74547600  1
  Ni  Ni3  1  0.89998400  0.18784300  0.74472100  1
  Ni  Ni4  1  0.11046300  0.81342400  0.24516200  1
  Cu  Cu5  1  0.80637100  0.65569300  0.58688300  1
  Cu  Cu6  1  0.88191100  0.99079900  0.23485100  1
  Cu  Cu7  1  0.29922100  0.83592700  0.43110600  1
  Cu  Cu8  1  0.71632500  0.15282300  0.91298100  1
  Cu  Cu9  1  0.20060600  0.35169600  0.40357200  1
  Cu  Cu10  1  0.80391100  0.66257000  0.91073700  1
  Cu  Cu11  1  0.38323700  0.52329200  0.74216200  1
  Cu  Cu12  1  0.70307100  0.12725900  0.58551000  1
  Cu  Cu13  1  0.11534700  0.03376100  0.76056600  1
  Cu  Cu14  1  0.18949900  0.33514900  0.07728000  1
  Cu  Cu15  1  0.30552000  0.86202300  0.04815700  1
  Cu  Cu16  1  0.61274600  0.48548800  0.24026800  1
  C  C17  1  0.53177800  0.82263500  0.74409700  1
  C  C18  1  0.99830800  0.32396700  0.74083500  1
  C  C19  1  0.47221600  0.18390400  0.24292300  1
  C  C20  1  0.99320900  0.68190200  0.23506100  1
