# generated using pymatgen
data_CuNiC12
_symmetry_space_group_name_H-M   'P 1'
_cell_length_a   6.46817199
_cell_length_b   7.68592334
_cell_length_c   14.51003736
_cell_angle_alpha   90.01590374
_cell_angle_beta   90.01928591
_cell_angle_gamma   90.24447176
_symmetry_Int_Tables_number   1
_chemical_formula_structural   CuNiC12
_chemical_formula_sum   'Cu4 Ni4 C48'
_cell_volume   721.34353546
_cell_formula_units_Z   4
loop_
 _symmetry_equiv_pos_site_id
 _symmetry_equiv_pos_as_xyz
  1  'x, y, z'
loop_
 _atom_site_type_symbol
 _atom_site_label
 _atom_site_symmetry_multiplicity
 _atom_site_fract_x
 _atom_site_fract_y
 _atom_site_fract_z
 _atom_site_occupancy
  C  C0  1  0.74697100  0.97002600  0.81612100  1
  C  C1  1  0.75122200  0.52974800  0.31676700  1
  C  C2  1  0.24574500  0.03007300  0.18353000  1
  C  C3  1  0.25203200  0.47003200  0.68381500  1
  Ni  Ni4  1  0.49762300  0.00036200  0.00010600  1
  Ni  Ni5  1  0.50012700  0.50028000  0.50045300  1
  Ni  Ni6  1  0.00026200  0.49956700  0.49973300  1
  Ni  Ni7  1  0.99764200  0.99977600  0.99970900  1
  C  C8  1  0.25206300  0.34782600  0.92853500  1
  C  C9  1  0.75128000  0.65236000  0.07138200  1
  C  C10  1  0.74966800  0.84755800  0.57140700  1
  C  C11  1  0.24918600  0.15240300  0.42864500  1
  C  C12  1  0.75086400  0.37686800  0.69022900  1
  C  C13  1  0.25037000  0.62302600  0.30969700  1
  C  C14  1  0.24835600  0.87619900  0.81004900  1
  C  C15  1  0.74839100  0.12393700  0.18995900  1
  Cu  Cu16  1  0.75109200  0.36371800  0.88245300  1
  Cu  Cu17  1  0.25316200  0.63660000  0.11761900  1
  Cu  Cu18  1  0.24949000  0.86368800  0.61770500  1
  Cu  Cu19  1  0.74926000  0.13608000  0.38235700  1
  C  C20  1  0.04763300  0.61773400  0.36779800  1
  C  C21  1  0.54734900  0.38390800  0.63271400  1
  C  C22  1  0.95140700  0.11758000  0.13217800  1
  C  C23  1  0.45107600  0.88281300  0.86808200  1
  C  C24  1  0.95406300  0.38414400  0.63258900  1
  C  C25  1  0.45415900  0.61390600  0.36694000  1
  C  C26  1  0.04427000  0.88349300  0.86696800  1
  C  C27  1  0.54477600  0.11635600  0.13263900  1
  C  C28  1  0.24966000  0.33572100  0.47293600  1
  C  C29  1  0.75062700  0.66430100  0.52713900  1
  C  C30  1  0.74597600  0.83546800  0.02711300  1
  C  C31  1  0.24947600  0.16467500  0.97299100  1
  C  C32  1  0.74760500  0.12199200  0.93488100  1
  C  C33  1  0.24380800  0.87797400  0.06499700  1
  C  C34  1  0.25424400  0.62214400  0.56506000  1
  C  C35  1  0.75330400  0.37756200  0.43520900  1
  C  C36  1  0.75059600  0.20914200  0.75371500  1
  C  C37  1  0.25414300  0.79085300  0.24625000  1
  C  C38  1  0.24811200  0.70876600  0.74626700  1
  C  C39  1  0.74885500  0.29129100  0.25379900  1
  C  C40  1  0.43388000  0.12316600  0.36503600  1
  C  C41  1  0.93452100  0.87821500  0.63504800  1
  C  C42  1  0.56764100  0.61864500  0.13561100  1
  C  C43  1  0.06646000  0.37864000  0.86552200  1
  C  C44  1  0.56655300  0.87531400  0.63610400  1
  C  C45  1  0.06599200  0.12326000  0.36402900  1
  C  C46  1  0.43441300  0.37430400  0.86296100  1
  C  C47  1  0.93599000  0.62813500  0.13548900  1
  C  C48  1  0.75032100  0.97788500  0.26470400  1
  C  C49  1  0.25236200  0.02217800  0.73526100  1
  C  C50  1  0.24455200  0.47734100  0.23482100  1
  C  C51  1  0.75099800  0.52251000  0.76511700  1
  C  C52  1  0.74767100  0.98248900  0.49222700  1
  C  C53  1  0.24779100  0.01745000  0.50788200  1
  C  C54  1  0.25968400  0.48336700  0.00726200  1
  C  C55  1  0.75522800  0.51715500  0.99239000  1
