# generated using pymatgen
data_CuNiC16
_symmetry_space_group_name_H-M   'P 1'
_cell_length_a   8.44700800
_cell_length_b   7.34971400
_cell_length_c   7.96232552
_cell_angle_alpha   88.50798569
_cell_angle_beta   90.00000000
_cell_angle_gamma   90.00000000
_symmetry_Int_Tables_number   1
_chemical_formula_structural   CuNiC16
_chemical_formula_sum   'Cu2 Ni2 C32'
_cell_volume   494.15820085
_cell_formula_units_Z   2
loop_
 _symmetry_equiv_pos_site_id
 _symmetry_equiv_pos_as_xyz
  1  'x, y, z'
loop_
 _atom_site_type_symbol
 _atom_site_label
 _atom_site_symmetry_multiplicity
 _atom_site_fract_x
 _atom_site_fract_y
 _atom_site_fract_z
 _atom_site_occupancy
  Ni  Ni0  1  0.05245100  0.73285500  0.71701000  1
  Ni  Ni1  1  0.55245100  0.26714500  0.28299000  1
  Cu  Cu2  1  0.74121300  0.76178100  0.24203800  1
  Cu  Cu3  1  0.24121300  0.23821900  0.75796200  1
  C  C4  1  0.99255600  0.38683000  0.39796300  1
  C  C5  1  0.49255600  0.61317000  0.60203700  1
  C  C6  1  0.08918500  0.00489500  0.38182800  1
  C  C7  1  0.58918500  0.99510500  0.61817200  1
  C  C8  1  0.32237800  0.90249200  0.09873800  1
  C  C9  1  0.82237800  0.09750800  0.90126200  1
  C  C10  1  0.11537100  0.56564700  0.09210100  1
  C  C11  1  0.61537100  0.43435300  0.90789900  1
  C  C12  1  0.05178100  0.39171000  0.57502800  1
  C  C13  1  0.55178100  0.60829000  0.42497200  1
  C  C14  1  0.83836800  0.47641400  0.35359600  1
  C  C15  1  0.33836800  0.52358600  0.64640400  1
  C  C16  1  0.97954800  0.17927600  0.33927200  1
  C  C17  1  0.47954800  0.82072400  0.66072800  1
  C  C18  1  0.18531300  0.03512400  0.53743000  1
  C  C19  1  0.68531300  0.96487600  0.46257000  1
  C  C20  1  0.98471800  0.83958100  0.38316400  1
  C  C21  1  0.48471800  0.16041900  0.61683600  1
  C  C22  1  0.20272900  0.00984000  0.22048900  1
  C  C23  1  0.70272900  0.99016000  0.77951100  1
  C  C24  1  0.46857400  0.32143300  0.92841700  1
  C  C25  1  0.96857400  0.67856700  0.07158300  1
  C  C26  1  0.64511700  0.56924300  0.04271800  1
  C  C27  1  0.14511700  0.43075700  0.95728200  1
  C  C28  1  0.77017800  0.30784800  0.89342800  1
  C  C29  1  0.27017800  0.69215200  0.10657200  1
  C  C30  1  0.63077500  0.53492700  0.72567100  1
  C  C31  1  0.13077500  0.46507300  0.27432900  1
  C  C32  1  0.79133000  0.01915400  0.07426000  1
  C  C33  1  0.29133000  0.98084600  0.92574000  1
  C  C34  1  0.98524600  0.09046700  0.82820700  1
  C  C35  1  0.48524600  0.90953300  0.17179300  1
