# generated using pymatgen
data_Cu6Ni3C2
_symmetry_space_group_name_H-M   'P 1'
_cell_length_a   9.72510342
_cell_length_b   5.26954277
_cell_length_c   27.70866940
_cell_angle_alpha   90.00370808
_cell_angle_beta   161.76972008
_cell_angle_gamma   74.27767338
_symmetry_Int_Tables_number   1
_chemical_formula_structural   Cu6Ni3C2
_chemical_formula_sum   'Cu12 Ni6 C4'
_cell_volume   222.13753396
_cell_formula_units_Z   2
loop_
 _symmetry_equiv_pos_site_id
 _symmetry_equiv_pos_as_xyz
  1  'x, y, z'
loop_
 _atom_site_type_symbol
 _atom_site_label
 _atom_site_symmetry_multiplicity
 _atom_site_fract_x
 _atom_site_fract_y
 _atom_site_fract_z
 _atom_site_occupancy
  C  C0  1  0.99988400  0.99991100  0.16556800  1
  C  C1  1  0.99970400  0.00025900  0.66550400  1
  C  C2  1  0.00019200  0.00000300  0.83447100  1
  C  C3  1  0.00036500  0.99975300  0.33451900  1
  Ni  Ni4  1  0.96710200  0.67772000  0.07236600  1
  Ni  Ni5  1  0.00001200  0.67758900  0.75001700  1
  Ni  Ni6  1  0.03283200  0.64483100  0.42763400  1
  Ni  Ni7  1  0.96716800  0.35513700  0.57239000  1
  Ni  Ni8  1  0.03281600  0.32233900  0.92763300  1
  Ni  Ni9  1  0.00007800  0.32237700  0.25004000  1
  Cu  Cu10  1  0.86678700  0.76142000  0.08256200  1
  Cu  Cu11  1  0.15135800  0.61010200  0.84408800  1
  Cu  Cu12  1  0.98139600  0.62858200  0.45409200  1
  Cu  Cu13  1  0.86682500  0.37174900  0.58257600  1
  Cu  Cu14  1  0.98135200  0.39005400  0.95409100  1
  Cu  Cu15  1  0.15137400  0.23854700  0.34410300  1
  Cu  Cu16  1  0.13318500  0.23862400  0.91743900  1
  Cu  Cu17  1  0.84865400  0.38988000  0.15593300  1
  Cu  Cu18  1  0.01854600  0.37143000  0.54590000  1
  Cu  Cu19  1  0.13324700  0.62815900  0.41746900  1
  Cu  Cu20  1  0.01843700  0.61006100  0.04586100  1
  Cu  Cu21  1  0.84868400  0.76147400  0.65594200  1
