# generated using pymatgen
data_CuNi3C14
_symmetry_space_group_name_H-M   'P 1'
_cell_length_a   11.01615569
_cell_length_b   15.47876755
_cell_length_c   11.13752641
_cell_angle_alpha   90.02947662
_cell_angle_beta   91.38116480
_cell_angle_gamma   90.40701097
_symmetry_Int_Tables_number   1
_chemical_formula_structural   CuNi3C14
_chemical_formula_sum   'Cu8 Ni24 C112'
_cell_volume   1898.53205964
_cell_formula_units_Z   8
loop_
 _symmetry_equiv_pos_site_id
 _symmetry_equiv_pos_as_xyz
  1  'x, y, z'
loop_
 _atom_site_type_symbol
 _atom_site_label
 _atom_site_symmetry_multiplicity
 _atom_site_fract_x
 _atom_site_fract_y
 _atom_site_fract_z
 _atom_site_occupancy
  C  C0  1  0.00266052  0.11461134  0.50416642  1
  C  C1  1  0.51193266  0.37606811  0.99292326  1
  C  C2  1  0.23711168  0.38851601  0.26016270  1
  C  C3  1  0.22946420  0.12113577  0.24576628  1
  C  C4  1  -0.00002386  0.10931720  0.00630372  1
  C  C5  1  0.00688518  0.61307855  0.50534014  1
  C  C6  1  0.00434554  0.61323044  0.00773764  1
  C  C7  1  0.54487188  0.12814978  0.48660333  1
  C  C8  1  0.54733752  0.12746524  0.98609547  1
  C  C9  1  0.54158510  0.63034422  0.48285165  1
  C  C10  1  0.54248097  0.62940801  0.98374026  1
  C  C11  1  0.51587373  0.37331597  0.49531476  1
  C  C12  1  0.51802656  0.87358034  0.99124562  1
  C  C13  1  0.51904460  0.87332052  0.49108101  1
  C  C14  1  0.96051703  0.38654126  0.00375495  1
  C  C15  1  0.95676021  0.38661080  0.50322563  1
  C  C16  1  0.95870776  0.88062896  0.00184747  1
  C  C17  1  0.95787720  0.88144726  0.50097126  1
  C  C18  1  0.22737711  0.39564491  0.75976293  1
  C  C19  1  0.22780331  0.88988695  0.27263270  1
  C  C20  1  0.22734056  0.88987572  0.77018795  1
  C  C21  1  0.75534373  0.37952795  0.25405317  1
  C  C22  1  0.75058437  0.37550622  0.75171963  1
  C  C23  1  0.75527192  0.87247232  0.25616117  1
  C  C24  1  0.75303375  0.87282904  0.75375263  1
  C  C25  1  0.22629567  0.11711768  0.74741986  1
  C  C26  1  0.22926587  0.62032974  0.24591387  1
  C  C27  1  0.22743427  0.62135205  0.74708781  1
  C  C28  1  0.77650818  0.11800949  0.25216576  1
  C  C29  1  0.78166070  0.11786780  0.75454891  1
  C  C30  1  0.78214964  0.62433790  0.25324990  1
  C  C31  1  0.78171371  0.62378609  0.75375527  1
  Ni  Ni32  1  0.99464161  0.49835414  0.25407666  1
  Ni  Ni33  1  0.99273236  0.49779832  0.75285485  1
  Ni  Ni34  1  0.50606620  0.98778486  0.23697857  1
  Ni  Ni35  1  0.50503651  0.98926887  0.73990971  1
  Ni  Ni36  1  0.50860782  0.49607578  0.23802853  1
  Ni  Ni37  1  0.50279648  0.49335862  0.73472569  1
  Ni  Ni38  1  0.24330627  0.50446128  0.01729579  1
  Ni  Ni39  1  0.24554502  0.50289379  0.52076738  1
  Ni  Ni40  1  0.74703589  0.00049625  0.99896560  1
  Ni  Ni41  1  0.74434790  0.00112830  0.49947268  1
  Ni  Ni42  1  0.74727533  0.50442864  0.99693156  1
  Ni  Ni43  1  0.74269951  0.50409634  0.49747255  1
  Ni  Ni44  1  0.27229512  0.74478228  0.96225438  1
  Ni  Ni45  1  0.27413348  0.74407457  0.46299249  1
  Ni  Ni46  1  0.75849135  0.24831371  0.00260452  1
  Ni  Ni47  1  0.75251651  0.24904306  0.50343866  1
  Ni  Ni48  1  0.75689224  0.74659183  0.00169540  1
  Ni  Ni49  1  0.75627542  0.74618999  0.50256511  1
  Ni  Ni50  1  0.99564366  0.75206734  0.25961166  1
  Ni  Ni51  1  0.99468136  0.75210810  0.75907774  1
  Ni  Ni52  1  0.51315382  0.25279665  0.25685824  1
  Ni  Ni53  1  0.51184662  0.24840869  0.75296844  1
  Ni  Ni54  1  0.51293987  0.74716991  0.25045525  1
  Ni  Ni55  1  0.51267565  0.74720738  0.75148125  1
  Cu  Cu56  1  0.99555280  0.99684156  0.25268349  1
  Cu  Cu57  1  0.99698648  0.99653413  0.75460254  1
  Cu  Cu58  1  0.24032087  0.99633692  0.01774374  1
  Cu  Cu59  1  0.24217360  0.99580418  0.52398826  1
  Cu  Cu60  1  0.26718720  0.24259414  0.94824636  1
  Cu  Cu61  1  0.26981230  0.24389394  0.46783102  1
  Cu  Cu62  1  0.98404845  0.25334475  0.26700612  1
  Cu  Cu63  1  0.99127114  0.25352783  0.76753453  1
  C  C64  1  0.58802350  0.25072155  0.09953232  1
  C  C65  1  0.59135807  0.25517859  0.59644281  1
  C  C66  1  0.58711862  0.75581959  0.09277930  1
  C  C67  1  0.58636834  0.75542966  0.59387805  1
  C  C68  1  0.39619758  0.19769396  0.36947918  1
  C  C69  1  0.39624751  0.18617453  0.86080464  1
  C  C70  1  0.39970829  0.68345100  0.35008592  1
  C  C71  1  0.39967910  0.68452338  0.85220964  1
  C  C72  1  0.90187855  0.23909730  0.41252996  1
  C  C73  1  0.92010023  0.23486152  0.91938585  1
  C  C74  1  0.90483294  0.73294214  0.41661735  1
  C  C75  1  0.90530780  0.73269765  0.91629658  1
  C  C76  1  0.15223659  0.25033824  0.34107436  1
  C  C77  1  0.16943431  0.25460440  0.80577466  1
  C  C78  1  0.16142030  0.75005898  0.31461491  1
  C  C79  1  0.16069595  0.75073160  0.81300948  1
  C  C80  1  0.65783412  0.22512634  0.35796328  1
  C  C81  1  0.66183267  0.22768906  0.85635389  1
  C  C82  1  0.65927729  0.72644106  0.35588047  1
  C  C83  1  0.65934812  0.72564758  0.85571960  1
  C  C84  1  0.85770091  0.27809957  0.14597593  1
  C  C85  1  0.86223199  0.27609516  0.64583826  1
  C  C86  1  0.85636670  0.77214308  0.14869972  1
  C  C87  1  0.85577785  0.77238998  0.64871457  1
  C  C88  1  0.35838635  0.51118303  0.15522094  1
  C  C89  1  0.34695643  0.50903969  0.66753806  1
  C  C90  1  0.35231865  0.00539933  0.16253086  1
  C  C91  1  0.34715512  0.00519292  0.67367198  1
  C  C92  1  0.85103967  0.48420876  0.13867679  1
  C  C93  1  0.84400965  0.48198524  0.63887725  1
  C  C94  1  0.84887736  0.97787192  0.14073225  1
  C  C95  1  0.84877843  0.97982837  0.64176353  1
  C  C96  1  0.14784882  0.00795755  0.36901496  1
  C  C97  1  0.14847552  0.00951761  0.86532338  1
  C  C98  1  0.15948937  0.51206168  0.37149635  1
  C  C99  1  0.15688330  0.51201642  0.86945311  1
  C  C100  1  0.62749315  0.02577864  0.35261255  1
  C  C101  1  0.63231574  0.02535319  0.85224613  1
  C  C102  1  0.63249975  0.53009435  0.34814692  1
  C  C103  1  0.62607074  0.52592565  0.84776802  1
  C  C104  1  0.87942112  0.01174463  0.38931783  1
  C  C105  1  0.88555166  0.01425370  0.89452696  1
  C  C106  1  0.88664427  0.51850862  0.39292000  1
  C  C107  1  0.88696589  0.52039655  0.89095693  1
  C  C108  1  0.09777082  0.47663966  0.11946340  1
  C  C109  1  0.09597093  0.47300051  0.61891260  1
  C  C110  1  0.10124719  0.97293145  0.11188645  1
  C  C111  1  0.10217779  0.96826461  0.61441670  1
  C  C112  1  0.60182186  0.49936306  0.09342131  1
  C  C113  1  0.58930588  0.49669567  0.58480162  1
  C  C114  1  0.59790638  0.99387429  0.08931761  1
  C  C115  1  0.59430064  0.99502928  0.58966426  1
  C  C116  1  0.99509387  0.37864223  0.29669506  1
  C  C117  1  0.99877984  0.37847464  0.79958672  1
  C  C118  1  -0.00060694  0.87343027  0.29355134  1
  C  C119  1  0.99714343  0.87319330  0.79610282  1
  C  C120  1  0.47762338  0.37899740  0.28873728  1
  C  C121  1  0.47238695  0.37416541  0.77565798  1
  C  C122  1  0.47962615  0.87097190  0.28437354  1
  C  C123  1  0.48306352  0.87104360  0.78448207  1
  C  C124  1  0.99560714  0.12823342  0.21896720  1
  C  C125  1  0.00191769  0.12727471  0.72568294  1
  C  C126  1  0.00077017  0.62747445  0.21888757  1
  C  C127  1  0.00002655  0.62738258  0.71563699  1
  C  C128  1  0.22088795  0.13780973  0.02681380  1
  C  C129  1  0.23570905  0.13332404  0.54114712  1
  C  C130  1  0.22108241  0.63357716  0.03942753  1
  C  C131  1  0.22473890  0.63239130  0.54066941  1
  C  C132  1  0.75588141  0.12245260  0.03951280  1
  C  C133  1  0.75319971  0.12430229  0.54114325  1
  C  C134  1  0.75134003  0.62662500  0.04163892  1
  C  C135  1  0.74824371  0.62563453  0.54357199  1
  C  C136  1  0.29423703  0.36654393  0.50508130  1
  C  C137  1  0.27970104  0.36321573  0.99741096  1
  C  C138  1  0.29997698  0.87647751  0.48568752  1
  C  C139  1  0.29742972  0.87715412  0.98236459  1
  C  C140  1  0.73640325  0.37908997  0.46382744  1
  C  C141  1  0.74424065  0.37964894  0.96240491  1
  C  C142  1  0.74010984  0.87305837  0.46610956  1
  C  C143  1  0.74144665  0.87371278  0.96330697  1
