# generated using pymatgen
data_Cu18Ni18C49
_symmetry_space_group_name_H-M   'P 1'
_cell_length_a   6.99123300
_cell_length_b   10.89434948
_cell_length_c   14.89067618
_cell_angle_alpha   111.30425750
_cell_angle_beta   96.76428080
_cell_angle_gamma   92.89934612
_symmetry_Int_Tables_number   1
_chemical_formula_structural   Cu18Ni18C49
_chemical_formula_sum   'Cu18 Ni18 C49'
_cell_volume   1043.93158776
_cell_formula_units_Z   1
loop_
 _symmetry_equiv_pos_site_id
 _symmetry_equiv_pos_as_xyz
  1  'x, y, z'
loop_
 _atom_site_type_symbol
 _atom_site_label
 _atom_site_symmetry_multiplicity
 _atom_site_fract_x
 _atom_site_fract_y
 _atom_site_fract_z
 _atom_site_occupancy
  C  C0  1  0.07726000  0.36730100  0.16793600  1
  C  C1  1  0.92274000  0.63269900  0.83206400  1
  C  C2  1  0.50000000  0.50000000  0.00000000  1
  C  C3  1  0.16755000  0.77213600  0.42916300  1
  C  C4  1  0.83245000  0.22786400  0.57083700  1
  C  C5  1  0.29940600  0.01588400  0.23462100  1
  C  C6  1  0.70059400  0.98411600  0.76537900  1
  C  C7  1  0.09469800  0.74160100  0.21049800  1
  C  C8  1  0.90530200  0.25839900  0.78950200  1
  Ni  Ni9  1  0.68239800  0.12824100  0.18792300  1
  Ni  Ni10  1  0.31760200  0.87175900  0.81207700  1
  Ni  Ni11  1  0.74556300  0.73245800  0.05735300  1
  Ni  Ni12  1  0.25443700  0.26754200  0.94264700  1
  Ni  Ni13  1  0.81832700  0.09247000  0.04690700  1
  Ni  Ni14  1  0.18167300  0.90753000  0.95309300  1
  Ni  Ni15  1  0.55174100  0.85186300  0.07691300  1
  Ni  Ni16  1  0.44825900  0.14813700  0.92308700  1
  Ni  Ni17  1  0.33537500  0.42328700  0.44244600  1
  Ni  Ni18  1  0.66462500  0.57671300  0.55755400  1
  Ni  Ni19  1  0.62292700  0.66918700  0.33696300  1
  Ni  Ni20  1  0.37707300  0.33081300  0.66303700  1
  Ni  Ni21  1  0.97783900  0.12921600  0.39495300  1
  Ni  Ni22  1  0.02216100  0.87078400  0.60504700  1
  Ni  Ni23  1  0.72156300  0.90713000  0.45413100  1
  Ni  Ni24  1  0.27843700  0.09287000  0.54586900  1
  Ni  Ni25  1  0.40724300  0.62500300  0.62447600  1
  Ni  Ni26  1  0.59275700  0.37499700  0.37552400  1
  Cu  Cu27  1  0.57872200  0.21059800  0.14722800  1
  Cu  Cu28  1  0.42127800  0.78940200  0.85277200  1
  Cu  Cu29  1  0.84392400  0.65003800  0.06881800  1
  Cu  Cu30  1  0.15607600  0.34996200  0.93118200  1
  Cu  Cu31  1  0.94118800  0.03072700  0.09550100  1
  Cu  Cu32  1  0.05881200  0.96927300  0.90449900  1
  Cu  Cu33  1  0.44153600  0.86057600  0.12014400  1
  Cu  Cu34  1  0.55846400  0.13942400  0.87985600  1
  Cu  Cu35  1  0.27417400  0.52385600  0.40367500  1
  Cu  Cu36  1  0.72582600  0.47614400  0.59632500  1
  Cu  Cu37  1  0.77821200  0.69248400  0.33305700  1
  Cu  Cu38  1  0.22178800  0.30751600  0.66694300  1
  Cu  Cu39  1  0.06531200  0.06108300  0.37764400  1
  Cu  Cu40  1  0.93468800  0.93891700  0.62235600  1
  Cu  Cu41  1  0.57197800  0.90455900  0.41785500  1
  Cu  Cu42  1  0.42802200  0.09544100  0.58214500  1
  Cu  Cu43  1  0.26808100  0.64963400  0.64149800  1
  Cu  Cu44  1  0.73191900  0.35036600  0.35850200  1
  C  C45  1  0.63833600  0.30995000  0.08326300  1
  C  C46  1  0.36166400  0.69005000  0.91673700  1
  C  C47  1  0.79861800  0.56912000  0.02693000  1
  C  C48  1  0.20138200  0.43088000  0.97307000  1
  C  C49  1  0.44931500  0.51066800  0.10499900  1
  C  C50  1  0.55068500  0.48933200  0.89500100  1
  C  C51  1  0.40620300  0.19616200  0.16869500  1
  C  C52  1  0.59379700  0.80383800  0.83130500  1
  C  C53  1  0.00682700  0.64059100  0.12366600  1
  C  C54  1  0.99317300  0.35940900  0.87633400  1
  C  C55  1  0.18932500  0.84243800  0.29171400  1
  C  C56  1  0.81067500  0.15756200  0.70828600  1
  C  C57  1  0.05597200  0.09048600  0.14094700  1
  C  C58  1  0.94402800  0.90951400  0.85905300  1
  C  C59  1  0.42726000  0.97067400  0.12826400  1
  C  C60  1  0.57274000  0.02932600  0.87173600  1
  C  C61  1  0.18339500  0.11169900  0.31823900  1
  C  C62  1  0.81660500  0.88830100  0.68176100  1
  C  C63  1  0.54853300  0.96899900  0.32592000  1
  C  C64  1  0.45146700  0.03100100  0.67408000  1
  C  C65  1  0.95224700  0.91410800  0.10010800  1
  C  C66  1  0.04775300  0.08589200  0.89989200  1
  C  C67  1  0.34280000  0.75741400  0.15496100  1
  C  C68  1  0.65720000  0.24258600  0.84503900  1
  C  C69  1  0.20143000  0.55420300  0.31583800  1
  C  C70  1  0.79857000  0.44579700  0.68416200  1
  C  C71  1  0.82904500  0.70827600  0.25128300  1
  C  C72  1  0.17095500  0.29172400  0.74871700  1
  C  C73  1  0.28907300  0.59512700  0.45583400  1
  C  C74  1  0.71092700  0.40487300  0.54416600  1
  C  C75  1  0.87961900  0.70012900  0.40803200  1
  C  C76  1  0.12038100  0.29987100  0.59196800  1
  C  C77  1  0.03523200  0.93905200  0.42171300  1
  C  C78  1  0.96476800  0.06094800  0.57828700  1
  C  C79  1  0.44852500  0.83991800  0.46949200  1
  C  C80  1  0.55147400  0.16008200  0.53050800  1
  C  C81  1  0.13686600  0.70913100  0.56685700  1
  C  C82  1  0.86313400  0.29086900  0.43314300  1
  C  C83  1  0.23805600  0.62337000  0.72591100  1
  C  C84  1  0.76194400  0.37663000  0.27408900  1
