# generated using pymatgen
data_Cu2NiC15
_symmetry_space_group_name_H-M   'P 1'
_cell_length_a   7.08719208
_cell_length_b   9.48911226
_cell_length_c   19.25509727
_cell_angle_alpha   89.99644074
_cell_angle_beta   89.90275403
_cell_angle_gamma   89.92560653
_symmetry_Int_Tables_number   1
_chemical_formula_structural   Cu2NiC15
_chemical_formula_sum   'Cu16 Ni8 C120'
_cell_volume   1294.92469280
_cell_formula_units_Z   8
loop_
 _symmetry_equiv_pos_site_id
 _symmetry_equiv_pos_as_xyz
  1  'x, y, z'
loop_
 _atom_site_type_symbol
 _atom_site_label
 _atom_site_symmetry_multiplicity
 _atom_site_fract_x
 _atom_site_fract_y
 _atom_site_fract_z
 _atom_site_occupancy
  Ni  Ni0  1  0.23772900  0.32868500  0.23507200  1
  Ni  Ni1  1  0.25092100  0.33905200  0.73618600  1
  Ni  Ni2  1  0.24259700  0.16793000  0.48716100  1
  Ni  Ni3  1  0.24361800  0.16841000  0.98698100  1
  Ni  Ni4  1  0.73732900  0.82875500  0.51525800  1
  Ni  Ni5  1  0.73740100  0.82873000  0.01553700  1
  Ni  Ni6  1  0.74384600  0.66810200  0.26339000  1
  Ni  Ni7  1  0.75921000  0.67498500  0.76493100  1
  C  C8  1  0.08517600  0.86042400  0.38603000  1
  C  C9  1  0.08447700  0.85849800  0.88539200  1
  C  C10  1  0.08439200  0.81230900  0.09129500  1
  C  C11  1  0.08464100  0.81363400  0.59130800  1
  C  C12  1  0.10448300  0.62297700  0.44085600  1
  C  C13  1  0.10416100  0.62055000  0.94026300  1
  C  C14  1  0.14702700  0.86347400  0.20939700  1
  C  C15  1  0.14784500  0.86321100  0.70957500  1
  C  C16  1  0.19168200  0.66027400  0.31981600  1
  C  C17  1  0.18837000  0.65906300  0.81909200  1
  C  C18  1  0.17395100  0.61260300  0.16150800  1
  C  C19  1  0.17551500  0.61544300  0.66232800  1
  C  C20  1  0.22447500  0.20624700  0.33444900  1
  C  C21  1  0.22233100  0.21434800  0.83451600  1
  C  C22  1  0.23151400  0.00389800  0.15525100  1
  C  C23  1  0.23080200  0.00500000  0.65565400  1
  C  C24  1  0.26265600  0.90931000  0.32394800  1
  C  C25  1  0.26168500  0.90716000  0.82332200  1
  C  C26  1  0.24024400  0.59203200  0.07266200  1
  C  C27  1  0.23810100  0.59309500  0.57301600  1
  C  C28  1  0.26860400  0.49717600  0.40651800  1
  C  C29  1  0.26888200  0.49537900  0.90573500  1
  C  C30  1  0.27209000  0.29175400  0.08580900  1
  C  C31  1  0.27024200  0.29399700  0.58514100  1
  C  C32  1  0.32353500  0.88776500  0.41340700  1
  C  C33  1  0.32292900  0.88598700  0.91279600  1
  C  C34  1  0.31610400  0.83994800  0.06898900  1
  C  C35  1  0.31602700  0.84133400  0.56896400  1
  C  C36  1  0.35190000  0.63794100  0.46081900  1
  C  C37  1  0.35149200  0.63614100  0.96011200  1
  C  C38  1  0.39506200  0.87844500  0.18999400  1
  C  C39  1  0.39537400  0.87952000  0.68993300  1
  C  C40  1  0.42012200  0.69089700  0.34342900  1
  C  C41  1  0.41768200  0.68834800  0.84243600  1
  C  C42  1  0.41397400  0.63978000  0.13604700  1
  C  C43  1  0.41457900  0.64137300  0.63516900  1
  C  C44  1  0.47321900  0.48870900  0.25242900  1
  C  C45  1  0.48643400  0.02127600  0.49665400  1
  C  C46  1  0.48652800  0.02083300  0.99624700  1
  C  C47  1  0.52587300  0.51334400  0.74736900  1
  C  C48  1  0.58543700  0.36042800  0.36405200  1
  C  C49  1  0.58635200  0.36174600  0.86299700  1
  C  C50  1  0.58433900  0.31240400  0.15901000  1
  C  C51  1  0.58188800  0.31007200  0.65774900  1
  C  C52  1  0.60490400  0.12253000  0.30929100  1
  C  C53  1  0.60566900  0.12337400  0.80916500  1
  C  C54  1  0.64707800  0.36368600  0.04096400  1
  C  C55  1  0.64692800  0.36165700  0.54004400  1
  C  C56  1  0.69069900  0.16019900  0.43032500  1
  C  C57  1  0.68981500  0.16122300  0.93027300  1
  C  C58  1  0.67395900  0.11289000  0.08865600  1
  C  C59  1  0.67357000  0.11054200  0.58813100  1
  C  C60  1  0.72446100  0.70641700  0.41588000  1
  C  C61  1  0.72421100  0.70690800  0.91590500  1
  C  C62  1  0.73145400  0.50415700  0.09498100  1
  C  C63  1  0.73200900  0.50207900  0.59397900  1
  C  C64  1  0.76257000  0.40926300  0.42602800  1
  C  C65  1  0.75980400  0.40976700  0.92658300  1
  C  C66  1  0.74003900  0.09210300  0.17738600  1
  C  C67  1  0.73944300  0.08996900  0.67688600  1
  C  C68  1  0.76874900  0.99684300  0.34366300  1
  C  C69  1  0.76837200  0.99759900  0.84405600  1
  C  C70  1  0.77202300  0.79222000  0.16471800  1
  C  C71  1  0.76922800  0.79525400  0.66495900  1
  C  C72  1  0.82409800  0.38725400  0.33658100  1
  C  C73  1  0.82632000  0.38975200  0.83770300  1
  C  C74  1  0.81573200  0.34011600  0.18115500  1
  C  C75  1  0.81186200  0.33909000  0.68034900  1
  C  C76  1  0.85257900  0.13759900  0.28936300  1
  C  C77  1  0.85391700  0.13721500  0.78967700  1
  C  C78  1  0.89513000  0.37874100  0.06000500  1
  C  C79  1  0.89501100  0.37592700  0.55933300  1
  C  C80  1  0.91939600  0.19033200  0.40678000  1
  C  C81  1  0.91908800  0.19127600  0.90712000  1
  C  C82  1  0.91394700  0.13989200  0.11381300  1
  C  C83  1  0.91339800  0.13786600  0.61320400  1
  C  C84  1  0.97244800  0.98826000  0.49781400  1
  C  C85  1  0.97311600  0.98839000  0.99787000  1
  C  C86  1  0.98685200  0.52071100  0.25405000  1
  C  C87  1  0.00813600  0.48911600  0.74489000  1
  Cu  Cu88  1  0.23380300  0.84941100  0.37135600  1
  Cu  Cu89  1  0.23312300  0.84740300  0.87079600  1
  Cu  Cu90  1  0.24857900  0.60742300  0.42138800  1
  Cu  Cu91  1  0.24821500  0.60554200  0.92067800  1
  Cu  Cu92  1  0.25149900  0.89365700  0.17017900  1
  Cu  Cu93  1  0.25156600  0.89470700  0.67033600  1
  Cu  Cu94  1  0.26639800  0.65173700  0.12031000  1
  Cu  Cu95  1  0.26635300  0.65324200  0.62036600  1
  Cu  Cu96  1  0.73390600  0.34919000  0.37868300  1
  Cu  Cu97  1  0.73392000  0.35028600  0.87884400  1
  Cu  Cu98  1  0.74880000  0.10707400  0.32877500  1
  Cu  Cu99  1  0.74921600  0.10779900  0.82895500  1
  Cu  Cu100  1  0.75159300  0.39393500  0.08001200  1
  Cu  Cu101  1  0.75137400  0.39175400  0.57913700  1
  Cu  Cu102  1  0.76643700  0.15192900  0.12975700  1
  Cu  Cu103  1  0.76586400  0.14968800  0.62923400  1
  C  C104  1  0.22530800  0.80320100  0.10782300  1
  C  C105  1  0.22534200  0.80461600  0.60782100  1
  C  C106  1  0.27742500  0.69817100  0.35919600  1
  C  C107  1  0.27596200  0.69625000  0.85846500  1
  C  C108  1  0.72522200  0.30336000  0.14236000  1
  C  C109  1  0.72359000  0.30123900  0.64150800  1
  C  C110  1  0.77695100  0.19790400  0.39095000  1
  C  C111  1  0.77687900  0.19890500  0.89105100  1
  C  C112  1  0.02998100  0.37284500  0.23035100  1
  C  C113  1  0.03483700  0.38540100  0.72745000  1
  C  C114  1  0.14323300  0.04739300  0.02374400  1
  C  C115  1  0.14268800  0.04726100  0.52440700  1
  C  C116  1  0.16158700  0.21019500  0.41718500  1
  C  C117  1  0.16237100  0.21286900  0.91727600  1
  C  C118  1  0.25796900  0.19274700  0.28372600  1
  C  C119  1  0.24755700  0.20050300  0.78307600  1
  C  C120  1  0.24439500  0.30602600  0.03446100  1
  C  C121  1  0.24175700  0.30683500  0.53382100  1
  C  C122  1  0.33480900  0.29173900  0.16667600  1
  C  C123  1  0.33293800  0.29468500  0.66627500  1
  C  C124  1  0.35342200  0.45811700  0.77319500  1
  C  C125  1  0.34418100  0.45228600  0.27374400  1
  C  C126  1  0.46036000  0.12393600  0.47921800  1
  C  C127  1  0.46072900  0.12316200  0.97824300  1
  C  C128  1  0.52946300  0.87396500  0.02049400  1
  C  C129  1  0.52957200  0.87351700  0.51995200  1
  C  C130  1  0.64364900  0.54716200  0.22659800  1
  C  C131  1  0.65656500  0.54839300  0.72714500  1
  C  C132  1  0.66237500  0.71166300  0.33332500  1
  C  C133  1  0.66413800  0.71182600  0.83363100  1
  C  C134  1  0.75725500  0.69271800  0.46665200  1
  C  C135  1  0.75635500  0.69299700  0.96677400  1
  C  C136  1  0.74464300  0.80608000  0.21627000  1
  C  C137  1  0.73383600  0.80921500  0.71566400  1
  C  C138  1  0.83360200  0.79179600  0.08377800  1
  C  C139  1  0.83384000  0.79232500  0.58360300  1
  C  C140  1  0.84407900  0.95224000  0.47633300  1
  C  C141  1  0.84421400  0.95212800  0.97664900  1
  C  C142  1  0.96094600  0.62304800  0.27186900  1
  C  C143  1  0.96846400  0.63350000  0.76885100  1
