# generated using pymatgen
data_Cu5NiC2
_symmetry_space_group_name_H-M   'P 1'
_cell_length_a   4.09957479
_cell_length_b   4.09957479
_cell_length_c   15.98046000
_cell_angle_alpha   90.00000000
_cell_angle_beta   90.00000000
_cell_angle_gamma   119.24407791
_symmetry_Int_Tables_number   1
_chemical_formula_structural   Cu5NiC2
_chemical_formula_sum   'Cu10 Ni2 C4'
_cell_volume   234.34488961
_cell_formula_units_Z   2
loop_
 _symmetry_equiv_pos_site_id
 _symmetry_equiv_pos_as_xyz
  1  'x, y, z'
loop_
 _atom_site_type_symbol
 _atom_site_label
 _atom_site_symmetry_multiplicity
 _atom_site_fract_x
 _atom_site_fract_y
 _atom_site_fract_z
 _atom_site_occupancy
  C  C0  1  0.66531600  0.33245100  0.40527600  1
  C  C1  1  0.33245100  0.66531600  0.59472400  1
  C  C2  1  0.33245100  0.66531600  0.90527600  1
  C  C3  1  0.66531600  0.33245100  0.09472400  1
  Ni  Ni4  1  0.13506500  0.06755000  0.25000000  1
  Ni  Ni5  1  0.06755000  0.13506500  0.75000000  1
  Cu  Cu6  1  0.96374100  0.98116700  0.32177600  1
  Cu  Cu7  1  0.98116700  0.96374100  0.67822400  1
  Cu  Cu8  1  0.98116700  0.96374100  0.82177600  1
  Cu  Cu9  1  0.96374100  0.98116700  0.17822400  1
  Cu  Cu10  1  0.66546300  0.33077900  0.94313300  1
  Cu  Cu11  1  0.33077900  0.66546300  0.05686700  1
  Cu  Cu12  1  0.33077900  0.66546300  0.44313300  1
  Cu  Cu13  1  0.66546300  0.33077900  0.55686700  1
  Cu  Cu14  1  0.49532600  0.24946400  0.25000000  1
  Cu  Cu15  1  0.24946400  0.49532600  0.75000000  1
