# generated using pymatgen
data_Cu4Ni4C7
_symmetry_space_group_name_H-M   'P 1'
_cell_length_a   6.62352600
_cell_length_b   6.67557556
_cell_length_c   6.70480457
_cell_angle_alpha   91.03378829
_cell_angle_beta   91.71679618
_cell_angle_gamma   91.17452301
_symmetry_Int_Tables_number   1
_chemical_formula_structural   Cu4Ni4C7
_chemical_formula_sum   'Cu4 Ni4 C7'
_cell_volume   296.21165875
_cell_formula_units_Z   1
loop_
 _symmetry_equiv_pos_site_id
 _symmetry_equiv_pos_as_xyz
  1  'x, y, z'
loop_
 _atom_site_type_symbol
 _atom_site_label
 _atom_site_symmetry_multiplicity
 _atom_site_fract_x
 _atom_site_fract_y
 _atom_site_fract_z
 _atom_site_occupancy
  C  C0  1  0.99945100  0.00001300  0.99840500  1
  C  C1  1  0.55917700  0.22775200  0.41317000  1
  C  C2  1  0.41181900  0.55214900  0.22986400  1
  C  C3  1  0.21634700  0.40440200  0.55827300  1
  C  C4  1  0.44367200  0.77747100  0.58758100  1
  C  C5  1  0.58840700  0.44307300  0.77623300  1
  C  C6  1  0.78667100  0.58713800  0.44496100  1
  Ni  Ni7  1  0.62706100  0.87577900  0.25438700  1
  Ni  Ni8  1  0.25184700  0.62251600  0.87639600  1
  Ni  Ni9  1  0.21821900  0.21883400  0.22557500  1
  Ni  Ni10  1  0.78011900  0.77715800  0.77473100  1
  Cu  Cu11  1  0.13371300  0.71964200  0.39093000  1
  Cu  Cu12  1  0.38877700  0.13086200  0.72174000  1
  Cu  Cu13  1  0.72592600  0.38867700  0.13306800  1
  Cu  Cu14  1  0.86879400  0.27453400  0.61468500  1
