# generated using pymatgen
data_Cu2NiC
_symmetry_space_group_name_H-M   'P 1'
_cell_length_a   4.01730500
_cell_length_b   4.03918600
_cell_length_c   21.22891900
_cell_angle_alpha   90.00000000
_cell_angle_beta   90.00000000
_cell_angle_gamma   90.00000000
_symmetry_Int_Tables_number   1
_chemical_formula_structural   Cu2NiC
_chemical_formula_sum   'Cu8 Ni4 C4'
_cell_volume   344.47407107
_cell_formula_units_Z   4
loop_
 _symmetry_equiv_pos_site_id
 _symmetry_equiv_pos_as_xyz
  1  'x, y, z'
loop_
 _atom_site_type_symbol
 _atom_site_label
 _atom_site_symmetry_multiplicity
 _atom_site_fract_x
 _atom_site_fract_y
 _atom_site_fract_z
 _atom_site_occupancy
  C  C0  1  0.25000000  0.26192000  0.61511600  1
  C  C1  1  0.25000000  0.23808000  0.11511600  1
  C  C2  1  0.75000000  0.73808000  0.38488400  1
  C  C3  1  0.75000000  0.76192000  0.88488400  1
  Ni  Ni4  1  0.25000000  0.76151400  0.75001800  1
  Ni  Ni5  1  0.25000000  0.73848600  0.25001800  1
  Ni  Ni6  1  0.75000000  0.23848600  0.24998200  1
  Ni  Ni7  1  0.75000000  0.26151400  0.74998200  1
  Cu  Cu8  1  0.25000000  0.26178800  0.84140500  1
  Cu  Cu9  1  0.25000000  0.23821200  0.34140500  1
  Cu  Cu10  1  0.75000000  0.73821200  0.15859500  1
  Cu  Cu11  1  0.75000000  0.76178800  0.65859500  1
  Cu  Cu12  1  0.25000000  0.78019700  0.50084100  1
  Cu  Cu13  1  0.25000000  0.71980300  0.00084100  1
  Cu  Cu14  1  0.75000000  0.21980300  0.49915900  1
  Cu  Cu15  1  0.75000000  0.28019700  0.99915900  1
