# generated using pymatgen
data_Cu6Ni12C25
_symmetry_space_group_name_H-M   'P 1'
_cell_length_a   6.06397622
_cell_length_b   6.16163984
_cell_length_c   18.68128399
_cell_angle_alpha   59.73847799
_cell_angle_beta   59.75544922
_cell_angle_gamma   59.80444986
_symmetry_Int_Tables_number   1
_chemical_formula_structural   Cu6Ni12C25
_chemical_formula_sum   'Cu6 Ni12 C25'
_cell_volume   490.94500760
_cell_formula_units_Z   1
loop_
 _symmetry_equiv_pos_site_id
 _symmetry_equiv_pos_as_xyz
  1  'x, y, z'
loop_
 _atom_site_type_symbol
 _atom_site_label
 _atom_site_symmetry_multiplicity
 _atom_site_fract_x
 _atom_site_fract_y
 _atom_site_fract_z
 _atom_site_occupancy
  C  C0  1  0.89355541  0.32073054  0.97728344  1
  Ni  Ni1  1  0.00984070  0.48880656  0.17402817  1
  Ni  Ni2  1  0.52322100  0.48045418  0.17156370  1
  Ni  Ni3  1  0.00442626  0.50068213  0.49798794  1
  Ni  Ni4  1  0.52284057  0.99255920  0.17178984  1
  Ni  Ni5  1  0.50361305  0.49589786  0.33519821  1
  Ni  Ni6  1  0.50122754  0.50099548  0.49848488  1
  Ni  Ni7  1  0.00148113  0.52396548  0.81205413  1
  Ni  Ni8  1  0.50197801  0.00142648  0.49834937  1
  Ni  Ni9  1  0.48924675  0.01330420  0.82375743  1
  Ni  Ni10  1  0.50842593  0.50583530  0.65993509  1
  Ni  Ni11  1  0.49137503  0.51075450  0.82547712  1
  Ni  Ni12  1  0.81864307  0.89332220  0.95809460  1
  Cu  Cu13  1  0.13003674  0.02497095  0.11350831  1
  Cu  Cu14  1  0.13213100  0.12117561  0.37581885  1
  Cu  Cu15  1  0.36181711  0.58690894  0.99846290  1
  Cu  Cu16  1  0.12843424  0.13017279  0.70123185  1
  Cu  Cu17  1  0.87351205  0.86529141  0.29941598  1
  Cu  Cu18  1  0.87222711  0.88474264  0.61895311  1
  C  C19  1  0.29857411  0.25223029  0.09124252  1
  C  C20  1  0.29041720  0.24232714  0.24341339  1
  C  C21  1  0.29277290  0.69788783  0.09219735  1
  C  C22  1  0.77502564  0.21920708  0.10114865  1
  C  C23  1  0.28310189  0.74678432  0.24276628  1
  C  C24  1  0.26916916  0.25625240  0.41951163  1
  C  C25  1  0.73616068  0.27114336  0.25468663  1
  C  C26  1  0.75490740  0.74863386  0.08760682  1
  C  C27  1  0.26295101  0.71607190  0.41804836  1
  C  C28  1  0.25913070  0.26542521  0.56892914  1
  C  C29  1  0.73692002  0.73400393  0.25405870  1
  C  C30  1  0.72246198  0.26007587  0.42270208  1
  C  C31  1  0.28200700  0.74347494  0.57346546  1
  C  C32  1  0.27834836  0.26398373  0.74043881  1
  C  C33  1  0.74452175  0.28692373  0.57687367  1
  C  C34  1  0.74509723  0.73489726  0.42841477  1
  C  C35  1  0.26044131  0.26954287  0.89387570  1
  C  C36  1  0.27778730  0.72847547  0.74094582  1
  C  C37  1  0.73989090  0.74746432  0.57525154  1
  C  C38  1  0.72227819  0.26126676  0.75009168  1
  C  C39  1  0.22357374  0.77530324  0.90280288  1
  C  C40  1  0.70838189  0.76409901  0.75273121  1
  C  C41  1  0.73642145  0.27991834  0.91112644  1
  C  C42  1  0.72745050  0.72594570  0.91412956  1
