# generated using pymatgen
data_CuNi14C
_symmetry_space_group_name_H-M   'P 1'
_cell_length_a   6.35176546
_cell_length_b   6.39641531
_cell_length_c   10.36907163
_cell_angle_alpha   90.00000000
_cell_angle_beta   90.00000000
_cell_angle_gamma   120.23281366
_symmetry_Int_Tables_number   1
_chemical_formula_structural   CuNi14C
_chemical_formula_sum   'Cu1 Ni14 C1'
_cell_volume   363.98038295
_cell_formula_units_Z   1
loop_
 _symmetry_equiv_pos_site_id
 _symmetry_equiv_pos_as_xyz
  1  'x, y, z'
loop_
 _atom_site_type_symbol
 _atom_site_label
 _atom_site_symmetry_multiplicity
 _atom_site_fract_x
 _atom_site_fract_y
 _atom_site_fract_z
 _atom_site_occupancy
  C  C0  1  0.16597416  0.33298658  0.12500000  1
  Ni  Ni1  1  0.16774113  0.33387007  0.62500000  1
  Ni  Ni2  1  0.16711408  0.83355654  0.62500000  1
  Ni  Ni3  1  0.66790624  0.33007823  0.12500000  1
  Ni  Ni4  1  0.66627170  0.33371633  0.62500000  1
  Ni  Ni5  1  0.66790624  0.83782701  0.12500000  1
  Ni  Ni6  1  0.66627170  0.83255438  0.62500000  1
  Ni  Ni7  1  0.33158895  0.16098614  0.37438542  1
  Ni  Ni8  1  0.33158895  0.16098614  0.87561458  1
  Ni  Ni9  1  0.33158895  0.67060381  0.37438542  1
  Ni  Ni10  1  0.33158895  0.67060381  0.87561458  1
  Ni  Ni11  1  0.82944736  0.16472418  0.37900390  1
  Ni  Ni12  1  0.82944736  0.16472418  0.87099610  1
  Ni  Ni13  1  0.83622845  0.66811473  0.37009990  1
  Ni  Ni14  1  0.83622845  0.66811473  0.87990010  1
  Cu  Cu15  1  0.17310732  0.83655316  0.12500000  1
