# generated using pymatgen
data_Cu7Ni3C
_symmetry_space_group_name_H-M   'P 1'
_cell_length_a   17.10681900
_cell_length_b   6.38233600
_cell_length_c   9.28924755
_cell_angle_alpha   51.17670357
_cell_angle_beta   90.00000000
_cell_angle_gamma   90.00000000
_symmetry_Int_Tables_number   1
_chemical_formula_structural   Cu7Ni3C
_chemical_formula_sum   'Cu28 Ni12 C4'
_cell_volume   790.15675628
_cell_formula_units_Z   4
loop_
 _symmetry_equiv_pos_site_id
 _symmetry_equiv_pos_as_xyz
  1  'x, y, z'
loop_
 _atom_site_type_symbol
 _atom_site_label
 _atom_site_symmetry_multiplicity
 _atom_site_fract_x
 _atom_site_fract_y
 _atom_site_fract_z
 _atom_site_occupancy
  C  C0  1  0.95104800  0.85313300  0.75438700  1
  C  C1  1  0.54895200  0.85313300  0.25438700  1
  C  C2  1  0.04895200  0.14686700  0.24561300  1
  C  C3  1  0.45104800  0.14686700  0.74561300  1
  Ni  Ni4  1  0.72212700  0.05133700  0.82621400  1
  Ni  Ni5  1  0.77787300  0.05133700  0.32621400  1
  Ni  Ni6  1  0.27787300  0.94866300  0.17378600  1
  Ni  Ni7  1  0.22212700  0.94866300  0.67378600  1
  Ni  Ni8  1  0.02184600  0.49572900  0.42678300  1
  Ni  Ni9  1  0.47815400  0.49572900  0.92678300  1
  Ni  Ni10  1  0.97815400  0.50427100  0.57321700  1
  Ni  Ni11  1  0.52184600  0.50427100  0.07321700  1
  Ni  Ni12  1  0.79462000  0.60661900  0.25325100  1
  Ni  Ni13  1  0.70538000  0.60661900  0.75325100  1
  Ni  Ni14  1  0.20538000  0.39338100  0.74674900  1
  Ni  Ni15  1  0.29462000  0.39338100  0.24674900  1
  Cu  Cu16  1  0.73656800  0.53068100  0.34070100  1
  Cu  Cu17  1  0.76343200  0.53068100  0.84070100  1
  Cu  Cu18  1  0.26343200  0.46931900  0.65929900  1
  Cu  Cu19  1  0.23656800  0.46931900  0.15929900  1
  Cu  Cu20  1  0.77268500  0.08278500  0.72874500  1
  Cu  Cu21  1  0.72731500  0.08278500  0.22874500  1
  Cu  Cu22  1  0.22731500  0.91721500  0.27125500  1
  Cu  Cu23  1  0.27268500  0.91721500  0.77125500  1
  Cu  Cu24  1  0.05510900  0.59806000  0.95938800  1
  Cu  Cu25  1  0.44489100  0.59806000  0.45938800  1
  Cu  Cu26  1  0.94489100  0.40194000  0.04061200  1
  Cu  Cu27  1  0.55510900  0.40194000  0.54061200  1
  Cu  Cu28  1  0.01718100  0.27357100  0.45339300  1
  Cu  Cu29  1  0.48281900  0.27357100  0.95339300  1
  Cu  Cu30  1  0.98281900  0.72642900  0.54660700  1
  Cu  Cu31  1  0.51718100  0.72642900  0.04660700  1
  Cu  Cu32  1  0.67224800  0.01656800  0.92634400  1
  Cu  Cu33  1  0.82775200  0.01656800  0.42634400  1
  Cu  Cu34  1  0.32775200  0.98343200  0.07365600  1
  Cu  Cu35  1  0.17224800  0.98343200  0.57365600  1
  Cu  Cu36  1  0.05794100  0.70287200  0.29753800  1
  Cu  Cu37  1  0.44205900  0.70287200  0.79753800  1
  Cu  Cu38  1  0.94205900  0.29712800  0.70246200  1
  Cu  Cu39  1  0.55794100  0.29712800  0.20246200  1
  Cu  Cu40  1  0.85215800  0.68331800  0.16443000  1
  Cu  Cu41  1  0.64784200  0.68331800  0.66443000  1
  Cu  Cu42  1  0.14784200  0.31668200  0.83557000  1
  Cu  Cu43  1  0.35215800  0.31668200  0.33557000  1
