# generated using pymatgen
data_Cu3NiC14
_symmetry_space_group_name_H-M   'P 1'
_cell_length_a   7.34814530
_cell_length_b   7.34814530
_cell_length_c   7.34814553
_cell_angle_alpha   60.58812387
_cell_angle_beta   60.58812387
_cell_angle_gamma   60.58812845
_symmetry_Int_Tables_number   1
_chemical_formula_structural   Cu3NiC14
_chemical_formula_sum   'Cu3 Ni1 C14'
_cell_volume   284.28200057
_cell_formula_units_Z   1
loop_
 _symmetry_equiv_pos_site_id
 _symmetry_equiv_pos_as_xyz
  1  'x, y, z'
loop_
 _atom_site_type_symbol
 _atom_site_label
 _atom_site_symmetry_multiplicity
 _atom_site_fract_x
 _atom_site_fract_y
 _atom_site_fract_z
 _atom_site_occupancy
  C  C0  1  0.63342600  0.63342600  0.63342600  1
  C  C1  1  0.36657400  0.36657400  0.36657400  1
  Ni  Ni2  1  0.00000000  0.00000000  0.00000000  1
  Cu  Cu3  1  0.50000000  0.00000000  0.00000000  1
  Cu  Cu4  1  0.00000000  0.00000000  0.50000000  1
  Cu  Cu5  1  0.00000000  0.50000000  0.00000000  1
  C  C6  1  0.94060200  0.31237600  0.31237600  1
  C  C7  1  0.31237000  0.94117200  0.94117200  1
  C  C8  1  0.31237600  0.31237600  0.94060200  1
  C  C9  1  0.94117200  0.94117200  0.31237000  1
  C  C10  1  0.94117200  0.31237000  0.94117200  1
  C  C11  1  0.31237600  0.94060200  0.31237600  1
  C  C12  1  0.05939800  0.68762400  0.68762400  1
  C  C13  1  0.68763000  0.05882800  0.05882800  1
  C  C14  1  0.68762400  0.68762400  0.05939800  1
  C  C15  1  0.05882800  0.05882800  0.68763000  1
  C  C16  1  0.05882800  0.68763000  0.05882800  1
  C  C17  1  0.68762400  0.05939800  0.68762400  1
