# generated using pymatgen
data_Cu5(NiC)2
_symmetry_space_group_name_H-M   'P 1'
_cell_length_a   6.85093100
_cell_length_b   10.02446300
_cell_length_c   14.96335700
_cell_angle_alpha   90.00000000
_cell_angle_beta   90.00000000
_cell_angle_gamma   90.00000000
_symmetry_Int_Tables_number   1
_chemical_formula_structural   Cu5(NiC)2
_chemical_formula_sum   'Cu20 Ni8 C8'
_cell_volume   1027.63703707
_cell_formula_units_Z   4
loop_
 _symmetry_equiv_pos_site_id
 _symmetry_equiv_pos_as_xyz
  1  'x, y, z'
loop_
 _atom_site_type_symbol
 _atom_site_label
 _atom_site_symmetry_multiplicity
 _atom_site_fract_x
 _atom_site_fract_y
 _atom_site_fract_z
 _atom_site_occupancy
  C  C0  1  0.32583200  0.25000000  0.41686600  1
  C  C1  1  0.17416800  0.25000000  0.91686600  1
  C  C2  1  0.67416800  0.75000000  0.58313400  1
  C  C3  1  0.82583200  0.75000000  0.08313400  1
  Ni  Ni4  1  0.33171700  0.97124600  0.16086000  1
  Ni  Ni5  1  0.16828300  0.52875400  0.66086000  1
  Ni  Ni6  1  0.66828300  0.47124600  0.83914000  1
  Ni  Ni7  1  0.83171700  0.02875400  0.33914000  1
  Ni  Ni8  1  0.66828300  0.02875400  0.83914000  1
  Ni  Ni9  1  0.83171700  0.47124600  0.33914000  1
  Ni  Ni10  1  0.33171700  0.52875400  0.16086000  1
  Ni  Ni11  1  0.16828300  0.97124600  0.66086000  1
  Cu  Cu12  1  0.31205200  0.02093100  0.39830500  1
  Cu  Cu13  1  0.18794800  0.47906900  0.89830500  1
  Cu  Cu14  1  0.68794800  0.52093100  0.60169500  1
  Cu  Cu15  1  0.81205200  0.97906900  0.10169500  1
  Cu  Cu16  1  0.68794800  0.97906900  0.60169500  1
  Cu  Cu17  1  0.81205200  0.52093100  0.10169500  1
  Cu  Cu18  1  0.31205200  0.47906900  0.39830500  1
  Cu  Cu19  1  0.18794800  0.02093100  0.89830500  1
  Cu  Cu20  1  0.46086600  0.25000000  0.99411700  1
  Cu  Cu21  1  0.03913400  0.25000000  0.49411700  1
  Cu  Cu22  1  0.53913400  0.75000000  0.00588300  1
  Cu  Cu23  1  0.96086600  0.75000000  0.50588300  1
  Cu  Cu24  1  0.14689400  0.25000000  0.25781500  1
  Cu  Cu25  1  0.35310600  0.25000000  0.75781500  1
  Cu  Cu26  1  0.85310600  0.75000000  0.74218500  1
  Cu  Cu27  1  0.64689400  0.75000000  0.24218500  1
  Cu  Cu28  1  0.53569400  0.25000000  0.28292900  1
  Cu  Cu29  1  0.96430600  0.25000000  0.78292900  1
  Cu  Cu30  1  0.46430600  0.75000000  0.71707100  1
  Cu  Cu31  1  0.03569400  0.75000000  0.21707100  1
  C  C32  1  0.99517100  0.25000000  0.99560200  1
  C  C33  1  0.50482900  0.25000000  0.49560200  1
  C  C34  1  0.00482900  0.75000000  0.00439800  1
  C  C35  1  0.49517100  0.75000000  0.50439800  1
