# generated using pymatgen
data_Cu3NiC25
_symmetry_space_group_name_H-M   'P 1'
_cell_length_a   7.54338700
_cell_length_b   11.11234300
_cell_length_c   17.64269085
_cell_angle_alpha   90.00000000
_cell_angle_beta   93.12069546
_cell_angle_gamma   90.00000000
_symmetry_Int_Tables_number   1
_chemical_formula_structural   Cu3NiC25
_chemical_formula_sum   'Cu12 Ni4 C100'
_cell_volume   1476.70024028
_cell_formula_units_Z   4
loop_
 _symmetry_equiv_pos_site_id
 _symmetry_equiv_pos_as_xyz
  1  'x, y, z'
loop_
 _atom_site_type_symbol
 _atom_site_label
 _atom_site_symmetry_multiplicity
 _atom_site_fract_x
 _atom_site_fract_y
 _atom_site_fract_z
 _atom_site_occupancy
  C  C0  1  0.68171600  0.26510300  0.60948500  1
  C  C1  1  0.31828400  0.76510300  0.89051500  1
  C  C2  1  0.31828400  0.73489700  0.39051500  1
  C  C3  1  0.68171600  0.23489700  0.10948500  1
  Ni  Ni4  1  0.83043100  0.76982000  0.65372000  1
  Ni  Ni5  1  0.16956900  0.26982000  0.84628000  1
  Ni  Ni6  1  0.16956900  0.23018000  0.34628000  1
  Ni  Ni7  1  0.83043100  0.73018000  0.15372000  1
  C  C8  1  0.96811000  0.42498200  0.60080800  1
  C  C9  1  0.03189000  0.92498200  0.89919200  1
  C  C10  1  0.03189000  0.57501800  0.39919200  1
  C  C11  1  0.96811000  0.07501800  0.10080800  1
  C  C12  1  0.91168800  0.43142300  0.68886300  1
  C  C13  1  0.08831200  0.93142300  0.81113700  1
  C  C14  1  0.08831200  0.56857700  0.31113700  1
  C  C15  1  0.91168800  0.06857700  0.18886300  1
  C  C16  1  0.03232000  0.31546800  0.66102000  1
  C  C17  1  0.96768000  0.81546800  0.83898000  1
  C  C18  1  0.96768000  0.68453200  0.33898000  1
  C  C19  1  0.03232000  0.18453200  0.16102000  1
  C  C20  1  0.56628900  0.33625200  0.46099700  1
  C  C21  1  0.43371100  0.83625200  0.03900300  1
  C  C22  1  0.43371100  0.66374800  0.53900300  1
  C  C23  1  0.56628900  0.16374800  0.96099700  1
  C  C24  1  0.66862000  0.45236300  0.50632000  1
  C  C25  1  0.33138000  0.95236300  0.99368000  1
  C  C26  1  0.33138000  0.54763700  0.49368000  1
  C  C27  1  0.66862000  0.04763700  0.00632000  1
  C  C28  1  0.78699400  0.34619600  0.46853100  1
  C  C29  1  0.21300600  0.84619600  0.03146900  1
  C  C30  1  0.21300600  0.65380400  0.53146900  1
  C  C31  1  0.78699400  0.15380400  0.96853100  1
  C  C32  1  0.45490300  0.38171400  0.70767500  1
  C  C33  1  0.54509700  0.88171400  0.79232500  1
  C  C34  1  0.54509700  0.61828600  0.29232500  1
  C  C35  1  0.45490300  0.11828600  0.20767500  1
  C  C36  1  0.58049100  0.48577600  0.67242700  1
  C  C37  1  0.41950900  0.98577600  0.82757300  1
  C  C38  1  0.41950900  0.51422400  0.32757300  1
  C  C39  1  0.58049100  0.01422400  0.17242700  1
  C  C40  1  0.40548700  0.43428000  0.62102300  1
  C  C41  1  0.59451300  0.93428000  0.87897700  1
  C  C42  1  0.59451300  0.56572000  0.37897700  1
  C  C43  1  0.40548700  0.06572000  0.12102300  1
  C  C44  1  0.65151800  0.07653200  0.71079800  1
  C  C45  1  0.34848200  0.57653200  0.78920200  1
  C  C46  1  0.34848200  0.92346800  0.28920200  1
  C  C47  1  0.65151800  0.42346800  0.21079800  1
  C  C48  1  0.82206700  0.15874400  0.74335300  1
  C  C49  1  0.17793300  0.65874400  0.75664700  1
  C  C50  1  0.17793300  0.84125600  0.25664700  1
  C  C51  1  0.82206700  0.34125600  0.24335300  1
  C  C52  1  0.61507300  0.20052000  0.76013700  1
  C  C53  1  0.38492700  0.70052000  0.73986300  1
  C  C54  1  0.38492700  0.79948000  0.23986300  1
  C  C55  1  0.61507300  0.29948000  0.26013700  1
  C  C56  1  0.34867300  0.16168400  0.61627100  1
  C  C57  1  0.65132700  0.66168400  0.88372900  1
  C  C58  1  0.65132700  0.83831600  0.38372900  1
  C  C59  1  0.34867300  0.33831600  0.11627100  1
  C  C60  1  0.37841000  0.17816900  0.52418800  1
  C  C61  1  0.62159000  0.67816900  0.97581200  1
  C  C62  1  0.62159000  0.82183100  0.47581200  1
  C  C63  1  0.37841000  0.32183100  0.02418800  1
  C  C64  1  0.47181500  0.06322700  0.57356800  1
  C  C65  1  0.52818500  0.56322700  0.92643200  1
  C  C66  1  0.52818500  0.93677300  0.42643200  1
  C  C67  1  0.47181500  0.43677300  0.07356800  1
  C  C68  1  0.80773700  0.05445300  0.53615800  1
  C  C69  1  0.19226300  0.55445300  0.96384200  1
  C  C70  1  0.19226300  0.94554700  0.46384200  1
  C  C71  1  0.80773700  0.44554700  0.03615800  1
  C  C72  1  0.95177300  0.16610400  0.52417000  1
  C  C73  1  0.04822700  0.66610400  0.97583000  1
  C  C74  1  0.04822700  0.83389600  0.47583000  1
  C  C75  1  0.95177300  0.33389600  0.02417000  1
  C  C76  1  0.95251400  0.09243900  0.60583200  1
  C  C77  1  0.04748600  0.59243900  0.89416800  1
  C  C78  1  0.04748600  0.90756100  0.39416800  1
  C  C79  1  0.95251400  0.40756100  0.10583200  1
  Cu  Cu80  1  0.81859000  0.62739200  0.75402000  1
  Cu  Cu81  1  0.18141000  0.12739200  0.74598000  1
  Cu  Cu82  1  0.18141000  0.37260800  0.24598000  1
  Cu  Cu83  1  0.81859000  0.87260800  0.25402000  1
  Cu  Cu84  1  0.85637100  0.65882500  0.54039600  1
  Cu  Cu85  1  0.14362900  0.15882500  0.95960400  1
  Cu  Cu86  1  0.14362900  0.34117500  0.45960400  1
  Cu  Cu87  1  0.85637100  0.84117500  0.04039600  1
  Cu  Cu88  1  0.54374400  0.85637700  0.64353400  1
  Cu  Cu89  1  0.45625600  0.35637700  0.85646600  1
  Cu  Cu90  1  0.45625600  0.14362300  0.35646600  1
  Cu  Cu91  1  0.54374400  0.64362300  0.14353400  1
  C  C92  1  0.93006100  0.37250500  0.64488100  1
  C  C93  1  0.06993900  0.87250500  0.85511900  1
  C  C94  1  0.06993900  0.62749500  0.35511900  1
  C  C95  1  0.93006100  0.12749500  0.14488100  1
  C  C96  1  0.67242200  0.36150900  0.49620800  1
  C  C97  1  0.32757800  0.86150900  0.00379200  1
  C  C98  1  0.32757800  0.63849100  0.50379200  1
  C  C99  1  0.67242200  0.13849100  0.99620800  1
  C  C100  1  0.50800500  0.40974800  0.65816400  1
  C  C101  1  0.49199500  0.90974800  0.84183600  1
  C  C102  1  0.49199500  0.59025200  0.34183600  1
  C  C103  1  0.50800500  0.09025200  0.15816400  1
  C  C104  1  0.69395600  0.16326500  0.72054900  1
  C  C105  1  0.30604400  0.66326500  0.77945100  1
  C  C106  1  0.30604400  0.83673500  0.27945100  1
  C  C107  1  0.69395600  0.33673500  0.22054900  1
  C  C108  1  0.43939000  0.15292100  0.57519600  1
  C  C109  1  0.56061000  0.65292100  0.92480400  1
  C  C110  1  0.56061000  0.84707900  0.42480400  1
  C  C111  1  0.43939000  0.34707900  0.07519600  1
  C  C112  1  0.87172200  0.12555700  0.56217000  1
  C  C113  1  0.12827800  0.62555700  0.93783000  1
  C  C114  1  0.12827800  0.87444300  0.43783000  1
  C  C115  1  0.87172200  0.37444300  0.06217000  1
