# generated using pymatgen
data_Cu2Ni2C3
_symmetry_space_group_name_H-M   'P 1'
_cell_length_a   4.51982563
_cell_length_b   5.49568439
_cell_length_c   5.39629768
_cell_angle_alpha   93.13212426
_cell_angle_beta   65.24181281
_cell_angle_gamma   65.71876129
_symmetry_Int_Tables_number   1
_chemical_formula_structural   Cu2Ni2C3
_chemical_formula_sum   'Cu2 Ni2 C3'
_cell_volume   106.70517851
_cell_formula_units_Z   1
loop_
 _symmetry_equiv_pos_site_id
 _symmetry_equiv_pos_as_xyz
  1  'x, y, z'
loop_
 _atom_site_type_symbol
 _atom_site_label
 _atom_site_symmetry_multiplicity
 _atom_site_fract_x
 _atom_site_fract_y
 _atom_site_fract_z
 _atom_site_occupancy
  C  C0  1  0.59329098  0.09515527  0.71826378  1
  C  C1  1  0.40670902  0.90484473  0.28173622  1
  Ni  Ni2  1  0.20609576  0.72134187  0.86646760  1
  Ni  Ni3  1  0.79390424  0.27865813  0.13353240  1
  Cu  Cu4  1  0.13255206  0.48729732  0.24759756  1
  Cu  Cu5  1  0.86744794  0.51270268  0.75240244  1
  C  C6  1  0.50000000  0.50000000  0.50000000  1
