# generated using pymatgen
data_Cu3NiC4
_symmetry_space_group_name_H-M   'P 1'
_cell_length_a   5.64464400
_cell_length_b   12.84267600
_cell_length_c   16.53340600
_cell_angle_alpha   90.00000000
_cell_angle_beta   90.00000000
_cell_angle_gamma   90.00000000
_symmetry_Int_Tables_number   1
_chemical_formula_structural   Cu3NiC4
_chemical_formula_sum   'Cu36 Ni12 C48'
_cell_volume   1198.54519036
_cell_formula_units_Z   12
loop_
 _symmetry_equiv_pos_site_id
 _symmetry_equiv_pos_as_xyz
  1  'x, y, z'
loop_
 _atom_site_type_symbol
 _atom_site_label
 _atom_site_symmetry_multiplicity
 _atom_site_fract_x
 _atom_site_fract_y
 _atom_site_fract_z
 _atom_site_occupancy
  C  C0  1  0.93975100  0.55155900  0.73136600  1
  C  C1  1  0.56024900  0.44844100  0.23136600  1
  C  C2  1  0.43975100  0.94844100  0.26863400  1
  C  C3  1  0.06024900  0.05155900  0.76863400  1
  C  C4  1  0.93228200  0.78814900  0.22764800  1
  C  C5  1  0.56771800  0.21185100  0.72764800  1
  C  C6  1  0.43228200  0.71185100  0.77235200  1
  C  C7  1  0.06771800  0.28814900  0.27235200  1
  C  C8  1  0.00641900  0.78444700  0.62128900  1
  C  C9  1  0.49358100  0.21555300  0.12128900  1
  C  C10  1  0.50641900  0.71555300  0.37871100  1
  C  C11  1  0.99358100  0.28444800  0.87871100  1
  C  C12  1  0.16256100  0.99303000  0.48245200  1
  C  C13  1  0.33743900  0.00697000  0.98245200  1
  C  C14  1  0.66256100  0.50697000  0.51754800  1
  C  C15  1  0.83743900  0.49303000  0.01754800  1
  C  C16  1  0.00992100  0.04524300  0.40435100  1
  C  C17  1  0.49007900  0.95475700  0.90435100  1
  C  C18  1  0.50992100  0.45475700  0.59564900  1
  C  C19  1  0.99007900  0.54524300  0.09564900  1
  C  C20  1  0.40939600  0.26635900  0.50524200  1
  C  C21  1  0.09060400  0.73364100  0.00524200  1
  C  C22  1  0.90939600  0.23364100  0.49475800  1
  C  C23  1  0.59060400  0.76635900  0.99475800  1
  C  C24  1  0.51008700  0.35476900  0.44498100  1
  C  C25  1  0.98991300  0.64523100  0.94498100  1
  C  C26  1  0.01008700  0.14523100  0.55501900  1
  C  C27  1  0.48991300  0.85476900  0.05501900  1
  C  C28  1  0.99363600  0.11975500  0.03043400  1
  C  C29  1  0.50636400  0.88024500  0.53043400  1
  C  C30  1  0.49363600  0.38024500  0.96956600  1
  C  C31  1  0.00636400  0.61975500  0.46956600  1
  C  C32  1  0.89901600  0.99728800  0.02558800  1
  C  C33  1  0.60098400  0.00271200  0.52558800  1
  C  C34  1  0.39901600  0.50271200  0.97441200  1
  C  C35  1  0.10098400  0.49728800  0.47441200  1
  C  C36  1  0.98413500  0.87053000  0.41020000  1
  C  C37  1  0.51586500  0.12947000  0.91020000  1
  C  C38  1  0.48413500  0.62947000  0.58980000  1
  C  C39  1  0.01586500  0.37053000  0.08980000  1
  C  C40  1  0.59157600  0.17957100  0.31190000  1
  C  C41  1  0.90842400  0.82042900  0.81190000  1
  C  C42  1  0.09157600  0.32042900  0.68810000  1
  C  C43  1  0.40842400  0.67957100  0.18810000  1
  C  C44  1  0.98613100  0.04787800  0.15187400  1
  C  C45  1  0.51386900  0.95212200  0.65187400  1
  C  C46  1  0.48613100  0.45212200  0.84812600  1
  C  C47  1  0.01386900  0.54787800  0.34812600  1
  Ni  Ni48  1  0.00930500  0.98912900  0.44848300  1
  Ni  Ni49  1  0.49069500  0.01087100  0.94848300  1
  Ni  Ni50  1  0.50930500  0.51087100  0.55151700  1
  Ni  Ni51  1  0.99069500  0.48912900  0.05151700  1
  Ni  Ni52  1  0.36292800  0.30809400  0.45386800  1
  Ni  Ni53  1  0.13707200  0.69190600  0.95386800  1
  Ni  Ni54  1  0.86292800  0.19190600  0.54613200  1
  Ni  Ni55  1  0.63707200  0.80809400  0.04613200  1
  Ni  Ni56  1  0.02409000  0.04536300  0.05112200  1
  Ni  Ni57  1  0.47591000  0.95463700  0.55112200  1
  Ni  Ni58  1  0.52409000  0.45463700  0.94887800  1
  Ni  Ni59  1  0.97591000  0.54536300  0.44887800  1
  Cu  Cu60  1  0.76281700  0.87272800  0.36255500  1
  Cu  Cu61  1  0.73718300  0.12727200  0.86255500  1
  Cu  Cu62  1  0.26281700  0.62727200  0.63744500  1
  Cu  Cu63  1  0.23718300  0.37272800  0.13744500  1
  Cu  Cu64  1  0.18874900  0.84543700  0.35707300  1
  Cu  Cu65  1  0.31125100  0.15456300  0.85707300  1
  Cu  Cu66  1  0.68874900  0.65456300  0.64292700  1
  Cu  Cu67  1  0.81125100  0.34543700  0.14292700  1
  Cu  Cu68  1  0.97490500  0.80218800  0.48094600  1
  Cu  Cu69  1  0.52509500  0.19781200  0.98094600  1
  Cu  Cu70  1  0.47490500  0.69781200  0.51905400  1
  Cu  Cu71  1  0.02509500  0.30218800  0.01905400  1
  Cu  Cu72  1  0.47657300  0.27397100  0.27636500  1
  Cu  Cu73  1  0.02342700  0.72602900  0.77636500  1
  Cu  Cu74  1  0.97657300  0.22602900  0.72363500  1
  Cu  Cu75  1  0.52342700  0.77397100  0.22363500  1
  Cu  Cu76  1  0.42078700  0.10545800  0.34796000  1
  Cu  Cu77  1  0.07921300  0.89454200  0.84796000  1
  Cu  Cu78  1  0.92078700  0.39454200  0.65204000  1
  Cu  Cu79  1  0.57921300  0.60545800  0.15204000  1
  Cu  Cu80  1  0.79914500  0.20614300  0.36292800  1
  Cu  Cu81  1  0.70085500  0.79385700  0.86292800  1
  Cu  Cu82  1  0.29914500  0.29385700  0.63707200  1
  Cu  Cu83  1  0.20085500  0.70614300  0.13707200  1
  Cu  Cu84  1  0.72991600  0.05884100  0.16932400  1
  Cu  Cu85  1  0.77008400  0.94115900  0.66932400  1
  Cu  Cu86  1  0.22991600  0.44115900  0.83067600  1
  Cu  Cu87  1  0.27008400  0.55884100  0.33067600  1
  Cu  Cu88  1  0.12624200  0.13859000  0.17743100  1
  Cu  Cu89  1  0.37375800  0.86141000  0.67743100  1
  Cu  Cu90  1  0.62624200  0.36141000  0.82256900  1
  Cu  Cu91  1  0.87375800  0.63859000  0.32256900  1
  Cu  Cu92  1  0.08143300  0.94929700  0.18257600  1
  Cu  Cu93  1  0.41856700  0.05070300  0.68257600  1
  Cu  Cu94  1  0.58143300  0.55070300  0.81742400  1
  Cu  Cu95  1  0.91856700  0.44929700  0.31742400  1
