# generated using pymatgen
data_Cu(NiC12)3
_symmetry_space_group_name_H-M   'P 1'
_cell_length_a   8.55078600
_cell_length_b   8.61186826
_cell_length_c   8.61303123
_cell_angle_alpha   62.33537646
_cell_angle_beta   62.44497844
_cell_angle_gamma   62.54884980
_symmetry_Int_Tables_number   1
_chemical_formula_structural   Cu(NiC12)3
_chemical_formula_sum   'Cu1 Ni3 C36'
_cell_volume   472.90606341
_cell_formula_units_Z   1
loop_
 _symmetry_equiv_pos_site_id
 _symmetry_equiv_pos_as_xyz
  1  'x, y, z'
loop_
 _atom_site_type_symbol
 _atom_site_label
 _atom_site_symmetry_multiplicity
 _atom_site_fract_x
 _atom_site_fract_y
 _atom_site_fract_z
 _atom_site_occupancy
  C  C0  1  0.98034600  0.01108300  0.00423000  1
  C  C1  1  0.24545100  0.65473900  0.85238100  1
  C  C2  1  0.52219600  0.50201900  0.49131200  1
  C  C3  1  0.77384100  0.34033000  0.16054100  1
  C  C4  1  0.33824400  0.16229500  0.77527500  1
  C  C5  1  0.16273400  0.77461300  0.33786400  1
  Ni  Ni6  1  0.85426400  0.86414300  0.85516500  1
  Ni  Ni7  1  0.64635500  0.64492700  0.63806400  1
  Ni  Ni8  1  0.35246600  0.35130800  0.35084500  1
  Cu  Cu9  1  0.14890800  0.15064000  0.15070500  1
  C  C10  1  0.94544200  0.55259500  0.24656900  1
  C  C11  1  0.55203700  0.24975900  0.94308900  1
  C  C12  1  0.24916900  0.94612500  0.54811800  1
  C  C13  1  0.74645600  0.04279000  0.45898500  1
  C  C14  1  0.45684800  0.74702100  0.03906400  1
  C  C15  1  0.04451000  0.46226100  0.74739500  1
  C  C16  1  0.87875600  0.51423500  0.68746700  1
  C  C17  1  0.67797800  0.88491000  0.50610300  1
  C  C18  1  0.94990200  0.73442500  0.07930700  1
  C  C19  1  0.48537100  0.68596800  0.88261600  1
  C  C20  1  0.75829900  0.58260800  0.40466000  1
  C  C21  1  0.95975300  0.39719500  0.19477200  1
  C  C22  1  0.74067900  0.09260400  0.92977200  1
  C  C23  1  0.56525100  0.41697100  0.76125900  1
  C  C24  1  0.40406100  0.75508500  0.58033600  1
  C  C25  1  0.80654900  0.00567500  0.61909400  1
  C  C26  1  0.90367600  0.05591400  0.27036500  1
  C  C27  1  0.62607900  0.79821800  0.99624200  1
  C  C28  1  0.39509000  0.19495100  0.96246500  1
  C  C29  1  0.09485600  0.92825200  0.74142400  1
  C  C30  1  0.19270300  0.96310600  0.39558500  1
  C  C31  1  0.58989100  0.23404600  0.43685200  1
  C  C32  1  0.43883600  0.58823900  0.22988300  1
  C  C33  1  0.27116600  0.90602400  0.05822500  1
  C  C34  1  0.02424400  0.62155200  0.79972700  1
  C  C35  1  0.23382100  0.43424800  0.58793100  1
  C  C36  1  0.51047600  0.30469600  0.11024500  1
  C  C37  1  0.05367900  0.27556800  0.90624800  1
  C  C38  1  0.30662100  0.11052700  0.50705100  1
  C  C39  1  0.11299800  0.50733800  0.30376500  1
