# generated using pymatgen
data_Cu(NiC)2
_symmetry_space_group_name_H-M   'P 1'
_cell_length_a   3.75736200
_cell_length_b   8.52884800
_cell_length_c   11.29895700
_cell_angle_alpha   90.00000000
_cell_angle_beta   90.00000000
_cell_angle_gamma   90.00000000
_symmetry_Int_Tables_number   1
_chemical_formula_structural   Cu(NiC)2
_chemical_formula_sum   'Cu4 Ni8 C8'
_cell_volume   362.08603004
_cell_formula_units_Z   4
loop_
 _symmetry_equiv_pos_site_id
 _symmetry_equiv_pos_as_xyz
  1  'x, y, z'
loop_
 _atom_site_type_symbol
 _atom_site_label
 _atom_site_symmetry_multiplicity
 _atom_site_fract_x
 _atom_site_fract_y
 _atom_site_fract_z
 _atom_site_occupancy
  C  C0  1  0.25000100  0.54622100  0.35224000  1
  C  C1  1  0.74999900  0.45377900  0.64776000  1
  C  C2  1  0.25000100  0.04622000  0.14776000  1
  C  C3  1  0.74999900  0.95377900  0.85224000  1
  C  C4  1  0.25000100  0.66968400  0.02848000  1
  C  C5  1  0.74999900  0.33031600  0.97152000  1
  C  C6  1  0.25000100  0.16968400  0.47152000  1
  C  C7  1  0.74999900  0.83031600  0.52847900  1
  Ni  Ni8  1  0.74999900  0.24246300  0.33091200  1
  Ni  Ni9  1  0.25000100  0.75753700  0.66908800  1
  Ni  Ni10  1  0.25000100  0.25753800  0.83091200  1
  Ni  Ni11  1  0.74999900  0.74246300  0.16908800  1
  Ni  Ni12  1  0.74999900  0.59715400  0.89817300  1
  Ni  Ni13  1  0.25000100  0.40284700  0.10182700  1
  Ni  Ni14  1  0.25000100  0.90284600  0.39817300  1
  Ni  Ni15  1  0.74999900  0.09715400  0.60182700  1
  Cu  Cu16  1  0.25000100  0.88734800  0.96361800  1
  Cu  Cu17  1  0.74999900  0.11265200  0.03638200  1
  Cu  Cu18  1  0.25000100  0.38734800  0.53638200  1
  Cu  Cu19  1  0.74999900  0.61265200  0.46361800  1
