# generated using pymatgen
data_CuNiC
_symmetry_space_group_name_H-M   'P 1'
_cell_length_a   4.05091600
_cell_length_b   6.93961000
_cell_length_c   8.13660600
_cell_angle_alpha   90.00000000
_cell_angle_beta   90.00000000
_cell_angle_gamma   90.00000000
_symmetry_Int_Tables_number   1
_chemical_formula_structural   CuNiC
_chemical_formula_sum   'Cu4 Ni4 C4'
_cell_volume   228.73445490
_cell_formula_units_Z   4
loop_
 _symmetry_equiv_pos_site_id
 _symmetry_equiv_pos_as_xyz
  1  'x, y, z'
loop_
 _atom_site_type_symbol
 _atom_site_label
 _atom_site_symmetry_multiplicity
 _atom_site_fract_x
 _atom_site_fract_y
 _atom_site_fract_z
 _atom_site_occupancy
  C  C0  1  0.25000000  0.53880100  0.18406600  1
  C  C1  1  0.75000000  0.46119900  0.81593400  1
  C  C2  1  0.25000000  0.03880100  0.31593400  1
  C  C3  1  0.75000000  0.96119900  0.68406600  1
  Ni  Ni4  1  0.25000000  0.13699700  0.93637200  1
  Ni  Ni5  1  0.75000000  0.86300300  0.06362800  1
  Ni  Ni6  1  0.25000000  0.63699700  0.56362800  1
  Ni  Ni7  1  0.75000000  0.36300300  0.43637200  1
  Cu  Cu8  1  0.75000000  0.74501900  0.37669400  1
  Cu  Cu9  1  0.25000000  0.25498100  0.62330600  1
  Cu  Cu10  1  0.75000000  0.24501900  0.12330600  1
  Cu  Cu11  1  0.25000000  0.75498100  0.87669400  1
