# generated using pymatgen
data_CuNiC
_symmetry_space_group_name_H-M   'P 1'
_cell_length_a   4.11381200
_cell_length_b   4.11381200
_cell_length_c   7.70717146
_cell_angle_alpha   105.47881672
_cell_angle_beta   105.47881672
_cell_angle_gamma   90.00000000
_symmetry_Int_Tables_number   1
_chemical_formula_structural   CuNiC
_chemical_formula_sum   'Cu2 Ni2 C2'
_cell_volume   120.78502602
_cell_formula_units_Z   2
loop_
 _symmetry_equiv_pos_site_id
 _symmetry_equiv_pos_as_xyz
  1  'x, y, z'
loop_
 _atom_site_type_symbol
 _atom_site_label
 _atom_site_symmetry_multiplicity
 _atom_site_fract_x
 _atom_site_fract_y
 _atom_site_fract_z
 _atom_site_occupancy
  C  C0  1  0.75117600  0.75117600  0.50235200  1
  C  C1  1  0.00117600  0.50117600  0.00235200  1
  Ni  Ni2  1  0.32926600  0.32926600  0.65853200  1
  Ni  Ni3  1  0.57926600  0.07926600  0.15853200  1
  Cu  Cu4  1  0.41225800  0.91225800  0.82451600  1
  Cu  Cu5  1  0.16225800  0.16225800  0.32451600  1
