# generated using pymatgen
data_Cu8NiC7
_symmetry_space_group_name_H-M   'P 1'
_cell_length_a   15.23263600
_cell_length_b   5.74531300
_cell_length_c   8.96523400
_cell_angle_alpha   90.00000000
_cell_angle_beta   90.00000000
_cell_angle_gamma   90.00000000
_symmetry_Int_Tables_number   1
_chemical_formula_structural   Cu8NiC7
_chemical_formula_sum   'Cu32 Ni4 C28'
_cell_volume   784.60376436
_cell_formula_units_Z   4
loop_
 _symmetry_equiv_pos_site_id
 _symmetry_equiv_pos_as_xyz
  1  'x, y, z'
loop_
 _atom_site_type_symbol
 _atom_site_label
 _atom_site_symmetry_multiplicity
 _atom_site_fract_x
 _atom_site_fract_y
 _atom_site_fract_z
 _atom_site_occupancy
  C  C0  1  0.61949200  0.25000000  0.81394700  1
  C  C1  1  0.11949200  0.25000000  0.68605300  1
  C  C2  1  0.38050800  0.75000000  0.18605300  1
  C  C3  1  0.88050800  0.75000000  0.31394700  1
  C  C4  1  0.52907800  0.25000000  0.20324000  1
  C  C5  1  0.02907800  0.25000000  0.29676000  1
  C  C6  1  0.47092200  0.75000000  0.79676000  1
  C  C7  1  0.97092200  0.75000000  0.70324000  1
  C  C8  1  0.78077900  0.25000000  0.50587700  1
  C  C9  1  0.28077900  0.25000000  0.99412300  1
  C  C10  1  0.21922100  0.75000000  0.49412300  1
  C  C11  1  0.71922100  0.75000000  0.00587700  1
  C  C12  1  0.92991300  0.25000000  0.88267400  1
  C  C13  1  0.42991300  0.25000000  0.61732600  1
  C  C14  1  0.07008700  0.75000000  0.11732600  1
  C  C15  1  0.57008700  0.75000000  0.38267400  1
  C  C16  1  0.82187900  0.25000000  0.92087100  1
  C  C17  1  0.32187900  0.25000000  0.57912900  1
  C  C18  1  0.17812100  0.75000000  0.07912900  1
  C  C19  1  0.67812100  0.75000000  0.42087100  1
  C  C20  1  0.89175900  0.10343200  0.03346300  1
  C  C21  1  0.39175900  0.39656800  0.46653700  1
  C  C22  1  0.10824100  0.60343200  0.96653700  1
  C  C23  1  0.60824100  0.89656800  0.53346300  1
  C  C24  1  0.10824100  0.89656800  0.96653700  1
  C  C25  1  0.60824100  0.60343200  0.53346300  1
  C  C26  1  0.89175900  0.39656800  0.03346300  1
  C  C27  1  0.39175900  0.10343200  0.46653700  1
  Ni  Ni28  1  0.88395900  0.25000000  0.96760600  1
  Ni  Ni29  1  0.38395900  0.25000000  0.53239400  1
  Ni  Ni30  1  0.11604100  0.75000000  0.03239400  1
  Ni  Ni31  1  0.61604100  0.75000000  0.46760600  1
  Cu  Cu32  1  0.55327300  0.25000000  0.00751500  1
  Cu  Cu33  1  0.05327300  0.25000000  0.49248500  1
  Cu  Cu34  1  0.44672700  0.75000000  0.99248500  1
  Cu  Cu35  1  0.94672700  0.75000000  0.50751500  1
  Cu  Cu36  1  0.46425300  0.99821800  0.26269400  1
  Cu  Cu37  1  0.96425300  0.50178200  0.23730600  1
  Cu  Cu38  1  0.53574700  0.49821800  0.73730600  1
  Cu  Cu39  1  0.03574700  0.00178200  0.76269400  1
  Cu  Cu40  1  0.53574700  0.00178200  0.73730600  1
  Cu  Cu41  1  0.03574700  0.49821800  0.76269400  1
  Cu  Cu42  1  0.46425300  0.50178200  0.26269400  1
  Cu  Cu43  1  0.96425300  0.99821800  0.23730600  1
  Cu  Cu44  1  0.86578300  0.25000000  0.63503300  1
  Cu  Cu45  1  0.36578300  0.25000000  0.86496700  1
  Cu  Cu46  1  0.13421700  0.75000000  0.36496700  1
  Cu  Cu47  1  0.63421700  0.75000000  0.13503300  1
  Cu  Cu48  1  0.67800600  0.25000000  0.61199600  1
  Cu  Cu49  1  0.17800600  0.25000000  0.88800400  1
  Cu  Cu50  1  0.32199400  0.75000000  0.38800400  1
  Cu  Cu51  1  0.82199400  0.75000000  0.11199600  1
  Cu  Cu52  1  0.62566100  0.25000000  0.30748300  1
  Cu  Cu53  1  0.12566100  0.25000000  0.19251700  1
  Cu  Cu54  1  0.37433900  0.75000000  0.69251700  1
  Cu  Cu55  1  0.87433900  0.75000000  0.80748300  1
  Cu  Cu56  1  0.79470700  0.98916300  0.39344900  1
  Cu  Cu57  1  0.29470700  0.51083700  0.10655100  1
  Cu  Cu58  1  0.20529300  0.48916300  0.60655100  1
  Cu  Cu59  1  0.70529300  0.01083700  0.89344900  1
  Cu  Cu60  1  0.20529300  0.01083700  0.60655100  1
  Cu  Cu61  1  0.70529300  0.48916300  0.89344900  1
  Cu  Cu62  1  0.79470700  0.51083700  0.39344900  1
  Cu  Cu63  1  0.29470700  0.98916300  0.10655100  1
