# generated using pymatgen
data_Cu3NiC10
_symmetry_space_group_name_H-M   'P 1'
_cell_length_a   11.84574100
_cell_length_b   3.47819000
_cell_length_c   12.24351000
_cell_angle_alpha   90.00000000
_cell_angle_beta   90.00000000
_cell_angle_gamma   90.00000000
_symmetry_Int_Tables_number   1
_chemical_formula_structural   Cu3NiC10
_chemical_formula_sum   'Cu6 Ni2 C20'
_cell_volume   504.45388986
_cell_formula_units_Z   2
loop_
 _symmetry_equiv_pos_site_id
 _symmetry_equiv_pos_as_xyz
  1  'x, y, z'
loop_
 _atom_site_type_symbol
 _atom_site_label
 _atom_site_symmetry_multiplicity
 _atom_site_fract_x
 _atom_site_fract_y
 _atom_site_fract_z
 _atom_site_occupancy
  Ni  Ni0  1  0.15403200  0.25000000  0.71448600  1
  Ni  Ni1  1  0.65403200  0.25000000  0.78551400  1
  Cu  Cu2  1  0.10444000  0.25000000  0.08286200  1
  Cu  Cu3  1  0.89515400  0.75000000  0.93073400  1
  Cu  Cu4  1  0.39515400  0.75000000  0.56926600  1
  Cu  Cu5  1  0.60444000  0.25000000  0.41713800  1
  Cu  Cu6  1  0.84529600  0.75000000  0.29430000  1
  Cu  Cu7  1  0.34529600  0.75000000  0.20570000  1
  C  C8  1  0.12997800  0.75000000  0.39827700  1
  C  C9  1  0.85903900  0.25000000  0.57298500  1
  C  C10  1  0.35903900  0.25000000  0.92701500  1
  C  C11  1  0.62997800  0.75000000  0.10172300  1
  C  C12  1  0.04889200  0.75000000  0.62158800  1
  C  C13  1  0.95175600  0.25000000  0.37673800  1
  C  C14  1  0.45175600  0.25000000  0.12326200  1
  C  C15  1  0.54889200  0.75000000  0.87841200  1
  C  C16  1  0.03630100  0.25000000  0.88087800  1
  C  C17  1  0.96606200  0.75000000  0.11590400  1
  C  C18  1  0.46606200  0.75000000  0.38409600  1
  C  C19  1  0.53630100  0.25000000  0.61912200  1
  C  C20  1  0.21095500  0.25000000  0.24801700  1
  C  C21  1  0.79829700  0.75000000  0.74469800  1
  C  C22  1  0.29829700  0.75000000  0.75530200  1
  C  C23  1  0.71095500  0.25000000  0.25198300  1
  C  C24  1  0.23274900  0.75000000  0.04291400  1
  C  C25  1  0.76704900  0.25000000  0.96652300  1
  C  C26  1  0.26704900  0.25000000  0.53347700  1
  C  C27  1  0.73274900  0.75000000  0.45708600  1
