# generated using pymatgen
data_Cu(Ni3C4)4
_symmetry_space_group_name_H-M   'P 1'
_cell_length_a   9.11818749
_cell_length_b   9.11818749
_cell_length_c   9.11818749
_cell_angle_alpha   109.47122063
_cell_angle_beta   109.47122063
_cell_angle_gamma   109.47122063
_symmetry_Int_Tables_number   1
_chemical_formula_structural   Cu(Ni3C4)4
_chemical_formula_sum   'Cu1 Ni12 C16'
_cell_volume   583.58438483
_cell_formula_units_Z   1
loop_
 _symmetry_equiv_pos_site_id
 _symmetry_equiv_pos_as_xyz
  1  'x, y, z'
loop_
 _atom_site_type_symbol
 _atom_site_label
 _atom_site_symmetry_multiplicity
 _atom_site_fract_x
 _atom_site_fract_y
 _atom_site_fract_z
 _atom_site_occupancy
  C  C0  1  0.00000000  0.33529600  0.00000000  1
  C  C1  1  0.33529600  0.00000000  0.00000000  1
  C  C2  1  0.31399700  0.59888900  0.00000000  1
  C  C3  1  0.59888900  0.31399700  0.00000000  1
  C  C4  1  0.40111100  0.40111100  0.71510800  1
  C  C5  1  0.28489200  0.68600300  0.68600300  1
  C  C6  1  0.68600300  0.28489200  0.68600300  1
  C  C7  1  0.66470400  0.66470400  0.66470400  1
  C  C8  1  0.31399700  0.00000000  0.59888900  1
  C  C9  1  0.00000000  0.31399700  0.59888900  1
  C  C10  1  0.71510800  0.40111100  0.40111100  1
  C  C11  1  0.40111100  0.71510800  0.40111100  1
  C  C12  1  0.00000000  0.00000000  0.33529600  1
  C  C13  1  0.59888900  0.00000000  0.31399700  1
  C  C14  1  0.00000000  0.59888900  0.31399700  1
  C  C15  1  0.68600300  0.68600300  0.28489200  1
  Ni  Ni16  1  0.63070000  0.81371000  0.00000000  1
  Ni  Ni17  1  0.81371000  0.63070000  0.00000000  1
  Ni  Ni18  1  0.18629000  0.18629000  0.81699000  1
  Ni  Ni19  1  0.63070000  0.00000000  0.81371000  1
  Ni  Ni20  1  0.00000000  0.63070000  0.81371000  1
  Ni  Ni21  1  0.81371000  0.00000000  0.63070000  1
  Ni  Ni22  1  0.00000000  0.81371000  0.63070000  1
  Ni  Ni23  1  0.36930000  0.18301000  0.36930000  1
  Ni  Ni24  1  0.18301000  0.36930000  0.36930000  1
  Ni  Ni25  1  0.18629000  0.81699000  0.18629000  1
  Ni  Ni26  1  0.81699000  0.18629000  0.18629000  1
  Ni  Ni27  1  0.36930000  0.36930000  0.18301000  1
  Cu  Cu28  1  0.00000000  0.00000000  0.00000000  1
