# generated using pymatgen
data_Cu2Ni13C30
_symmetry_space_group_name_H-M   'P 1'
_cell_length_a   6.12830311
_cell_length_b   10.34925556
_cell_length_c   12.61469722
_cell_angle_alpha   88.40367240
_cell_angle_beta   83.42407109
_cell_angle_gamma   83.93638307
_symmetry_Int_Tables_number   1
_chemical_formula_structural   Cu2Ni13C30
_chemical_formula_sum   'Cu2 Ni13 C30'
_cell_volume   790.25566579
_cell_formula_units_Z   1
loop_
 _symmetry_equiv_pos_site_id
 _symmetry_equiv_pos_as_xyz
  1  'x, y, z'
loop_
 _atom_site_type_symbol
 _atom_site_label
 _atom_site_symmetry_multiplicity
 _atom_site_fract_x
 _atom_site_fract_y
 _atom_site_fract_z
 _atom_site_occupancy
  C  C0  1  0.26270300  0.33790600  0.99404400  1
  C  C1  1  0.73730300  0.66031800  0.00656500  1
  Ni  Ni2  1  0.08632600  0.63835000  0.56545500  1
  Ni  Ni3  1  0.66326500  0.36068300  0.15100300  1
  Ni  Ni4  1  0.32826000  0.36264000  0.66964400  1
  Ni  Ni5  1  0.91521700  0.36018400  0.43482700  1
  Ni  Ni6  1  0.33703100  0.63757200  0.84972600  1
  Ni  Ni7  1  0.28904200  0.91834200  0.45852400  1
  Ni  Ni8  1  0.20708200  0.65432700  0.13956800  1
  Ni  Ni9  1  0.00058600  0.99901800  0.00004800  1
  Ni  Ni10  1  0.45306600  0.99273400  0.15082800  1
  Ni  Ni11  1  0.79372400  0.34390500  0.86072200  1
  Ni  Ni12  1  0.67307400  0.63593500  0.33083400  1
  Ni  Ni13  1  0.54794800  0.00560900  0.84925000  1
  Ni  Ni14  1  0.71203400  0.08025600  0.54148200  1
  Cu  Cu15  1  0.90799900  0.99956800  0.28019100  1
  Cu  Cu16  1  0.09323100  0.99888900  0.71986900  1
  C  C17  1  0.65580600  0.42486800  0.31128300  1
  C  C18  1  0.20239200  0.43742900  0.52461200  1
  C  C19  1  0.99257100  0.32413700  0.00200100  1
  C  C20  1  0.41964900  0.19922200  0.98566700  1
  C  C21  1  0.79916700  0.56103300  0.47581900  1
  C  C22  1  0.34518700  0.57369500  0.68933100  1
  C  C23  1  0.04378200  0.09856500  0.58213200  1
  C  C24  1  0.95734300  0.89983900  0.41792000  1
  C  C25  1  0.57974800  0.79878500  0.01492500  1
  C  C26  1  0.09721300  0.87862600  0.16336600  1
  C  C27  1  0.31293700  0.41578300  0.10133300  1
  C  C28  1  0.02365600  0.59425000  0.27332400  1
  C  C29  1  0.24081600  0.85739400  0.62706400  1
  C  C30  1  0.78407000  0.09950900  0.15300800  1
  C  C31  1  0.67673200  0.57130400  0.11588500  1
  C  C32  1  0.00722900  0.67456600  0.99856700  1
  C  C33  1  0.21762900  0.89878800  0.84692200  1
  C  C34  1  0.90433600  0.11971600  0.83686900  1
  C  C35  1  0.76044300  0.14116200  0.37292900  1
  C  C36  1  0.20145200  0.07151300  0.27862200  1
  C  C37  1  0.79978200  0.92692100  0.72151300  1
  C  C38  1  0.32365000  0.42691400  0.88483400  1
  C  C39  1  0.35995900  0.10056800  0.72463300  1
  C  C40  1  0.67319900  0.28920800  0.55666600  1
  C  C41  1  0.68716500  0.58229000  0.89938600  1
  C  C42  1  0.64119700  0.89794900  0.27547500  1
  C  C43  1  0.97777700  0.40433700  0.72730800  1
  C  C44  1  0.32825300  0.70932200  0.44353600  1
