# generated using pymatgen
data_Cu2Ni2C
_symmetry_space_group_name_H-M   'P 1'
_cell_length_a   3.57237754
_cell_length_b   6.63501971
_cell_length_c   6.63502055
_cell_angle_alpha   90.00000008
_cell_angle_beta   90.00000232
_cell_angle_gamma   89.99999710
_symmetry_Int_Tables_number   1
_chemical_formula_structural   Cu2Ni2C
_chemical_formula_sum   'Cu4 Ni4 C2'
_cell_volume   157.26853434
_cell_formula_units_Z   2
loop_
 _symmetry_equiv_pos_site_id
 _symmetry_equiv_pos_as_xyz
  1  'x, y, z'
loop_
 _atom_site_type_symbol
 _atom_site_label
 _atom_site_symmetry_multiplicity
 _atom_site_fract_x
 _atom_site_fract_y
 _atom_site_fract_z
 _atom_site_occupancy
  C  C0  1  0.25000000  0.50000000  0.00000000  1
  C  C1  1  0.75000000  0.00000000  0.50000000  1
  Ni  Ni2  1  0.25000000  0.71123000  0.21123000  1
  Ni  Ni3  1  0.25000000  0.28877000  0.78877000  1
  Ni  Ni4  1  0.75000000  0.78877000  0.71123000  1
  Ni  Ni5  1  0.75000000  0.21123000  0.28877000  1
  Cu  Cu6  1  0.25000000  0.83710900  0.33710900  1
  Cu  Cu7  1  0.25000000  0.16289100  0.66289100  1
  Cu  Cu8  1  0.75000000  0.66289100  0.83710900  1
  Cu  Cu9  1  0.75000000  0.33710900  0.16289100  1
