# generated using pymatgen
data_Cu2Ni2C19
_symmetry_space_group_name_H-M   'P 1'
_cell_length_a   6.87190360
_cell_length_b   6.87190360
_cell_length_c   19.66353600
_cell_angle_alpha   90.00000000
_cell_angle_beta   90.00000000
_cell_angle_gamma   129.63168250
_symmetry_Int_Tables_number   1
_chemical_formula_structural   Cu2Ni2C19
_chemical_formula_sum   'Cu4 Ni4 C38'
_cell_volume   715.14986481
_cell_formula_units_Z   2
loop_
 _symmetry_equiv_pos_site_id
 _symmetry_equiv_pos_as_xyz
  1  'x, y, z'
loop_
 _atom_site_type_symbol
 _atom_site_label
 _atom_site_symmetry_multiplicity
 _atom_site_fract_x
 _atom_site_fract_y
 _atom_site_fract_z
 _atom_site_occupancy
  C  C0  1  0.61475600  0.38524400  0.64721400  1
  C  C1  1  0.38524400  0.61475600  0.14721400  1
  C  C2  1  0.61526000  0.88629100  0.64639900  1
  C  C3  1  0.11370900  0.38474000  0.64639900  1
  C  C4  1  0.38474000  0.11370900  0.14639900  1
  C  C5  1  0.88629100  0.61526000  0.14639900  1
  C  C6  1  0.46616700  0.53383300  0.49715200  1
  C  C7  1  0.53383300  0.46616700  0.99715200  1
  C  C8  1  0.76487400  0.23512600  0.79902400  1
  C  C9  1  0.23512600  0.76487400  0.29902400  1
  Ni  Ni10  1  0.76602700  0.23397300  0.51029000  1
  Ni  Ni11  1  0.23397300  0.76602700  0.01029000  1
  Ni  Ni12  1  0.46184000  0.53816000  0.78248700  1
  Ni  Ni13  1  0.53816000  0.46184000  0.28248700  1
  Cu  Cu14  1  0.13731100  0.86268900  0.84923600  1
  Cu  Cu15  1  0.86268900  0.13731100  0.34923600  1
  Cu  Cu16  1  0.10224100  0.89775900  0.45154500  1
  Cu  Cu17  1  0.89775900  0.10224100  0.95154500  1
  C  C18  1  0.76860100  0.23139900  0.67276400  1
  C  C19  1  0.23139900  0.76860100  0.17276400  1
  C  C20  1  0.46053900  0.53946100  0.62006200  1
  C  C21  1  0.53946100  0.46053900  0.12006200  1
  C  C22  1  0.64179800  0.35820200  0.55118900  1
  C  C23  1  0.35820200  0.64179800  0.05118900  1
  C  C24  1  0.06025100  0.40331400  0.54899100  1
  C  C25  1  0.59668600  0.93974900  0.54899100  1
  C  C26  1  0.93974900  0.59668600  0.04899100  1
  C  C27  1  0.40331400  0.06025100  0.04899100  1
  C  C28  1  0.58686700  0.41313300  0.74332100  1
  C  C29  1  0.41313300  0.58686700  0.24332100  1
  C  C30  1  0.63253200  0.83193800  0.74374600  1
  C  C31  1  0.16806200  0.36746800  0.74374600  1
  C  C32  1  0.36746800  0.16806200  0.24374600  1
  C  C33  1  0.83193800  0.63253200  0.24374600  1
  C  C34  1  0.19447600  0.80552400  0.79557600  1
  C  C35  1  0.80552400  0.19447600  0.29557600  1
  C  C36  1  0.29824600  0.07879600  0.87614700  1
  C  C37  1  0.92120400  0.70175400  0.87614700  1
  C  C38  1  0.70175400  0.92120400  0.37614700  1
  C  C39  1  0.07879600  0.29824600  0.37614700  1
  C  C40  1  0.04523100  0.95476900  0.50485500  1
  C  C41  1  0.95476900  0.04523100  0.00485500  1
  C  C42  1  0.31888900  0.05740400  0.42430900  1
  C  C43  1  0.94259600  0.68111100  0.42430900  1
  C  C44  1  0.68111100  0.94259600  0.92430900  1
  C  C45  1  0.05740400  0.31888900  0.92430900  1
