# generated using pymatgen
data_Cu3NiC
_symmetry_space_group_name_H-M   'P 1'
_cell_length_a   4.32492144
_cell_length_b   4.32492144
_cell_length_c   4.32492098
_cell_angle_alpha   78.85146232
_cell_angle_beta   78.85146232
_cell_angle_gamma   78.85145527
_symmetry_Int_Tables_number   1
_chemical_formula_structural   Cu3NiC
_chemical_formula_sum   'Cu3 Ni1 C1'
_cell_volume   76.84405819
_cell_formula_units_Z   1
loop_
 _symmetry_equiv_pos_site_id
 _symmetry_equiv_pos_as_xyz
  1  'x, y, z'
loop_
 _atom_site_type_symbol
 _atom_site_label
 _atom_site_symmetry_multiplicity
 _atom_site_fract_x
 _atom_site_fract_y
 _atom_site_fract_z
 _atom_site_occupancy
  C  C0  1  0.02333700  0.02333700  0.02333700  1
  Ni  Ni1  1  0.50548400  0.50548400  0.50548400  1
  Cu  Cu2  1  0.86499200  0.42309300  0.42309300  1
  Cu  Cu3  1  0.42309300  0.86499200  0.42309300  1
  Cu  Cu4  1  0.42309300  0.42309300  0.86499200  1
