# generated using pymatgen
data_Cu2Ni2C23
_symmetry_space_group_name_H-M   'P 1'
_cell_length_a   5.83249636
_cell_length_b   8.14432379
_cell_length_c   8.24098585
_cell_angle_alpha   107.99417492
_cell_angle_beta   99.19670151
_cell_angle_gamma   96.05504261
_symmetry_Int_Tables_number   1
_chemical_formula_structural   Cu2Ni2C23
_chemical_formula_sum   'Cu2 Ni2 C23'
_cell_volume   362.49419028
_cell_formula_units_Z   1
loop_
 _symmetry_equiv_pos_site_id
 _symmetry_equiv_pos_as_xyz
  1  'x, y, z'
loop_
 _atom_site_type_symbol
 _atom_site_label
 _atom_site_symmetry_multiplicity
 _atom_site_fract_x
 _atom_site_fract_y
 _atom_site_fract_z
 _atom_site_occupancy
  C  C0  1  0.50000000  0.50000000  0.50000000  1
  C  C1  1  0.09083000  0.72177600  0.38551500  1
  C  C2  1  0.90917000  0.27822400  0.61448500  1
  C  C3  1  0.12718700  0.92803100  0.34957800  1
  C  C4  1  0.87281300  0.07196900  0.65042200  1
  C  C5  1  0.04575000  0.73352600  0.16979300  1
  C  C6  1  0.95425000  0.26647400  0.83020700  1
  C  C7  1  0.69408300  0.86384300  0.18379400  1
  C  C8  1  0.30591700  0.13615700  0.81620600  1
  C  C9  1  0.40741400  0.82143200  0.04921300  1
  C  C10  1  0.59258600  0.17856800  0.95078700  1
  C  C11  1  0.48993800  0.01447400  0.23147600  1
  C  C12  1  0.51006200  0.98552600  0.76852400  1
  C  C13  1  0.15354800  0.79064000  0.30254000  1
  C  C14  1  0.84645200  0.20936000  0.69746000  1
  C  C15  1  0.40672500  0.78261600  0.29307400  1
  C  C16  1  0.59327500  0.21738400  0.70692600  1
  C  C17  1  0.50928000  0.87583800  0.18384000  1
  C  C18  1  0.49072000  0.12416200  0.81616000  1
  C  C19  1  0.91694400  0.35152800  0.30850100  1
  C  C20  1  0.08305600  0.64847200  0.69149900  1
  C  C21  1  0.15793800  0.30227400  0.24222400  1
  C  C22  1  0.84206200  0.69772600  0.75777600  1
  Ni  Ni23  1  0.73964900  0.38468700  0.35429600  1
  Ni  Ni24  1  0.26035100  0.61531300  0.64570400  1
  Cu  Cu25  1  0.52995600  0.70289500  0.36979800  1
  Cu  Cu26  1  0.47004400  0.29710500  0.63020200  1
