# generated using pymatgen
data_CuNi3C14
_symmetry_space_group_name_H-M   'P 1'
_cell_length_a   13.61043000
_cell_length_b   6.86099100
_cell_length_c   6.98653922
_cell_angle_alpha   84.18791373
_cell_angle_beta   90.00000000
_cell_angle_gamma   90.00000000
_symmetry_Int_Tables_number   1
_chemical_formula_structural   CuNi3C14
_chemical_formula_sum   'Cu2 Ni6 C28'
_cell_volume   649.05648203
_cell_formula_units_Z   2
loop_
 _symmetry_equiv_pos_site_id
 _symmetry_equiv_pos_as_xyz
  1  'x, y, z'
loop_
 _atom_site_type_symbol
 _atom_site_label
 _atom_site_symmetry_multiplicity
 _atom_site_fract_x
 _atom_site_fract_y
 _atom_site_fract_z
 _atom_site_occupancy
  C  C0  1  0.99245300  0.43439300  0.53484100  1
  C  C1  1  0.49245300  0.56560700  0.46515900  1
  C  C2  1  0.83366300  0.13565000  0.85451200  1
  C  C3  1  0.33366300  0.86435000  0.14548800  1
  C  C4  1  0.86131500  0.08249100  0.18654100  1
  C  C5  1  0.36131500  0.91750900  0.81345900  1
  C  C6  1  0.78124900  0.87302100  0.20009800  1
  C  C7  1  0.28124900  0.12697900  0.79990200  1
  C  C8  1  0.89480100  0.87004800  0.06909100  1
  C  C9  1  0.39480100  0.12995200  0.93090900  1
  C  C10  1  0.72593800  0.29195400  0.04951100  1
  C  C11  1  0.22593800  0.70804600  0.95048900  1
  C  C12  1  0.66421300  0.22548500  0.83764400  1
  C  C13  1  0.16421300  0.77451500  0.16235600  1
  C  C14  1  0.64572300  0.08344200  0.06638100  1
  C  C15  1  0.14572300  0.91655800  0.93361900  1
  C  C16  1  0.21428700  0.04313500  0.31674200  1
  C  C17  1  0.71428700  0.95686500  0.68325800  1
  C  C18  1  0.32250500  0.17941000  0.23860400  1
  C  C19  1  0.82250500  0.82059000  0.76139600  1
  C  C20  1  0.20876300  0.21900100  0.10875300  1
  C  C21  1  0.70876300  0.78099900  0.89124700  1
  C  C22  1  0.83389600  0.96157100  0.11076800  1
  C  C23  1  0.33389600  0.03842900  0.88923200  1
  C  C24  1  0.69801700  0.17047500  0.97484500  1
  C  C25  1  0.19801700  0.82952500  0.02515500  1
  C  C26  1  0.25491000  0.11126300  0.19225800  1
  C  C27  1  0.75491000  0.88873700  0.80774200  1
  Ni  Ni28  1  0.79618600  0.43922600  0.48916400  1
  Ni  Ni29  1  0.29618600  0.56077400  0.51083600  1
  Ni  Ni30  1  0.00613600  0.04046500  0.56063000  1
  Ni  Ni31  1  0.50613600  0.95953500  0.43937000  1
  Ni  Ni32  1  0.98395900  0.43571200  0.92097800  1
  Ni  Ni33  1  0.48395900  0.56428800  0.07902200  1
  Cu  Cu34  1  0.78325700  0.04498700  0.93148500  1
  Cu  Cu35  1  0.28325700  0.95501300  0.06851500  1
