# generated using pymatgen
data_Cu8(NiC17)3
_symmetry_space_group_name_H-M   'P 1'
_cell_length_a   5.82982600
_cell_length_b   13.57823000
_cell_length_c   16.06111466
_cell_angle_alpha   66.38328148
_cell_angle_beta   90.00000000
_cell_angle_gamma   90.00000000
_symmetry_Int_Tables_number   1
_chemical_formula_structural   Cu8(NiC17)3
_chemical_formula_sum   'Cu8 Ni3 C51'
_cell_volume   1164.89415722
_cell_formula_units_Z   1
loop_
 _symmetry_equiv_pos_site_id
 _symmetry_equiv_pos_as_xyz
  1  'x, y, z'
loop_
 _atom_site_type_symbol
 _atom_site_label
 _atom_site_symmetry_multiplicity
 _atom_site_fract_x
 _atom_site_fract_y
 _atom_site_fract_z
 _atom_site_occupancy
  C  C0  1  0.74762400  0.26409300  0.04432000  1
  C  C1  1  0.74762400  0.73590700  0.95568000  1
  C  C2  1  0.25236700  0.73617800  0.45570000  1
  C  C3  1  0.25236700  0.26382200  0.54430000  1
  C  C4  1  0.25146300  0.27117100  0.27196000  1
  C  C5  1  0.25146300  0.72882900  0.72804000  1
  C  C6  1  0.74853300  0.72904100  0.22779800  1
  C  C7  1  0.74853300  0.27095900  0.77220200  1
  C  C8  1  0.25397100  0.00000000  0.00000000  1
  C  C9  1  0.74602600  0.00000000  0.50000000  1
  C  C10  1  0.24998600  0.50000000  0.00000000  1
  Ni  Ni11  1  0.00004700  0.99999500  0.74999200  1
  Ni  Ni12  1  0.00004700  0.00000500  0.25000800  1
  Ni  Ni13  1  0.74958500  0.50000000  0.50000000  1
  Cu  Cu14  1  0.24798000  0.54933600  0.34405200  1
  Cu  Cu15  1  0.24798000  0.45066400  0.65594800  1
  Cu  Cu16  1  0.75216700  0.45075900  0.15498300  1
  Cu  Cu17  1  0.75216700  0.54924100  0.84501700  1
  Cu  Cu18  1  0.25069900  0.70521100  0.09846000  1
  Cu  Cu19  1  0.25069900  0.29478900  0.90154000  1
  Cu  Cu20  1  0.74931000  0.29385700  0.40075600  1
  Cu  Cu21  1  0.74931000  0.70614300  0.59924400  1
  C  C22  1  0.24339400  0.14837300  0.76332600  1
  C  C23  1  0.24339400  0.85162700  0.23667400  1
  C  C24  1  0.75656100  0.85158600  0.73668000  1
  C  C25  1  0.75656100  0.14841400  0.26332000  1
  C  C26  1  0.23159000  0.99812100  0.61356500  1
  C  C27  1  0.23159000  0.00187900  0.38643500  1
  C  C28  1  0.76839500  0.00189300  0.88644500  1
  C  C29  1  0.76839500  0.99810700  0.11355500  1
  C  C30  1  0.24436600  0.85495500  0.86175400  1
  C  C31  1  0.24436600  0.14504500  0.13824600  1
  C  C32  1  0.75564300  0.14504900  0.63827100  1
  C  C33  1  0.75564300  0.85495100  0.36172900  1
  C  C34  1  0.48364100  0.79047300  0.07195600  1
  C  C35  1  0.48364100  0.20952700  0.92804400  1
  C  C36  1  0.51573700  0.20904100  0.42798600  1
  C  C37  1  0.51573700  0.79095900  0.57201400  1
  C  C38  1  0.48627700  0.58695400  0.38981000  1
  C  C39  1  0.48627700  0.41304600  0.61019000  1
  C  C40  1  0.51233800  0.41458000  0.10880400  1
  C  C41  1  0.51233800  0.58542000  0.89119600  1
  C  C42  1  0.25179000  0.62418700  0.22141400  1
  C  C43  1  0.25179000  0.37581300  0.77858600  1
  C  C44  1  0.74826700  0.37602400  0.27791600  1
  C  C45  1  0.74826700  0.62397600  0.72208400  1
  C  C46  1  0.00727200  0.58576600  0.38904600  1
  C  C47  1  0.00727200  0.41423400  0.61095400  1
  C  C48  1  0.99426900  0.41587500  0.10939400  1
  C  C49  1  0.99426900  0.58412500  0.89060600  1
  C  C50  1  0.24987100  0.41576100  0.36849800  1
  C  C51  1  0.24987100  0.58423900  0.63150200  1
  C  C52  1  0.75013100  0.58395100  0.13165700  1
  C  C53  1  0.75013100  0.41604900  0.86834300  1
  C  C54  1  0.25326000  0.63076700  0.03397800  1
  C  C55  1  0.25326000  0.36923300  0.96602200  1
  C  C56  1  0.74663300  0.36713500  0.46619100  1
  C  C57  1  0.74663300  0.63286500  0.53380900  1
  C  C58  1  0.01566200  0.78830800  0.07258300  1
  C  C59  1  0.01566200  0.21169200  0.92741700  1
  C  C60  1  0.98492500  0.21122500  0.42736400  1
  C  C61  1  0.98492500  0.78877500  0.57263600  1
