# generated using pymatgen
data_CuNi2C11
_symmetry_space_group_name_H-M   'P 1'
_cell_length_a   5.44277400
_cell_length_b   5.48437695
_cell_length_c   13.70615401
_cell_angle_alpha   90.57658887
_cell_angle_beta   90.15237615
_cell_angle_gamma   119.63895590
_symmetry_Int_Tables_number   1
_chemical_formula_structural   CuNi2C11
_chemical_formula_sum   'Cu2 Ni4 C22'
_cell_volume   355.56878685
_cell_formula_units_Z   2
loop_
 _symmetry_equiv_pos_site_id
 _symmetry_equiv_pos_as_xyz
  1  'x, y, z'
loop_
 _atom_site_type_symbol
 _atom_site_label
 _atom_site_symmetry_multiplicity
 _atom_site_fract_x
 _atom_site_fract_y
 _atom_site_fract_z
 _atom_site_occupancy
  C  C0  1  0.98972500  0.33013400  0.24466400  1
  C  C1  1  0.67163500  0.66624000  0.24492600  1
  C  C2  1  0.66216900  0.98686700  0.74440200  1
  C  C3  1  0.31541900  0.32497600  0.74483500  1
  Ni  Ni4  1  0.98838700  0.98921000  0.53537300  1
  Ni  Ni5  1  0.65462000  0.32560900  0.03461000  1
  Ni  Ni6  1  0.01148000  0.68344300  0.73917600  1
  Ni  Ni7  1  0.33486800  0.02311900  0.24028700  1
  Cu  Cu8  1  0.31495300  0.65855700  0.53660600  1
  Cu  Cu9  1  0.00092200  0.99636200  0.03723600  1
  C  C10  1  0.77118600  0.67583000  0.00726500  1
  C  C11  1  0.70038200  0.36890500  0.67890100  1
  C  C12  1  0.31313200  0.98004300  0.80392100  1
  C  C13  1  0.04415400  0.70484100  0.30023700  1
  C  C14  1  0.63614900  0.88022000  0.50635900  1
  C  C15  1  0.33205600  0.71051600  0.17874600  1
  C  C16  1  0.09503000  0.75326200  0.49504800  1
  C  C17  1  0.63403300  0.31496300  0.16670500  1
  C  C18  1  0.62825200  0.98962000  0.30046800  1
  C  C19  1  0.31149000  0.09417300  0.99227800  1
  C  C20  1  0.02415200  0.00784900  0.16020000  1
  C  C21  1  0.00070300  0.97640700  0.66663800  1
  C  C22  1  0.30678700  0.66785800  0.66031800  1
  C  C23  1  0.68537400  0.64467800  0.80084100  1
  C  C24  1  0.89722700  0.21691200  0.00688600  1
  C  C25  1  0.32997900  0.32012000  0.30376600  1
  C  C26  1  0.22138700  0.33700600  0.50449800  1
  C  C27  1  0.97844800  0.36117900  0.79941200  1
