# generated using pymatgen
data_Cu2NiC
_symmetry_space_group_name_H-M   'P 1'
_cell_length_a   4.44372700
_cell_length_b   4.48582700
_cell_length_c   23.04971200
_cell_angle_alpha   90.00000000
_cell_angle_beta   90.00000000
_cell_angle_gamma   90.00000000
_symmetry_Int_Tables_number   1
_chemical_formula_structural   Cu2NiC
_chemical_formula_sum   'Cu8 Ni4 C4'
_cell_volume   459.46813141
_cell_formula_units_Z   4
loop_
 _symmetry_equiv_pos_site_id
 _symmetry_equiv_pos_as_xyz
  1  'x, y, z'
loop_
 _atom_site_type_symbol
 _atom_site_label
 _atom_site_symmetry_multiplicity
 _atom_site_fract_x
 _atom_site_fract_y
 _atom_site_fract_z
 _atom_site_occupancy
  C  C0  1  0.25000000  0.77155200  0.61582300  1
  C  C1  1  0.75000000  0.22844800  0.38417700  1
  C  C2  1  0.75000000  0.27155200  0.88417700  1
  C  C3  1  0.25000000  0.72844800  0.11582300  1
  Ni  Ni4  1  0.25000000  0.27512100  0.75000100  1
  Ni  Ni5  1  0.75000000  0.72487900  0.24999900  1
  Ni  Ni6  1  0.75000000  0.77512100  0.74999900  1
  Ni  Ni7  1  0.25000000  0.22487900  0.25000100  1
  Cu  Cu8  1  0.25000000  0.21603800  0.00107800  1
  Cu  Cu9  1  0.75000000  0.78396200  0.99892200  1
  Cu  Cu10  1  0.75000000  0.71603800  0.49892200  1
  Cu  Cu11  1  0.25000000  0.28396200  0.50107800  1
  Cu  Cu12  1  0.25000000  0.72612400  0.32352900  1
  Cu  Cu13  1  0.75000000  0.27387600  0.67647100  1
  Cu  Cu14  1  0.75000000  0.22612400  0.17647100  1
  Cu  Cu15  1  0.25000000  0.77387600  0.82352900  1
