# generated using pymatgen
data_CuNiC10
_symmetry_space_group_name_H-M   'P 1'
_cell_length_a   5.98504400
_cell_length_b   10.20126700
_cell_length_c   10.26761036
_cell_angle_alpha   60.43327483
_cell_angle_beta   90.00000000
_cell_angle_gamma   90.00000000
_symmetry_Int_Tables_number   1
_chemical_formula_structural   CuNiC10
_chemical_formula_sum   'Cu2 Ni2 C20'
_cell_volume   545.25678529
_cell_formula_units_Z   2
loop_
 _symmetry_equiv_pos_site_id
 _symmetry_equiv_pos_as_xyz
  1  'x, y, z'
loop_
 _atom_site_type_symbol
 _atom_site_label
 _atom_site_symmetry_multiplicity
 _atom_site_fract_x
 _atom_site_fract_y
 _atom_site_fract_z
 _atom_site_occupancy
  C  C0  1  0.21931300  0.23387300  0.62458500  1
  C  C1  1  0.21971400  0.62782400  0.14096500  1
  C  C2  1  0.22018000  0.13893600  0.23240800  1
  C  C3  1  0.71931300  0.76612700  0.37541500  1
  C  C4  1  0.71971400  0.37217600  0.85903500  1
  C  C5  1  0.72018000  0.86106400  0.76759200  1
  Ni  Ni6  1  0.13772300  0.66701300  0.66691900  1
  Ni  Ni7  1  0.63772300  0.33298700  0.33308100  1
  Cu  Cu8  1  0.49943900  0.00001900  0.00008700  1
  Cu  Cu9  1  0.99943900  0.99998100  0.99991300  1
  C  C10  1  0.25772100  0.22957900  0.91129200  1
  C  C11  1  0.25717100  0.91368400  0.85755800  1
  C  C12  1  0.25766300  0.85599300  0.23267600  1
  C  C13  1  0.75772100  0.77042100  0.08870800  1
  C  C14  1  0.75717100  0.08631600  0.14244200  1
  C  C15  1  0.75766300  0.14400700  0.76732400  1
  C  C16  1  0.49006700  0.09684600  0.48212800  1
  C  C17  1  0.48999900  0.48354000  0.41958500  1
  C  C18  1  0.49079600  0.41924700  0.09784000  1
  C  C19  1  0.99006700  0.90315400  0.51787200  1
  C  C20  1  0.98999900  0.51646000  0.58041500  1
  C  C21  1  0.99079600  0.58075300  0.90216000  1
  C  C22  1  0.51284500  0.66632200  0.66707700  1
  C  C23  1  0.01284500  0.33367800  0.33292300  1
