# generated using pymatgen
data_Cu3(Ni3C)2
_symmetry_space_group_name_H-M   'P 1'
_cell_length_a   13.75043600
_cell_length_b   6.92476400
_cell_length_c   11.30164860
_cell_angle_alpha   70.05023860
_cell_angle_beta   90.00000000
_cell_angle_gamma   90.00000000
_symmetry_Int_Tables_number   1
_chemical_formula_structural   Cu3(Ni3C)2
_chemical_formula_sum   'Cu12 Ni24 C8'
_cell_volume   1011.55027829
_cell_formula_units_Z   4
loop_
 _symmetry_equiv_pos_site_id
 _symmetry_equiv_pos_as_xyz
  1  'x, y, z'
loop_
 _atom_site_type_symbol
 _atom_site_label
 _atom_site_symmetry_multiplicity
 _atom_site_fract_x
 _atom_site_fract_y
 _atom_site_fract_z
 _atom_site_occupancy
  C  C0  1  0.82672700  0.20562000  0.00591100  1
  C  C1  1  0.17327300  0.79438000  0.99408900  1
  C  C2  1  0.32672700  0.79438000  0.49408900  1
  C  C3  1  0.67327300  0.20562000  0.50591100  1
  C  C4  1  0.94895900  0.48211100  0.22844400  1
  C  C5  1  0.05104100  0.51788900  0.77155600  1
  C  C6  1  0.44895900  0.51788900  0.27155600  1
  C  C7  1  0.55104100  0.48211100  0.72844400  1
  Ni  Ni8  1  0.84783800  0.54032300  0.48823800  1
  Ni  Ni9  1  0.15216200  0.45967700  0.51176200  1
  Ni  Ni10  1  0.34783800  0.45967700  0.01176200  1
  Ni  Ni11  1  0.65216200  0.54032300  0.98823800  1
  Ni  Ni12  1  0.79731000  0.63779900  0.34637100  1
  Ni  Ni13  1  0.20269000  0.36220100  0.65362900  1
  Ni  Ni14  1  0.29731000  0.36220100  0.15362900  1
  Ni  Ni15  1  0.70269000  0.63779900  0.84637100  1
  Ni  Ni16  1  0.77235600  0.66854800  0.28160100  1
  Ni  Ni17  1  0.22764400  0.33145200  0.71839900  1
  Ni  Ni18  1  0.27235600  0.33145200  0.21839900  1
  Ni  Ni19  1  0.72764400  0.66854800  0.78160100  1
  Ni  Ni20  1  0.16234800  0.97919000  0.27381200  1
  Ni  Ni21  1  0.83765200  0.02081000  0.72618800  1
  Ni  Ni22  1  0.66234800  0.02081000  0.22618800  1
  Ni  Ni23  1  0.33765200  0.97919000  0.77381200  1
  Ni  Ni24  1  0.64248200  0.85086600  0.12249700  1
  Ni  Ni25  1  0.35751800  0.14913400  0.87750300  1
  Ni  Ni26  1  0.14248200  0.14913400  0.37750300  1
  Ni  Ni27  1  0.85751800  0.85086600  0.62249700  1
  Ni  Ni28  1  0.65106600  0.92484200  0.16740800  1
  Ni  Ni29  1  0.34893400  0.07515800  0.83259200  1
  Ni  Ni30  1  0.15106600  0.07515800  0.33259200  1
  Ni  Ni31  1  0.84893400  0.92484200  0.66740800  1
  Cu  Cu32  1  0.90314500  0.70433700  0.02315100  1
  Cu  Cu33  1  0.09685500  0.29566300  0.97684900  1
  Cu  Cu34  1  0.40314500  0.29566300  0.47684900  1
  Cu  Cu35  1  0.59685500  0.70433700  0.52315100  1
  Cu  Cu36  1  0.36715500  0.83166900  0.18566300  1
  Cu  Cu37  1  0.63284500  0.16833100  0.81433700  1
  Cu  Cu38  1  0.86715500  0.16833100  0.31433700  1
  Cu  Cu39  1  0.13284500  0.83166900  0.68566300  1
  Cu  Cu40  1  0.58970000  0.40677500  0.19707400  1
  Cu  Cu41  1  0.41030000  0.59322500  0.80292600  1
  Cu  Cu42  1  0.08970000  0.59322500  0.30292600  1
  Cu  Cu43  1  0.91030000  0.40677500  0.69707400  1
