# generated using pymatgen
data_CuNiC12
_symmetry_space_group_name_H-M   'P 1'
_cell_length_a   6.03556941
_cell_length_b   6.03556941
_cell_length_c   6.03556870
_cell_angle_alpha   59.57422804
_cell_angle_beta   59.57422804
_cell_angle_gamma   59.57423153
_symmetry_Int_Tables_number   1
_chemical_formula_structural   CuNiC12
_chemical_formula_sum   'Cu1 Ni1 C12'
_cell_volume   153.96279047
_cell_formula_units_Z   1
loop_
 _symmetry_equiv_pos_site_id
 _symmetry_equiv_pos_as_xyz
  1  'x, y, z'
loop_
 _atom_site_type_symbol
 _atom_site_label
 _atom_site_symmetry_multiplicity
 _atom_site_fract_x
 _atom_site_fract_y
 _atom_site_fract_z
 _atom_site_occupancy
  Ni  Ni0  1  0.62615400  0.62615400  0.62615400  1
  Cu  Cu1  1  0.00193800  0.00193800  0.00193800  1
  C  C2  1  0.62576700  0.11901400  0.62576700  1
  C  C3  1  0.11901400  0.62576700  0.62576700  1
  C  C4  1  0.62576700  0.62576700  0.11901400  1
  C  C5  1  0.24652600  0.24652600  0.24652600  1
  C  C6  1  0.86574200  0.86574200  0.86574200  1
  C  C7  1  0.86813200  0.40558100  0.86813200  1
  C  C8  1  0.40558100  0.86813200  0.86813200  1
  C  C9  1  0.86813200  0.86813200  0.40558100  1
  C  C10  1  0.38273800  0.38273800  0.38273800  1
  C  C11  1  0.37784600  0.85881800  0.37784600  1
  C  C12  1  0.85881800  0.37784600  0.37784600  1
  C  C13  1  0.37784600  0.37784600  0.85881800  1
