# generated using pymatgen
data_CuNiC10
_symmetry_space_group_name_H-M   'P 1'
_cell_length_a   5.46133800
_cell_length_b   9.21492900
_cell_length_c   12.18637400
_cell_angle_alpha   90.00000000
_cell_angle_beta   90.00000000
_cell_angle_gamma   90.00000000
_symmetry_Int_Tables_number   1
_chemical_formula_structural   CuNiC10
_chemical_formula_sum   'Cu2 Ni2 C20'
_cell_volume   613.28953144
_cell_formula_units_Z   2
loop_
 _symmetry_equiv_pos_site_id
 _symmetry_equiv_pos_as_xyz
  1  'x, y, z'
loop_
 _atom_site_type_symbol
 _atom_site_label
 _atom_site_symmetry_multiplicity
 _atom_site_fract_x
 _atom_site_fract_y
 _atom_site_fract_z
 _atom_site_occupancy
  Ni  Ni0  1  0.00000000  0.75129000  0.67253100  1
  Ni  Ni1  1  0.00000000  0.24871000  0.17253100  1
  Cu  Cu2  1  0.50000000  0.75201000  0.32616700  1
  Cu  Cu3  1  0.50000000  0.24799000  0.82616700  1
  C  C4  1  0.74834200  0.88963700  0.99755300  1
  C  C5  1  0.25165800  0.11036300  0.49755300  1
  C  C6  1  0.25450800  0.61060100  0.00203400  1
  C  C7  1  0.74549200  0.38939900  0.50203400  1
  C  C8  1  0.74549200  0.61060100  0.00203400  1
  C  C9  1  0.25450800  0.38939900  0.50203400  1
  C  C10  1  0.25165800  0.88963700  0.99755300  1
  C  C11  1  0.74834200  0.11036300  0.49755300  1
  C  C12  1  0.00000000  0.45642900  0.88997500  1
  C  C13  1  0.00000000  0.54357100  0.38997500  1
  C  C14  1  0.50000000  0.03911300  0.11179700  1
  C  C15  1  0.50000000  0.96088700  0.61179700  1
  C  C16  1  0.00000000  0.03066100  0.87552100  1
  C  C17  1  0.00000000  0.96933900  0.37552100  1
  C  C18  1  0.50000000  0.47512700  0.12598800  1
  C  C19  1  0.50000000  0.52487300  0.62598800  1
  C  C20  1  0.00000000  0.75196200  0.12898700  1
  C  C21  1  0.00000000  0.24803800  0.62898700  1
  C  C22  1  0.50000000  0.74813200  0.86986000  1
  C  C23  1  0.50000000  0.25186800  0.36986000  1
