# generated using pymatgen
data_Cu4NiC
_symmetry_space_group_name_H-M   'P 1'
_cell_length_a   4.08342900
_cell_length_b   5.55027200
_cell_length_c   7.68790700
_cell_angle_alpha   90.00000000
_cell_angle_beta   90.00000000
_cell_angle_gamma   90.00000000
_symmetry_Int_Tables_number   1
_chemical_formula_structural   Cu4NiC
_chemical_formula_sum   'Cu8 Ni2 C2'
_cell_volume   174.23981318
_cell_formula_units_Z   2
loop_
 _symmetry_equiv_pos_site_id
 _symmetry_equiv_pos_as_xyz
  1  'x, y, z'
loop_
 _atom_site_type_symbol
 _atom_site_label
 _atom_site_symmetry_multiplicity
 _atom_site_fract_x
 _atom_site_fract_y
 _atom_site_fract_z
 _atom_site_occupancy
  Ni  Ni0  1  0.00000000  0.71553500  0.63758000  1
  Ni  Ni1  1  0.00000000  0.21553500  0.36242000  1
  C  C2  1  0.50000000  0.29379500  0.84478600  1
  C  C3  1  0.50000000  0.79379500  0.15521400  1
  Cu  Cu4  1  0.50000000  0.46272900  0.54094400  1
  Cu  Cu5  1  0.50000000  0.96272900  0.45905600  1
  Cu  Cu6  1  0.00000000  0.52263000  0.94812700  1
  Cu  Cu7  1  0.00000000  0.02263000  0.05187300  1
  Cu  Cu8  1  0.50000000  0.34318500  0.17048300  1
  Cu  Cu9  1  0.50000000  0.84318500  0.82951700  1
  Cu  Cu10  1  0.00000000  0.66212600  0.31052800  1
  Cu  Cu11  1  0.00000000  0.16212600  0.68947200  1
