# generated using pymatgen
data_Cu8Ni44C57
_symmetry_space_group_name_H-M   'P 1'
_cell_length_a   11.61781000
_cell_length_b   11.80023003
_cell_length_c   16.75211680
_cell_angle_alpha   91.22565928
_cell_angle_beta   90.60106186
_cell_angle_gamma   112.55733121
_symmetry_Int_Tables_number   1
_chemical_formula_structural   Cu8Ni44C57
_chemical_formula_sum   'Cu16 Ni88 C114'
_cell_volume   2119.97672900
_cell_formula_units_Z   2
loop_
 _symmetry_equiv_pos_site_id
 _symmetry_equiv_pos_as_xyz
  1  'x, y, z'
loop_
 _atom_site_type_symbol
 _atom_site_label
 _atom_site_symmetry_multiplicity
 _atom_site_fract_x
 _atom_site_fract_y
 _atom_site_fract_z
 _atom_site_occupancy
  C  C0  1  0.80097400  0.97708100  0.06767700  1
  C  C1  1  0.19902600  0.02291900  0.93232300  1
  C  C2  1  0.87776200  0.89606700  0.87746800  1
  C  C3  1  0.12223800  0.10393300  0.12253200  1
  C  C4  1  0.98201500  0.79438000  0.04957600  1
  C  C5  1  0.01798500  0.20562000  0.95042400  1
  C  C6  1  0.29280000  0.98491000  0.55105300  1
  C  C7  1  0.70720000  0.01509000  0.44894700  1
  C  C8  1  0.39277200  0.87460000  0.37762600  1
  C  C9  1  0.60722800  0.12540000  0.62237400  1
  C  C10  1  0.47618800  0.80609700  0.56833200  1
  C  C11  1  0.52381200  0.19390300  0.43166800  1
  Ni  Ni12  1  0.72409300  0.72518500  0.99636000  1
  Ni  Ni13  1  0.27590700  0.27481500  0.00364000  1
  Ni  Ni14  1  0.74519800  0.06333100  0.91600800  1
  Ni  Ni15  1  0.25480200  0.93666900  0.08399200  1
  Ni  Ni16  1  0.04507200  0.76665200  0.87640100  1
  Ni  Ni17  1  0.95492800  0.23334800  0.12359900  1
  Ni  Ni18  1  0.92335700  0.89227200  0.19979300  1
  Ni  Ni19  1  0.07664300  0.10772800  0.80020700  1
  Ni  Ni20  1  0.67637900  0.83289800  0.21089800  1
  Ni  Ni21  1  0.32362100  0.16710200  0.78910200  1
  Ni  Ni22  1  0.59338500  0.74611100  0.14040900  1
  Ni  Ni23  1  0.40661500  0.25388900  0.85959100  1
  Ni  Ni24  1  0.51224600  0.87516800  0.04171900  1
  Ni  Ni25  1  0.48775400  0.12483200  0.95828100  1
  Ni  Ni26  1  0.57574100  0.86677600  0.95723600  1
  Ni  Ni27  1  0.42425900  0.13322400  0.04276400  1
  Ni  Ni28  1  0.62527200  0.87518800  0.81337400  1
  Ni  Ni29  1  0.37472800  0.12481200  0.18662600  1
  Ni  Ni30  1  0.59099000  0.74204900  0.84815300  1
  Ni  Ni31  1  0.40901000  0.25795100  0.15184700  1
  Ni  Ni32  1  0.80295200  0.62100600  0.87407400  1
  Ni  Ni33  1  0.19704800  0.37899400  0.12592600  1
  Ni  Ni34  1  0.74354100  0.64601400  0.79050900  1
  Ni  Ni35  1  0.25645900  0.35398600  0.20949100  1
  Ni  Ni36  1  0.82271300  0.52761200  0.00158400  1
  Ni  Ni37  1  0.17728700  0.47238800  0.99841600  1
  Ni  Ni38  1  0.94463300  0.57137600  0.94739200  1
  Ni  Ni39  1  0.05536700  0.42862400  0.05260800  1
  Ni  Ni40  1  0.76233800  0.68784300  0.15468900  1
  Ni  Ni41  1  0.23766200  0.31215700  0.84531100  1
  Ni  Ni42  1  0.82145300  0.58481900  0.15811200  1
  Ni  Ni43  1  0.17854700  0.41518100  0.84188800  1
  Ni  Ni44  1  0.51381800  0.52081100  0.86865400  1
  Ni  Ni45  1  0.48618200  0.47918900  0.13134600  1
  Ni  Ni46  1  0.43290000  0.55165700  0.80528100  1
  Ni  Ni47  1  0.56710000  0.44834300  0.19471900  1
  Ni  Ni48  1  0.40761100  0.61813700  0.05915300  1
  Ni  Ni49  1  0.59238900  0.38186300  0.94084700  1
  Ni  Ni50  1  0.39628700  0.63332000  0.15096900  1
  Ni  Ni51  1  0.60371300  0.36668000  0.84903100  1
  Ni  Ni52  1  0.70180300  0.32715400  0.03454800  1
  Ni  Ni53  1  0.29819700  0.67284600  0.96545200  1
  Ni  Ni54  1  0.62571500  0.40109900  0.07295900  1
  Ni  Ni55  1  0.37428500  0.59890100  0.92704100  1
  Ni  Ni56  1  0.22277700  0.72513800  0.50033900  1
  Ni  Ni57  1  0.77722300  0.27486200  0.49966100  1
  Ni  Ni58  1  0.25987900  0.04084100  0.38073600  1
  Ni  Ni59  1  0.74012100  0.95915900  0.61926400  1
  Ni  Ni60  1  0.56475400  0.74540000  0.41952400  1
  Ni  Ni61  1  0.43524600  0.25460000  0.58047600  1
  Ni  Ni62  1  0.39211800  0.93212000  0.70019300  1
  Ni  Ni63  1  0.60788200  0.06788000  0.29980700  1
  Ni  Ni64  1  0.09075100  0.84197500  0.67172300  1
  Ni  Ni65  1  0.90924900  0.15802500  0.32827700  1
  Ni  Ni66  1  0.17717900  0.76757700  0.65181000  1
  Ni  Ni67  1  0.82282100  0.23242300  0.34819000  1
  Ni  Ni68  1  0.04809900  0.93031400  0.45210600  1
  Ni  Ni69  1  0.95190100  0.06968600  0.54789400  1
  Ni  Ni70  1  0.01771400  0.81366200  0.50441600  1
  Ni  Ni71  1  0.98228600  0.18633800  0.49558400  1
  Ni  Ni72  1  0.13670400  0.76835100  0.28486300  1
  Ni  Ni73  1  0.86329600  0.23164900  0.71513700  1
  Ni  Ni74  1  0.11450400  0.80171100  0.37518400  1
  Ni  Ni75  1  0.88549600  0.19828900  0.62481600  1
  Ni  Ni76  1  0.24130200  0.59315000  0.34817000  1
  Ni  Ni77  1  0.75869800  0.40685000  0.65183000  1
  Ni  Ni78  1  0.38742500  0.62588200  0.32915700  1
  Ni  Ni79  1  0.61257500  0.37411800  0.67084300  1
  Ni  Ni80  1  0.37956500  0.51978200  0.54183800  1
  Ni  Ni81  1  0.62043500  0.48021800  0.45816200  1
  Ni  Ni82  1  0.36124200  0.58766700  0.46229000  1
  Ni  Ni83  1  0.63875800  0.41233300  0.53771000  1
  Ni  Ni84  1  0.30133400  0.69235800  0.71209600  1
  Ni  Ni85  1  0.69866600  0.30764200  0.28790400  1
  Ni  Ni86  1  0.24492700  0.60156500  0.63911000  1
  Ni  Ni87  1  0.75507300  0.39843500  0.36089000  1
  Ni  Ni88  1  0.81428300  0.69247300  0.53785800  1
  Ni  Ni89  1  0.18571700  0.30752700  0.46214200  1
  Ni  Ni90  1  0.89754200  0.62629100  0.57346500  1
  Ni  Ni91  1  0.10245800  0.37370900  0.42653500  1
  Ni  Ni92  1  0.88327600  0.59391400  0.43534800  1
  Ni  Ni93  1  0.11672400  0.40608600  0.56465200  1
  Ni  Ni94  1  0.86511100  0.59035900  0.34195700  1
  Ni  Ni95  1  0.13488900  0.40964100  0.65804300  1
  Ni  Ni96  1  0.05367200  0.42786100  0.30015500  1
  Ni  Ni97  1  0.94632800  0.57213900  0.69984500  1
  Ni  Ni98  1  0.01997500  0.50881300  0.36312500  1
  Ni  Ni99  1  0.98002500  0.49118700  0.63687500  1
  Cu  Cu100  1  0.68140800  0.13293700  0.14539600  1
  Cu  Cu101  1  0.31859200  0.86706300  0.85460400  1
  Cu  Cu102  1  0.91030300  0.90841000  0.70062800  1
  Cu  Cu103  1  0.08969700  0.09159000  0.29937200  1
  Cu  Cu104  1  0.13791700  0.68671300  0.13505200  1
  Cu  Cu105  1  0.86208300  0.31328700  0.86494800  1
  Cu  Cu106  1  0.17832800  0.12827900  0.64379700  1
  Cu  Cu107  1  0.82167200  0.87172100  0.35620300  1
  Cu  Cu108  1  0.40546300  0.89847300  0.20154200  1
  Cu  Cu109  1  0.59453700  0.10152700  0.79845800  1
  Cu  Cu110  1  0.63562200  0.69106300  0.64407400  1
  Cu  Cu111  1  0.36437800  0.30893700  0.35592600  1
  Cu  Cu112  1  0.90365500  0.41780900  0.17336800  1
  Cu  Cu113  1  0.09634500  0.58219100  0.82663200  1
  Cu  Cu114  1  0.41007500  0.41351100  0.67937300  1
  Cu  Cu115  1  0.58992500  0.58648900  0.32062700  1
  C  C116  1  0.00000000  0.00000000  0.00000000  1
  C  C117  1  0.79624300  0.80202500  0.99695100  1
  C  C118  1  0.20375700  0.19797500  0.00304900  1
  C  C119  1  0.81686100  0.04722400  0.93614400  1
  C  C120  1  0.18313900  0.95277600  0.06385600  1
  C  C121  1  0.03690600  0.82964000  0.91312400  1
  C  C122  1  0.96309400  0.17036000  0.08687600  1
  C  C123  1  0.94524700  0.92543200  0.14653600  1
  C  C124  1  0.05475300  0.07456800  0.85346400  1
  C  C125  1  0.67962500  0.80345700  0.15605100  1
  C  C126  1  0.32037500  0.19654300  0.84394900  1
  C  C127  1  0.58952200  0.88409100  0.01498500  1
  C  C128  1  0.41047800  0.11590900  0.98501500  1
  C  C129  1  0.64303700  0.83104400  0.85763000  1
  C  C130  1  0.35696300  0.16895600  0.14237000  1
  C  C131  1  0.78256200  0.68031500  0.84236000  1
  C  C132  1  0.21743800  0.31968500  0.15764000  1
  C  C133  1  0.88151300  0.59793100  0.97232300  1
  C  C134  1  0.11848700  0.40206900  0.02767700  1
  C  C135  1  0.81594300  0.65326100  0.12686500  1
  C  C136  1  0.18405700  0.34673900  0.87313500  1
  C  C137  1  0.48049600  0.58431100  0.85557000  1
  C  C138  1  0.51950400  0.41568900  0.14443000  1
  C  C139  1  0.45061400  0.61843200  0.11155900  1
  C  C140  1  0.54938600  0.38156800  0.88844100  1
  C  C141  1  0.67610900  0.39626300  0.02624300  1
  C  C142  1  0.32389100  0.60373700  0.97375700  1
  C  C143  1  0.70466100  0.14600000  0.07119500  1
  C  C144  1  0.29533900  0.85400000  0.92880500  1
  C  C145  1  0.71259100  0.05362300  0.18168800  1
  C  C146  1  0.28740900  0.94637700  0.81831200  1
  C  C147  1  0.63001600  0.19328800  0.18184800  1
  C  C148  1  0.36998400  0.80671200  0.81815200  1
  C  C149  1  0.97793700  0.86663600  0.74168000  1
  C  C150  1  0.02206300  0.13336400  0.25832000  1
  C  C151  1  0.83140300  0.93990200  0.73847500  1
  C  C152  1  0.16859700  0.06009800  0.26152500  1
  C  C153  1  0.91982900  0.91799400  0.62688300  1
  C  C154  1  0.08017100  0.08200600  0.37311700  1
  C  C155  1  0.08115000  0.74409600  0.17480900  1
  C  C156  1  0.91885000  0.25590400  0.82519100  1
  C  C157  1  0.12805300  0.68639300  0.05901500  1
  C  C158  1  0.87194700  0.31360700  0.94098500  1
  C  C159  1  0.19813800  0.63463000  0.16961100  1
  C  C160  1  0.80186200  0.36537000  0.83038900  1
  C  C161  1  0.50000000  0.00000000  0.50000000  1
  C  C162  1  0.29679900  0.80009100  0.49869400  1
  C  C163  1  0.70320100  0.19990900  0.50130600  1
  C  C164  1  0.32587500  0.03367500  0.41433300  1
  C  C165  1  0.67412500  0.96632500  0.58566700  1
  C  C166  1  0.54773500  0.81783000  0.43714600  1
  C  C167  1  0.45226500  0.18217000  0.56285400  1
  C  C168  1  0.42588700  0.95035400  0.64669600  1
  C  C169  1  0.57411300  0.04964600  0.35330400  1
  C  C170  1  0.14684300  0.82924900  0.63188500  1
  C  C171  1  0.85315700  0.17075100  0.36811500  1
  C  C172  1  0.08617400  0.87780000  0.47577100  1
  C  C173  1  0.91382600  0.12220000  0.52422900  1
  C  C174  1  0.17193200  0.78265500  0.33969000  1
  C  C175  1  0.82806800  0.21734500  0.66031000  1
  C  C176  1  0.32852600  0.64679500  0.36364400  1
  C  C177  1  0.67147400  0.35320500  0.63635600  1
  C  C178  1  0.37521400  0.59533800  0.52070700  1
  C  C179  1  0.62478600  0.40466200  0.47929300  1
  C  C180  1  0.29176700  0.68944000  0.65390700  1
  C  C181  1  0.70823300  0.31056000  0.34609300  1
  C  C182  1  0.88731100  0.67251300  0.52672600  1
  C  C183  1  0.11268900  0.32748700  0.47327400  1
  C  C184  1  0.89092600  0.55046900  0.38504400  1
  C  C185  1  0.10907400  0.44953100  0.61495600  1
  C  C186  1  0.08437400  0.47501400  0.35038600  1
  C  C187  1  0.91562600  0.52498600  0.64961400  1
  C  C188  1  0.16508200  0.11123800  0.56791700  1
  C  C189  1  0.83491800  0.88876200  0.43208300  1
  C  C190  1  0.25558400  0.09078700  0.67842100  1
  C  C191  1  0.74441600  0.90921300  0.32157900  1
  C  C192  1  0.11750500  0.17722900  0.68238400  1
  C  C193  1  0.88249500  0.82277100  0.31761600  1
  C  C194  1  0.44828000  0.82904300  0.23859500  1
  C  C195  1  0.55172000  0.17095700  0.76140500  1
  C  C196  1  0.36262500  0.96431300  0.24379600  1
  C  C197  1  0.63737500  0.03568700  0.75620400  1
  C  C198  1  0.40377900  0.90157700  0.12689500  1
  C  C199  1  0.59622100  0.09842300  0.87310500  1
  C  C200  1  0.55655200  0.72377600  0.68092000  1
  C  C201  1  0.44344800  0.27622400  0.31908000  1
  C  C202  1  0.64538500  0.70854600  0.56906400  1
  C  C203  1  0.35461500  0.29145400  0.43093600  1
  C  C204  1  0.70048000  0.64387100  0.67957000  1
  C  C205  1  0.29952000  0.35612900  0.32043000  1
  C  C206  1  0.83768400  0.46358200  0.21179000  1
  C  C207  1  0.16231600  0.53641800  0.78821000  1
  C  C208  1  0.93508300  0.45107100  0.10304000  1
  C  C209  1  0.06491700  0.54892900  0.89696000  1
  C  C210  1  0.93697700  0.33796200  0.20572300  1
  C  C211  1  0.06302300  0.66203800  0.79427700  1
  C  C212  1  0.34104800  0.45846900  0.71438500  1
  C  C213  1  0.65895200  0.54153100  0.28561500  1
  C  C214  1  0.40037500  0.39430400  0.60364900  1
  C  C215  1  0.59962500  0.60569600  0.39635100  1
  C  C216  1  0.48887400  0.38647600  0.71923200  1
  C  C217  1  0.51112600  0.61352400  0.28076800  1
