# generated using pymatgen
data_Cu2NiC50
_symmetry_space_group_name_H-M   'P 1'
_cell_length_a   7.23674700
_cell_length_b   7.23721592
_cell_length_c   11.31880106
_cell_angle_alpha   82.12850169
_cell_angle_beta   80.28626128
_cell_angle_gamma   88.62599023
_symmetry_Int_Tables_number   1
_chemical_formula_structural   Cu2NiC50
_chemical_formula_sum   'Cu2 Ni1 C50'
_cell_volume   578.80489742
_cell_formula_units_Z   1
loop_
 _symmetry_equiv_pos_site_id
 _symmetry_equiv_pos_as_xyz
  1  'x, y, z'
loop_
 _atom_site_type_symbol
 _atom_site_label
 _atom_site_symmetry_multiplicity
 _atom_site_fract_x
 _atom_site_fract_y
 _atom_site_fract_z
 _atom_site_occupancy
  C  C0  1  0.77169000  0.26569800  0.91770100  1
  C  C1  1  0.22831000  0.73430200  0.08229900  1
  Ni  Ni2  1  0.00000000  0.00000000  0.50000000  1
  Cu  Cu3  1  0.25341300  0.24892800  0.00113600  1
  Cu  Cu4  1  0.74658700  0.75107200  0.99886400  1
  C  C5  1  0.28102000  0.23729200  0.47860200  1
  C  C6  1  0.71898000  0.76270800  0.52139800  1
  C  C7  1  0.25292900  0.13248200  0.61192700  1
  C  C8  1  0.74707100  0.86751800  0.38807300  1
  C  C9  1  0.81659400  0.24520600  0.61225700  1
  C  C10  1  0.18340600  0.75479400  0.38774300  1
  C  C11  1  0.65464600  0.12386200  0.59319100  1
  C  C12  1  0.34535400  0.87613800  0.40680900  1
  C  C13  1  0.06863600  0.74369600  0.68508000  1
  C  C14  1  0.93136400  0.25630400  0.31492000  1
  C  C15  1  0.92791600  0.88987200  0.75082100  1
  C  C16  1  0.07208400  0.11012800  0.24917900  1
  C  C17  1  0.55635400  0.89322000  0.23285400  1
  C  C18  1  0.44364600  0.10678000  0.76714600  1
  C  C19  1  0.53141100  0.07604800  0.29915100  1
  C  C20  1  0.46858900  0.92395200  0.70084900  1
  C  C21  1  0.16653500  0.45805300  0.77322400  1
  C  C22  1  0.83346500  0.54194700  0.22677600  1
  C  C23  1  0.18254700  0.46107000  0.63392600  1
  C  C24  1  0.81745300  0.53893000  0.36607400  1
  C  C25  1  0.43435000  0.63099800  0.67572400  1
  C  C26  1  0.56565000  0.36900200  0.32427600  1
  C  C27  1  0.62338000  0.64622600  0.72709900  1
  C  C28  1  0.37662000  0.35377400  0.27290100  1
  C  C29  1  0.46121800  0.22476400  0.90524300  1
  C  C30  1  0.53878200  0.77523600  0.09475700  1
  C  C31  1  0.08780800  0.30428200  0.90903800  1
  C  C32  1  0.91219200  0.69571800  0.09096200  1
  C  C33  1  0.19208000  0.04793800  0.09915000  1
  C  C34  1  0.80792000  0.95206200  0.90085000  1
  C  C35  1  0.26881600  0.42082200  0.08918300  1
  C  C36  1  0.73118400  0.57917800  0.91081700  1
  C  C37  1  0.72777600  0.22330200  0.08201700  1
  C  C38  1  0.27222400  0.77669800  0.91798300  1
  C  C39  1  0.81910100  0.31284500  0.75264000  1
  C  C40  1  0.18089900  0.68715500  0.24736000  1
  C  C41  1  0.18268000  0.19611400  0.54920700  1
  C  C42  1  0.81732000  0.80388600  0.45079300  1
  C  C43  1  0.77952700  0.17452500  0.55107300  1
  C  C44  1  0.22047300  0.82547500  0.44892700  1
  C  C45  1  0.98767400  0.85506900  0.67217400  1
  C  C46  1  0.01232600  0.14493100  0.32782600  1
  C  C47  1  0.55436100  0.93887700  0.31133200  1
  C  C48  1  0.44563900  0.06112300  0.68866800  1
  C  C49  1  0.20635000  0.53788800  0.69475500  1
  C  C50  1  0.79365000  0.46211200  0.30524500  1
  C  C51  1  0.55318300  0.70329900  0.66479400  1
  C  C52  1  0.44681700  0.29670100  0.33520600  1
