# generated using pymatgen
data_Cu2Ni3C14
_symmetry_space_group_name_H-M   'P 1'
_cell_length_a   10.22472300
_cell_length_b   10.22472300
_cell_length_c   10.22472300
_cell_angle_alpha   90.00000000
_cell_angle_beta   90.00000000
_cell_angle_gamma   90.00000000
_symmetry_Int_Tables_number   1
_chemical_formula_structural   Cu2Ni3C14
_chemical_formula_sum   'Cu8 Ni12 C56'
_cell_volume   1068.94326141
_cell_formula_units_Z   4
loop_
 _symmetry_equiv_pos_site_id
 _symmetry_equiv_pos_as_xyz
  1  'x, y, z'
loop_
 _atom_site_type_symbol
 _atom_site_label
 _atom_site_symmetry_multiplicity
 _atom_site_fract_x
 _atom_site_fract_y
 _atom_site_fract_z
 _atom_site_occupancy
  Ni  Ni0  1  0.01961100  0.21528200  0.37585600  1
  Ni  Ni1  1  0.48038900  0.78471800  0.87585600  1
  Ni  Ni2  1  0.98038900  0.71528200  0.12414400  1
  Ni  Ni3  1  0.37585600  0.01961100  0.21528200  1
  Ni  Ni4  1  0.51961100  0.28471800  0.62414400  1
  Ni  Ni5  1  0.87585600  0.48038900  0.78471800  1
  Ni  Ni6  1  0.12414400  0.98038900  0.71528200  1
  Ni  Ni7  1  0.62414400  0.51961100  0.28471800  1
  Ni  Ni8  1  0.21528200  0.37585600  0.01961100  1
  Ni  Ni9  1  0.71528200  0.12414400  0.98038900  1
  Ni  Ni10  1  0.28471800  0.62414400  0.51961100  1
  Ni  Ni11  1  0.78471800  0.87585600  0.48038900  1
  C  C12  1  0.04894000  0.04894000  0.04894000  1
  C  C13  1  0.45106000  0.95106000  0.54894000  1
  C  C14  1  0.95106000  0.54894000  0.45106000  1
  C  C15  1  0.54894000  0.45106000  0.95106000  1
  C  C16  1  0.81670800  0.81670800  0.81670800  1
  C  C17  1  0.68329200  0.18329200  0.31670800  1
  C  C18  1  0.18329200  0.31670800  0.68329200  1
  C  C19  1  0.31670800  0.68329200  0.18329200  1
  Cu  Cu20  1  0.33471700  0.33471700  0.33471700  1
  Cu  Cu21  1  0.16528300  0.66528300  0.83471700  1
  Cu  Cu22  1  0.66528300  0.83471700  0.16528300  1
  Cu  Cu23  1  0.83471700  0.16528300  0.66528300  1
  Cu  Cu24  1  0.59801700  0.59801700  0.59801700  1
  Cu  Cu25  1  0.90198300  0.40198300  0.09801700  1
  Cu  Cu26  1  0.40198300  0.09801700  0.90198300  1
  Cu  Cu27  1  0.09801700  0.90198300  0.40198300  1
  C  C28  1  0.01259300  0.06906700  0.32979000  1
  C  C29  1  0.48740700  0.93093300  0.82979000  1
  C  C30  1  0.98740700  0.56906700  0.17021000  1
  C  C31  1  0.32979000  0.01259300  0.06906700  1
  C  C32  1  0.51259300  0.43093300  0.67021000  1
  C  C33  1  0.82979000  0.48740700  0.93093300  1
  C  C34  1  0.17021000  0.98740700  0.56906700  1
  C  C35  1  0.67021000  0.51259300  0.43093300  1
  C  C36  1  0.06906700  0.32979000  0.01259300  1
  C  C37  1  0.56906700  0.17021000  0.98740700  1
  C  C38  1  0.43093300  0.67021000  0.51259300  1
  C  C39  1  0.93093300  0.82979000  0.48740700  1
  C  C40  1  0.26681700  0.49591200  0.43779500  1
  C  C41  1  0.23318300  0.50408800  0.93779500  1
  C  C42  1  0.73318300  0.99591200  0.06220500  1
  C  C43  1  0.43779500  0.26681700  0.49591200  1
  C  C44  1  0.76681700  0.00408800  0.56220500  1
  C  C45  1  0.93779500  0.23318300  0.50408800  1
  C  C46  1  0.06220500  0.73318300  0.99591200  1
  C  C47  1  0.56220500  0.76681700  0.00408800  1
  C  C48  1  0.49591200  0.43779500  0.26681700  1
  C  C49  1  0.99591200  0.06220500  0.73318300  1
  C  C50  1  0.00408800  0.56220500  0.76681700  1
  C  C51  1  0.50408800  0.93779500  0.23318300  1
  C  C52  1  0.04511100  0.80604300  0.23005400  1
  C  C53  1  0.45488900  0.19395700  0.73005400  1
  C  C54  1  0.95488900  0.30604300  0.26994600  1
  C  C55  1  0.23005400  0.04511100  0.80604300  1
  C  C56  1  0.54511100  0.69395700  0.76994600  1
  C  C57  1  0.73005400  0.45488900  0.19395700  1
  C  C58  1  0.26994600  0.95488900  0.30604300  1
  C  C59  1  0.76994600  0.54511100  0.69395700  1
  C  C60  1  0.80604300  0.23005400  0.04511100  1
  C  C61  1  0.30604300  0.26994600  0.95488900  1
  C  C62  1  0.69395700  0.76994600  0.54511100  1
  C  C63  1  0.19395700  0.73005400  0.45488900  1
  C  C64  1  0.16339800  0.25617800  0.40160800  1
  C  C65  1  0.33660200  0.74382200  0.90160800  1
  C  C66  1  0.83660200  0.75617800  0.09839200  1
  C  C67  1  0.40160800  0.16339800  0.25617800  1
  C  C68  1  0.66339800  0.24382200  0.59839200  1
  C  C69  1  0.90160800  0.33660200  0.74382200  1
  C  C70  1  0.09839200  0.83660200  0.75617800  1
  C  C71  1  0.59839200  0.66339800  0.24382200  1
  C  C72  1  0.25617800  0.40160800  0.16339800  1
  C  C73  1  0.75617800  0.09839200  0.83660200  1
  C  C74  1  0.24382200  0.59839200  0.66339800  1
  C  C75  1  0.74382200  0.90160800  0.33660200  1
