# generated using pymatgen
data_Cu5Ni2C9
_symmetry_space_group_name_H-M   'P 1'
_cell_length_a   7.86049000
_cell_length_b   9.63992500
_cell_length_c   11.24013806
_cell_angle_alpha   85.06653463
_cell_angle_beta   90.00000000
_cell_angle_gamma   90.00000000
_symmetry_Int_Tables_number   1
_chemical_formula_structural   Cu5Ni2C9
_chemical_formula_sum   'Cu20 Ni8 C36'
_cell_volume   848.56081661
_cell_formula_units_Z   4
loop_
 _symmetry_equiv_pos_site_id
 _symmetry_equiv_pos_as_xyz
  1  'x, y, z'
loop_
 _atom_site_type_symbol
 _atom_site_label
 _atom_site_symmetry_multiplicity
 _atom_site_fract_x
 _atom_site_fract_y
 _atom_site_fract_z
 _atom_site_occupancy
  C  C0  1  0.66943400  0.46120400  0.23578700  1
  C  C1  1  0.16943400  0.03879600  0.76421300  1
  C  C2  1  0.33056600  0.53879600  0.76421300  1
  C  C3  1  0.83056600  0.96120400  0.23578700  1
  Ni  Ni4  1  0.18956100  0.32636200  0.44108100  1
  Ni  Ni5  1  0.68956100  0.17363800  0.55891900  1
  Ni  Ni6  1  0.81043900  0.67363800  0.55891900  1
  Ni  Ni7  1  0.31043900  0.82636200  0.44108100  1
  Ni  Ni8  1  0.18569600  0.27701800  0.07725000  1
  Ni  Ni9  1  0.68569600  0.22298200  0.92275000  1
  Ni  Ni10  1  0.81430400  0.72298200  0.92275000  1
  Ni  Ni11  1  0.31430400  0.77701800  0.07725000  1
  Cu  Cu12  1  0.27742400  0.54750900  0.42683300  1
  Cu  Cu13  1  0.77742400  0.95249100  0.57316700  1
  Cu  Cu14  1  0.72257600  0.45249100  0.57316700  1
  Cu  Cu15  1  0.22257600  0.04750900  0.42683300  1
  Cu  Cu16  1  0.47951600  0.18480700  0.42701600  1
  Cu  Cu17  1  0.97951600  0.31519300  0.57298400  1
  Cu  Cu18  1  0.52048400  0.81519300  0.57298400  1
  Cu  Cu19  1  0.02048400  0.68480700  0.42701600  1
  Cu  Cu20  1  0.04481100  0.31073100  0.26472200  1
  Cu  Cu21  1  0.54481100  0.18926900  0.73527800  1
  Cu  Cu22  1  0.95518900  0.68926900  0.73527800  1
  Cu  Cu23  1  0.45518900  0.81073100  0.26472200  1
  Cu  Cu24  1  0.25796400  0.49872800  0.09934700  1
  Cu  Cu25  1  0.75796400  0.00127200  0.90065300  1
  Cu  Cu26  1  0.74203600  0.50127200  0.90065300  1
  Cu  Cu27  1  0.24203600  0.99872800  0.09934700  1
  Cu  Cu28  1  0.98562600  0.33025200  0.94036000  1
  Cu  Cu29  1  0.48562600  0.16974800  0.05964000  1
  Cu  Cu30  1  0.01437400  0.66974800  0.05964000  1
  Cu  Cu31  1  0.51437400  0.83025200  0.94036000  1
  C  C32  1  0.28846900  0.19386800  0.42277900  1
  C  C33  1  0.78846900  0.30613200  0.57722100  1
  C  C34  1  0.71153100  0.80613200  0.57722100  1
  C  C35  1  0.21153100  0.69386800  0.42277900  1
  C  C36  1  0.03909500  0.35475700  0.35370600  1
  C  C37  1  0.53909500  0.14524300  0.64629400  1
  C  C38  1  0.96090500  0.64524300  0.64629400  1
  C  C39  1  0.46090500  0.85475700  0.35370600  1
  C  C40  1  0.32436300  0.44702600  0.42990200  1
  C  C41  1  0.82436300  0.05297400  0.57009800  1
  C  C42  1  0.67563700  0.55297400  0.57009800  1
  C  C43  1  0.17563700  0.94702600  0.42990200  1
  C  C44  1  0.11115000  0.32344200  0.57084300  1
  C  C45  1  0.61115000  0.17655800  0.42915700  1
  C  C46  1  0.88885000  0.67655800  0.42915700  1
  C  C47  1  0.38885000  0.82344200  0.57084300  1
  C  C48  1  0.30067400  0.14875100  0.07705600  1
  C  C49  1  0.80067400  0.35124900  0.92294400  1
  C  C50  1  0.69932600  0.85124900  0.92294400  1
  C  C51  1  0.19932600  0.64875100  0.07705600  1
  C  C52  1  0.03321500  0.25838700  0.16174200  1
  C  C53  1  0.53321500  0.24161300  0.83825800  1
  C  C54  1  0.96678500  0.74161300  0.83825800  1
  C  C55  1  0.46678500  0.75838700  0.16174200  1
  C  C56  1  0.30698700  0.39906700  0.11045100  1
  C  C57  1  0.80698700  0.10093300  0.88954900  1
  C  C58  1  0.69301300  0.60093300  0.88954900  1
  C  C59  1  0.19301300  0.89906700  0.11045100  1
  C  C60  1  0.11735900  0.31757100  0.94620200  1
  C  C61  1  0.61735900  0.18242900  0.05379800  1
  C  C62  1  0.88264100  0.68242900  0.05379800  1
  C  C63  1  0.38264100  0.81757100  0.94620200  1
