# generated using pymatgen
data_CuNiC6
_symmetry_space_group_name_H-M   'P 1'
_cell_length_a   8.77290200
_cell_length_b   10.12641700
_cell_length_c   10.34246200
_cell_angle_alpha   90.00000000
_cell_angle_beta   90.00000000
_cell_angle_gamma   90.00000000
_symmetry_Int_Tables_number   1
_chemical_formula_structural   CuNiC6
_chemical_formula_sum   'Cu8 Ni8 C48'
_cell_volume   918.80430058
_cell_formula_units_Z   8
loop_
 _symmetry_equiv_pos_site_id
 _symmetry_equiv_pos_as_xyz
  1  'x, y, z'
loop_
 _atom_site_type_symbol
 _atom_site_label
 _atom_site_symmetry_multiplicity
 _atom_site_fract_x
 _atom_site_fract_y
 _atom_site_fract_z
 _atom_site_occupancy
  Ni  Ni0  1  0.14189500  0.32070000  0.62350400  1
  Ni  Ni1  1  0.35810500  0.67930000  0.12350400  1
  Ni  Ni2  1  0.64189500  0.17930000  0.37649600  1
  Ni  Ni3  1  0.85810500  0.82070000  0.87649600  1
  Ni  Ni4  1  0.85810500  0.67930000  0.37649600  1
  Ni  Ni5  1  0.64189500  0.32070000  0.87649600  1
  Ni  Ni6  1  0.35810500  0.82070000  0.62350400  1
  Ni  Ni7  1  0.14189500  0.17930000  0.12350400  1
  Cu  Cu8  1  0.45890900  0.13482100  0.66323700  1
  Cu  Cu9  1  0.04109100  0.86517900  0.16323700  1
  Cu  Cu10  1  0.95890900  0.36517900  0.33676300  1
  Cu  Cu11  1  0.54109100  0.63482100  0.83676300  1
  Cu  Cu12  1  0.54109100  0.86517900  0.33676300  1
  Cu  Cu13  1  0.95890900  0.13482100  0.83676300  1
  Cu  Cu14  1  0.04109100  0.63482100  0.66323700  1
  Cu  Cu15  1  0.45890900  0.36517900  0.16323700  1
  C  C16  1  0.46053800  0.20209300  0.79864700  1
  C  C17  1  0.03946200  0.79790700  0.29864700  1
  C  C18  1  0.96053800  0.29790700  0.20135300  1
  C  C19  1  0.53946200  0.70209300  0.70135300  1
  C  C20  1  0.53946200  0.79790700  0.20135300  1
  C  C21  1  0.96053800  0.20209300  0.70135300  1
  C  C22  1  0.03946200  0.70209300  0.79864700  1
  C  C23  1  0.46053800  0.29790700  0.29864700  1
  C  C24  1  0.57448800  0.20844100  0.57413400  1
  C  C25  1  0.92551200  0.79155900  0.07413400  1
  C  C26  1  0.07448800  0.29155900  0.42586600  1
  C  C27  1  0.42551200  0.70844100  0.92586600  1
  C  C28  1  0.42551200  0.79155900  0.42586600  1
  C  C29  1  0.07448800  0.20844100  0.92586600  1
  C  C30  1  0.92551200  0.70844100  0.57413400  1
  C  C31  1  0.57448800  0.29155900  0.07413400  1
  C  C32  1  0.29320400  0.15056900  0.60694500  1
  C  C33  1  0.20679600  0.84943100  0.10694500  1
  C  C34  1  0.79320400  0.34943100  0.39305500  1
  C  C35  1  0.70679600  0.65056900  0.89305500  1
  C  C36  1  0.70679600  0.84943100  0.39305500  1
  C  C37  1  0.79320400  0.15056900  0.89305500  1
  C  C38  1  0.20679600  0.65056900  0.60694500  1
  C  C39  1  0.29320400  0.34943100  0.10694500  1
  C  C40  1  0.49721300  0.98777400  0.67275600  1
  C  C41  1  0.00278700  0.01222600  0.17275600  1
  C  C42  1  0.99721300  0.51222600  0.32724400  1
  C  C43  1  0.50278700  0.48777400  0.82724400  1
  C  C44  1  0.50278700  0.01222600  0.32724400  1
  C  C45  1  0.99721300  0.98777400  0.82724400  1
  C  C46  1  0.00278700  0.48777400  0.67275600  1
  C  C47  1  0.49721300  0.51222600  0.17275600  1
  C  C48  1  0.31699600  0.03053600  0.05235100  1
  C  C49  1  0.18300400  0.96946400  0.55235100  1
  C  C50  1  0.81699600  0.46946400  0.94764900  1
  C  C51  1  0.68300400  0.53053600  0.44764900  1
  C  C52  1  0.68300400  0.96946400  0.94764900  1
  C  C53  1  0.81699600  0.03053600  0.44764900  1
  C  C54  1  0.18300400  0.53053600  0.05235100  1
  C  C55  1  0.31699600  0.46946400  0.55235100  1
  C  C56  1  0.25084000  0.15254700  0.31955300  1
  C  C57  1  0.24916000  0.84745300  0.81955300  1
  C  C58  1  0.75084000  0.34745300  0.68044700  1
  C  C59  1  0.74916000  0.65254700  0.18044700  1
  C  C60  1  0.74916000  0.84745300  0.68044700  1
  C  C61  1  0.75084000  0.15254700  0.18044700  1
  C  C62  1  0.24916000  0.65254700  0.31955300  1
  C  C63  1  0.25084000  0.34745300  0.81955300  1
