# generated using pymatgen
data_CuNiC11
_symmetry_space_group_name_H-M   'P 1'
_cell_length_a   3.84082844
_cell_length_b   3.84762645
_cell_length_c   14.58407924
_cell_angle_alpha   93.18656865
_cell_angle_beta   93.17865177
_cell_angle_gamma   87.69914029
_symmetry_Int_Tables_number   1
_chemical_formula_structural   CuNiC11
_chemical_formula_sum   'Cu1 Ni1 C11'
_cell_volume   214.71172586
_cell_formula_units_Z   1
loop_
 _symmetry_equiv_pos_site_id
 _symmetry_equiv_pos_as_xyz
  1  'x, y, z'
loop_
 _atom_site_type_symbol
 _atom_site_label
 _atom_site_symmetry_multiplicity
 _atom_site_fract_x
 _atom_site_fract_y
 _atom_site_fract_z
 _atom_site_occupancy
  C  C0  1  0.51753700  0.52336900  0.17142300  1
  C  C1  1  0.46618000  0.46520600  0.83153000  1
  C  C2  1  0.06901700  0.07559000  0.37578700  1
  C  C3  1  0.93326800  0.92525600  0.62335500  1
  Ni  Ni4  1  0.49785900  0.49716400  0.50054300  1
  Cu  Cu5  1  0.98886800  0.99098800  0.99961300  1
  C  C6  1  0.02978100  0.03720700  0.25433300  1
  C  C7  1  0.12109100  0.59250100  0.41800000  1
  C  C8  1  0.58456400  0.12489500  0.41757400  1
  C  C9  1  0.41979500  0.87858500  0.58127200  1
  C  C10  1  0.51469500  0.51546100  0.00248700  1
  C  C11  1  0.88873800  0.40950400  0.57925100  1
  C  C12  1  0.96860400  0.96427500  0.74483000  1
