# generated using pymatgen
data_Cu9NiC7
_symmetry_space_group_name_H-M   'P 1'
_cell_length_a   8.25556100
_cell_length_b   8.26123818
_cell_length_c   8.57921906
_cell_angle_alpha   116.17391523
_cell_angle_beta   84.28288437
_cell_angle_gamma   115.07241283
_symmetry_Int_Tables_number   1
_chemical_formula_structural   Cu9NiC7
_chemical_formula_sum   'Cu18 Ni2 C14'
_cell_volume   472.88369805
_cell_formula_units_Z   2
loop_
 _symmetry_equiv_pos_site_id
 _symmetry_equiv_pos_as_xyz
  1  'x, y, z'
loop_
 _atom_site_type_symbol
 _atom_site_label
 _atom_site_symmetry_multiplicity
 _atom_site_fract_x
 _atom_site_fract_y
 _atom_site_fract_z
 _atom_site_occupancy
  C  C0  1  0.20855000  0.85506900  0.77252000  1
  C  C1  1  0.79145000  0.14493100  0.22748000  1
  C  C2  1  0.33762100  0.47362500  0.88041600  1
  C  C3  1  0.66237900  0.52637500  0.11958400  1
  C  C4  1  0.18402400  0.83245600  0.58455700  1
  C  C5  1  0.81597600  0.16754400  0.41544300  1
  C  C6  1  0.40292500  0.93909800  0.67644700  1
  C  C7  1  0.59707500  0.06090200  0.32355300  1
  C  C8  1  0.76356400  0.73289500  0.82493900  1
  C  C9  1  0.23643600  0.26710500  0.17506100  1
  C  C10  1  0.28883300  0.74734300  0.25935100  1
  C  C11  1  0.71116700  0.25265700  0.74064900  1
  C  C12  1  0.79378500  0.78201500  0.29555700  1
  C  C13  1  0.20621500  0.21798500  0.70444300  1
  Ni  Ni14  1  0.26088600  0.91641100  0.65396100  1
  Ni  Ni15  1  0.73911400  0.08358900  0.34603900  1
  Cu  Cu16  1  0.52679500  0.60310400  0.79938600  1
  Cu  Cu17  1  0.47320500  0.39689600  0.20061400  1
  Cu  Cu18  1  0.86588100  0.58434700  0.81446600  1
  Cu  Cu19  1  0.13411900  0.41565300  0.18553400  1
  Cu  Cu20  1  0.48362000  0.78967900  0.17060300  1
  Cu  Cu21  1  0.51638000  0.21032100  0.82939700  1
  Cu  Cu22  1  0.31802700  0.56589400  0.48515600  1
  Cu  Cu23  1  0.68197300  0.43410600  0.51484400  1
  Cu  Cu24  1  0.76139900  0.89445600  0.45129900  1
  Cu  Cu25  1  0.23860100  0.10554400  0.54870100  1
  Cu  Cu26  1  0.78688300  0.62689100  0.08593300  1
  Cu  Cu27  1  0.21311700  0.37310900  0.91406700  1
  Cu  Cu28  1  0.01742900  0.77767700  0.40210400  1
  Cu  Cu29  1  0.98257100  0.22232300  0.59789600  1
  Cu  Cu30  1  0.37687500  0.97674900  0.29020800  1
  Cu  Cu31  1  0.62312500  0.02325100  0.70979200  1
  Cu  Cu32  1  0.86067600  0.03514500  0.11969400  1
  Cu  Cu33  1  0.13932400  0.96485500  0.88030600  1
