# generated using pymatgen
data_Cu3(NiC4)2
_symmetry_space_group_name_H-M   'P 1'
_cell_length_a   6.93164977
_cell_length_b   6.93164977
_cell_length_c   6.65516703
_cell_angle_alpha   71.70755328
_cell_angle_beta   71.70755328
_cell_angle_gamma   81.64635425
_symmetry_Int_Tables_number   1
_chemical_formula_structural   Cu3(NiC4)2
_chemical_formula_sum   'Cu6 Ni4 C16'
_cell_volume   287.87671575
_cell_formula_units_Z   2
loop_
 _symmetry_equiv_pos_site_id
 _symmetry_equiv_pos_as_xyz
  1  'x, y, z'
loop_
 _atom_site_type_symbol
 _atom_site_label
 _atom_site_symmetry_multiplicity
 _atom_site_fract_x
 _atom_site_fract_y
 _atom_site_fract_z
 _atom_site_occupancy
  C  C0  1  0.17877900  0.82122100  0.75000000  1
  C  C1  1  0.82122100  0.17877900  0.25000000  1
  Ni  Ni2  1  0.05457500  0.63554000  0.34281700  1
  Ni  Ni3  1  0.36446000  0.94542500  0.15718300  1
  Ni  Ni4  1  0.94542500  0.36446000  0.65718300  1
  Ni  Ni5  1  0.63554000  0.05457500  0.84281700  1
  Cu  Cu6  1  0.44899000  0.55101000  0.25000000  1
  Cu  Cu7  1  0.55101000  0.44899000  0.75000000  1
  Cu  Cu8  1  0.77041900  0.73204800  0.68315600  1
  Cu  Cu9  1  0.26795200  0.22958100  0.81684400  1
  Cu  Cu10  1  0.22958100  0.26795200  0.31684400  1
  Cu  Cu11  1  0.73204800  0.77041900  0.18315600  1
  C  C12  1  0.29720800  0.70279200  0.25000000  1
  C  C13  1  0.70279200  0.29720800  0.75000000  1
  C  C14  1  0.94411900  0.61379800  0.61533600  1
  C  C15  1  0.38620200  0.05588100  0.88466400  1
  C  C16  1  0.05588100  0.38620200  0.38466400  1
  C  C17  1  0.61379800  0.94411900  0.11533600  1
  C  C18  1  0.58079600  0.64686800  0.73571200  1
  C  C19  1  0.35313200  0.41920400  0.76428800  1
  C  C20  1  0.41920400  0.35313200  0.26428800  1
  C  C21  1  0.64686800  0.58079600  0.23571200  1
  C  C22  1  0.77761300  0.91941600  0.69754700  1
  C  C23  1  0.08058400  0.22238700  0.80245300  1
  C  C24  1  0.22238700  0.08058400  0.30245300  1
  C  C25  1  0.91941600  0.77761300  0.19754700  1
