# generated using pymatgen
data_CuNiC4
_symmetry_space_group_name_H-M   'P 1'
_cell_length_a   6.66240967
_cell_length_b   6.66240967
_cell_length_c   6.66240967
_cell_angle_alpha   131.54425649
_cell_angle_beta   131.54425649
_cell_angle_gamma   70.94978366
_symmetry_Int_Tables_number   1
_chemical_formula_structural   CuNiC4
_chemical_formula_sum   'Cu2 Ni2 C8'
_cell_volume   162.22579675
_cell_formula_units_Z   2
loop_
 _symmetry_equiv_pos_site_id
 _symmetry_equiv_pos_as_xyz
  1  'x, y, z'
loop_
 _atom_site_type_symbol
 _atom_site_label
 _atom_site_symmetry_multiplicity
 _atom_site_fract_x
 _atom_site_fract_y
 _atom_site_fract_z
 _atom_site_occupancy
  Ni  Ni0  1  0.00000000  0.00000000  0.00000000  1
  Ni  Ni1  1  0.75000000  0.25000000  0.50000000  1
  Cu  Cu2  1  0.50000000  0.50000000  0.00000000  1
  Cu  Cu3  1  0.25000000  0.75000000  0.50000000  1
  C  C4  1  0.60879200  0.12500000  0.98379200  1
  C  C5  1  0.87500000  0.39120800  0.01620800  1
  C  C6  1  0.37500000  0.39120800  0.51620800  1
  C  C7  1  0.14120800  0.62500000  0.01620800  1
  C  C8  1  0.37500000  0.85879200  0.98379200  1
  C  C9  1  0.87500000  0.85879200  0.48379200  1
  C  C10  1  0.14120800  0.12500000  0.51620800  1
  C  C11  1  0.60879200  0.62500000  0.48379200  1
