# generated using pymatgen
data_CuNiC10
_symmetry_space_group_name_H-M   'P 1'
_cell_length_a   7.32350800
_cell_length_b   10.18131500
_cell_length_c   10.47063600
_cell_angle_alpha   90.00000000
_cell_angle_beta   90.00000000
_cell_angle_gamma   90.00000000
_symmetry_Int_Tables_number   1
_chemical_formula_structural   CuNiC10
_chemical_formula_sum   'Cu4 Ni4 C40'
_cell_volume   780.72142323
_cell_formula_units_Z   4
loop_
 _symmetry_equiv_pos_site_id
 _symmetry_equiv_pos_as_xyz
  1  'x, y, z'
loop_
 _atom_site_type_symbol
 _atom_site_label
 _atom_site_symmetry_multiplicity
 _atom_site_fract_x
 _atom_site_fract_y
 _atom_site_fract_z
 _atom_site_occupancy
  C  C0  1  0.72758200  0.42308800  0.94643000  1
  C  C1  1  0.27241800  0.57691200  0.44643000  1
  C  C2  1  0.72758200  0.07691200  0.05357000  1
  C  C3  1  0.27241800  0.92308800  0.55357000  1
  C  C4  1  0.27241800  0.57691200  0.05357000  1
  C  C5  1  0.72758200  0.42308800  0.55357000  1
  C  C6  1  0.27241800  0.92308800  0.94643000  1
  C  C7  1  0.72758200  0.07691200  0.44643000  1
  Ni  Ni8  1  0.55571800  0.16213500  0.75000000  1
  Ni  Ni9  1  0.44428200  0.83786500  0.25000000  1
  Ni  Ni10  1  0.55571800  0.33786500  0.25000000  1
  Ni  Ni11  1  0.44428200  0.66213500  0.75000000  1
  Cu  Cu12  1  0.14241500  0.27637300  0.75000000  1
  Cu  Cu13  1  0.85758500  0.72362700  0.25000000  1
  Cu  Cu14  1  0.14241500  0.22362700  0.25000000  1
  Cu  Cu15  1  0.85758500  0.77637300  0.75000000  1
  C  C16  1  0.30711800  0.25000000  0.00000000  1
  C  C17  1  0.69288200  0.75000000  0.50000000  1
  C  C18  1  0.69288200  0.75000000  0.00000000  1
  C  C19  1  0.30711800  0.25000000  0.50000000  1
  C  C20  1  0.14834900  0.56762500  0.75000000  1
  C  C21  1  0.85165100  0.43237500  0.25000000  1
  C  C22  1  0.14834900  0.93237500  0.25000000  1
  C  C23  1  0.85165100  0.06762500  0.75000000  1
  C  C24  1  0.97749600  0.50915900  0.75000000  1
  C  C25  1  0.02250400  0.49084100  0.25000000  1
  C  C26  1  0.97749600  0.99084100  0.25000000  1
  C  C27  1  0.02250400  0.00915900  0.75000000  1
  C  C28  1  0.11544600  0.25000000  0.00000000  1
  C  C29  1  0.88455400  0.75000000  0.50000000  1
  C  C30  1  0.88455400  0.75000000  0.00000000  1
  C  C31  1  0.11544600  0.25000000  0.50000000  1
  C  C32  1  0.82889400  0.20342400  0.75000000  1
  C  C33  1  0.17110600  0.79657600  0.25000000  1
  C  C34  1  0.82889400  0.29657600  0.25000000  1
  C  C35  1  0.17110600  0.70342400  0.75000000  1
  C  C36  1  0.30192100  0.48702800  0.75000000  1
  C  C37  1  0.69807900  0.51297200  0.25000000  1
  C  C38  1  0.30192100  0.01297200  0.25000000  1
  C  C39  1  0.69807900  0.98702800  0.75000000  1
  C  C40  1  0.39617900  0.21487100  0.61171200  1
  C  C41  1  0.60382100  0.78512900  0.11171200  1
  C  C42  1  0.39617900  0.28512900  0.38828800  1
  C  C43  1  0.60382100  0.71487100  0.88828800  1
  C  C44  1  0.60382100  0.78512900  0.38828800  1
  C  C45  1  0.39617900  0.21487100  0.88828800  1
  C  C46  1  0.60382100  0.71487100  0.61171200  1
  C  C47  1  0.39617900  0.28512900  0.11171200  1
