# generated using pymatgen
data_Cu2NiC8
_symmetry_space_group_name_H-M   'P 1'
_cell_length_a   8.65943300
_cell_length_b   7.26229600
_cell_length_c   9.69107422
_cell_angle_alpha   66.89544352
_cell_angle_beta   90.00000000
_cell_angle_gamma   90.00000000
_symmetry_Int_Tables_number   1
_chemical_formula_structural   Cu2NiC8
_chemical_formula_sum   'Cu8 Ni4 C32'
_cell_volume   560.56263278
_cell_formula_units_Z   4
loop_
 _symmetry_equiv_pos_site_id
 _symmetry_equiv_pos_as_xyz
  1  'x, y, z'
loop_
 _atom_site_type_symbol
 _atom_site_label
 _atom_site_symmetry_multiplicity
 _atom_site_fract_x
 _atom_site_fract_y
 _atom_site_fract_z
 _atom_site_occupancy
  Ni  Ni0  1  0.07729600  0.72618100  0.89033000  1
  Ni  Ni1  1  0.57729600  0.27381900  0.60967000  1
  Ni  Ni2  1  0.92270400  0.27381900  0.10967000  1
  Ni  Ni3  1  0.42270400  0.72618100  0.39033000  1
  C  C4  1  0.94085900  0.18274300  0.68713000  1
  C  C5  1  0.44085900  0.81725700  0.81287000  1
  C  C6  1  0.05914100  0.81725700  0.31287000  1
  C  C7  1  0.55914100  0.18274300  0.18713000  1
  Cu  Cu8  1  0.77217200  0.56749200  0.75149100  1
  Cu  Cu9  1  0.27217200  0.43250800  0.74850900  1
  Cu  Cu10  1  0.22782800  0.43250800  0.24850900  1
  Cu  Cu11  1  0.72782800  0.56749200  0.25149100  1
  Cu  Cu12  1  0.72112000  0.98111200  0.95869800  1
  Cu  Cu13  1  0.22112000  0.01888800  0.54130200  1
  Cu  Cu14  1  0.27888000  0.01888800  0.04130200  1
  Cu  Cu15  1  0.77888000  0.98111200  0.45869800  1
  C  C16  1  0.72994300  0.13911600  0.05192200  1
  C  C17  1  0.22994300  0.86088400  0.44807800  1
  C  C18  1  0.27005700  0.86088400  0.94807800  1
  C  C19  1  0.77005700  0.13911600  0.55192200  1
  C  C20  1  0.59497000  0.64174200  0.77454100  1
  C  C21  1  0.09497000  0.35825800  0.72545900  1
  C  C22  1  0.40503000  0.35825800  0.22545900  1
  C  C23  1  0.90503000  0.64174200  0.27454100  1
  C  C24  1  0.90072800  0.53855500  0.89352700  1
  C  C25  1  0.40072800  0.46144500  0.60647300  1
  C  C26  1  0.09927200  0.46144500  0.10647300  1
  C  C27  1  0.59927200  0.53855500  0.39352700  1
  C  C28  1  0.85329300  0.74526300  0.58189100  1
  C  C29  1  0.35329300  0.25473700  0.91810900  1
  C  C30  1  0.14670700  0.25473700  0.41810900  1
  C  C31  1  0.64670700  0.74526300  0.08189100  1
  C  C32  1  0.92329900  0.03179200  0.32874900  1
  C  C33  1  0.42329900  0.96820800  0.17125100  1
  C  C34  1  0.07670100  0.96820800  0.67125100  1
  C  C35  1  0.57670100  0.03179200  0.82874900  1
  C  C36  1  0.73387900  0.35848500  0.21065900  1
  C  C37  1  0.23387900  0.64151500  0.28934100  1
  C  C38  1  0.26612100  0.64151500  0.78934100  1
  C  C39  1  0.76612100  0.35848500  0.71065900  1
  C  C40  1  0.60338200  0.95596500  0.38862000  1
  C  C41  1  0.10338200  0.04403500  0.11138000  1
  C  C42  1  0.39661800  0.04403500  0.61138000  1
  C  C43  1  0.89661800  0.95596500  0.88862000  1
