# generated using pymatgen
data_Cu4NiC3
_symmetry_space_group_name_H-M   'P 1'
_cell_length_a   10.42683000
_cell_length_b   10.86888000
_cell_length_c   12.19263900
_cell_angle_alpha   90.00000000
_cell_angle_beta   90.00000000
_cell_angle_gamma   90.00000000
_symmetry_Int_Tables_number   1
_chemical_formula_structural   Cu4NiC3
_chemical_formula_sum   'Cu16 Ni4 C12'
_cell_volume   1381.76695427
_cell_formula_units_Z   4
loop_
 _symmetry_equiv_pos_site_id
 _symmetry_equiv_pos_as_xyz
  1  'x, y, z'
loop_
 _atom_site_type_symbol
 _atom_site_label
 _atom_site_symmetry_multiplicity
 _atom_site_fract_x
 _atom_site_fract_y
 _atom_site_fract_z
 _atom_site_occupancy
  C  C0  1  0.05729100  0.19735000  0.95623400  1
  C  C1  1  0.64371400  0.07928000  0.25000000  1
  C  C2  1  0.35628600  0.92072000  0.75000000  1
  C  C3  1  0.85628600  0.57928000  0.75000000  1
  C  C4  1  0.14371400  0.42072000  0.25000000  1
  C  C5  1  0.55729100  0.30265000  0.54376600  1
  C  C6  1  0.44270900  0.69735000  0.04376600  1
  C  C7  1  0.94270900  0.80265000  0.45623400  1
  C  C8  1  0.94270900  0.80265000  0.04376600  1
  C  C9  1  0.44270900  0.69735000  0.45623400  1
  C  C10  1  0.55729100  0.30265000  0.95623400  1
  C  C11  1  0.05729100  0.19735000  0.54376600  1
  Ni  Ni12  1  0.76983200  0.02168100  0.75000000  1
  Ni  Ni13  1  0.73016800  0.52168100  0.25000000  1
  Ni  Ni14  1  0.26983200  0.47831900  0.75000000  1
  Ni  Ni15  1  0.23016800  0.97831900  0.25000000  1
  Cu  Cu16  1  0.64755000  0.96837300  0.92159700  1
  Cu  Cu17  1  0.14755000  0.53162700  0.57840300  1
  Cu  Cu18  1  0.85245000  0.46837300  0.07840300  1
  Cu  Cu19  1  0.35245000  0.03162700  0.42159700  1
  Cu  Cu20  1  0.35245000  0.03162700  0.07840300  1
  Cu  Cu21  1  0.85245000  0.46837300  0.42159700  1
  Cu  Cu22  1  0.14755000  0.53162700  0.92159700  1
  Cu  Cu23  1  0.64755000  0.96837300  0.57840300  1
  Cu  Cu24  1  0.01522200  0.08580700  0.25000000  1
  Cu  Cu25  1  0.80870800  0.25023700  0.75000000  1
  Cu  Cu26  1  0.48477800  0.58580700  0.75000000  1
  Cu  Cu27  1  0.98477800  0.91419300  0.75000000  1
  Cu  Cu28  1  0.19129200  0.74976300  0.25000000  1
  Cu  Cu29  1  0.69129200  0.75023700  0.25000000  1
  Cu  Cu30  1  0.30870800  0.24976300  0.75000000  1
  Cu  Cu31  1  0.51522200  0.41419300  0.25000000  1
