# generated using pymatgen
data_Cu2NiC10
_symmetry_space_group_name_H-M   'P 1'
_cell_length_a   6.35516218
_cell_length_b   8.27155400
_cell_length_c   11.83617519
_cell_angle_alpha   90.00000000
_cell_angle_beta   90.95188630
_cell_angle_gamma   90.00000000
_symmetry_Int_Tables_number   1
_chemical_formula_structural   Cu2NiC10
_chemical_formula_sum   'Cu8 Ni4 C40'
_cell_volume   622.10715179
_cell_formula_units_Z   4
loop_
 _symmetry_equiv_pos_site_id
 _symmetry_equiv_pos_as_xyz
  1  'x, y, z'
loop_
 _atom_site_type_symbol
 _atom_site_label
 _atom_site_symmetry_multiplicity
 _atom_site_fract_x
 _atom_site_fract_y
 _atom_site_fract_z
 _atom_site_occupancy
  Ni  Ni0  1  0.11422500  0.15760400  0.04228900  1
  Ni  Ni1  1  0.88577500  0.84239600  0.95771100  1
  Ni  Ni2  1  0.88577500  0.65760400  0.45771100  1
  Ni  Ni3  1  0.11422500  0.34239600  0.54228900  1
  Cu  Cu4  1  0.75452600  0.18925200  0.87647200  1
  Cu  Cu5  1  0.37958700  0.06190700  0.62586600  1
  Cu  Cu6  1  0.62041300  0.93809300  0.37413400  1
  Cu  Cu7  1  0.24547400  0.81074800  0.12352800  1
  Cu  Cu8  1  0.75452600  0.31074800  0.37647200  1
  Cu  Cu9  1  0.37958700  0.43809300  0.12586600  1
  Cu  Cu10  1  0.24547400  0.68925200  0.62352800  1
  Cu  Cu11  1  0.62041300  0.56190700  0.87413400  1
  C  C12  1  0.09777300  0.46457500  0.83876100  1
  C  C13  1  0.09777300  0.03542500  0.33876100  1
  C  C14  1  0.61300800  0.08915300  0.13528000  1
  C  C15  1  0.90222700  0.96457500  0.66123900  1
  C  C16  1  0.38699200  0.91084700  0.86472000  1
  C  C17  1  0.38699200  0.58915300  0.36472000  1
  C  C18  1  0.61300800  0.41084700  0.63528000  1
  C  C19  1  0.90222700  0.53542500  0.16123900  1
  C  C20  1  0.02484900  0.23650600  0.39431600  1
  C  C21  1  0.65379900  0.01602500  0.58874200  1
  C  C22  1  0.19208300  0.57617100  0.47771600  1
  C  C23  1  0.80791700  0.07617100  0.02228400  1
  C  C24  1  0.02484900  0.26349400  0.89431600  1
  C  C25  1  0.97515100  0.76349400  0.60568400  1
  C  C26  1  0.09706600  0.11555000  0.61842700  1
  C  C27  1  0.51300800  0.88206200  0.14401100  1
  C  C28  1  0.51300800  0.61793800  0.64401100  1
  C  C29  1  0.31777600  0.87594400  0.71139700  1
  C  C30  1  0.68222400  0.37594400  0.78860300  1
  C  C31  1  0.48699200  0.11793800  0.85598900  1
  C  C32  1  0.90293400  0.88445000  0.38157300  1
  C  C33  1  0.86333600  0.52819300  0.31086700  1
  C  C34  1  0.41550800  0.27088600  0.57711400  1
  C  C35  1  0.41550800  0.22911400  0.07711400  1
  C  C36  1  0.13666400  0.02819300  0.18913300  1
  C  C37  1  0.48699200  0.38206200  0.35598900  1
  C  C38  1  0.13666400  0.47180700  0.68913300  1
  C  C39  1  0.80791700  0.42382900  0.52228400  1
  C  C40  1  0.65379900  0.48397500  0.08874200  1
  C  C41  1  0.68222400  0.12405600  0.28860300  1
  C  C42  1  0.97515100  0.73650600  0.10568400  1
  C  C43  1  0.09706600  0.38445000  0.11842700  1
  C  C44  1  0.19208300  0.92382900  0.97771600  1
  C  C45  1  0.58449200  0.77088600  0.92288600  1
  C  C46  1  0.34620100  0.98397500  0.41125800  1
  C  C47  1  0.34620100  0.51602500  0.91125800  1
  C  C48  1  0.90293400  0.61555000  0.88157300  1
  C  C49  1  0.58449200  0.72911400  0.42288600  1
  C  C50  1  0.31777600  0.62405600  0.21139700  1
  C  C51  1  0.86333600  0.97180700  0.81086700  1
