# generated using pymatgen
data_Cu17(NiC)6
_symmetry_space_group_name_H-M   'P 1'
_cell_length_a   8.30603600
_cell_length_b   15.40663587
_cell_length_c   22.91590706
_cell_angle_alpha   90.00000000
_cell_angle_beta   90.00000000
_cell_angle_gamma   90.00000000
_symmetry_Int_Tables_number   1
_chemical_formula_structural   Cu17(NiC)6
_chemical_formula_sum   'Cu68 Ni24 C24'
_cell_volume   2932.50444861
_cell_formula_units_Z   4
loop_
 _symmetry_equiv_pos_site_id
 _symmetry_equiv_pos_as_xyz
  1  'x, y, z'
loop_
 _atom_site_type_symbol
 _atom_site_label
 _atom_site_symmetry_multiplicity
 _atom_site_fract_x
 _atom_site_fract_y
 _atom_site_fract_z
 _atom_site_occupancy
  C  C0  1  0.24889659  0.05036514  0.28715914  1
  C  C1  1  0.25110341  0.94963486  0.78715914  1
  C  C2  1  0.74889659  0.44963486  0.71284086  1
  C  C3  1  0.75110341  0.55036514  0.21284086  1
  C  C4  1  0.74644609  0.05552021  0.28870998  1
  C  C5  1  0.75355391  0.94447979  0.78870998  1
  C  C6  1  0.24644609  0.44447979  0.71129002  1
  C  C7  1  0.25355391  0.55552021  0.21129002  1
  C  C8  1  0.74266659  0.94180091  0.45617854  1
  C  C9  1  0.75733341  0.05819909  0.95617854  1
  C  C10  1  0.24266659  0.55819909  0.54382146  1
  C  C11  1  0.25733341  0.44180091  0.04382146  1
  C  C12  1  0.24940908  0.93900218  0.45478065  1
  C  C13  1  0.25059092  0.06099782  0.95478065  1
  C  C14  1  0.74940908  0.56099782  0.54521935  1
  C  C15  1  0.75059092  0.43900218  0.04521935  1
  C  C16  1  0.24397386  0.83392576  0.62274045  1
  C  C17  1  0.25602614  0.16607424  0.12274045  1
  C  C18  1  0.74397386  0.66607424  0.37725955  1
  C  C19  1  0.75602614  0.33392576  0.87725955  1
  C  C20  1  0.75036474  0.83337479  0.62385945  1
  C  C21  1  0.74963526  0.16662521  0.12385945  1
  C  C22  1  0.25036474  0.66662521  0.37614055  1
  C  C23  1  0.24963526  0.33337479  0.87614055  1
  Ni  Ni24  1  0.02249011  0.29391846  0.26795535  1
  Ni  Ni25  1  0.47750989  0.70608154  0.76795535  1
  Ni  Ni26  1  0.52249011  0.20608154  0.73204465  1
  Ni  Ni27  1  0.97750989  0.79391846  0.23204465  1
  Ni  Ni28  1  0.98822060  0.18262186  0.41512109  1
  Ni  Ni29  1  0.51177940  0.81737814  0.91512109  1
  Ni  Ni30  1  0.48822060  0.31737814  0.58487891  1
  Ni  Ni31  1  0.01177940  0.68262186  0.08487891  1
  Ni  Ni32  1  0.50600565  0.17561322  0.44024147  1
  Ni  Ni33  1  0.99399435  0.82438678  0.94024147  1
  Ni  Ni34  1  0.00600565  0.32438678  0.55975853  1
  Ni  Ni35  1  0.49399435  0.67561322  0.05975853  1
  Ni  Ni36  1  0.46672013  0.07815729  0.59253412  1
  Ni  Ni37  1  0.03327987  0.92184271  0.09253412  1
  Ni  Ni38  1  0.96672013  0.42184271  0.40746588  1
  Ni  Ni39  1  0.53327987  0.57815729  0.90746588  1
  Ni  Ni40  1  0.98063056  0.07295947  0.60815331  1
  Ni  Ni41  1  0.51936944  0.92704053  0.10815331  1
  Ni  Ni42  1  0.48063056  0.42704053  0.39184669  1
  Ni  Ni43  1  0.01936944  0.57295947  0.89184669  1
  Ni  Ni44  1  0.00002815  0.69093867  0.75056967  1
  Ni  Ni45  1  0.49997185  0.30906133  0.25056967  1
  Ni  Ni46  1  0.50002815  0.80906133  0.24943033  1
  Ni  Ni47  1  -0.00002815  0.19093867  0.74943033  1
  Cu  Cu48  1  0.49857649  0.70376836  0.57222953  1
  Cu  Cu49  1  0.00142351  0.29623164  0.07222953  1
  Cu  Cu50  1  0.99857649  0.79623164  0.42777047  1
  Cu  Cu51  1  0.50142351  0.20376836  0.92777047  1
  Cu  Cu52  1  0.64154431  0.74864507  0.50156142  1
  Cu  Cu53  1  0.85845569  0.25135493  0.00156142  1
  Cu  Cu54  1  0.14154431  0.75135493  0.49843858  1
  Cu  Cu55  1  0.35845569  0.24864507  0.99843858  1
  Cu  Cu56  1  0.50341544  0.79409150  0.42990778  1
  Cu  Cu57  1  0.99658456  0.20590850  0.92990778  1
  Cu  Cu58  1  0.00341544  0.70590850  0.57009222  1
  Cu  Cu59  1  0.49658456  0.29409150  0.07009222  1
  Cu  Cu60  1  0.99967790  0.15014365  0.21822800  1
  Cu  Cu61  1  0.50032210  0.84985635  0.71822800  1
  Cu  Cu62  1  0.49967790  0.34985635  0.78177200  1
  Cu  Cu63  1  0.00032210  0.65014365  0.28177200  1
  Cu  Cu64  1  0.21642247  0.23117979  0.34289803  1
  Cu  Cu65  1  0.28357753  0.76882021  0.84289803  1
  Cu  Cu66  1  0.71642247  0.26882021  0.65710197  1
  Cu  Cu67  1  0.78357753  0.73117979  0.15710197  1
  Cu  Cu68  1  0.76935753  0.22951401  0.34960908  1
  Cu  Cu69  1  0.73064247  0.77048599  0.84960908  1
  Cu  Cu70  1  0.26935753  0.27048599  0.65039092  1
  Cu  Cu71  1  0.23064247  0.72951401  0.15039092  1
  Cu  Cu72  1  0.99721579  0.02815219  0.38025372  1
  Cu  Cu73  1  0.50278421  0.97184781  0.88025372  1
  Cu  Cu74  1  0.49721579  0.47184781  0.61974628  1
  Cu  Cu75  1  0.00278421  0.52815219  0.11974628  1
  Cu  Cu76  1  0.49602430  0.03690546  0.38231956  1
  Cu  Cu77  1  0.00397570  0.96309454  0.88231956  1
  Cu  Cu78  1  0.99602430  0.46309454  0.61768044  1
  Cu  Cu79  1  0.50397570  0.53690546  0.11768044  1
  Cu  Cu80  1  0.72501077  0.12564802  0.50495350  1
  Cu  Cu81  1  0.77498923  0.87435198  0.00495350  1
  Cu  Cu82  1  0.22501077  0.37435198  0.49504650  1
  Cu  Cu83  1  0.27498923  0.62564802  0.99504650  1
  Cu  Cu84  1  0.27529485  0.12294311  0.50925744  1
  Cu  Cu85  1  0.22470515  0.87705689  0.00925744  1
  Cu  Cu86  1  0.77529485  0.37705689  0.49074256  1
  Cu  Cu87  1  0.72470515  0.62294311  0.99074256  1
  Cu  Cu88  1  0.49276285  0.93026406  0.55313732  1
  Cu  Cu89  1  0.00723715  0.06973594  0.05313732  1
  Cu  Cu90  1  0.99276285  0.56973594  0.44686268  1
  Cu  Cu91  1  0.50723715  0.43026406  0.94686268  1
  Cu  Cu92  1  0.99083379  0.93655524  0.55032016  1
  Cu  Cu93  1  0.50916621  0.06344476  0.05032016  1
  Cu  Cu94  1  0.49083379  0.56344476  0.44967984  1
  Cu  Cu95  1  0.00916621  0.43655524  0.94967984  1
  Cu  Cu96  1  0.23314219  0.02525552  0.66427084  1
  Cu  Cu97  1  0.26685781  0.97474448  0.16427084  1
  Cu  Cu98  1  0.73314219  0.47474448  0.33572916  1
  Cu  Cu99  1  0.76685781  0.52525552  0.83572916  1
  Cu  Cu100  1  0.75660910  0.02148447  0.67030130  1
  Cu  Cu101  1  0.74339090  0.97851553  0.17030130  1
  Cu  Cu102  1  0.25660910  0.47851553  0.32969870  1
  Cu  Cu103  1  0.24339090  0.52148447  0.82969870  1
  Cu  Cu104  1  0.25162170  0.65338376  0.69179906  1
  Cu  Cu105  1  0.24837830  0.34661624  0.19179906  1
  Cu  Cu106  1  0.75162170  0.84661624  0.30820094  1
  Cu  Cu107  1  0.74837830  0.15338376  0.80820094  1
  Cu  Cu108  1  0.78714915  0.64552304  0.68195515  1
  Cu  Cu109  1  0.71285085  0.35447696  0.18195515  1
  Cu  Cu110  1  0.28714915  0.85447696  0.31804485  1
  Cu  Cu111  1  0.21285085  0.14552304  0.81804485  1
  Cu  Cu112  1  0.00168679  0.84654042  0.71999907  1
  Cu  Cu113  1  0.49831321  0.15345958  0.21999907  1
  Cu  Cu114  1  0.50168679  0.65345958  0.28000093  1
  Cu  Cu115  1  0.99831321  0.34654042  0.78000093  1
