# generated using pymatgen
data_Cu10Ni5C4
_symmetry_space_group_name_H-M   'P 1'
_cell_length_a   11.15221800
_cell_length_b   7.23735100
_cell_length_c   7.32093386
_cell_angle_alpha   82.01401267
_cell_angle_beta   90.00000000
_cell_angle_gamma   90.00000000
_symmetry_Int_Tables_number   1
_chemical_formula_structural   Cu10Ni5C4
_chemical_formula_sum   'Cu20 Ni10 C8'
_cell_volume   585.16057608
_cell_formula_units_Z   2
loop_
 _symmetry_equiv_pos_site_id
 _symmetry_equiv_pos_as_xyz
  1  'x, y, z'
loop_
 _atom_site_type_symbol
 _atom_site_label
 _atom_site_symmetry_multiplicity
 _atom_site_fract_x
 _atom_site_fract_y
 _atom_site_fract_z
 _atom_site_occupancy
  C  C0  1  0.25031300  0.77350500  0.68696200  1
  C  C1  1  0.75031300  0.22649500  0.31303800  1
  C  C2  1  0.50611600  0.27459200  0.80371300  1
  C  C3  1  0.00611600  0.72540800  0.19628700  1
  C  C4  1  0.49172800  0.72461900  0.19554600  1
  C  C5  1  0.99172800  0.27538100  0.80445400  1
  C  C6  1  0.25022200  0.24122900  0.29031600  1
  C  C7  1  0.75022200  0.75877100  0.70968400  1
  Ni  Ni8  1  0.25497800  0.99748500  0.16897400  1
  Ni  Ni9  1  0.75497800  0.00251500  0.83102600  1
  Ni  Ni10  1  0.24997000  0.43683100  0.05207800  1
  Ni  Ni11  1  0.74997000  0.56316900  0.94792200  1
  Ni  Ni12  1  0.24965600  0.32127600  0.62320300  1
  Ni  Ni13  1  0.74965600  0.67872400  0.37679700  1
  Ni  Ni14  1  0.44458300  0.22277200  0.30143100  1
  Ni  Ni15  1  0.94458300  0.77722800  0.69856900  1
  Ni  Ni16  1  0.55666100  0.77649300  0.69805700  1
  Ni  Ni17  1  0.05666100  0.22350700  0.30194300  1
  Cu  Cu18  1  0.15331300  0.50295600  0.98127700  1
  Cu  Cu19  1  0.65331300  0.49704400  0.01872300  1
  Cu  Cu20  1  0.84672400  0.49771900  0.01875600  1
  Cu  Cu21  1  0.34672400  0.50228100  0.98124400  1
  Cu  Cu22  1  0.24790100  0.84191700  0.27358500  1
  Cu  Cu23  1  0.74790100  0.15808300  0.72641500  1
  Cu  Cu24  1  0.24962600  0.15466800  0.58331900  1
  Cu  Cu25  1  0.74962600  0.84533200  0.41668100  1
  Cu  Cu26  1  0.50292700  0.11940800  0.20741700  1
  Cu  Cu27  1  0.00292700  0.88059200  0.79258300  1
  Cu  Cu28  1  0.50015500  0.88076100  0.79318100  1
  Cu  Cu29  1  0.00015500  0.11923900  0.20681900  1
  Cu  Cu30  1  0.25007500  0.44363200  0.48104700  1
  Cu  Cu31  1  0.75007500  0.55636800  0.51895300  1
  Cu  Cu32  1  0.50357700  0.31250500  0.40667800  1
  Cu  Cu33  1  0.00357700  0.68749500  0.59332200  1
  Cu  Cu34  1  0.49599900  0.68872600  0.59297600  1
  Cu  Cu35  1  0.99599900  0.31127400  0.40702400  1
  Cu  Cu36  1  0.26967300  0.99596200  0.00018800  1
  Cu  Cu37  1  0.76967300  0.00403800  0.99981200  1
