# generated using pymatgen
data_Cu2Ni2C17
_symmetry_space_group_name_H-M   'P 1'
_cell_length_a   5.28855200
_cell_length_b   7.92075267
_cell_length_c   8.18623360
_cell_angle_alpha   116.10062477
_cell_angle_beta   106.55184201
_cell_angle_gamma   85.36764641
_symmetry_Int_Tables_number   1
_chemical_formula_structural   Cu2Ni2C17
_chemical_formula_sum   'Cu2 Ni2 C17'
_cell_volume   294.78957233
_cell_formula_units_Z   1
loop_
 _symmetry_equiv_pos_site_id
 _symmetry_equiv_pos_as_xyz
  1  'x, y, z'
loop_
 _atom_site_type_symbol
 _atom_site_label
 _atom_site_symmetry_multiplicity
 _atom_site_fract_x
 _atom_site_fract_y
 _atom_site_fract_z
 _atom_site_occupancy
  C  C0  1  0.08136100  0.25324300  0.98460000  1
  C  C1  1  0.91863900  0.74675700  0.01540000  1
  C  C2  1  0.00000000  0.00000000  0.50000000  1
  Ni  Ni3  1  0.51584300  0.27290600  0.66269900  1
  Ni  Ni4  1  0.48415700  0.72709400  0.33730100  1
  Cu  Cu5  1  0.76085100  0.24615300  0.24974800  1
  Cu  Cu6  1  0.23914900  0.75384700  0.75025200  1
  C  C7  1  0.88974500  0.40798400  0.25236200  1
  C  C8  1  0.11025500  0.59201600  0.74763800  1
  C  C9  1  0.86926200  0.23046000  0.42993400  1
  C  C10  1  0.13073800  0.76954000  0.57006600  1
  C  C11  1  0.47154100  0.26807900  0.21730200  1
  C  C12  1  0.52845900  0.73192100  0.78269800  1
  C  C13  1  0.82210800  0.07627100  0.08781200  1
  C  C14  1  0.17789200  0.92372900  0.91218800  1
  C  C15  1  0.75180400  0.43963100  0.89554600  1
  C  C16  1  0.24819600  0.56036900  0.10445400  1
  C  C17  1  0.27505300  0.19492800  0.75238400  1
  C  C18  1  0.72494700  0.80507200  0.24761600  1
  C  C19  1  0.75106900  0.07669900  0.66796100  1
  C  C20  1  0.24893100  0.92330100  0.33203900  1
