# generated using pymatgen
data_Cu5NiC2
_symmetry_space_group_name_H-M   'P 1'
_cell_length_a   7.45362600
_cell_length_b   8.24695000
_cell_length_c   11.69213836
_cell_angle_alpha   89.81286932
_cell_angle_beta   90.00000000
_cell_angle_gamma   90.00000000
_symmetry_Int_Tables_number   1
_chemical_formula_structural   Cu5NiC2
_chemical_formula_sum   'Cu20 Ni4 C8'
_cell_volume   718.70818125
_cell_formula_units_Z   4
loop_
 _symmetry_equiv_pos_site_id
 _symmetry_equiv_pos_as_xyz
  1  'x, y, z'
loop_
 _atom_site_type_symbol
 _atom_site_label
 _atom_site_symmetry_multiplicity
 _atom_site_fract_x
 _atom_site_fract_y
 _atom_site_fract_z
 _atom_site_occupancy
  C  C0  1  0.01956800  0.49811100  0.31775200  1
  C  C1  1  0.51956800  0.50188900  0.18224800  1
  C  C2  1  0.98043200  0.50188900  0.68224800  1
  C  C3  1  0.48043200  0.49811100  0.81775200  1
  C  C4  1  0.07546200  0.74353100  0.00728800  1
  C  C5  1  0.57546200  0.25646900  0.49271200  1
  C  C6  1  0.92453800  0.25646900  0.99271200  1
  C  C7  1  0.42453800  0.74353100  0.50728800  1
  Ni  Ni8  1  0.01384500  0.99070600  0.32341200  1
  Ni  Ni9  1  0.51384500  0.00929400  0.17658800  1
  Ni  Ni10  1  0.98615500  0.00929400  0.67658800  1
  Ni  Ni11  1  0.48615500  0.99070600  0.82341200  1
  Cu  Cu12  1  0.16349100  0.45275800  0.09770800  1
  Cu  Cu13  1  0.66349100  0.54724200  0.40229200  1
  Cu  Cu14  1  0.83650900  0.54724200  0.90229200  1
  Cu  Cu15  1  0.33650900  0.45275800  0.59770800  1
  Cu  Cu16  1  0.45340000  0.71590800  0.00122900  1
  Cu  Cu17  1  0.95340000  0.28409200  0.49877100  1
  Cu  Cu18  1  0.54660000  0.28409200  0.99877100  1
  Cu  Cu19  1  0.04660000  0.71590800  0.50122900  1
  Cu  Cu20  1  0.33622700  0.28072100  0.31563200  1
  Cu  Cu21  1  0.83622700  0.71927900  0.18436800  1
  Cu  Cu22  1  0.66377300  0.71927900  0.68436800  1
  Cu  Cu23  1  0.16377300  0.28072100  0.81563200  1
  Cu  Cu24  1  0.65968700  0.96177400  0.41385300  1
  Cu  Cu25  1  0.15968700  0.03822600  0.08614700  1
  Cu  Cu26  1  0.34031300  0.03822600  0.58614700  1
  Cu  Cu27  1  0.84031300  0.96177400  0.91385300  1
  Cu  Cu28  1  0.30471900  0.72887400  0.28277000  1
  Cu  Cu29  1  0.80471900  0.27112600  0.21723000  1
  Cu  Cu30  1  0.69528100  0.27112600  0.71723000  1
  Cu  Cu31  1  0.19528100  0.72887400  0.78277000  1
