# generated using pymatgen
data_CuNiC
_symmetry_space_group_name_H-M   'P 1'
_cell_length_a   6.01289400
_cell_length_b   6.01289400
_cell_length_c   6.01289400
_cell_angle_alpha   90.00000000
_cell_angle_beta   90.00000000
_cell_angle_gamma   90.00000000
_symmetry_Int_Tables_number   1
_chemical_formula_structural   CuNiC
_chemical_formula_sum   'Cu4 Ni4 C4'
_cell_volume   217.39554674
_cell_formula_units_Z   4
loop_
 _symmetry_equiv_pos_site_id
 _symmetry_equiv_pos_as_xyz
  1  'x, y, z'
loop_
 _atom_site_type_symbol
 _atom_site_label
 _atom_site_symmetry_multiplicity
 _atom_site_fract_x
 _atom_site_fract_y
 _atom_site_fract_z
 _atom_site_occupancy
  Ni  Ni0  1  0.11953500  0.88046500  0.38046500  1
  Ni  Ni1  1  0.88046500  0.38046500  0.11953500  1
  Ni  Ni2  1  0.38046500  0.11953500  0.88046500  1
  Ni  Ni3  1  0.61953500  0.61953500  0.61953500  1
  C  C4  1  0.50491900  0.49508100  0.99508100  1
  C  C5  1  0.49508100  0.99508100  0.50491900  1
  C  C6  1  0.99508100  0.50491900  0.49508100  1
  C  C7  1  0.00491900  0.00491900  0.00491900  1
  Cu  Cu8  1  0.88242500  0.11757500  0.61757500  1
  Cu  Cu9  1  0.11757500  0.61757500  0.88242500  1
  Cu  Cu10  1  0.61757500  0.88242500  0.11757500  1
  Cu  Cu11  1  0.38242500  0.38242500  0.38242500  1
