# generated using pymatgen
data_CuNiC7
_symmetry_space_group_name_H-M   'P 1'
_cell_length_a   6.85030322
_cell_length_b   6.85030322
_cell_length_c   7.60034485
_cell_angle_alpha   62.95567436
_cell_angle_beta   62.95567436
_cell_angle_gamma   89.48860801
_symmetry_Int_Tables_number   1
_chemical_formula_structural   CuNiC7
_chemical_formula_sum   'Cu2 Ni2 C14'
_cell_volume   273.98809461
_cell_formula_units_Z   2
loop_
 _symmetry_equiv_pos_site_id
 _symmetry_equiv_pos_as_xyz
  1  'x, y, z'
loop_
 _atom_site_type_symbol
 _atom_site_label
 _atom_site_symmetry_multiplicity
 _atom_site_fract_x
 _atom_site_fract_y
 _atom_site_fract_z
 _atom_site_occupancy
  Ni  Ni0  1  0.25000000  0.25000000  0.50000000  1
  Ni  Ni1  1  0.75000000  0.75000000  0.50000000  1
  C  C2  1  0.67583700  0.17583700  0.00000000  1
  C  C3  1  0.32416300  0.82416300  0.00000000  1
  Cu  Cu4  1  0.82523000  0.67477000  0.00000000  1
  Cu  Cu5  1  0.17477000  0.32523000  0.00000000  1
  C  C6  1  0.75018900  0.25018900  0.49962300  1
  C  C7  1  0.24981100  0.74981100  0.50037700  1
  C  C8  1  0.51468400  0.72238900  0.26292700  1
  C  C9  1  0.22238900  0.01468400  0.26292700  1
  C  C10  1  0.72241400  0.22241400  0.26526300  1
  C  C11  1  0.01232300  0.51232300  0.26526300  1
  C  C12  1  0.48531600  0.27761100  0.73707300  1
  C  C13  1  0.77761100  0.98531600  0.73707300  1
  C  C14  1  0.27758500  0.77758600  0.73473700  1
  C  C15  1  0.98767700  0.48767700  0.73473700  1
  C  C16  1  0.50000000  0.50000000  0.00000000  1
  C  C17  1  0.00000000  0.00000000  0.00000000  1
