# generated using pymatgen
data_Cu10Ni5C7
_symmetry_space_group_name_H-M   'P 1'
_cell_length_a   8.03666632
_cell_length_b   8.03666632
_cell_length_c   13.59025018
_cell_angle_alpha   82.30885790
_cell_angle_beta   82.30885790
_cell_angle_gamma   29.62449222
_symmetry_Int_Tables_number   1
_chemical_formula_structural   Cu10Ni5C7
_chemical_formula_sum   'Cu10 Ni5 C7'
_cell_volume   429.71453995
_cell_formula_units_Z   1
loop_
 _symmetry_equiv_pos_site_id
 _symmetry_equiv_pos_as_xyz
  1  'x, y, z'
loop_
 _atom_site_type_symbol
 _atom_site_label
 _atom_site_symmetry_multiplicity
 _atom_site_fract_x
 _atom_site_fract_y
 _atom_site_fract_z
 _atom_site_occupancy
  C  C0  1  0.00000000  0.00000000  0.00000000  1
  C  C1  1  0.78399300  0.78399300  0.80399500  1
  C  C2  1  0.21600700  0.21600700  0.19600500  1
  C  C3  1  0.16209700  0.16209700  0.49491800  1
  C  C4  1  0.83790300  0.83790300  0.50508200  1
  C  C5  1  0.47282900  0.47282900  0.77036400  1
  C  C6  1  0.52717100  0.52717100  0.22963600  1
  Ni  Ni7  1  0.15002300  0.15002300  0.72733600  1
  Ni  Ni8  1  0.84997700  0.84997700  0.27266400  1
  Ni  Ni9  1  0.50000000  0.50000000  0.50000000  1
  Ni  Ni10  1  0.17480600  0.17480600  0.97556600  1
  Ni  Ni11  1  0.82519400  0.82519400  0.02443400  1
  Cu  Cu12  1  0.29236500  0.29236500  0.50058700  1
  Cu  Cu13  1  0.70763500  0.70763500  0.49941300  1
  Cu  Cu14  1  0.16684000  0.16684000  0.35803800  1
  Cu  Cu15  1  0.83316000  0.83316000  0.64196200  1
  Cu  Cu16  1  0.34656200  0.34656200  0.79648000  1
  Cu  Cu17  1  0.65343800  0.65343800  0.20352000  1
  Cu  Cu18  1  0.50422600  0.50422600  0.90074400  1
  Cu  Cu19  1  0.49577400  0.49577400  0.09925600  1
  Cu  Cu20  1  0.06138500  0.06138500  0.20137900  1
  Cu  Cu21  1  0.93861500  0.93861500  0.79862100  1
