# generated using pymatgen
data_Cu(NiC2)2
_symmetry_space_group_name_H-M   'P 1'
_cell_length_a   5.39871100
_cell_length_b   3.58790700
_cell_length_c   21.61576118
_cell_angle_alpha   83.69889773
_cell_angle_beta   90.00000000
_cell_angle_gamma   90.00000000
_symmetry_Int_Tables_number   1
_chemical_formula_structural   Cu(NiC2)2
_chemical_formula_sum   'Cu4 Ni8 C16'
_cell_volume   416.16944665
_cell_formula_units_Z   4
loop_
 _symmetry_equiv_pos_site_id
 _symmetry_equiv_pos_as_xyz
  1  'x, y, z'
loop_
 _atom_site_type_symbol
 _atom_site_label
 _atom_site_symmetry_multiplicity
 _atom_site_fract_x
 _atom_site_fract_y
 _atom_site_fract_z
 _atom_site_occupancy
  C  C0  1  0.20100700  0.69091100  0.29769400  1
  C  C1  1  0.70100700  0.30908900  0.20230600  1
  C  C2  1  0.79899300  0.30908900  0.70230600  1
  C  C3  1  0.29899300  0.69091100  0.79769400  1
  Ni  Ni4  1  0.00287400  0.23924700  0.07641700  1
  Ni  Ni5  1  0.50287400  0.76075300  0.42358300  1
  Ni  Ni6  1  0.99712600  0.76075300  0.92358300  1
  Ni  Ni7  1  0.49712600  0.23924700  0.57641700  1
  Ni  Ni8  1  0.20926300  0.88618500  0.16066200  1
  Ni  Ni9  1  0.70926300  0.11381500  0.33933800  1
  Ni  Ni10  1  0.79073700  0.11381500  0.83933800  1
  Ni  Ni11  1  0.29073700  0.88618500  0.66066200  1
  Cu  Cu12  1  0.18823000  0.08403900  0.09916700  1
  Cu  Cu13  1  0.68823000  0.91596100  0.40083300  1
  Cu  Cu14  1  0.81177000  0.91596100  0.90083300  1
  Cu  Cu15  1  0.31177000  0.08403900  0.59916700  1
  C  C16  1  0.83255800  0.40188400  0.05238800  1
  C  C17  1  0.33255800  0.59811600  0.44761200  1
  C  C18  1  0.16744200  0.59811600  0.94761200  1
  C  C19  1  0.66744200  0.40188400  0.55238800  1
  C  C20  1  0.42563400  0.81382500  0.17999400  1
  C  C21  1  0.92563400  0.18617500  0.32000600  1
  C  C22  1  0.57436600  0.18617500  0.82000600  1
  C  C23  1  0.07436600  0.81382500  0.67999400  1
  C  C24  1  0.00958100  0.80632800  0.19054900  1
  C  C25  1  0.50958100  0.19367200  0.30945100  1
  C  C26  1  0.99041900  0.19367200  0.80945100  1
  C  C27  1  0.49041900  0.80632800  0.69054900  1
