# generated using pymatgen
data_Cu2NiC
_symmetry_space_group_name_H-M   'P 1'
_cell_length_a   5.71241500
_cell_length_b   6.98319200
_cell_length_c   7.57890500
_cell_angle_alpha   90.00000000
_cell_angle_beta   90.00000000
_cell_angle_gamma   90.00000000
_symmetry_Int_Tables_number   1
_chemical_formula_structural   Cu2NiC
_chemical_formula_sum   'Cu8 Ni4 C4'
_cell_volume   302.32927120
_cell_formula_units_Z   4
loop_
 _symmetry_equiv_pos_site_id
 _symmetry_equiv_pos_as_xyz
  1  'x, y, z'
loop_
 _atom_site_type_symbol
 _atom_site_label
 _atom_site_symmetry_multiplicity
 _atom_site_fract_x
 _atom_site_fract_y
 _atom_site_fract_z
 _atom_site_occupancy
  C  C0  1  0.14474100  0.75000000  0.52856900  1
  C  C1  1  0.85525900  0.25000000  0.47143100  1
  C  C2  1  0.64474100  0.25000000  0.97143100  1
  C  C3  1  0.35525900  0.75000000  0.02856900  1
  Ni  Ni4  1  0.85279900  0.75000000  0.87286700  1
  Ni  Ni5  1  0.14720100  0.25000000  0.12713300  1
  Ni  Ni6  1  0.35279900  0.25000000  0.62713300  1
  Ni  Ni7  1  0.64720100  0.75000000  0.37286700  1
  Cu  Cu8  1  0.59225300  0.55263200  0.67430100  1
  Cu  Cu9  1  0.40774700  0.44736800  0.32569900  1
  Cu  Cu10  1  0.09225300  0.44736800  0.82569900  1
  Cu  Cu11  1  0.40774700  0.05263200  0.32569900  1
  Cu  Cu12  1  0.90774700  0.55263200  0.17430100  1
  Cu  Cu13  1  0.59225300  0.94736800  0.67430100  1
  Cu  Cu14  1  0.90774700  0.94736800  0.17430100  1
  Cu  Cu15  1  0.09225300  0.05263200  0.82569900  1
