# generated using pymatgen
data_Cu4Ni3C
_symmetry_space_group_name_H-M   'P 1'
_cell_length_a   6.85766200
_cell_length_b   11.44507500
_cell_length_c   13.00427600
_cell_angle_alpha   90.00000000
_cell_angle_beta   90.00000000
_cell_angle_gamma   90.00000000
_symmetry_Int_Tables_number   1
_chemical_formula_structural   Cu4Ni3C
_chemical_formula_sum   'Cu32 Ni24 C8'
_cell_volume   1020.65953498
_cell_formula_units_Z   8
loop_
 _symmetry_equiv_pos_site_id
 _symmetry_equiv_pos_as_xyz
  1  'x, y, z'
loop_
 _atom_site_type_symbol
 _atom_site_label
 _atom_site_symmetry_multiplicity
 _atom_site_fract_x
 _atom_site_fract_y
 _atom_site_fract_z
 _atom_site_occupancy
  C  C0  1  0.78203500  0.62286200  0.97516900  1
  C  C1  1  0.28203500  0.87713800  0.02483100  1
  C  C2  1  0.21796500  0.12286200  0.52483100  1
  C  C3  1  0.71796500  0.37713800  0.47516900  1
  C  C4  1  0.24478500  0.58484400  0.68886300  1
  C  C5  1  0.74478500  0.91515600  0.31113700  1
  C  C6  1  0.75521500  0.08484400  0.81113700  1
  C  C7  1  0.25521500  0.41515600  0.18886300  1
  Ni  Ni8  1  0.01766400  0.49653600  0.76599800  1
  Ni  Ni9  1  0.51766400  0.00346400  0.23400200  1
  Ni  Ni10  1  0.98233600  0.99653600  0.73400200  1
  Ni  Ni11  1  0.48233600  0.50346400  0.26599800  1
  Ni  Ni12  1  0.26020100  0.69492700  0.81177200  1
  Ni  Ni13  1  0.76020100  0.80507300  0.18822800  1
  Ni  Ni14  1  0.73979900  0.19492700  0.68822800  1
  Ni  Ni15  1  0.23979900  0.30507300  0.31177200  1
  Ni  Ni16  1  0.48190200  0.66604000  0.61044900  1
  Ni  Ni17  1  0.98190200  0.83396000  0.38955100  1
  Ni  Ni18  1  0.51809800  0.16604000  0.88955100  1
  Ni  Ni19  1  0.01809800  0.33396000  0.11044900  1
  Ni  Ni20  1  0.21538900  0.46716300  0.57298400  1
  Ni  Ni21  1  0.71538900  0.03283700  0.42701600  1
  Ni  Ni22  1  0.78461100  0.96716300  0.92701600  1
  Ni  Ni23  1  0.28461100  0.53283700  0.07298400  1
  Ni  Ni24  1  0.41224800  0.49668100  0.74785400  1
  Ni  Ni25  1  0.91224800  0.00331900  0.25214600  1
  Ni  Ni26  1  0.58775200  0.99668100  0.75214600  1
  Ni  Ni27  1  0.08775200  0.50331900  0.24785400  1
  Ni  Ni28  1  0.08963900  0.67606800  0.62733900  1
  Ni  Ni29  1  0.58963900  0.82393200  0.37266100  1
  Ni  Ni30  1  0.91036100  0.17606800  0.87266100  1
  Ni  Ni31  1  0.41036100  0.32393200  0.12733900  1
  Cu  Cu32  1  0.85888500  0.48885500  0.72266700  1
  Cu  Cu33  1  0.35888500  0.01114500  0.27733300  1
  Cu  Cu34  1  0.14111500  0.98885500  0.77733300  1
  Cu  Cu35  1  0.64111500  0.51114500  0.22266700  1
  Cu  Cu36  1  0.05299200  0.46154600  0.85374600  1
  Cu  Cu37  1  0.55299200  0.03845400  0.14625400  1
  Cu  Cu38  1  0.94700800  0.96154600  0.64625400  1
  Cu  Cu39  1  0.44700800  0.53845400  0.35374600  1
  Cu  Cu40  1  0.41959200  0.71118100  0.85394600  1
  Cu  Cu41  1  0.91959200  0.78881900  0.14605400  1
  Cu  Cu42  1  0.58040800  0.21118100  0.64605400  1
  Cu  Cu43  1  0.08040800  0.28881900  0.35394600  1
  Cu  Cu44  1  0.10699900  0.73976900  0.84495300  1
  Cu  Cu45  1  0.60699900  0.76023100  0.15504700  1
  Cu  Cu46  1  0.89300100  0.23976900  0.65504700  1
  Cu  Cu47  1  0.39300100  0.26023100  0.34495300  1
  Cu  Cu48  1  0.48776200  0.77232300  0.61493600  1
  Cu  Cu49  1  0.98776200  0.72767700  0.38506400  1
  Cu  Cu50  1  0.51223800  0.27232300  0.88506400  1
  Cu  Cu51  1  0.01223800  0.22767700  0.11493600  1
  Cu  Cu52  1  0.59764400  0.60120200  0.56634900  1
  Cu  Cu53  1  0.09764400  0.89879800  0.43365100  1
  Cu  Cu54  1  0.40235600  0.10120200  0.93365100  1
  Cu  Cu55  1  0.90235600  0.39879800  0.06634900  1
  Cu  Cu56  1  0.08570100  0.48417700  0.50889200  1
  Cu  Cu57  1  0.58570100  0.01582300  0.49110800  1
  Cu  Cu58  1  0.91429900  0.98417700  0.99110800  1
  Cu  Cu59  1  0.41429900  0.51582300  0.00889200  1
  Cu  Cu60  1  0.32320500  0.37996300  0.57161300  1
  Cu  Cu61  1  0.82320500  0.12003700  0.42838700  1
  Cu  Cu62  1  0.67679500  0.87996300  0.92838700  1
  Cu  Cu63  1  0.17679500  0.62003700  0.07161300  1
