# generated using pymatgen
data_Cu4NiC9
_symmetry_space_group_name_H-M   'P 1'
_cell_length_a   6.86470435
_cell_length_b   6.86470435
_cell_length_c   6.86470435
_cell_angle_alpha   60.00000000
_cell_angle_beta   60.00000000
_cell_angle_gamma   60.00000000
_symmetry_Int_Tables_number   1
_chemical_formula_structural   Cu4NiC9
_chemical_formula_sum   'Cu4 Ni1 C9'
_cell_volume   228.74442397
_cell_formula_units_Z   1
loop_
 _symmetry_equiv_pos_site_id
 _symmetry_equiv_pos_as_xyz
  1  'x, y, z'
loop_
 _atom_site_type_symbol
 _atom_site_label
 _atom_site_symmetry_multiplicity
 _atom_site_fract_x
 _atom_site_fract_y
 _atom_site_fract_z
 _atom_site_occupancy
  C  C0  1  0.25000000  0.25000000  0.25000000  1
  Ni  Ni1  1  0.00000000  0.00000000  0.00000000  1
  Cu  Cu2  1  0.62599300  0.62599300  0.12202200  1
  Cu  Cu3  1  0.62599300  0.12202200  0.62599300  1
  Cu  Cu4  1  0.12202200  0.62599300  0.62599300  1
  Cu  Cu5  1  0.62599300  0.62599300  0.62599300  1
  C  C6  1  0.87187800  0.87187800  0.38436600  1
  C  C7  1  0.87187800  0.38436600  0.87187800  1
  C  C8  1  0.38436600  0.87187800  0.87187800  1
  C  C9  1  0.87187800  0.87187800  0.87187800  1
  C  C10  1  0.37847800  0.37847800  0.86456600  1
  C  C11  1  0.37847800  0.86456600  0.37847800  1
  C  C12  1  0.86456600  0.37847800  0.37847800  1
  C  C13  1  0.37847800  0.37847800  0.37847800  1
