# generated using pymatgen
data_Cu4Ni28C9
_symmetry_space_group_name_H-M   'P 1'
_cell_length_a   7.34879110
_cell_length_b   14.62616008
_cell_length_c   16.67481919
_cell_angle_alpha   90.00000000
_cell_angle_beta   90.00000000
_cell_angle_gamma   90.00000000
_symmetry_Int_Tables_number   1
_chemical_formula_structural   Cu4Ni28C9
_chemical_formula_sum   'Cu16 Ni112 C36'
_cell_volume   1792.28618772
_cell_formula_units_Z   4
loop_
 _symmetry_equiv_pos_site_id
 _symmetry_equiv_pos_as_xyz
  1  'x, y, z'
loop_
 _atom_site_type_symbol
 _atom_site_label
 _atom_site_symmetry_multiplicity
 _atom_site_fract_x
 _atom_site_fract_y
 _atom_site_fract_z
 _atom_site_occupancy
  C  C0  1  0.28883469  0.46160936  0.88880351  1
  C  C1  1  0.71116531  0.53839064  0.38880351  1
  C  C2  1  0.28883469  0.03839064  0.38880351  1
  C  C3  1  0.71116531  0.96160936  0.88880351  1
  C  C4  1  0.32223045  0.31166913  0.96785853  1
  C  C5  1  0.67776955  0.68833087  0.46785853  1
  C  C6  1  0.32223045  0.18833087  0.46785853  1
  C  C7  1  0.67776955  0.81166913  0.96785853  1
  C  C8  1  0.52757787  0.37605592  0.97370206  1
  C  C9  1  0.47242213  0.62394408  0.47370206  1
  C  C10  1  0.52757787  0.12394408  0.47370206  1
  C  C11  1  0.47242213  0.87605592  0.97370206  1
  C  C12  1  0.41346513  0.34163350  0.06395570  1
  C  C13  1  0.58653487  0.65836650  0.56395570  1
  C  C14  1  0.41346513  0.15836650  0.56395570  1
  C  C15  1  0.58653487  0.84163350  0.06395570  1
  C  C16  1  0.06230281  0.43795789  0.77309345  1
  C  C17  1  0.93769719  0.56204211  0.27309345  1
  C  C18  1  0.06230281  0.06204211  0.27309345  1
  C  C19  1  0.93769719  0.93795789  0.77309345  1
  C  C20  1  0.28057280  0.39516302  0.74659330  1
  C  C21  1  0.71942720  0.60483698  0.24659330  1
  C  C22  1  0.28057280  0.10483698  0.24659330  1
  C  C23  1  0.71942720  0.89516302  0.74659330  1
  C  C24  1  0.08579220  0.32160628  0.73982921  1
  C  C25  1  0.91420780  0.67839372  0.23982921  1
  C  C26  1  0.08579220  0.17839372  0.23982921  1
  C  C27  1  0.91420780  0.82160628  0.73982921  1
  Ni  Ni28  1  0.18750220  0.35200470  0.94230914  1
  Ni  Ni29  1  0.81249780  0.64799530  0.44230914  1
  Ni  Ni30  1  0.18750220  0.14799530  0.44230914  1
  Ni  Ni31  1  0.81249780  0.85200470  0.94230914  1
  Ni  Ni32  1  0.34477010  0.23845881  0.93650725  1
  Ni  Ni33  1  0.65522990  0.76154119  0.43650725  1
  Ni  Ni34  1  0.34477010  0.26154119  0.43650725  1
  Ni  Ni35  1  0.65522990  0.73845881  0.93650725  1
  Ni  Ni36  1  0.25671118  0.29212004  0.03604862  1
  Ni  Ni37  1  0.74328882  0.70787996  0.53604862  1
  Ni  Ni38  1  0.25671118  0.20787996  0.53604862  1
  Ni  Ni39  1  0.74328882  0.79212004  0.03604862  1
  Ni  Ni40  1  0.51938797  0.45617262  0.95158277  1
  Ni  Ni41  1  0.48061203  0.54382738  0.45158277  1
  Ni  Ni42  1  0.51938797  0.04382738  0.45158277  1
  Ni  Ni43  1  0.48061203  0.95617262  0.95158277  1
  Ni  Ni44  1  0.65529624  0.33592068  0.94541667  1
  Ni  Ni45  1  0.34470376  0.66407932  0.44541667  1
  Ni  Ni46  1  0.65529624  0.16407932  0.44541667  1
  Ni  Ni47  1  0.34470376  0.83592068  0.94541667  1
  Ni  Ni48  1  0.57648232  0.39254901  0.04507457  1
  Ni  Ni49  1  0.42351768  0.60745099  0.54507457  1
  Ni  Ni50  1  0.57648232  0.10745099  0.54507457  1
  Ni  Ni51  1  0.42351768  0.89254901  0.04507457  1
  Ni  Ni52  1  0.33531842  0.39962705  0.10205299  1
  Ni  Ni53  1  0.66468158  0.60037295  0.60205299  1
  Ni  Ni54  1  0.33531842  0.10037295  0.60205299  1
  Ni  Ni55  1  0.66468158  0.89962705  0.10205299  1
  Ni  Ni56  1  0.48426663  0.28064359  0.10111537  1
  Ni  Ni57  1  0.51573337  0.71935641  0.60111537  1
  Ni  Ni58  1  0.48426663  0.21935641  0.60111537  1
  Ni  Ni59  1  0.51573337  0.78064359  0.10111537  1
  Ni  Ni60  1  0.03743560  0.45323063  0.84493768  1
  Ni  Ni61  1  0.96256440  0.54676937  0.34493768  1
  Ni  Ni62  1  0.03743560  0.04676937  0.34493768  1
  Ni  Ni63  1  0.96256440  0.95323063  0.84493768  1
  Ni  Ni64  1  0.01469008  0.50024442  0.73082536  1
  Ni  Ni65  1  0.98530992  0.49975558  0.23082536  1
  Ni  Ni66  1  0.01469008  0.99975558  0.23082536  1
  Ni  Ni67  1  0.98530992  0.00024442  0.73082536  1
  Ni  Ni68  1  0.93684433  0.37952152  0.76545830  1
  Ni  Ni69  1  0.06315567  0.62047848  0.26545830  1
  Ni  Ni70  1  0.93684433  0.12047848  0.26545830  1
  Ni  Ni71  1  0.06315567  0.87952152  0.76545830  1
  Ni  Ni72  1  0.38874433  0.38386601  0.80200644  1
  Ni  Ni73  1  0.61125567  0.61613399  0.30200644  1
  Ni  Ni74  1  0.38874433  0.11613399  0.30200644  1
  Ni  Ni75  1  0.61125567  0.88386601  0.80200644  1
  Ni  Ni76  1  0.34557465  0.43673045  0.69131434  1
  Ni  Ni77  1  0.65442535  0.56326955  0.19131434  1
  Ni  Ni78  1  0.34557465  0.06326955  0.19131434  1
  Ni  Ni79  1  0.65442535  0.93673045  0.69131434  1
  Ni  Ni80  1  0.27668729  0.31311633  0.72202474  1
  Ni  Ni81  1  0.72331271  0.68688367  0.22202474  1
  Ni  Ni82  1  0.27668729  0.18688367  0.22202474  1
  Ni  Ni83  1  0.72331271  0.81311633  0.72202474  1
  Ni  Ni84  1  0.07116241  0.26244571  0.78974979  1
  Ni  Ni85  1  0.92883759  0.73755429  0.28974979  1
  Ni  Ni86  1  0.07116241  0.23755429  0.28974979  1
  Ni  Ni87  1  0.92883759  0.76244571  0.78974979  1
  Ni  Ni88  1  0.02797281  0.30434485  0.67388467  1
  Ni  Ni89  1  0.97202719  0.69565515  0.17388467  1
  Ni  Ni90  1  0.02797281  0.19565515  0.17388467  1
  Ni  Ni91  1  0.97202719  0.80434485  0.67388467  1
  Ni  Ni92  1  0.90953742  0.58955481  0.01064695  1
  Ni  Ni93  1  0.09046258  0.41044519  0.51064695  1
  Ni  Ni94  1  0.90953742  0.91044519  0.51064695  1
  Ni  Ni95  1  0.09046258  0.08955481  0.01064695  1
  Ni  Ni96  1  0.91580729  0.47420499  0.97308072  1
  Ni  Ni97  1  0.08419271  0.52579501  0.47308072  1
  Ni  Ni98  1  0.91580729  0.02579501  0.47308072  1
  Ni  Ni99  1  0.08419271  0.97420499  0.97308072  1
  Ni  Ni100  1  0.00220534  0.49930806  0.07166667  1
  Ni  Ni101  1  0.99779466  0.50069194  0.57166667  1
  Ni  Ni102  1  0.00220534  0.00069194  0.57166667  1
  Ni  Ni103  1  0.99779466  0.99930806  0.07166667  1
  Ni  Ni104  1  0.27973521  0.58228088  0.08433705  1
  Ni  Ni105  1  0.72026479  0.41771912  0.58433705  1
  Ni  Ni106  1  0.27973521  0.91771912  0.58433705  1
  Ni  Ni107  1  0.72026479  0.08228088  0.08433705  1
  Ni  Ni108  1  0.39067744  0.62315909  0.99489490  1
  Ni  Ni109  1  0.60932256  0.37684091  0.49489490  1
  Ni  Ni110  1  0.39067744  0.87684091  0.49489490  1
  Ni  Ni111  1  0.60932256  0.12315909  0.99489490  1
  Ni  Ni112  1  0.17826218  0.67228890  0.02550882  1
  Ni  Ni113  1  0.82173782  0.32771110  0.52550882  1
  Ni  Ni114  1  0.17826218  0.82771110  0.52550882  1
  Ni  Ni115  1  0.82173782  0.17228890  0.02550882  1
  Ni  Ni116  1  0.29297063  0.63925476  0.74301991  1
  Ni  Ni117  1  0.70702937  0.36074524  0.24301991  1
  Ni  Ni118  1  0.29297063  0.86074524  0.24301991  1
  Ni  Ni119  1  0.70702937  0.13925476  0.74301991  1
  Ni  Ni120  1  0.18584388  0.65645922  0.83868640  1
  Ni  Ni121  1  0.81415612  0.34354078  0.33868640  1
  Ni  Ni122  1  0.18584388  0.84354078  0.33868640  1
  Ni  Ni123  1  0.81415612  0.15645922  0.83868640  1
  Ni  Ni124  1  0.39536340  0.71409577  0.81670724  1
  Ni  Ni125  1  0.60463660  0.28590423  0.31670724  1
  Ni  Ni126  1  0.39536340  0.78590423  0.31670724  1
  Ni  Ni127  1  0.60463660  0.21409577  0.81670724  1
  Ni  Ni128  1  0.66426478  0.63730547  0.81722334  1
  Ni  Ni129  1  0.33573522  0.36269453  0.31722334  1
  Ni  Ni130  1  0.66426478  0.86269453  0.31722334  1
  Ni  Ni131  1  0.33573522  0.13730547  0.81722334  1
  Ni  Ni132  1  0.67254034  0.51655045  0.83681028  1
  Ni  Ni133  1  0.32745966  0.48344955  0.33681028  1
  Ni  Ni134  1  0.67254034  0.98344955  0.33681028  1
  Ni  Ni135  1  0.32745966  0.01655045  0.83681028  1
  Ni  Ni136  1  0.58762048  0.55719592  0.74211683  1
  Ni  Ni137  1  0.41237952  0.44280408  0.24211683  1
  Ni  Ni138  1  0.58762048  0.94280408  0.24211683  1
  Ni  Ni139  1  0.41237952  0.05719592  0.74211683  1
  Cu  Cu140  1  0.98625085  0.52494003  0.00997459  1
  Cu  Cu141  1  0.01374915  0.47505997  0.50997459  1
  Cu  Cu142  1  0.98625085  0.97505997  0.50997459  1
  Cu  Cu143  1  0.01374915  0.02494003  0.00997459  1
  Cu  Cu144  1  0.25979149  0.60921066  0.02332640  1
  Cu  Cu145  1  0.74020851  0.39078934  0.52332640  1
  Cu  Cu146  1  0.25979149  0.89078934  0.52332640  1
  Cu  Cu147  1  0.74020851  0.10921066  0.02332640  1
  Cu  Cu148  1  0.31590563  0.65118738  0.80740490  1
  Cu  Cu149  1  0.68409437  0.34881262  0.30740490  1
  Cu  Cu150  1  0.31590563  0.84881262  0.30740490  1
  Cu  Cu151  1  0.68409437  0.15118738  0.80740490  1
  Cu  Cu152  1  0.59720367  0.57122440  0.80688886  1
  Cu  Cu153  1  0.40279633  0.42877560  0.30688886  1
  Cu  Cu154  1  0.59720367  0.92877560  0.30688886  1
  Cu  Cu155  1  0.40279633  0.07122440  0.80688886  1
  C  C156  1  0.16378749  0.54194419  0.97566908  1
  C  C157  1  0.83621251  0.45805581  0.47566908  1
  C  C158  1  0.16378749  0.95805581  0.47566908  1
  C  C159  1  0.83621251  0.04194419  0.97566908  1
  C  C160  1  0.41652485  0.57537613  0.84118258  1
  C  C161  1  0.58347515  0.42462387  0.34118258  1
  C  C162  1  0.41652485  0.92462387  0.34118258  1
  C  C163  1  0.58347515  0.07537613  0.84118258  1
