# generated using pymatgen
data_CuNiC4
_symmetry_space_group_name_H-M   'P 1'
_cell_length_a   3.34190557
_cell_length_b   3.34190557
_cell_length_c   38.04295900
_cell_angle_alpha   90.00000000
_cell_angle_beta   90.00000000
_cell_angle_gamma   119.99999155
_symmetry_Int_Tables_number   1
_chemical_formula_structural   CuNiC4
_chemical_formula_sum   'Cu2 Ni2 C8'
_cell_volume   367.95381237
_cell_formula_units_Z   2
loop_
 _symmetry_equiv_pos_site_id
 _symmetry_equiv_pos_as_xyz
  1  'x, y, z'
loop_
 _atom_site_type_symbol
 _atom_site_label
 _atom_site_symmetry_multiplicity
 _atom_site_fract_x
 _atom_site_fract_y
 _atom_site_fract_z
 _atom_site_occupancy
  C  C0  1  0.33333300  0.66666700  0.04404000  1
  C  C1  1  0.33333300  0.66666700  0.14375100  1
  Ni  Ni2  1  0.00000000  0.00000000  0.09387100  1
  Ni  Ni3  1  0.33333300  0.66666700  0.28182800  1
  Cu  Cu4  1  0.00000000  0.00000000  0.46965700  1
  Cu  Cu5  1  0.33333300  0.66666700  0.65754400  1
  C  C6  1  0.00000000  0.00000000  0.32565000  1
  C  C7  1  0.00000000  0.00000000  0.70155800  1
  C  C8  1  0.00000000  0.00000000  0.23801800  1
  C  C9  1  0.00000000  0.00000000  0.61350700  1
  C  C10  1  0.33333300  0.66666700  0.42964600  1
  C  C11  1  0.33333300  0.66666700  0.50967700  1
