# generated using pymatgen
data_Cu7(NiC2)3
_symmetry_space_group_name_H-M   'P 1'
_cell_length_a   11.26289293
_cell_length_b   11.26289293
_cell_length_c   11.26289293
_cell_angle_alpha   114.37100328
_cell_angle_beta   114.37100328
_cell_angle_gamma   100.06195800
_symmetry_Int_Tables_number   1
_chemical_formula_structural   Cu7(NiC2)3
_chemical_formula_sum   'Cu28 Ni12 C24'
_cell_volume   1078.12507775
_cell_formula_units_Z   4
loop_
 _symmetry_equiv_pos_site_id
 _symmetry_equiv_pos_as_xyz
  1  'x, y, z'
loop_
 _atom_site_type_symbol
 _atom_site_label
 _atom_site_symmetry_multiplicity
 _atom_site_fract_x
 _atom_site_fract_y
 _atom_site_fract_z
 _atom_site_occupancy
  C  C0  1  0.42101100  0.92101100  0.84202100  1
  C  C1  1  0.67101100  0.32898900  0.00000000  1
  C  C2  1  0.32898900  0.67101100  0.00000000  1
  C  C3  1  0.07898900  0.57898900  0.15797900  1
  C  C4  1  0.32898900  0.32898900  0.65797900  1
  C  C5  1  0.07898900  0.92101100  0.50000000  1
  C  C6  1  0.42101100  0.57898900  0.50000000  1
  C  C7  1  0.67101100  0.67101100  0.34202100  1
  C  C8  1  0.71810500  0.98114800  0.26304300  1
  C  C9  1  0.71810500  0.45506200  0.73695700  1
  C  C10  1  0.01885200  0.28189500  0.73695700  1
  C  C11  1  0.20506200  0.96810500  0.23695700  1
  C  C12  1  0.73114800  0.96810500  0.76304300  1
  C  C13  1  0.03189500  0.79493800  0.76304300  1
  C  C14  1  0.03189500  0.26885200  0.23695700  1
  C  C15  1  0.54493800  0.28189500  0.26304300  1
  C  C16  1  0.47280900  0.84935300  0.37654400  1
  C  C17  1  0.47280900  0.09626400  0.62345600  1
  C  C18  1  0.15064700  0.52719100  0.62345600  1
  C  C19  1  0.84626400  0.72280900  0.12345600  1
  C  C20  1  0.59935300  0.72280900  0.87654400  1
  C  C21  1  0.27719100  0.15373600  0.87654400  1
  C  C22  1  0.27719100  0.40064700  0.12345600  1
  C  C23  1  0.90373600  0.52719100  0.37654400  1
  Ni  Ni24  1  0.37500000  0.97591600  0.10091600  1
  Ni  Ni25  1  0.72591600  0.12500000  0.10091600  1
  Ni  Ni26  1  0.02408400  0.62500000  0.89908400  1
  Ni  Ni27  1  0.87500000  0.27408400  0.89908400  1
  Ni  Ni28  1  0.37500000  0.27408400  0.39908400  1
  Ni  Ni29  1  0.02408400  0.12500000  0.39908400  1
  Ni  Ni30  1  0.72591600  0.62500000  0.60091600  1
  Ni  Ni31  1  0.87500000  0.97591600  0.60091600  1
  Ni  Ni32  1  0.00000000  0.00000000  0.00000000  1
  Ni  Ni33  1  0.75000000  0.25000000  0.50000000  1
  Ni  Ni34  1  0.25000000  0.75000000  0.50000000  1
  Ni  Ni35  1  0.50000000  0.50000000  0.00000000  1
  Cu  Cu36  1  0.54977100  0.82535100  0.27558000  1
  Cu  Cu37  1  0.54977100  0.27419000  0.72442000  1
  Cu  Cu38  1  0.17464900  0.45022900  0.72442000  1
  Cu  Cu39  1  0.02419000  0.79977100  0.22442000  1
  Cu  Cu40  1  0.57535100  0.79977100  0.77558000  1
  Cu  Cu41  1  0.20022900  0.97581000  0.77558000  1
  Cu  Cu42  1  0.20022900  0.42464900  0.22442000  1
  Cu  Cu43  1  0.72581000  0.45022900  0.27558000  1
  Cu  Cu44  1  0.51987600  0.01987600  0.50000000  1
  Cu  Cu45  1  0.76987600  0.76987600  0.00000000  1
  Cu  Cu46  1  0.23012400  0.23012400  0.00000000  1
  Cu  Cu47  1  0.98012400  0.48012400  0.50000000  1
  Cu  Cu48  1  0.21364800  0.47101300  0.02267900  1
  Cu  Cu49  1  0.44833400  0.19096900  0.97732100  1
  Cu  Cu50  1  0.52898700  0.78635200  0.97732100  1
  Cu  Cu51  1  0.94096900  0.46364800  0.24263500  1
  Cu  Cu52  1  0.22101300  0.69833400  0.75736500  1
  Cu  Cu53  1  0.53635200  0.05903100  0.75736500  1
  Cu  Cu54  1  0.30166600  0.77898700  0.24263500  1
  Cu  Cu55  1  0.80903100  0.55166600  0.02267900  1
  Cu  Cu56  1  0.53635200  0.77898700  0.47732100  1
  Cu  Cu57  1  0.30166600  0.05903100  0.52267900  1
  Cu  Cu58  1  0.22101300  0.46364800  0.52267900  1
  Cu  Cu59  1  0.80903100  0.78635200  0.25736500  1
  Cu  Cu60  1  0.52898700  0.55166600  0.74263500  1
  Cu  Cu61  1  0.21364800  0.19096900  0.74263500  1
  Cu  Cu62  1  0.44833400  0.47101300  0.25736500  1
  Cu  Cu63  1  0.94096900  0.69833400  0.47732100  1
