# generated using pymatgen
data_Cu2NiC7
_symmetry_space_group_name_H-M   'P 1'
_cell_length_a   5.43466180
_cell_length_b   5.43466180
_cell_length_c   4.27558400
_cell_angle_alpha   90.00000000
_cell_angle_beta   90.00000000
_cell_angle_gamma   143.08040085
_symmetry_Int_Tables_number   1
_chemical_formula_structural   Cu2NiC7
_chemical_formula_sum   'Cu2 Ni1 C7'
_cell_volume   75.85663871
_cell_formula_units_Z   1
loop_
 _symmetry_equiv_pos_site_id
 _symmetry_equiv_pos_as_xyz
  1  'x, y, z'
loop_
 _atom_site_type_symbol
 _atom_site_label
 _atom_site_symmetry_multiplicity
 _atom_site_fract_x
 _atom_site_fract_y
 _atom_site_fract_z
 _atom_site_occupancy
  C  C0  1  0.14193300  0.85806700  0.00000000  1
  Ni  Ni1  1  0.85868100  0.14131900  0.50000000  1
  Cu  Cu2  1  0.56575300  0.43424700  0.50000000  1
  Cu  Cu3  1  0.42711800  0.57288200  0.00000000  1
  C  C4  1  0.69348200  0.30651800  0.74284500  1
  C  C5  1  0.31621600  0.68378400  0.72621700  1
  C  C6  1  0.69348200  0.30651800  0.25715500  1
  C  C7  1  0.31621600  0.68378400  0.27378300  1
  C  C8  1  0.06012800  0.93987200  0.50000000  1
  C  C9  1  0.92699000  0.07301000  0.00000000  1
