# generated using pymatgen
data_Cu3NiC9
_symmetry_space_group_name_H-M   'P 1'
_cell_length_a   7.13041500
_cell_length_b   7.33721642
_cell_length_c   7.60503280
_cell_angle_alpha   115.87394874
_cell_angle_beta   110.05537493
_cell_angle_gamma   97.30001156
_symmetry_Int_Tables_number   1
_chemical_formula_structural   Cu3NiC9
_chemical_formula_sum   'Cu6 Ni2 C18'
_cell_volume   317.74922109
_cell_formula_units_Z   2
loop_
 _symmetry_equiv_pos_site_id
 _symmetry_equiv_pos_as_xyz
  1  'x, y, z'
loop_
 _atom_site_type_symbol
 _atom_site_label
 _atom_site_symmetry_multiplicity
 _atom_site_fract_x
 _atom_site_fract_y
 _atom_site_fract_z
 _atom_site_occupancy
  C  C0  1  0.84963900  0.97055900  0.75134400  1
  C  C1  1  0.15036100  0.02944100  0.24865600  1
  Ni  Ni2  1  0.79962500  0.30983000  0.83797200  1
  Ni  Ni3  1  0.20037500  0.69017000  0.16202800  1
  Cu  Cu4  1  0.62775700  0.76303300  0.45031400  1
  Cu  Cu5  1  0.37224300  0.23696700  0.54968600  1
  Cu  Cu6  1  0.75553000  0.64448800  0.17286000  1
  Cu  Cu7  1  0.24447000  0.35551200  0.82714000  1
  Cu  Cu8  1  0.70920500  0.20596500  0.22114200  1
  Cu  Cu9  1  0.29079500  0.79403500  0.77885800  1
  C  C10  1  0.72740300  0.98405400  0.44666700  1
  C  C11  1  0.27259700  0.01594600  0.55333300  1
  C  C12  1  0.62984600  0.18960800  0.68768800  1
  C  C13  1  0.37015400  0.81039200  0.31231200  1
  C  C14  1  0.05367300  0.24366700  0.88462500  1
  C  C15  1  0.94632700  0.75633300  0.11537500  1
  C  C16  1  0.72691800  0.69922200  0.33399800  1
  C  C17  1  0.27308200  0.30077800  0.66600200  1
  C  C18  1  0.83941400  0.17467700  0.11263700  1
  C  C19  1  0.16058600  0.82532300  0.88736300  1
  C  C20  1  0.79820100  0.38424900  0.29229600  1
  C  C21  1  0.20179900  0.61575100  0.70770400  1
  C  C22  1  0.54168600  0.73333800  0.94408300  1
  C  C23  1  0.45831400  0.26666200  0.05591700  1
  C  C24  1  0.71108500  0.58071900  0.70409300  1
  C  C25  1  0.28891500  0.41928100  0.29590700  1
