# generated using pymatgen
data_Cu4NiC26
_symmetry_space_group_name_H-M   'P 1'
_cell_length_a   7.02671897
_cell_length_b   7.60879151
_cell_length_c   7.92098554
_cell_angle_alpha   84.99383043
_cell_angle_beta   72.95202490
_cell_angle_gamma   85.31349978
_symmetry_Int_Tables_number   1
_chemical_formula_structural   Cu4NiC26
_chemical_formula_sum   'Cu4 Ni1 C26'
_cell_volume   402.64037447
_cell_formula_units_Z   1
loop_
 _symmetry_equiv_pos_site_id
 _symmetry_equiv_pos_as_xyz
  1  'x, y, z'
loop_
 _atom_site_type_symbol
 _atom_site_label
 _atom_site_symmetry_multiplicity
 _atom_site_fract_x
 _atom_site_fract_y
 _atom_site_fract_z
 _atom_site_occupancy
  C  C0  1  0.39040300  0.27833600  0.22172100  1
  C  C1  1  0.60959700  0.72166400  0.77827900  1
  Ni  Ni2  1  0.00000000  0.50000000  0.00000000  1
  Cu  Cu3  1  0.75319500  0.80662800  0.23913000  1
  Cu  Cu4  1  0.24680500  0.19337200  0.76087000  1
  Cu  Cu5  1  0.16722300  0.73640600  0.23647000  1
  Cu  Cu6  1  0.83277700  0.26359400  0.76353000  1
  C  C7  1  0.44563200  0.73574900  0.39015500  1
  C  C8  1  0.55436800  0.26425100  0.60984500  1
  C  C9  1  0.23908900  0.95887200  0.03194900  1
  C  C10  1  0.76091100  0.04112800  0.96805100  1
  C  C11  1  0.87374400  0.30586900  0.37837300  1
  C  C12  1  0.12625600  0.69413100  0.62162700  1
  C  C13  1  0.88899100  0.18245100  0.22482300  1
  C  C14  1  0.11100900  0.81754900  0.77517700  1
  C  C15  1  0.76840000  0.66277600  0.11297600  1
  C  C16  1  0.23160000  0.33722400  0.88702400  1
  C  C17  1  0.57214300  0.78265600  0.40954700  1
  C  C18  1  0.42785700  0.21734400  0.59045300  1
  C  C19  1  0.75758200  0.99507900  0.15687000  1
  C  C20  1  0.24241800  0.00492100  0.84313000  1
  C  C21  1  0.93205500  0.77469000  0.33203200  1
  C  C22  1  0.06794500  0.22531000  0.66796800  1
  C  C23  1  0.19298200  0.61426100  0.08764100  1
  C  C24  1  0.80701800  0.38573900  0.91235900  1
  C  C25  1  0.25651100  0.66624700  0.38271600  1
  C  C26  1  0.74348900  0.33375300  0.61728400  1
  C  C27  1  0.25429300  0.91994900  0.15699500  1
  C  C28  1  0.74570700  0.08005100  0.84300500  1
  C  C29  1  0.94847400  0.28373000  0.25493400  1
  C  C30  1  0.05152600  0.71627000  0.74506600  1
