# generated using pymatgen
data_Cu2Ni2C3
_symmetry_space_group_name_H-M   'P 1'
_cell_length_a   7.10984756
_cell_length_b   7.10984756
_cell_length_c   7.10984756
_cell_angle_alpha   146.79449608
_cell_angle_beta   146.79449608
_cell_angle_gamma   47.66816096
_symmetry_Int_Tables_number   1
_chemical_formula_structural   Cu2Ni2C3
_chemical_formula_sum   'Cu2 Ni2 C3'
_cell_volume   107.36280000
_cell_formula_units_Z   1
loop_
 _symmetry_equiv_pos_site_id
 _symmetry_equiv_pos_as_xyz
  1  'x, y, z'
loop_
 _atom_site_type_symbol
 _atom_site_label
 _atom_site_symmetry_multiplicity
 _atom_site_fract_x
 _atom_site_fract_y
 _atom_site_fract_z
 _atom_site_occupancy
  C  C0  1  0.35167600  0.35167600  0.00000000  1
  C  C1  1  0.64832400  0.64832400  0.00000000  1
  C  C2  1  0.00000000  0.00000000  0.00000000  1
  Ni  Ni3  1  0.50000000  0.00000000  0.50000000  1
  Ni  Ni4  1  0.00000000  0.50000000  0.50000000  1
  Cu  Cu5  1  0.16236500  0.16236500  0.00000000  1
  Cu  Cu6  1  0.83763500  0.83763500  0.00000000  1
