# generated using pymatgen
data_Cu4NiC4
_symmetry_space_group_name_H-M   'P 1'
_cell_length_a   10.70318300
_cell_length_b   3.30113600
_cell_length_c   19.77223600
_cell_angle_alpha   90.00000000
_cell_angle_beta   90.00000000
_cell_angle_gamma   90.00000000
_symmetry_Int_Tables_number   1
_chemical_formula_structural   Cu4NiC4
_chemical_formula_sum   'Cu16 Ni4 C16'
_cell_volume   698.60574573
_cell_formula_units_Z   4
loop_
 _symmetry_equiv_pos_site_id
 _symmetry_equiv_pos_as_xyz
  1  'x, y, z'
loop_
 _atom_site_type_symbol
 _atom_site_label
 _atom_site_symmetry_multiplicity
 _atom_site_fract_x
 _atom_site_fract_y
 _atom_site_fract_z
 _atom_site_occupancy
  C  C0  1  0.13847500  0.25000000  0.16234300  1
  C  C1  1  0.63847500  0.25000000  0.33765700  1
  C  C2  1  0.86152500  0.75000000  0.83765700  1
  C  C3  1  0.36152500  0.75000000  0.66234300  1
  C  C4  1  0.89556400  0.25000000  0.06061300  1
  C  C5  1  0.39556400  0.25000000  0.43938700  1
  C  C6  1  0.10443600  0.75000000  0.93938700  1
  C  C7  1  0.60443600  0.75000000  0.56061300  1
  C  C8  1  0.42157400  0.25000000  0.84317600  1
  C  C9  1  0.92157400  0.25000000  0.65682400  1
  C  C10  1  0.57842600  0.75000000  0.15682400  1
  C  C11  1  0.07842600  0.75000000  0.34317600  1
  C  C12  1  0.14570500  0.25000000  0.79043000  1
  C  C13  1  0.64570500  0.25000000  0.70957000  1
  C  C14  1  0.85429500  0.75000000  0.20957000  1
  C  C15  1  0.35429500  0.75000000  0.29043000  1
  Ni  Ni16  1  0.37526400  0.25000000  0.08286900  1
  Ni  Ni17  1  0.87526400  0.25000000  0.41713100  1
  Ni  Ni18  1  0.62473600  0.75000000  0.91713100  1
  Ni  Ni19  1  0.12473600  0.75000000  0.58286900  1
  Cu  Cu20  1  0.76632600  0.25000000  0.14745800  1
  Cu  Cu21  1  0.26632600  0.25000000  0.35254200  1
  Cu  Cu22  1  0.23367400  0.75000000  0.85254200  1
  Cu  Cu23  1  0.73367400  0.75000000  0.64745800  1
  Cu  Cu24  1  0.99474800  0.25000000  0.87234800  1
  Cu  Cu25  1  0.49474800  0.25000000  0.62765200  1
  Cu  Cu26  1  0.00525200  0.75000000  0.12765200  1
  Cu  Cu27  1  0.50525200  0.75000000  0.37234800  1
  Cu  Cu28  1  0.26255500  0.25000000  0.07381200  1
  Cu  Cu29  1  0.76255500  0.25000000  0.42618800  1
  Cu  Cu30  1  0.73744500  0.75000000  0.92618800  1
  Cu  Cu31  1  0.23744500  0.75000000  0.57381200  1
  Cu  Cu32  1  0.49153400  0.25000000  0.09152100  1
  Cu  Cu33  1  0.99153400  0.25000000  0.40847900  1
  Cu  Cu34  1  0.50846600  0.75000000  0.90847900  1
  Cu  Cu35  1  0.00846600  0.75000000  0.59152100  1
