# generated using pymatgen
data_Cu2NiC6
_symmetry_space_group_name_H-M   'P 1'
_cell_length_a   4.55332900
_cell_length_b   4.55332900
_cell_length_c   8.85673200
_cell_angle_alpha   90.00000000
_cell_angle_beta   90.00000000
_cell_angle_gamma   90.00000000
_symmetry_Int_Tables_number   1
_chemical_formula_structural   Cu2NiC6
_chemical_formula_sum   'Cu4 Ni2 C12'
_cell_volume   183.62489734
_cell_formula_units_Z   2
loop_
 _symmetry_equiv_pos_site_id
 _symmetry_equiv_pos_as_xyz
  1  'x, y, z'
loop_
 _atom_site_type_symbol
 _atom_site_label
 _atom_site_symmetry_multiplicity
 _atom_site_fract_x
 _atom_site_fract_y
 _atom_site_fract_z
 _atom_site_occupancy
  Ni  Ni0  1  0.00000000  0.00000000  0.00000000  1
  Ni  Ni1  1  0.50000000  0.50000000  0.50000000  1
  Cu  Cu2  1  0.00000000  0.00000000  0.33395500  1
  Cu  Cu3  1  0.00000000  0.00000000  0.66604500  1
  Cu  Cu4  1  0.50000000  0.50000000  0.16604500  1
  Cu  Cu5  1  0.50000000  0.50000000  0.83395500  1
  C  C6  1  0.19462800  0.80537200  0.16044000  1
  C  C7  1  0.19977900  0.80022100  0.50000000  1
  C  C8  1  0.19462800  0.80537200  0.83956000  1
  C  C9  1  0.30022100  0.30022100  0.00000000  1
  C  C10  1  0.30537200  0.30537200  0.33956000  1
  C  C11  1  0.30537200  0.30537200  0.66044000  1
  C  C12  1  0.69977900  0.69977900  0.00000000  1
  C  C13  1  0.69462800  0.69462800  0.33956000  1
  C  C14  1  0.69462800  0.69462800  0.66044000  1
  C  C15  1  0.80537200  0.19462800  0.16044000  1
  C  C16  1  0.80022100  0.19977900  0.50000000  1
  C  C17  1  0.80537200  0.19462800  0.83956000  1
