# generated using pymatgen
data_CuNiC61
_symmetry_space_group_name_H-M   'P 1'
_cell_length_a   8.61758600
_cell_length_b   8.64979400
_cell_length_c   8.70286400
_cell_angle_alpha   90.00000000
_cell_angle_beta   90.00000000
_cell_angle_gamma   90.00000000
_symmetry_Int_Tables_number   1
_chemical_formula_structural   CuNiC61
_chemical_formula_sum   'Cu1 Ni1 C61'
_cell_volume   648.71447354
_cell_formula_units_Z   1
loop_
 _symmetry_equiv_pos_site_id
 _symmetry_equiv_pos_as_xyz
  1  'x, y, z'
loop_
 _atom_site_type_symbol
 _atom_site_label
 _atom_site_symmetry_multiplicity
 _atom_site_fract_x
 _atom_site_fract_y
 _atom_site_fract_z
 _atom_site_occupancy
  Ni  Ni0  1  0.50000000  0.99104500  0.50000000  1
  Cu  Cu1  1  0.00000000  0.99671100  0.00000000  1
  C  C2  1  0.00000000  0.97852500  0.50000000  1
  C  C3  1  0.50000000  0.99850200  0.00000000  1
  C  C4  1  0.00000000  0.50077700  0.00000000  1
  C  C5  1  0.00000000  0.51919000  0.50000000  1
  C  C6  1  0.50000000  0.50103800  0.00000000  1
  C  C7  1  0.50000000  0.49733200  0.50000000  1
  C  C8  1  0.75390100  0.00277300  0.75538100  1
  C  C9  1  0.75390100  0.00277300  0.24461900  1
  C  C10  1  0.24609900  0.00277300  0.75538100  1
  C  C11  1  0.24609900  0.00277300  0.24461900  1
  C  C12  1  0.75082400  0.49838700  0.75122600  1
  C  C13  1  0.75082400  0.49838700  0.24877400  1
  C  C14  1  0.24917600  0.49838700  0.75122600  1
  C  C15  1  0.24917600  0.49838700  0.24877400  1
  C  C16  1  0.00000000  0.24485000  0.77375600  1
  C  C17  1  0.00000000  0.24485000  0.22624400  1
  C  C18  1  0.50000000  0.25091000  0.75828600  1
  C  C19  1  0.50000000  0.25091000  0.24171400  1
  C  C20  1  0.00000000  0.75377900  0.75524500  1
  C  C21  1  0.00000000  0.75377900  0.24475500  1
  C  C22  1  0.50000000  0.74731800  0.75548700  1
  C  C23  1  0.50000000  0.74731800  0.24451300  1
  C  C24  1  0.74708200  0.24884000  0.00000000  1
  C  C25  1  0.72959700  0.25165000  0.50000000  1
  C  C26  1  0.25291800  0.24884000  0.00000000  1
  C  C27  1  0.27040300  0.25165000  0.50000000  1
  C  C28  1  0.75016200  0.75239200  0.00000000  1
  C  C29  1  0.74892500  0.74254500  0.50000000  1
  C  C30  1  0.24983800  0.75239200  0.00000000  1
  C  C31  1  0.25107500  0.74254500  0.50000000  1
  C  C32  1  0.00000000  0.26485100  0.00000000  1
  C  C33  1  0.50000000  0.25940700  0.00000000  1
  C  C34  1  0.50000000  0.27582600  0.50000000  1
  C  C35  1  0.00000000  0.73458500  0.00000000  1
  C  C36  1  0.00000000  0.74707500  0.50000000  1
  C  C37  1  0.50000000  0.74226400  0.00000000  1
  C  C38  1  0.50000000  0.71564200  0.50000000  1
  C  C39  1  0.75398200  0.25191700  0.74777600  1
  C  C40  1  0.75398200  0.25191700  0.25222400  1
  C  C41  1  0.24601800  0.25191700  0.74777600  1
  C  C42  1  0.24601800  0.25191700  0.25222400  1
  C  C43  1  0.75099300  0.75051100  0.74559100  1
  C  C44  1  0.75099300  0.75051100  0.25440900  1
  C  C45  1  0.24900700  0.75051100  0.74559100  1
  C  C46  1  0.24900700  0.75051100  0.25440900  1
  C  C47  1  0.00000000  0.00414900  0.73984700  1
  C  C48  1  0.00000000  0.00414900  0.26015300  1
  C  C49  1  0.50000000  0.00356800  0.77718800  1
  C  C50  1  0.50000000  0.00356800  0.22281200  1
  C  C51  1  0.00000000  0.49261700  0.74195200  1
  C  C52  1  0.00000000  0.49261700  0.25804800  1
  C  C53  1  0.50000000  0.49810700  0.75355200  1
  C  C54  1  0.50000000  0.49810700  0.24644800  1
  C  C55  1  0.74232400  0.00117300  0.00000000  1
  C  C56  1  0.78205600  0.02274900  0.50000000  1
  C  C57  1  0.25767600  0.00117300  0.00000000  1
  C  C58  1  0.21794400  0.02274900  0.50000000  1
  C  C59  1  0.75089400  0.50037300  0.00000000  1
  C  C60  1  0.76215800  0.49141600  0.50000000  1
  C  C61  1  0.24910600  0.50037300  0.00000000  1
  C  C62  1  0.23784200  0.49141600  0.50000000  1
