# generated using pymatgen
data_CuNi7C2
_symmetry_space_group_name_H-M   'P 1'
_cell_length_a   9.91756800
_cell_length_b   9.91756800
_cell_length_c   9.91756800
_cell_angle_alpha   90.00000000
_cell_angle_beta   90.00000000
_cell_angle_gamma   90.00000000
_symmetry_Int_Tables_number   1
_chemical_formula_structural   CuNi7C2
_chemical_formula_sum   'Cu4 Ni28 C8'
_cell_volume   975.47369091
_cell_formula_units_Z   4
loop_
 _symmetry_equiv_pos_site_id
 _symmetry_equiv_pos_as_xyz
  1  'x, y, z'
loop_
 _atom_site_type_symbol
 _atom_site_label
 _atom_site_symmetry_multiplicity
 _atom_site_fract_x
 _atom_site_fract_y
 _atom_site_fract_z
 _atom_site_occupancy
  C  C0  1  0.64764500  0.14764500  0.35235500  1
  C  C1  1  0.14764500  0.35235500  0.64764500  1
  C  C2  1  0.35235500  0.64764500  0.14764500  1
  C  C3  1  0.85235500  0.85235500  0.85235500  1
  C  C4  1  0.91293100  0.41293100  0.08706900  1
  C  C5  1  0.41293100  0.08706900  0.91293100  1
  C  C6  1  0.08706900  0.91293100  0.41293100  1
  C  C7  1  0.58706900  0.58706900  0.58706900  1
  Ni  Ni8  1  0.46341300  0.96341300  0.53658700  1
  Ni  Ni9  1  0.96341300  0.53658700  0.46341300  1
  Ni  Ni10  1  0.53658700  0.46341300  0.96341300  1
  Ni  Ni11  1  0.03658700  0.03658700  0.03658700  1
  Ni  Ni12  1  0.21862100  0.94329800  0.11946000  1
  Ni  Ni13  1  0.88054000  0.71862100  0.55670200  1
  Ni  Ni14  1  0.44329800  0.38054000  0.78137900  1
  Ni  Ni15  1  0.71862100  0.55670200  0.88054000  1
  Ni  Ni16  1  0.38054000  0.78137900  0.44329800  1
  Ni  Ni17  1  0.94329800  0.11946000  0.21862100  1
  Ni  Ni18  1  0.78137900  0.44329800  0.38054000  1
  Ni  Ni19  1  0.11946000  0.21862100  0.94329800  1
  Ni  Ni20  1  0.55670200  0.88054000  0.71862100  1
  Ni  Ni21  1  0.28137900  0.05670200  0.61946000  1
  Ni  Ni22  1  0.61946000  0.28137900  0.05670200  1
  Ni  Ni23  1  0.05670200  0.61946000  0.28137900  1
  Ni  Ni24  1  0.20089600  0.88718000  0.73150900  1
  Ni  Ni25  1  0.26849100  0.70089600  0.61282000  1
  Ni  Ni26  1  0.38718000  0.76849100  0.79910400  1
  Ni  Ni27  1  0.70089600  0.61282000  0.26849100  1
  Ni  Ni28  1  0.76849100  0.79910400  0.38718000  1
  Ni  Ni29  1  0.88718000  0.73150900  0.20089600  1
  Ni  Ni30  1  0.79910400  0.38718000  0.76849100  1
  Ni  Ni31  1  0.73150900  0.20089600  0.88718000  1
  Ni  Ni32  1  0.61282000  0.26849100  0.70089600  1
  Ni  Ni33  1  0.29910400  0.11282000  0.23150900  1
  Ni  Ni34  1  0.23150900  0.29910400  0.11282000  1
  Ni  Ni35  1  0.11282000  0.23150900  0.29910400  1
  Cu  Cu36  1  0.09687700  0.59687700  0.90312300  1
  Cu  Cu37  1  0.59687700  0.90312300  0.09687700  1
  Cu  Cu38  1  0.90312300  0.09687700  0.59687700  1
  Cu  Cu39  1  0.40312300  0.40312300  0.40312300  1
