# generated using pymatgen
data_CuNiC8
_symmetry_space_group_name_H-M   'P 1'
_cell_length_a   5.59256246
_cell_length_b   7.97820607
_cell_length_c   5.72476301
_cell_angle_alpha   90.00272695
_cell_angle_beta   90.00427560
_cell_angle_gamma   89.77784021
_symmetry_Int_Tables_number   1
_chemical_formula_structural   CuNiC8
_chemical_formula_sum   'Cu2 Ni2 C16'
_cell_volume   255.42907987
_cell_formula_units_Z   2
loop_
 _symmetry_equiv_pos_site_id
 _symmetry_equiv_pos_as_xyz
  1  'x, y, z'
loop_
 _atom_site_type_symbol
 _atom_site_label
 _atom_site_symmetry_multiplicity
 _atom_site_fract_x
 _atom_site_fract_y
 _atom_site_fract_z
 _atom_site_occupancy
  C  C0  1  0.51360200  0.25043500  0.54998800  1
  C  C1  1  0.01351700  0.75050400  0.95008200  1
  C  C2  1  0.98861800  0.24969600  0.04380900  1
  C  C3  1  0.48874200  0.74964100  0.45624900  1
  Ni  Ni4  1  0.49930500  0.50113700  0.99917800  1
  Ni  Ni5  1  0.99932800  0.00103000  0.50051400  1
  Cu  Cu6  1  0.99970300  0.49907000  0.50107600  1
  Cu  Cu7  1  0.49990400  0.99916200  0.99897400  1
  C  C8  1  0.59831300  0.74675500  0.02997600  1
  C  C9  1  0.09828600  0.24679600  0.47001400  1
  C  C10  1  0.20023500  0.94899900  0.20658900  1
  C  C11  1  0.69999200  0.44908700  0.29342300  1
  C  C12  1  0.20446500  0.55052900  0.20238600  1
  C  C13  1  0.70469200  0.05042900  0.29763300  1
  C  C14  1  0.90923800  0.75303000  0.53193200  1
  C  C15  1  0.40922600  0.25309000  0.96813200  1
  C  C16  1  0.29600900  0.54993500  0.71128500  1
  C  C17  1  0.79610800  0.04985300  0.78872400  1
  C  C18  1  0.29037900  0.95037300  0.70566600  1
  C  C19  1  0.79033600  0.45044600  0.79437100  1
