# generated using pymatgen
data_Cu7(Ni3C7)2
_symmetry_space_group_name_H-M   'P 1'
_cell_length_a   7.33988835
_cell_length_b   7.33988835
_cell_length_c   17.44746385
_cell_angle_alpha   85.81397656
_cell_angle_beta   85.81397656
_cell_angle_gamma   63.17397232
_symmetry_Int_Tables_number   1
_chemical_formula_structural   Cu7(Ni3C7)2
_chemical_formula_sum   'Cu14 Ni12 C28'
_cell_volume   835.72063928
_cell_formula_units_Z   2
loop_
 _symmetry_equiv_pos_site_id
 _symmetry_equiv_pos_as_xyz
  1  'x, y, z'
loop_
 _atom_site_type_symbol
 _atom_site_label
 _atom_site_symmetry_multiplicity
 _atom_site_fract_x
 _atom_site_fract_y
 _atom_site_fract_z
 _atom_site_occupancy
  C  C0  1  0.08020400  0.36852300  0.91834500  1
  C  C1  1  0.63147700  0.91979600  0.58165500  1
  C  C2  1  0.91979600  0.63147700  0.08165500  1
  C  C3  1  0.36852300  0.08020400  0.41834500  1
  C  C4  1  0.15823400  0.22230300  0.06865400  1
  C  C5  1  0.77769700  0.84176600  0.43134600  1
  C  C6  1  0.84176600  0.77769700  0.93134600  1
  C  C7  1  0.22230300  0.15823400  0.56865400  1
  C  C8  1  0.76543300  0.31576600  0.00376800  1
  C  C9  1  0.68423400  0.23456700  0.49623200  1
  C  C10  1  0.23456700  0.68423400  0.99623200  1
  C  C11  1  0.31576600  0.76543300  0.50376800  1
  C  C12  1  0.81841500  0.17037900  0.92809400  1
  C  C13  1  0.82962100  0.18158500  0.57190600  1
  C  C14  1  0.18158500  0.82962100  0.07190600  1
  C  C15  1  0.17037900  0.81841500  0.42809400  1
  C  C16  1  0.89697300  0.97279900  0.83050100  1
  C  C17  1  0.02720100  0.10302700  0.66949900  1
  C  C18  1  0.10302700  0.02720100  0.16949900  1
  C  C19  1  0.97279900  0.89697300  0.33050100  1
  C  C20  1  0.66390200  0.05833600  0.85691300  1
  C  C21  1  0.94166400  0.33609800  0.64308700  1
  C  C22  1  0.33609800  0.94166400  0.14308700  1
  C  C23  1  0.05833600  0.66390200  0.35691300  1
  C  C24  1  0.21280500  0.89410900  0.77000000  1
  C  C25  1  0.10589100  0.78719500  0.73000000  1
  C  C26  1  0.78719500  0.10589100  0.23000000  1
  C  C27  1  0.89410900  0.21280500  0.27000000  1
  Ni  Ni28  1  0.33471000  0.49698100  0.89060800  1
  Ni  Ni29  1  0.50301900  0.66529000  0.60939200  1
  Ni  Ni30  1  0.66529000  0.50301900  0.10939200  1
  Ni  Ni31  1  0.49698100  0.33471000  0.39060800  1
  Ni  Ni32  1  0.92543100  0.46146400  0.79631900  1
  Ni  Ni33  1  0.53853600  0.07456900  0.70368100  1
  Ni  Ni34  1  0.07456900  0.53853600  0.20368100  1
  Ni  Ni35  1  0.46146400  0.92543100  0.29631900  1
  Ni  Ni36  1  0.31663000  0.01573600  0.90015100  1
  Ni  Ni37  1  0.98426400  0.68337000  0.59984900  1
  Ni  Ni38  1  0.68337000  0.98426400  0.09984900  1
  Ni  Ni39  1  0.01573600  0.31663000  0.40015100  1
  Cu  Cu40  1  0.13420500  0.34920100  0.03728100  1
  Cu  Cu41  1  0.65079900  0.86579500  0.46271900  1
  Cu  Cu42  1  0.86579500  0.65079900  0.96271900  1
  Cu  Cu43  1  0.34920100  0.13420500  0.53728100  1
  Cu  Cu44  1  0.85904100  0.25678500  0.95903800  1
  Cu  Cu45  1  0.74321500  0.14095900  0.54096200  1
  Cu  Cu46  1  0.14095900  0.74321500  0.04096200  1
  Cu  Cu47  1  0.25678500  0.85904100  0.45903800  1
  Cu  Cu48  1  0.80105300  0.00402800  0.87646300  1
  Cu  Cu49  1  0.99597200  0.19894700  0.62353700  1
  Cu  Cu50  1  0.19894700  0.99597200  0.12353700  1
  Cu  Cu51  1  0.00402800  0.80105300  0.37646300  1
  Cu  Cu52  1  0.08264400  0.91735600  0.75000000  1
  Cu  Cu53  1  0.91735600  0.08264400  0.25000000  1
