# generated using pymatgen
data_Cu6Ni12C7
_symmetry_space_group_name_H-M   'P 1'
_cell_length_a   6.65071400
_cell_length_b   6.57347326
_cell_length_c   7.41105286
_cell_angle_alpha   76.88022826
_cell_angle_beta   63.33954005
_cell_angle_gamma   59.61053370
_symmetry_Int_Tables_number   1
_chemical_formula_structural   Cu6Ni12C7
_chemical_formula_sum   'Cu6 Ni12 C7'
_cell_volume   249.76900996
_cell_formula_units_Z   1
loop_
 _symmetry_equiv_pos_site_id
 _symmetry_equiv_pos_as_xyz
  1  'x, y, z'
loop_
 _atom_site_type_symbol
 _atom_site_label
 _atom_site_symmetry_multiplicity
 _atom_site_fract_x
 _atom_site_fract_y
 _atom_site_fract_z
 _atom_site_occupancy
  C  C0  1  0.50000000  0.00000000  0.00000000  1
  Ni  Ni1  1  0.66873600  0.54019000  0.12233800  1
  Ni  Ni2  1  0.33126400  0.45981000  0.87766200  1
  Ni  Ni3  1  0.79107400  0.54019000  0.87766200  1
  Ni  Ni4  1  0.20892600  0.45981000  0.12233800  1
  Ni  Ni5  1  0.00711400  0.86200400  0.72958200  1
  Ni  Ni6  1  0.59870000  0.13799600  0.27041800  1
  Ni  Ni7  1  0.13088100  0.86200400  0.27041800  1
  Ni  Ni8  1  0.26330400  0.13799600  0.72958200  1
  Ni  Ni9  1  0.99288600  0.13799600  0.27041800  1
  Ni  Ni10  1  0.40130000  0.86200400  0.72958200  1
  Ni  Ni11  1  0.86911900  0.13799600  0.72958200  1
  Ni  Ni12  1  0.73669600  0.86200400  0.27041800  1
  Cu  Cu13  1  0.36774800  0.61557200  0.64893200  1
  Cu  Cu14  1  0.63225200  0.38442800  0.35106800  1
  Cu  Cu15  1  0.01668000  0.61557200  0.35106800  1
  Cu  Cu16  1  0.98332000  0.38442800  0.64893200  1
  Cu  Cu17  1  0.50000000  0.50000000  0.50000000  1
  Cu  Cu18  1  0.00000000  0.50000000  0.50000000  1
  C  C19  1  0.67874000  0.64252100  0.00000000  1
  C  C20  1  0.32126000  0.35747900  0.00000000  1
  C  C21  1  0.39365400  0.00000000  0.76887100  1
  C  C22  1  0.16252500  0.00000000  0.23112900  1
  C  C23  1  0.60634600  0.00000000  0.23112900  1
  C  C24  1  0.83747500  0.00000000  0.76887100  1
