# generated using pymatgen
data_Cu4NiC
_symmetry_space_group_name_H-M   'P 1'
_cell_length_a   6.07187800
_cell_length_b   6.07187800
_cell_length_c   6.07187800
_cell_angle_alpha   90.00000000
_cell_angle_beta   90.00000000
_cell_angle_gamma   90.00000000
_symmetry_Int_Tables_number   1
_chemical_formula_structural   Cu4NiC
_chemical_formula_sum   'Cu16 Ni4 C4'
_cell_volume   223.85619140
_cell_formula_units_Z   4
loop_
 _symmetry_equiv_pos_site_id
 _symmetry_equiv_pos_as_xyz
  1  'x, y, z'
loop_
 _atom_site_type_symbol
 _atom_site_label
 _atom_site_symmetry_multiplicity
 _atom_site_fract_x
 _atom_site_fract_y
 _atom_site_fract_z
 _atom_site_occupancy
  C  C0  1  0.00000000  0.00000000  0.00000000  1
  C  C1  1  0.00000000  0.50000000  0.50000000  1
  C  C2  1  0.50000000  0.50000000  0.00000000  1
  C  C3  1  0.50000000  0.00000000  0.50000000  1
  Ni  Ni4  1  0.50000000  0.50000000  0.50000000  1
  Ni  Ni5  1  0.00000000  0.50000000  0.00000000  1
  Ni  Ni6  1  0.50000000  0.00000000  0.00000000  1
  Ni  Ni7  1  0.00000000  0.00000000  0.50000000  1
  Cu  Cu8  1  0.38326100  0.38326100  0.61673900  1
  Cu  Cu9  1  0.38326100  0.61673900  0.38326100  1
  Cu  Cu10  1  0.61673900  0.38326100  0.38326100  1
  Cu  Cu11  1  0.61673900  0.61673900  0.61673900  1
  Cu  Cu12  1  0.61642700  0.11640000  0.88360000  1
  Cu  Cu13  1  0.11640000  0.11640000  0.38357300  1
  Cu  Cu14  1  0.11640000  0.61642700  0.88360000  1
  Cu  Cu15  1  0.61642700  0.88360000  0.11640000  1
  Cu  Cu16  1  0.11640000  0.88360000  0.61642700  1
  Cu  Cu17  1  0.11640000  0.38357300  0.11640000  1
  Cu  Cu18  1  0.38357300  0.11640000  0.11640000  1
  Cu  Cu19  1  0.88360000  0.11640000  0.61642700  1
  Cu  Cu20  1  0.88360000  0.61642700  0.11640000  1
  Cu  Cu21  1  0.38357300  0.88360000  0.88360000  1
  Cu  Cu22  1  0.88360000  0.88360000  0.38357300  1
  Cu  Cu23  1  0.88360000  0.38357300  0.88360000  1
