# generated using pymatgen
data_Cu2NiC7
_symmetry_space_group_name_H-M   'P 1'
_cell_length_a   5.65297208
_cell_length_b   5.59760293
_cell_length_c   19.01401783
_cell_angle_alpha   83.63753356
_cell_angle_beta   83.23373220
_cell_angle_gamma   62.72292543
_symmetry_Int_Tables_number   1
_chemical_formula_structural   Cu2NiC7
_chemical_formula_sum   'Cu8 Ni4 C28'
_cell_volume   529.93169196
_cell_formula_units_Z   4
loop_
 _symmetry_equiv_pos_site_id
 _symmetry_equiv_pos_as_xyz
  1  'x, y, z'
loop_
 _atom_site_type_symbol
 _atom_site_label
 _atom_site_symmetry_multiplicity
 _atom_site_fract_x
 _atom_site_fract_y
 _atom_site_fract_z
 _atom_site_occupancy
  Ni  Ni0  1  0.62084000  0.62726500  0.12389600  1
  Ni  Ni1  1  0.87910600  0.87252700  0.37607300  1
  Ni  Ni2  1  0.12520500  0.12488000  0.62517100  1
  Ni  Ni3  1  0.37488300  0.37529900  0.87486900  1
  Cu  Cu4  1  0.94819000  0.95148400  0.18998700  1
  Cu  Cu5  1  0.20463200  0.19601500  0.44062600  1
  Cu  Cu6  1  0.45365800  0.44887500  0.68972500  1
  Cu  Cu7  1  0.70238700  0.69959100  0.93921900  1
  Cu  Cu8  1  0.29566000  0.30279800  0.05953300  1
  Cu  Cu9  1  0.55135900  0.54870900  0.31008600  1
  Cu  Cu10  1  0.79742600  0.80148600  0.56059600  1
  Cu  Cu11  1  0.04670600  0.05105700  0.81026600  1
  C  C12  1  0.50100300  0.49874900  0.50032300  1
  C  C13  1  0.75009300  0.75001700  0.74996800  1
  C  C14  1  0.99905800  0.00118500  0.99968000  1
  C  C15  1  0.24986400  0.25003000  0.25002600  1
  C  C16  1  0.34909800  0.82664000  0.03345900  1
  C  C17  1  0.62159100  0.06504200  0.28501000  1
  C  C18  1  0.85106200  0.32245200  0.53462300  1
  C  C19  1  0.10161500  0.57491000  0.78424200  1
  C  C20  1  0.87126900  0.21901000  0.07867900  1
  C  C21  1  0.12486700  0.46517700  0.32984000  1
  C  C22  1  0.37227500  0.71684100  0.57938600  1
  C  C23  1  0.62267900  0.96890300  0.82893800  1
  C  C24  1  0.32886000  0.51425400  0.19560100  1
  C  C25  1  0.58664100  0.76324100  0.44721700  1
  C  C26  1  0.83525400  0.01197000  0.69619800  1
  C  C27  1  0.08445400  0.26463000  0.94636600  1
  C  C28  1  0.87796600  0.43522600  0.21509200  1
  C  C29  1  0.15180800  0.67426700  0.46637100  1
  C  C30  1  0.39860100  0.92485800  0.71571700  1
  C  C31  1  0.64816800  0.17667300  0.96551600  1
  C  C32  1  0.91399600  0.73724400  0.05279200  1
  C  C33  1  0.17060800  0.98589000  0.30435400  1
  C  C34  1  0.41494400  0.23473600  0.55356300  1
  C  C35  1  0.66509200  0.48800800  0.80383000  1
  C  C36  1  0.37544700  0.03441800  0.17031700  1
  C  C37  1  0.62906600  0.28107600  0.42142800  1
  C  C38  1  0.87704100  0.53161400  0.67090200  1
  C  C39  1  0.12752700  0.78295000  0.92051500  1
