# generated using pymatgen
data_CuNiC4
_symmetry_space_group_name_H-M   'P 1'
_cell_length_a   9.45919227
_cell_length_b   9.45919227
_cell_length_c   9.45919227
_cell_angle_alpha   60.00000000
_cell_angle_beta   60.00000000
_cell_angle_gamma   60.00000000
_symmetry_Int_Tables_number   1
_chemical_formula_structural   CuNiC4
_chemical_formula_sum   'Cu4 Ni4 C16'
_cell_volume   598.47658260
_cell_formula_units_Z   4
loop_
 _symmetry_equiv_pos_site_id
 _symmetry_equiv_pos_as_xyz
  1  'x, y, z'
loop_
 _atom_site_type_symbol
 _atom_site_label
 _atom_site_symmetry_multiplicity
 _atom_site_fract_x
 _atom_site_fract_y
 _atom_site_fract_z
 _atom_site_occupancy
  C  C0  1  0.34905400  0.34905400  0.34905400  1
  C  C1  1  0.34905400  0.34905400  0.95283700  1
  C  C2  1  0.34905400  0.95283700  0.34905400  1
  C  C3  1  0.95283700  0.34905400  0.34905400  1
  C  C4  1  0.81035200  0.18964800  0.18964800  1
  C  C5  1  0.18964800  0.81035200  0.81035200  1
  C  C6  1  0.18964800  0.81035200  0.18964800  1
  C  C7  1  0.81035200  0.18964800  0.81035200  1
  C  C8  1  0.18964800  0.18964800  0.81035200  1
  C  C9  1  0.81035200  0.81035200  0.18964800  1
  C  C10  1  0.93764900  0.56235100  0.56235100  1
  C  C11  1  0.56235100  0.93764900  0.93764900  1
  C  C12  1  0.56235100  0.93764900  0.56235100  1
  C  C13  1  0.93764900  0.56235100  0.93764900  1
  C  C14  1  0.56235100  0.56235100  0.93764900  1
  C  C15  1  0.93764900  0.93764900  0.56235100  1
  Ni  Ni16  1  0.58167000  0.58167000  0.58167000  1
  Ni  Ni17  1  0.58167000  0.58167000  0.25499000  1
  Ni  Ni18  1  0.58167000  0.25499000  0.58167000  1
  Ni  Ni19  1  0.25499000  0.58167000  0.58167000  1
  Cu  Cu20  1  0.14199000  0.14199000  0.14199000  1
  Cu  Cu21  1  0.14199000  0.14199000  0.57402900  1
  Cu  Cu22  1  0.14199000  0.57402900  0.14199000  1
  Cu  Cu23  1  0.57402900  0.14199000  0.14199000  1
