# generated using pymatgen
data_Cu2Ni2C29
_symmetry_space_group_name_H-M   'P 1'
_cell_length_a   9.91822100
_cell_length_b   7.99281500
_cell_length_c   10.52513674
_cell_angle_alpha   90.00000000
_cell_angle_beta   101.19624804
_cell_angle_gamma   90.00000000
_symmetry_Int_Tables_number   1
_chemical_formula_structural   Cu2Ni2C29
_chemical_formula_sum   'Cu4 Ni4 C58'
_cell_volume   818.49508000
_cell_formula_units_Z   2
loop_
 _symmetry_equiv_pos_site_id
 _symmetry_equiv_pos_as_xyz
  1  'x, y, z'
loop_
 _atom_site_type_symbol
 _atom_site_label
 _atom_site_symmetry_multiplicity
 _atom_site_fract_x
 _atom_site_fract_y
 _atom_site_fract_z
 _atom_site_occupancy
  C  C0  1  0.18237100  0.25000000  0.04930600  1
  C  C1  1  0.81762900  0.75000000  0.95069400  1
  C  C2  1  0.20676000  0.54039800  0.18343900  1
  C  C3  1  0.79324000  0.04039800  0.81656100  1
  C  C4  1  0.79324000  0.45960200  0.81656100  1
  C  C5  1  0.20676000  0.95960200  0.18343900  1
  C  C6  1  0.08393500  0.43024000  0.22291000  1
  C  C7  1  0.91606500  0.93024000  0.77709000  1
  C  C8  1  0.91606500  0.56976000  0.77709000  1
  C  C9  1  0.08393500  0.06976000  0.22291000  1
  C  C10  1  0.18686700  0.48549800  0.86812700  1
  C  C11  1  0.81313300  0.98549800  0.13187300  1
  C  C12  1  0.81313300  0.51450200  0.13187300  1
  C  C13  1  0.18686700  0.01450200  0.86812700  1
  C  C14  1  0.34276800  0.42609600  0.91778700  1
  C  C15  1  0.65723200  0.92609600  0.08221300  1
  C  C16  1  0.65723200  0.57390400  0.08221300  1
  C  C17  1  0.34276800  0.07390400  0.91778700  1
  C  C18  1  0.45875900  0.15029300  0.16320300  1
  C  C19  1  0.54124100  0.65029300  0.83679700  1
  C  C20  1  0.54124100  0.84970700  0.83679700  1
  C  C21  1  0.45875900  0.34970700  0.16320300  1
  Ni  Ni22  1  0.54685600  0.75000000  0.36054000  1
  Ni  Ni23  1  0.45314400  0.25000000  0.63946000  1
  Ni  Ni24  1  0.11634800  0.75000000  0.52363700  1
  Ni  Ni25  1  0.88365200  0.25000000  0.47636300  1
  Cu  Cu26  1  0.45452000  0.75000000  0.18853500  1
  Cu  Cu27  1  0.54548000  0.25000000  0.81146500  1
  Cu  Cu28  1  0.14584800  0.75000000  0.70567200  1
  Cu  Cu29  1  0.85415200  0.25000000  0.29432800  1
  C  C30  1  0.02489700  0.25000000  0.96840500  1
  C  C31  1  0.97510300  0.75000000  0.03159500  1
  C  C32  1  0.17131900  0.42609000  0.19024200  1
  C  C33  1  0.82868100  0.92609000  0.80975800  1
  C  C34  1  0.82868100  0.57391000  0.80975800  1
  C  C35  1  0.17131900  0.07391000  0.19024200  1
  C  C36  1  0.25147000  0.43755600  0.94277000  1
  C  C37  1  0.74853000  0.93755600  0.05723000  1
  C  C38  1  0.74853000  0.56244400  0.05723000  1
  C  C39  1  0.25147000  0.06244400  0.94277000  1
  C  C40  1  0.40255400  0.25000000  0.13855800  1
  C  C41  1  0.59744600  0.75000000  0.86144200  1
  C  C42  1  0.50252400  0.90443300  0.13614800  1
  C  C43  1  0.49747600  0.40443300  0.86385200  1
  C  C44  1  0.49747600  0.09556700  0.86385200  1
  C  C45  1  0.50252400  0.59556700  0.13614800  1
  C  C46  1  0.30848100  0.75000000  0.19469100  1
  C  C47  1  0.69151900  0.25000000  0.80530900  1
  C  C48  1  0.07725500  0.90415300  0.73815000  1
  C  C49  1  0.92274500  0.40415300  0.26185000  1
  C  C50  1  0.92274500  0.09584700  0.26185000  1
  C  C51  1  0.07725500  0.59584700  0.73815000  1
  C  C52  1  0.29358100  0.75000000  0.74622300  1
  C  C53  1  0.70641900  0.25000000  0.25377700  1
  C  C54  1  0.51298600  0.88698300  0.42176200  1
  C  C55  1  0.48701400  0.38698300  0.57823800  1
  C  C56  1  0.48701400  0.11301700  0.57823800  1
  C  C57  1  0.51298600  0.61301700  0.42176200  1
  C  C58  1  0.68439500  0.75000000  0.36556200  1
  C  C59  1  0.31560500  0.25000000  0.63443800  1
  C  C60  1  0.17514600  0.88736100  0.48260200  1
  C  C61  1  0.82485400  0.38736100  0.51739800  1
  C  C62  1  0.82485400  0.11263900  0.51739800  1
  C  C63  1  0.17514600  0.61263900  0.48260200  1
  C  C64  1  0.98108300  0.75000000  0.47045500  1
  C  C65  1  0.01891700  0.25000000  0.52954500  1
