# generated using pymatgen
data_Cu2Ni2C9
_symmetry_space_group_name_H-M   'P 1'
_cell_length_a   7.44928818
_cell_length_b   7.44928818
_cell_length_c   9.71702434
_cell_angle_alpha   85.16466262
_cell_angle_beta   85.16466262
_cell_angle_gamma   137.23787118
_symmetry_Int_Tables_number   1
_chemical_formula_structural   Cu2Ni2C9
_chemical_formula_sum   'Cu4 Ni4 C18'
_cell_volume   356.18399302
_cell_formula_units_Z   2
loop_
 _symmetry_equiv_pos_site_id
 _symmetry_equiv_pos_as_xyz
  1  'x, y, z'
loop_
 _atom_site_type_symbol
 _atom_site_label
 _atom_site_symmetry_multiplicity
 _atom_site_fract_x
 _atom_site_fract_y
 _atom_site_fract_z
 _atom_site_occupancy
  Ni  Ni0  1  0.63099300  0.05134400  0.43570100  1
  Ni  Ni1  1  0.05134400  0.63099300  0.93570100  1
  Ni  Ni2  1  0.60310600  0.54103500  0.19713700  1
  Ni  Ni3  1  0.54103500  0.60310600  0.69713700  1
  Cu  Cu4  1  0.00172800  0.19537600  0.14046000  1
  Cu  Cu5  1  0.19537600  0.00172800  0.64046000  1
  Cu  Cu6  1  0.22087400  0.85467300  0.23271100  1
  Cu  Cu7  1  0.85467300  0.22087400  0.73271100  1
  C  C8  1  0.89189500  0.29844600  0.09209700  1
  C  C9  1  0.29844600  0.89189500  0.59209700  1
  C  C10  1  0.33840400  0.77280800  0.30317200  1
  C  C11  1  0.77280800  0.33840400  0.80317200  1
  C  C12  1  0.89625300  0.27855100  0.56856500  1
  C  C13  1  0.27855100  0.89625300  0.06856500  1
  C  C14  1  0.93439700  0.12080700  0.30533100  1
  C  C15  1  0.12080700  0.93439700  0.80533100  1
  C  C16  1  0.51273800  0.72827600  0.52640600  1
  C  C17  1  0.72827600  0.51273800  0.02640600  1
  C  C18  1  0.35655700  0.12337400  0.27400300  1
  C  C19  1  0.12337400  0.35655700  0.77400300  1
  C  C20  1  0.31355000  0.42150500  0.08098900  1
  C  C21  1  0.42150500  0.31355000  0.58098900  1
  C  C22  1  0.86724100  0.93947800  0.08291900  1
  C  C23  1  0.93947800  0.86724100  0.58291900  1
  C  C24  1  0.90841500  0.62661500  0.28952800  1
  C  C25  1  0.62661500  0.90841500  0.78952800  1
