# generated using pymatgen
data_CuNiC8
_symmetry_space_group_name_H-M   'P 1'
_cell_length_a   5.35288785
_cell_length_b   5.65183547
_cell_length_c   7.73417295
_cell_angle_alpha   90.00567675
_cell_angle_beta   89.91785045
_cell_angle_gamma   90.04667391
_symmetry_Int_Tables_number   1
_chemical_formula_structural   CuNiC8
_chemical_formula_sum   'Cu2 Ni2 C16'
_cell_volume   233.98657616
_cell_formula_units_Z   2
loop_
 _symmetry_equiv_pos_site_id
 _symmetry_equiv_pos_as_xyz
  1  'x, y, z'
loop_
 _atom_site_type_symbol
 _atom_site_label
 _atom_site_symmetry_multiplicity
 _atom_site_fract_x
 _atom_site_fract_y
 _atom_site_fract_z
 _atom_site_occupancy
  C  C0  1  0.48033000  0.56880200  0.25018600  1
  C  C1  1  0.01975800  0.06931200  0.25010800  1
  C  C2  1  0.51966900  0.43119600  0.74981500  1
  C  C3  1  0.98024200  0.93068800  0.74989200  1
  Ni  Ni4  1  0.50000100  0.00000300  0.00000100  1
  Ni  Ni5  1  0.99999700  0.50000200  0.49999900  1
  Cu  Cu6  1  0.00000500  0.49999700  0.99999700  1
  Cu  Cu7  1  0.49999700  0.99999600  0.50000600  1
  C  C8  1  0.69077400  0.69741900  0.94167900  1
  C  C9  1  0.80894700  0.19664200  0.55845000  1
  C  C10  1  0.30922800  0.30258300  0.05832100  1
  C  C11  1  0.19105300  0.80336000  0.44154700  1
  C  C12  1  0.31194600  0.30245300  0.44038100  1
  C  C13  1  0.18924800  0.80313400  0.05938900  1
  C  C14  1  0.68805200  0.69754600  0.55962000  1
  C  C15  1  0.81075100  0.19686800  0.94061000  1
  C  C16  1  0.88411200  0.45797000  0.24934000  1
  C  C17  1  0.61557700  0.95830200  0.25041700  1
  C  C18  1  0.11589000  0.54202900  0.75066000  1
  C  C19  1  0.38442200  0.04169800  0.74958000  1
