# generated using pymatgen
data_CuNi3C16
_symmetry_space_group_name_H-M   'P 1'
_cell_length_a   5.24118767
_cell_length_b   6.13905676
_cell_length_c   7.87858438
_cell_angle_alpha   89.70076005
_cell_angle_beta   90.83364172
_cell_angle_gamma   91.62477102
_symmetry_Int_Tables_number   1
_chemical_formula_structural   CuNi3C16
_chemical_formula_sum   'Cu1 Ni3 C16'
_cell_volume   253.36925083
_cell_formula_units_Z   1
loop_
 _symmetry_equiv_pos_site_id
 _symmetry_equiv_pos_as_xyz
  1  'x, y, z'
loop_
 _atom_site_type_symbol
 _atom_site_label
 _atom_site_symmetry_multiplicity
 _atom_site_fract_x
 _atom_site_fract_y
 _atom_site_fract_z
 _atom_site_occupancy
  Ni  Ni0  1  0.50000000  0.00000000  0.50000000  1
  Ni  Ni1  1  0.00000000  0.50000000  0.50000000  1
  Ni  Ni2  1  0.50000000  0.00000000  0.00000000  1
  Cu  Cu3  1  0.00000000  0.50000000  0.00000000  1
  C  C4  1  0.50915800  0.52974900  0.24376100  1
  C  C5  1  0.98418700  0.03427600  0.24479400  1
  C  C6  1  0.49084200  0.47025100  0.75623900  1
  C  C7  1  0.01581300  0.96572400  0.75520600  1
  C  C8  1  0.61748400  0.69499200  0.07979300  1
  C  C9  1  0.86900300  0.18235400  0.41624400  1
  C  C10  1  0.37116900  0.31733500  0.58278900  1
  C  C11  1  0.12139000  0.80121200  0.92570000  1
  C  C12  1  0.38251600  0.30500800  0.92020700  1
  C  C13  1  0.13099700  0.81764600  0.58375600  1
  C  C14  1  0.62883100  0.68266500  0.41721100  1
  C  C15  1  0.87861000  0.19878800  0.07430000  1
  C  C16  1  0.17652200  0.57500500  0.24453500  1
  C  C17  1  0.31320900  0.08019700  0.25172000  1
  C  C18  1  0.82347800  0.42499500  0.75546500  1
  C  C19  1  0.68679100  0.91980300  0.74828000  1
