# generated using pymatgen
data_Cu2NiC4
_symmetry_space_group_name_H-M   'P 1'
_cell_length_a   5.67507288
_cell_length_b   5.67507288
_cell_length_c   9.37446650
_cell_angle_alpha   72.38089151
_cell_angle_beta   72.38089151
_cell_angle_gamma   60.00001304
_symmetry_Int_Tables_number   1
_chemical_formula_structural   Cu2NiC4
_chemical_formula_sum   'Cu2 Ni1 C4'
_cell_volume   244.97843385
_cell_formula_units_Z   1
loop_
 _symmetry_equiv_pos_site_id
 _symmetry_equiv_pos_as_xyz
  1  'x, y, z'
loop_
 _atom_site_type_symbol
 _atom_site_label
 _atom_site_symmetry_multiplicity
 _atom_site_fract_x
 _atom_site_fract_y
 _atom_site_fract_z
 _atom_site_occupancy
  C  C0  1  0.20854900  0.20854900  0.37435300  1
  C  C1  1  0.79145100  0.79145100  0.62564700  1
  C  C2  1  0.38560900  0.38560900  0.84317300  1
  C  C3  1  0.61439100  0.61439100  0.15682700  1
  Ni  Ni4  1  0.00000000  0.00000000  0.00000000  1
  Cu  Cu5  1  0.08446200  0.08446200  0.74661400  1
  Cu  Cu6  1  0.91553800  0.91553800  0.25338600  1
