# generated using pymatgen
data_Cu6Ni2C
_symmetry_space_group_name_H-M   'P 1'
_cell_length_a   5.70230173
_cell_length_b   5.70230173
_cell_length_c   6.26969239
_cell_angle_alpha   65.92457057
_cell_angle_beta   65.92457057
_cell_angle_gamma   60.14269242
_symmetry_Int_Tables_number   1
_chemical_formula_structural   Cu6Ni2C
_chemical_formula_sum   'Cu6 Ni2 C1'
_cell_volume   155.93097552
_cell_formula_units_Z   1
loop_
 _symmetry_equiv_pos_site_id
 _symmetry_equiv_pos_as_xyz
  1  'x, y, z'
loop_
 _atom_site_type_symbol
 _atom_site_label
 _atom_site_symmetry_multiplicity
 _atom_site_fract_x
 _atom_site_fract_y
 _atom_site_fract_z
 _atom_site_occupancy
  C  C0  1  0.00000000  0.00000000  0.00000000  1
  Ni  Ni1  1  0.64309600  0.64309600  0.09732600  1
  Ni  Ni2  1  0.35690400  0.35690400  0.90267400  1
  Cu  Cu3  1  0.75697500  0.75697500  0.23058900  1
  Cu  Cu4  1  0.24302500  0.24302500  0.76941100  1
  Cu  Cu5  1  0.23830300  0.70634700  0.78233600  1
  Cu  Cu6  1  0.70634700  0.23830300  0.78233600  1
  Cu  Cu7  1  0.76169700  0.29365300  0.21766400  1
  Cu  Cu8  1  0.29365300  0.76169700  0.21766400  1
