# generated using pymatgen
data_Cu3Ni2C9
_symmetry_space_group_name_H-M   'P 1'
_cell_length_a   10.27667692
_cell_length_b   10.27667692
_cell_length_c   7.26185096
_cell_angle_alpha   76.49335999
_cell_angle_beta   76.49335999
_cell_angle_gamma   59.97640728
_symmetry_Int_Tables_number   1
_chemical_formula_structural   Cu3Ni2C9
_chemical_formula_sum   'Cu6 Ni4 C18'
_cell_volume   639.42062974
_cell_formula_units_Z   2
loop_
 _symmetry_equiv_pos_site_id
 _symmetry_equiv_pos_as_xyz
  1  'x, y, z'
loop_
 _atom_site_type_symbol
 _atom_site_label
 _atom_site_symmetry_multiplicity
 _atom_site_fract_x
 _atom_site_fract_y
 _atom_site_fract_z
 _atom_site_occupancy
  Ni  Ni0  1  0.16380700  0.48783500  0.50086100  1
  Ni  Ni1  1  0.51216500  0.83619300  0.49913900  1
  Ni  Ni2  1  0.81607300  0.18392700  0.50000000  1
  Ni  Ni3  1  0.16478900  0.83521100  0.50000000  1
  Cu  Cu4  1  0.84392600  0.86107600  0.34486100  1
  Cu  Cu5  1  0.13892400  0.15607400  0.65513900  1
  Cu  Cu6  1  0.51068400  0.51517700  0.34412200  1
  Cu  Cu7  1  0.48482300  0.48931600  0.65587800  1
  Cu  Cu8  1  0.19009900  0.18203500  0.34357800  1
  Cu  Cu9  1  0.81796500  0.80990100  0.65642200  1
  C  C10  1  0.73733300  0.41218900  0.26184200  1
  C  C11  1  0.58781100  0.26266700  0.73815800  1
  C  C12  1  0.08241000  0.73910100  0.28634800  1
  C  C13  1  0.26089900  0.91759000  0.71365200  1
  C  C14  1  0.41648400  0.06587000  0.26901400  1
  C  C15  1  0.93413000  0.58351600  0.73098600  1
  C  C16  1  0.74227600  0.76354400  0.26303800  1
  C  C17  1  0.23645600  0.25772400  0.73696200  1
  C  C18  1  0.39449400  0.42920300  0.27123900  1
  C  C19  1  0.57079700  0.60550600  0.72876100  1
  C  C20  1  0.06919500  0.08396100  0.28509700  1
  C  C21  1  0.91603900  0.93080500  0.71490300  1
  C  C22  1  0.41319900  0.75350000  0.28549900  1
  C  C23  1  0.24650000  0.58680100  0.71450100  1
  C  C24  1  0.09269200  0.40872400  0.26312200  1
  C  C25  1  0.59127600  0.90730800  0.73687800  1
  C  C26  1  0.75756200  0.08770500  0.27136100  1
  C  C27  1  0.91229500  0.24243800  0.72863900  1
