# generated using pymatgen
data_Cu(NiC4)2
_symmetry_space_group_name_H-M   'P 1'
_cell_length_a   5.96703800
_cell_length_b   7.29666100
_cell_length_c   13.12704100
_cell_angle_alpha   90.00000000
_cell_angle_beta   90.00000000
_cell_angle_gamma   90.00000000
_symmetry_Int_Tables_number   1
_chemical_formula_structural   Cu(NiC4)2
_chemical_formula_sum   'Cu4 Ni8 C32'
_cell_volume   571.54419069
_cell_formula_units_Z   4
loop_
 _symmetry_equiv_pos_site_id
 _symmetry_equiv_pos_as_xyz
  1  'x, y, z'
loop_
 _atom_site_type_symbol
 _atom_site_label
 _atom_site_symmetry_multiplicity
 _atom_site_fract_x
 _atom_site_fract_y
 _atom_site_fract_z
 _atom_site_occupancy
  C  C0  1  0.25000000  0.74092600  0.24405600  1
  C  C1  1  0.75000000  0.25907400  0.75594400  1
  C  C2  1  0.75000000  0.24092600  0.25594400  1
  C  C3  1  0.25000000  0.75907400  0.74405600  1
  Ni  Ni4  1  0.25000000  0.29179900  0.12468100  1
  Ni  Ni5  1  0.75000000  0.70820100  0.87531900  1
  Ni  Ni6  1  0.75000000  0.79179900  0.37531900  1
  Ni  Ni7  1  0.25000000  0.20820100  0.62468100  1
  Ni  Ni8  1  0.25000000  0.17187800  0.40534200  1
  Ni  Ni9  1  0.75000000  0.82812200  0.59465800  1
  Ni  Ni10  1  0.75000000  0.67187800  0.09465800  1
  Ni  Ni11  1  0.25000000  0.32812200  0.90534200  1
  Cu  Cu12  1  0.00000000  0.00000000  0.00000000  1
  Cu  Cu13  1  0.00000000  0.50000000  0.50000000  1
  Cu  Cu14  1  0.50000000  0.00000000  0.00000000  1
  Cu  Cu15  1  0.50000000  0.50000000  0.50000000  1
  C  C16  1  0.25000000  0.01587900  0.33212800  1
  C  C17  1  0.75000000  0.98412100  0.66787200  1
  C  C18  1  0.75000000  0.51587900  0.16787200  1
  C  C19  1  0.25000000  0.48412100  0.83212800  1
  C  C20  1  0.25000000  0.40903800  0.02038500  1
  C  C21  1  0.75000000  0.59096200  0.97961500  1
  C  C22  1  0.75000000  0.90903800  0.47961500  1
  C  C23  1  0.25000000  0.09096200  0.52038500  1
  C  C24  1  0.25000000  0.42661700  0.21071800  1
  C  C25  1  0.75000000  0.57338300  0.78928200  1
  C  C26  1  0.75000000  0.92661700  0.28928200  1
  C  C27  1  0.25000000  0.07338300  0.71071800  1
  C  C28  1  0.02974400  0.28726700  0.39755300  1
  C  C29  1  0.97025600  0.71273300  0.60244700  1
  C  C30  1  0.97025600  0.78726700  0.10244700  1
  C  C31  1  0.52974400  0.71273300  0.60244700  1
  C  C32  1  0.02974400  0.21273300  0.89755300  1
  C  C33  1  0.47025600  0.28726700  0.39755300  1
  C  C34  1  0.47025600  0.21273300  0.89755300  1
  C  C35  1  0.52974400  0.78726700  0.10244700  1
  C  C36  1  0.03422100  0.17088200  0.12415900  1
  C  C37  1  0.96577900  0.82911800  0.87584100  1
  C  C38  1  0.96577900  0.67088200  0.37584100  1
  C  C39  1  0.53422100  0.82911800  0.87584100  1
  C  C40  1  0.03422100  0.32911800  0.62415900  1
  C  C41  1  0.46577900  0.17088200  0.12415900  1
  C  C42  1  0.46577900  0.32911800  0.62415900  1
  C  C43  1  0.53422100  0.67088200  0.37584100  1
