# generated using pymatgen
data_Cu(NiC2)4
_symmetry_space_group_name_H-M   'P 1'
_cell_length_a   7.47347880
_cell_length_b   7.47347880
_cell_length_c   9.64985067
_cell_angle_alpha   50.84341995
_cell_angle_beta   50.84341995
_cell_angle_gamma   22.85058836
_symmetry_Int_Tables_number   1
_chemical_formula_structural   Cu(NiC2)4
_chemical_formula_sum   'Cu1 Ni4 C8'
_cell_volume   160.08222839
_cell_formula_units_Z   1
loop_
 _symmetry_equiv_pos_site_id
 _symmetry_equiv_pos_as_xyz
  1  'x, y, z'
loop_
 _atom_site_type_symbol
 _atom_site_label
 _atom_site_symmetry_multiplicity
 _atom_site_fract_x
 _atom_site_fract_y
 _atom_site_fract_z
 _atom_site_occupancy
  Ni  Ni0  1  0.37495400  0.37495400  0.42493200  1
  Ni  Ni1  1  0.85773500  0.85773500  0.79546800  1
  Ni  Ni2  1  0.16330300  0.16330300  0.15962500  1
  Ni  Ni3  1  0.64560200  0.64560200  0.51255100  1
  Cu  Cu4  1  0.66787700  0.66787700  0.79884900  1
  C  C5  1  0.14407300  0.14407300  0.37856800  1
  C  C6  1  0.54089600  0.54089600  0.24552500  1
  C  C7  1  0.46981000  0.46981000  0.71020200  1
  C  C8  1  0.85978400  0.85978400  0.58417200  1
  C  C9  1  0.82592500  0.82592500  0.35408700  1
  C  C10  1  0.21268000  0.21268000  0.90170700  1
  C  C11  1  0.16109900  0.16109900  0.65456900  1
  C  C12  1  0.78053800  0.78053800  0.04909900  1
