# generated using pymatgen
data_Cu20Ni3C2
_symmetry_space_group_name_H-M   'P 1'
_cell_length_a   9.73321367
_cell_length_b   9.73321367
_cell_length_c   18.30660324
_cell_angle_alpha   69.78076466
_cell_angle_beta   69.78076466
_cell_angle_gamma   36.59100158
_symmetry_Int_Tables_number   1
_chemical_formula_structural   Cu20Ni3C2
_chemical_formula_sum   'Cu40 Ni6 C4'
_cell_volume   962.87894510
_cell_formula_units_Z   2
loop_
 _symmetry_equiv_pos_site_id
 _symmetry_equiv_pos_as_xyz
  1  'x, y, z'
loop_
 _atom_site_type_symbol
 _atom_site_label
 _atom_site_symmetry_multiplicity
 _atom_site_fract_x
 _atom_site_fract_y
 _atom_site_fract_z
 _atom_site_occupancy
  C  C0  1  0.15666400  0.15692700  0.61467100  1
  C  C1  1  0.84307300  0.84333600  0.88532900  1
  C  C2  1  0.84333600  0.84307300  0.38532900  1
  C  C3  1  0.15692700  0.15666400  0.11467100  1
  Ni  Ni4  1  0.23189600  0.22603100  0.90338400  1
  Ni  Ni5  1  0.77396900  0.76810400  0.59661600  1
  Ni  Ni6  1  0.76810400  0.77396900  0.09661600  1
  Ni  Ni7  1  0.22603100  0.23189600  0.40338400  1
  Ni  Ni8  1  0.70368100  0.29631900  0.25000000  1
  Ni  Ni9  1  0.29631900  0.70368100  0.75000000  1
  Cu  Cu10  1  0.17230800  0.20041100  0.85223000  1
  Cu  Cu11  1  0.79958900  0.82769200  0.64777000  1
  Cu  Cu12  1  0.82769200  0.79958900  0.14777000  1
  Cu  Cu13  1  0.20041100  0.17230800  0.35223000  1
  Cu  Cu14  1  0.47222900  0.10524200  0.87879600  1
  Cu  Cu15  1  0.89475800  0.52777100  0.62120400  1
  Cu  Cu16  1  0.52777100  0.89475800  0.12120400  1
  Cu  Cu17  1  0.10524200  0.47222900  0.37879600  1
  Cu  Cu18  1  0.06831300  0.47688100  0.90564600  1
  Cu  Cu19  1  0.52311900  0.93168700  0.59435400  1
  Cu  Cu20  1  0.93168700  0.52311900  0.09435400  1
  Cu  Cu21  1  0.47688100  0.06831300  0.40564600  1
  Cu  Cu22  1  0.22511600  0.13021500  0.98732800  1
  Cu  Cu23  1  0.86978500  0.77488400  0.51267200  1
  Cu  Cu24  1  0.77488400  0.86978500  0.01267200  1
  Cu  Cu25  1  0.13021500  0.22511600  0.48732800  1
  Cu  Cu26  1  0.56955000  0.41404800  0.18616100  1
  Cu  Cu27  1  0.58595200  0.43045000  0.31383900  1
  Cu  Cu28  1  0.43045000  0.58595200  0.81383900  1
  Cu  Cu29  1  0.41404800  0.56955000  0.68616100  1
  Cu  Cu30  1  0.79506900  0.06761100  0.28322400  1
  Cu  Cu31  1  0.93238900  0.20493100  0.21677600  1
  Cu  Cu32  1  0.20493100  0.93238900  0.71677600  1
  Cu  Cu33  1  0.06761100  0.79506900  0.78322400  1
  Cu  Cu34  1  0.63133200  0.63129600  0.90122600  1
  Cu  Cu35  1  0.36870400  0.36866800  0.59877400  1
  Cu  Cu36  1  0.36866800  0.36870400  0.09877400  1
  Cu  Cu37  1  0.63129600  0.63133200  0.40122600  1
  Cu  Cu38  1  0.11025700  0.90931100  0.92642000  1
  Cu  Cu39  1  0.09068900  0.88974300  0.57358000  1
  Cu  Cu40  1  0.88974300  0.09068900  0.07358000  1
  Cu  Cu41  1  0.90931100  0.11025700  0.42642000  1
  Cu  Cu42  1  0.92306600  0.04659100  0.90264000  1
  Cu  Cu43  1  0.95340900  0.07693400  0.59736000  1
  Cu  Cu44  1  0.07693400  0.95340900  0.09736000  1
  Cu  Cu45  1  0.04659100  0.92306600  0.40264000  1
  Cu  Cu46  1  0.68029300  0.67785300  0.83355800  1
  Cu  Cu47  1  0.32214700  0.31970700  0.66644200  1
  Cu  Cu48  1  0.31970700  0.32214700  0.16644200  1
  Cu  Cu49  1  0.67785300  0.68029300  0.33355800  1
