# generated using pymatgen
data_Cu2NiC10
_symmetry_space_group_name_H-M   'P 1'
_cell_length_a   7.03897670
_cell_length_b   11.07038403
_cell_length_c   9.55058235
_cell_angle_alpha   105.65711406
_cell_angle_beta   72.20562068
_cell_angle_gamma   82.09283436
_symmetry_Int_Tables_number   1
_chemical_formula_structural   Cu2NiC10
_chemical_formula_sum   'Cu8 Ni4 C40'
_cell_volume   662.37998444
_cell_formula_units_Z   4
loop_
 _symmetry_equiv_pos_site_id
 _symmetry_equiv_pos_as_xyz
  1  'x, y, z'
loop_
 _atom_site_type_symbol
 _atom_site_label
 _atom_site_symmetry_multiplicity
 _atom_site_fract_x
 _atom_site_fract_y
 _atom_site_fract_z
 _atom_site_occupancy
  C  C0  1  0.75173800  0.40116400  0.04696300  1
  C  C1  1  0.75175900  0.90116700  0.04693700  1
  C  C2  1  0.24823900  0.59885600  0.95304600  1
  C  C3  1  0.24825800  0.09882900  0.95305400  1
  C  C4  1  0.27766100  0.46654400  0.55838300  1
  C  C5  1  0.72233400  0.03343700  0.44161800  1
  C  C6  1  0.27762000  0.96649800  0.55838700  1
  C  C7  1  0.72240200  0.53351100  0.44159800  1
  Ni  Ni8  1  0.73073200  0.32413600  0.64502900  1
  Ni  Ni9  1  0.73072700  0.82413600  0.64501500  1
  Ni  Ni10  1  0.26927400  0.67586300  0.35498500  1
  Ni  Ni11  1  0.26926800  0.17586500  0.35497400  1
  Cu  Cu12  1  0.19374500  0.41862300  0.22482900  1
  Cu  Cu13  1  0.19373700  0.91863500  0.22483600  1
  Cu  Cu14  1  0.80626000  0.58136400  0.77516900  1
  Cu  Cu15  1  0.80625600  0.08138200  0.77517200  1
  Cu  Cu16  1  0.72053400  0.23017600  0.29854500  1
  Cu  Cu17  1  0.72053500  0.73017600  0.29853600  1
  Cu  Cu18  1  0.27946900  0.76982300  0.70146000  1
  Cu  Cu19  1  0.27946300  0.26982200  0.70145500  1
  C  C20  1  0.64930300  0.55048300  0.90464300  1
  C  C21  1  0.64932200  0.05048000  0.90463600  1
  C  C22  1  0.35068100  0.44951900  0.09536300  1
  C  C23  1  0.35068600  0.94951700  0.09535600  1
  C  C24  1  0.25911200  0.27461900  0.21374400  1
  C  C25  1  0.25910500  0.77462300  0.21375700  1
  C  C26  1  0.74089900  0.72537800  0.78624600  1
  C  C27  1  0.74088400  0.22538400  0.78625700  1
  C  C28  1  0.02567600  0.55236100  0.77713400  1
  C  C29  1  0.02567400  0.05236400  0.77713100  1
  C  C30  1  0.97432400  0.44763800  0.22287200  1
  C  C31  1  0.97431900  0.94763700  0.22287500  1
  C  C32  1  0.42020400  0.36962300  0.69785700  1
  C  C33  1  0.42020400  0.86962800  0.69786200  1
  C  C34  1  0.57979600  0.63037300  0.30214100  1
  C  C35  1  0.57979700  0.13037000  0.30213300  1
  C  C36  1  0.17403300  0.78547000  0.58093600  1
  C  C37  1  0.17402100  0.28545500  0.58093600  1
  C  C38  1  0.82597600  0.21454100  0.41906100  1
  C  C39  1  0.82597000  0.71453300  0.41906300  1
  C  C40  1  0.12879300  0.80228400  0.86695700  1
  C  C41  1  0.12878500  0.30228800  0.86696300  1
  C  C42  1  0.87121400  0.19771700  0.13303800  1
  C  C43  1  0.87121100  0.69770700  0.13304000  1
  C  C44  1  0.19133300  0.51369300  0.38414300  1
  C  C45  1  0.19132400  0.01370100  0.38414700  1
  C  C46  1  0.80867500  0.48630300  0.61585200  1
  C  C47  1  0.80866700  0.98630700  0.61586100  1
  C  C48  1  0.58657900  0.37174000  0.35933800  1
  C  C49  1  0.58658400  0.87173600  0.35934200  1
  C  C50  1  0.41341800  0.62826300  0.64065600  1
  C  C51  1  0.41341700  0.12825800  0.64066600  1
