# generated using pymatgen
data_Cu16NiC6
_symmetry_space_group_name_H-M   'P 1'
_cell_length_a   5.78989500
_cell_length_b   10.68438905
_cell_length_c   13.78697918
_cell_angle_alpha   80.76448507
_cell_angle_beta   77.87900210
_cell_angle_gamma   74.27912914
_symmetry_Int_Tables_number   1
_chemical_formula_structural   Cu16NiC6
_chemical_formula_sum   'Cu32 Ni2 C12'
_cell_volume   797.79871018
_cell_formula_units_Z   2
loop_
 _symmetry_equiv_pos_site_id
 _symmetry_equiv_pos_as_xyz
  1  'x, y, z'
loop_
 _atom_site_type_symbol
 _atom_site_label
 _atom_site_symmetry_multiplicity
 _atom_site_fract_x
 _atom_site_fract_y
 _atom_site_fract_z
 _atom_site_occupancy
  C  C0  1  0.46424500  0.31027700  0.03893300  1
  C  C1  1  0.81345400  0.18972300  0.46106700  1
  C  C2  1  0.53575500  0.68972300  0.96106700  1
  C  C3  1  0.18654600  0.81027700  0.53893300  1
  C  C4  1  0.44774400  0.55367400  0.33294900  1
  C  C5  1  0.33436700  0.94632600  0.16705100  1
  C  C6  1  0.55225600  0.44632600  0.66705100  1
  C  C7  1  0.66563300  0.05367400  0.83294900  1
  C  C8  1  0.16970000  0.31926400  0.83563000  1
  C  C9  1  0.32459400  0.18073600  0.66437000  1
  C  C10  1  0.83030000  0.68073600  0.16437000  1
  C  C11  1  0.67540600  0.81926400  0.33563000  1
  Ni  Ni12  1  0.10292100  0.25000000  0.75000000  1
  Ni  Ni13  1  0.89707900  0.75000000  0.25000000  1
  Cu  Cu14  1  0.36069000  0.23093400  0.89148600  1
  Cu  Cu15  1  0.48311000  0.26906600  0.60851400  1
  Cu  Cu16  1  0.63931000  0.76906600  0.10851400  1
  Cu  Cu17  1  0.51689000  0.73093400  0.39148600  1
  Cu  Cu18  1  0.90795200  0.32473900  0.92077700  1
  Cu  Cu19  1  0.15346800  0.17526100  0.57922300  1
  Cu  Cu20  1  0.09204800  0.67526100  0.07922300  1
  Cu  Cu21  1  0.84653200  0.82473900  0.42077700  1
  Cu  Cu22  1  0.19163000  0.45470600  0.79208100  1
  Cu  Cu23  1  0.43841700  0.04529400  0.70791900  1
  Cu  Cu24  1  0.80837000  0.54529400  0.20791900  1
  Cu  Cu25  1  0.56158300  0.95470600  0.29208100  1
  Cu  Cu26  1  0.36942400  0.57896800  0.53929200  1
  Cu  Cu27  1  0.48768400  0.92103200  0.96070800  1
  Cu  Cu28  1  0.63057600  0.42103200  0.46070800  1
  Cu  Cu29  1  0.51231600  0.07896800  0.03929200  1
  Cu  Cu30  1  0.81490600  0.98620700  0.54913400  1
  Cu  Cu31  1  0.35024700  0.51379300  0.95086600  1
  Cu  Cu32  1  0.18509400  0.01379300  0.45086600  1
  Cu  Cu33  1  0.64975300  0.48620700  0.04913400  1
  Cu  Cu34  1  0.81757800  0.70080000  0.70885400  1
  Cu  Cu35  1  0.22723200  0.79920000  0.79114600  1
  Cu  Cu36  1  0.18242200  0.29920000  0.29114600  1
  Cu  Cu37  1  0.77276800  0.20080000  0.20885400  1
  Cu  Cu38  1  0.01475400  0.08567900  0.61739100  1
  Cu  Cu39  1  0.71782400  0.41432100  0.88260900  1
  Cu  Cu40  1  0.98524600  0.91432100  0.38260900  1
  Cu  Cu41  1  0.28217600  0.58567900  0.11739100  1
  Cu  Cu42  1  0.08335900  0.87745500  0.84609700  1
  Cu  Cu43  1  0.80691100  0.62254500  0.65390300  1
  Cu  Cu44  1  0.91664100  0.12254500  0.15390300  1
  Cu  Cu45  1  0.19308900  0.37745500  0.34609700  1
