# generated using pymatgen
data_Cu2Ni6C7
_symmetry_space_group_name_H-M   'P 1'
_cell_length_a   7.28818000
_cell_length_b   8.78190500
_cell_length_c   9.43894171
_cell_angle_alpha   82.42566688
_cell_angle_beta   90.00000000
_cell_angle_gamma   90.00000000
_symmetry_Int_Tables_number   1
_chemical_formula_structural   Cu2Ni6C7
_chemical_formula_sum   'Cu8 Ni24 C28'
_cell_volume   598.85977900
_cell_formula_units_Z   4
loop_
 _symmetry_equiv_pos_site_id
 _symmetry_equiv_pos_as_xyz
  1  'x, y, z'
loop_
 _atom_site_type_symbol
 _atom_site_label
 _atom_site_symmetry_multiplicity
 _atom_site_fract_x
 _atom_site_fract_y
 _atom_site_fract_z
 _atom_site_occupancy
  C  C0  1  0.00000000  0.50000000  0.50000000  1
  C  C1  1  0.50000000  0.50000000  0.00000000  1
  C  C2  1  0.50000000  0.00000000  0.50000000  1
  C  C3  1  0.00000000  0.00000000  0.00000000  1
  Ni  Ni4  1  0.59814000  0.80358400  0.73547700  1
  Ni  Ni5  1  0.09814000  0.19641600  0.76452300  1
  Ni  Ni6  1  0.40186000  0.19641600  0.26452300  1
  Ni  Ni7  1  0.90186000  0.80358400  0.23547700  1
  Ni  Ni8  1  0.98133300  0.82596900  0.60389500  1
  Ni  Ni9  1  0.48133300  0.17403100  0.89610500  1
  Ni  Ni10  1  0.01866700  0.17403100  0.39610500  1
  Ni  Ni11  1  0.51866700  0.82596900  0.10389500  1
  Ni  Ni12  1  0.40375600  0.73647500  0.45170100  1
  Ni  Ni13  1  0.90375600  0.26352500  0.04829900  1
  Ni  Ni14  1  0.59624400  0.26352500  0.54829900  1
  Ni  Ni15  1  0.09624400  0.73647500  0.95170100  1
  Ni  Ni16  1  0.29142500  0.56984800  0.72421300  1
  Ni  Ni17  1  0.79142500  0.43015200  0.77578700  1
  Ni  Ni18  1  0.70857500  0.43015200  0.27578700  1
  Ni  Ni19  1  0.20857500  0.56984800  0.22421300  1
  Ni  Ni20  1  0.61702600  0.71686200  0.49025900  1
  Ni  Ni21  1  0.11702600  0.28313800  0.00974100  1
  Ni  Ni22  1  0.38297400  0.28313800  0.50974100  1
  Ni  Ni23  1  0.88297400  0.71686200  0.99025900  1
  Ni  Ni24  1  0.64598800  0.97143300  0.77619000  1
  Ni  Ni25  1  0.14598800  0.02856700  0.72381000  1
  Ni  Ni26  1  0.35401200  0.02856700  0.22381000  1
  Ni  Ni27  1  0.85401200  0.97143300  0.27619000  1
  Cu  Cu28  1  0.22684900  0.46201900  0.77350900  1
  Cu  Cu29  1  0.72684900  0.53798100  0.72649100  1
  Cu  Cu30  1  0.77315100  0.53798100  0.22649100  1
  Cu  Cu31  1  0.27315100  0.46201900  0.27350900  1
  Cu  Cu32  1  0.12186000  0.82158200  0.56037000  1
  Cu  Cu33  1  0.62186000  0.17841800  0.93963000  1
  Cu  Cu34  1  0.87814000  0.17841800  0.43963000  1
  Cu  Cu35  1  0.37814000  0.82158200  0.06037000  1
  C  C36  1  0.16552700  0.70464200  0.50044600  1
  C  C37  1  0.66552700  0.29535800  0.99955400  1
  C  C38  1  0.83447300  0.29535800  0.49955400  1
  C  C39  1  0.33447300  0.70464200  0.00044600  1
  C  C40  1  0.27755400  0.40802500  0.89914900  1
  C  C41  1  0.77755400  0.59197500  0.60085100  1
  C  C42  1  0.72244600  0.59197500  0.10085100  1
  C  C43  1  0.22244600  0.40802500  0.39914900  1
  C  C44  1  0.10767800  0.40068100  0.70119200  1
  C  C45  1  0.60767800  0.59931900  0.79880800  1
  C  C46  1  0.89232200  0.59931900  0.29880800  1
  C  C47  1  0.39232200  0.40068100  0.20119200  1
  C  C48  1  0.52767700  0.78116600  0.42970700  1
  C  C49  1  0.02767700  0.21883400  0.07029300  1
  C  C50  1  0.47232300  0.21883400  0.57029300  1
  C  C51  1  0.97232300  0.78116600  0.92970700  1
  C  C52  1  0.22554600  0.93359200  0.57680500  1
  C  C53  1  0.72554600  0.06640800  0.92319500  1
  C  C54  1  0.77445400  0.06640800  0.42319500  1
  C  C55  1  0.27445400  0.93359200  0.07680500  1
  C  C56  1  0.60543700  0.91409700  0.69828600  1
  C  C57  1  0.10543700  0.08590300  0.80171400  1
  C  C58  1  0.39456300  0.08590300  0.30171400  1
  C  C59  1  0.89456300  0.91409700  0.19828600  1
