# generated using pymatgen
data_Cu7(NiC)4
_symmetry_space_group_name_H-M   'P 1'
_cell_length_a   9.58748877
_cell_length_b   9.58748877
_cell_length_c   9.58748877
_cell_angle_alpha   93.96964188
_cell_angle_beta   93.96964188
_cell_angle_gamma   149.49040896
_symmetry_Int_Tables_number   1
_chemical_formula_structural   Cu7(NiC)4
_chemical_formula_sum   'Cu14 Ni8 C8'
_cell_volume   431.64682539
_cell_formula_units_Z   2
loop_
 _symmetry_equiv_pos_site_id
 _symmetry_equiv_pos_as_xyz
  1  'x, y, z'
loop_
 _atom_site_type_symbol
 _atom_site_label
 _atom_site_symmetry_multiplicity
 _atom_site_fract_x
 _atom_site_fract_y
 _atom_site_fract_z
 _atom_site_occupancy
  C  C0  1  0.69645900  0.50000000  0.19645900  1
  C  C1  1  0.50000000  0.69645900  0.19645900  1
  C  C2  1  0.50000000  0.30354100  0.80354100  1
  C  C3  1  0.30354100  0.50000000  0.80354100  1
  C  C4  1  0.86193700  0.86193700  0.72387500  1
  C  C5  1  0.13806300  0.86193700  0.00000000  1
  C  C6  1  0.86193700  0.13806300  0.00000000  1
  C  C7  1  0.13806300  0.13806300  0.27612500  1
  Ni  Ni8  1  0.10215500  0.89784500  0.50000000  1
  Ni  Ni9  1  0.89784500  0.39784500  0.79569000  1
  Ni  Ni10  1  0.60215500  0.10215500  0.20431000  1
  Ni  Ni11  1  0.10215500  0.60215500  0.20431000  1
  Ni  Ni12  1  0.60215500  0.39784500  0.50000000  1
  Ni  Ni13  1  0.39784500  0.89784500  0.79569000  1
  Ni  Ni14  1  0.89784500  0.10215500  0.50000000  1
  Ni  Ni15  1  0.39784500  0.60215500  0.50000000  1
  Cu  Cu16  1  0.74991800  0.74991800  0.00000000  1
  Cu  Cu17  1  0.25008200  0.25008200  0.00000000  1
  Cu  Cu18  1  0.09122600  0.50000000  0.59122600  1
  Cu  Cu19  1  0.50000000  0.09122600  0.59122600  1
  Cu  Cu20  1  0.50000000  0.90877400  0.40877400  1
  Cu  Cu21  1  0.90877400  0.50000000  0.40877400  1
  Cu  Cu22  1  0.69955300  0.00000000  0.69955300  1
  Cu  Cu23  1  0.00000000  0.69955300  0.69955300  1
  Cu  Cu24  1  0.71046800  0.71046800  0.42093600  1
  Cu  Cu25  1  0.28953200  0.71046800  0.00000000  1
  Cu  Cu26  1  0.30044700  0.00000000  0.30044700  1
  Cu  Cu27  1  0.71046800  0.28953200  0.00000000  1
  Cu  Cu28  1  0.28953200  0.28953200  0.57906400  1
  Cu  Cu29  1  0.00000000  0.30044700  0.30044700  1
