# generated using pymatgen
data_Cu6Ni12C25
_symmetry_space_group_name_H-M   'P 1'
_cell_length_a   6.05595883
_cell_length_b   6.11417650
_cell_length_c   18.36067325
_cell_angle_alpha   61.66920912
_cell_angle_beta   59.89602789
_cell_angle_gamma   59.70062662
_symmetry_Int_Tables_number   1
_chemical_formula_structural   Cu6Ni12C25
_chemical_formula_sum   'Cu6 Ni12 C25'
_cell_volume   484.96148585
_cell_formula_units_Z   1
loop_
 _symmetry_equiv_pos_site_id
 _symmetry_equiv_pos_as_xyz
  1  'x, y, z'
loop_
 _atom_site_type_symbol
 _atom_site_label
 _atom_site_symmetry_multiplicity
 _atom_site_fract_x
 _atom_site_fract_y
 _atom_site_fract_z
 _atom_site_occupancy
  C  C0  1  0.05857527  0.93028933  0.14988116  1
  Ni  Ni1  1  0.02606625  0.43389612  0.17015673  1
  Ni  Ni2  1  0.51732486  0.42609690  0.17195572  1
  Ni  Ni3  1  0.00550353  0.49062048  0.50161853  1
  Ni  Ni4  1  0.52143418  0.93583037  0.17118787  1
  Ni  Ni5  1  0.51658340  0.48288135  0.32914727  1
  Ni  Ni6  1  0.49890226  0.49047677  0.50094823  1
  Ni  Ni7  1  0.97766572  0.54905926  0.82606372  1
  Ni  Ni8  1  0.49432158  0.99761279  0.50245192  1
  Ni  Ni9  1  0.47227979  0.03888221  0.83192455  1
  Ni  Ni10  1  0.48753911  0.51849093  0.66375072  1
  Ni  Ni11  1  0.47797501  0.54873673  0.82567171  1
  Ni  Ni12  1  0.82977450  0.92750880  0.96058097  1
  Cu  Cu13  1  0.04320477  0.35249749  0.01464201  1
  Cu  Cu14  1  0.13283197  0.10439515  0.37744616  1
  Cu  Cu15  1  0.47498509  0.51355072  0.99718412  1
  Cu  Cu16  1  0.10752278  0.15112852  0.70609159  1
  Cu  Cu17  1  0.85222783  0.83298233  0.31341185  1
  Cu  Cu18  1  0.86574695  0.88915456  0.62193681  1
  C  C19  1  0.28657507  0.17533124  0.08540881  1
  C  C20  1  0.28741955  0.19764522  0.24568908  1
  C  C21  1  0.29313824  0.64973849  0.09389352  1
  C  C22  1  0.76755249  0.17503699  0.09096324  1
  C  C23  1  0.27962508  0.70695664  0.24136308  1
  C  C24  1  0.27005200  0.24322186  0.42193650  1
  C  C25  1  0.76040700  0.21631815  0.24508046  1
  C  C26  1  0.78888870  0.66522830  0.07852027  1
  C  C27  1  0.25787410  0.70273954  0.42499775  1
  C  C28  1  0.25816799  0.25500618  0.57457254  1
  C  C29  1  0.77702568  0.71547735  0.24385796  1
  C  C30  1  0.72202955  0.25003448  0.42258488  1
  C  C31  1  0.27274248  0.73394939  0.58130878  1
  C  C32  1  0.23404657  0.29590880  0.75203580  1
  C  C33  1  0.73964925  0.28431671  0.57848047  1
  C  C34  1  0.73490932  0.72434989  0.43637606  1
  C  C35  1  0.23667124  0.32504439  0.89656588  1
  C  C36  1  0.24637963  0.75200723  0.74915384  1
  C  C37  1  0.73035105  0.73935622  0.58244920  1
  C  C38  1  0.69700002  0.28323179  0.75085369  1
  C  C39  1  0.23592490  0.80238311  0.90809777  1
  C  C40  1  0.71402610  0.77579394  0.75807079  1
  C  C41  1  0.71451736  0.32238220  0.90603449  1
  C  C42  1  0.73038675  0.79028608  0.90636450  1
