# generated using pymatgen
data_Cu2Ni4C17
_symmetry_space_group_name_H-M   'P 1'
_cell_length_a   5.69453000
_cell_length_b   12.65447000
_cell_length_c   21.69085800
_cell_angle_alpha   90.00000000
_cell_angle_beta   90.00000000
_cell_angle_gamma   90.00000000
_symmetry_Int_Tables_number   1
_chemical_formula_structural   Cu2Ni4C17
_chemical_formula_sum   'Cu8 Ni16 C68'
_cell_volume   1563.07053734
_cell_formula_units_Z   4
loop_
 _symmetry_equiv_pos_site_id
 _symmetry_equiv_pos_as_xyz
  1  'x, y, z'
loop_
 _atom_site_type_symbol
 _atom_site_label
 _atom_site_symmetry_multiplicity
 _atom_site_fract_x
 _atom_site_fract_y
 _atom_site_fract_z
 _atom_site_occupancy
  C  C0  1  0.74942400  0.52800200  0.75000000  1
  C  C1  1  0.25057600  0.47199800  0.25000000  1
  C  C2  1  0.74942400  0.97199800  0.25000000  1
  C  C3  1  0.25057600  0.02800200  0.75000000  1
  Ni  Ni4  1  0.64343800  0.39138800  0.52298500  1
  Ni  Ni5  1  0.35656200  0.60861200  0.02298500  1
  Ni  Ni6  1  0.64343800  0.10861200  0.47701500  1
  Ni  Ni7  1  0.35656200  0.89138800  0.97701500  1
  Ni  Ni8  1  0.35656200  0.60861200  0.47701500  1
  Ni  Ni9  1  0.64343800  0.39138800  0.97701500  1
  Ni  Ni10  1  0.35656200  0.89138800  0.52298500  1
  Ni  Ni11  1  0.64343800  0.10861200  0.02298500  1
  Ni  Ni12  1  0.11668500  0.23239500  0.58894400  1
  Ni  Ni13  1  0.88331500  0.76760500  0.08894400  1
  Ni  Ni14  1  0.11668500  0.26760500  0.41105600  1
  Ni  Ni15  1  0.88331500  0.73239500  0.91105600  1
  Ni  Ni16  1  0.88331500  0.76760500  0.41105600  1
  Ni  Ni17  1  0.11668500  0.23239500  0.91105600  1
  Ni  Ni18  1  0.88331500  0.73239500  0.58894400  1
  Ni  Ni19  1  0.11668500  0.26760500  0.08894400  1
  Cu  Cu20  1  0.27180300  0.51174200  0.63316800  1
  Cu  Cu21  1  0.72819700  0.48825800  0.13316800  1
  Cu  Cu22  1  0.27180300  0.98825800  0.36683200  1
  Cu  Cu23  1  0.72819700  0.01174200  0.86683200  1
  Cu  Cu24  1  0.72819700  0.48825800  0.36683200  1
  Cu  Cu25  1  0.27180300  0.51174200  0.86683200  1
  Cu  Cu26  1  0.72819700  0.01174200  0.63316800  1
  Cu  Cu27  1  0.27180300  0.98825800  0.13316800  1
  C  C28  1  0.84040500  0.66607400  0.75000000  1
  C  C29  1  0.15959500  0.33392600  0.25000000  1
  C  C30  1  0.84040500  0.83392600  0.25000000  1
  C  C31  1  0.15959500  0.16607400  0.75000000  1
  C  C32  1  0.63314700  0.39520900  0.75000000  1
  C  C33  1  0.36685300  0.60479100  0.25000000  1
  C  C34  1  0.63314700  0.10479100  0.25000000  1
  C  C35  1  0.36685300  0.89520900  0.75000000  1
  C  C36  1  0.33865200  0.05766000  0.53376800  1
  C  C37  1  0.66134800  0.94234000  0.03376800  1
  C  C38  1  0.33865200  0.44234000  0.46623200  1
  C  C39  1  0.66134800  0.55766000  0.96623200  1
  C  C40  1  0.66134800  0.94234000  0.46623200  1
  C  C41  1  0.33865200  0.05766000  0.96623200  1
  C  C42  1  0.66134800  0.55766000  0.53376800  1
  C  C43  1  0.33865200  0.44234000  0.03376800  1
  C  C44  1  0.44828600  0.25000000  0.50000000  1
  C  C45  1  0.55171400  0.75000000  0.00000000  1
  C  C46  1  0.55171400  0.75000000  0.50000000  1
  C  C47  1  0.44828600  0.25000000  0.00000000  1
  C  C48  1  0.95928900  0.25000000  0.50000000  1
  C  C49  1  0.04071100  0.75000000  0.00000000  1
  C  C50  1  0.04071100  0.75000000  0.50000000  1
  C  C51  1  0.95928900  0.25000000  0.00000000  1
  C  C52  1  0.35107300  0.39271200  0.59793900  1
  C  C53  1  0.64892700  0.60728800  0.09793900  1
  C  C54  1  0.35107300  0.10728800  0.40206100  1
  C  C55  1  0.64892700  0.89271200  0.90206100  1
  C  C56  1  0.64892700  0.60728800  0.40206100  1
  C  C57  1  0.35107300  0.39271200  0.90206100  1
  C  C58  1  0.64892700  0.89271200  0.59793900  1
  C  C59  1  0.35107300  0.10728800  0.09793900  1
  C  C60  1  0.49951700  0.57228700  0.83030900  1
  C  C61  1  0.50048300  0.42771300  0.33030900  1
  C  C62  1  0.49951700  0.92771300  0.16969100  1
  C  C63  1  0.50048300  0.07228700  0.66969100  1
  C  C64  1  0.50048300  0.42771300  0.16969100  1
  C  C65  1  0.49951700  0.57228700  0.66969100  1
  C  C66  1  0.50048300  0.07228700  0.83030900  1
  C  C67  1  0.49951700  0.92771300  0.33030900  1
  C  C68  1  0.17368400  0.59532300  0.57293800  1
  C  C69  1  0.82631600  0.40467700  0.07293800  1
  C  C70  1  0.17368400  0.90467700  0.42706200  1
  C  C71  1  0.82631600  0.09532300  0.92706200  1
  C  C72  1  0.82631600  0.40467700  0.42706200  1
  C  C73  1  0.17368400  0.59532300  0.92706200  1
  C  C74  1  0.82631600  0.09532300  0.57293800  1
  C  C75  1  0.17368400  0.90467700  0.07293800  1
  C  C76  1  0.03786600  0.49230600  0.67971200  1
  C  C77  1  0.96213400  0.50769400  0.17971200  1
  C  C78  1  0.03786600  0.00769400  0.32028800  1
  C  C79  1  0.96213400  0.99230600  0.82028800  1
  C  C80  1  0.96213400  0.50769400  0.32028800  1
  C  C81  1  0.03786600  0.49230600  0.82028800  1
  C  C82  1  0.96213400  0.99230600  0.67971200  1
  C  C83  1  0.03786600  0.00769400  0.17971200  1
  C  C84  1  0.83137400  0.34586300  0.60086900  1
  C  C85  1  0.16862600  0.65413700  0.10086900  1
  C  C86  1  0.83137400  0.15413700  0.39913100  1
  C  C87  1  0.16862600  0.84586300  0.89913100  1
  C  C88  1  0.16862600  0.65413700  0.39913100  1
  C  C89  1  0.83137400  0.34586300  0.89913100  1
  C  C90  1  0.16862600  0.84586300  0.60086900  1
  C  C91  1  0.83137400  0.15413700  0.10086900  1
