# generated using pymatgen
data_Cu2NiC7
_symmetry_space_group_name_H-M   'P 1'
_cell_length_a   7.72282663
_cell_length_b   9.67889049
_cell_length_c   7.72115424
_cell_angle_alpha   109.73353527
_cell_angle_beta   74.23260360
_cell_angle_gamma   75.85118991
_symmetry_Int_Tables_number   1
_chemical_formula_structural   Cu2NiC7
_chemical_formula_sum   'Cu8 Ni4 C28'
_cell_volume   485.47035281
_cell_formula_units_Z   4
loop_
 _symmetry_equiv_pos_site_id
 _symmetry_equiv_pos_as_xyz
  1  'x, y, z'
loop_
 _atom_site_type_symbol
 _atom_site_label
 _atom_site_symmetry_multiplicity
 _atom_site_fract_x
 _atom_site_fract_y
 _atom_site_fract_z
 _atom_site_occupancy
  Ni  Ni0  1  0.88123000  0.87526500  0.24372500  1
  Ni  Ni1  1  0.38123900  0.37524700  0.24382800  1
  Ni  Ni2  1  0.61879800  0.62472500  0.75617000  1
  Ni  Ni3  1  0.11871900  0.12482000  0.75622900  1
  C  C4  1  0.72422500  0.37434700  0.90087600  1
  C  C5  1  0.77579100  0.12559200  0.09908500  1
  C  C6  1  0.22419000  0.87450200  0.90086400  1
  C  C7  1  0.27566600  0.62587400  0.09936000  1
  Cu  Cu8  1  0.53323600  0.67765800  0.38954300  1
  Cu  Cu9  1  0.03318000  0.17774600  0.38959500  1
  Cu  Cu10  1  0.53789800  0.07233900  0.78899000  1
  Cu  Cu11  1  0.03785300  0.57220700  0.78893100  1
  Cu  Cu12  1  0.96675400  0.82228200  0.61048500  1
  Cu  Cu13  1  0.46684400  0.32229800  0.61040900  1
  Cu  Cu14  1  0.96214100  0.42764900  0.21098400  1
  Cu  Cu15  1  0.46216100  0.92776400  0.21106300  1
  C  C16  1  0.79105400  0.62368300  0.30319800  1
  C  C17  1  0.29095300  0.12369000  0.30327900  1
  C  C18  1  0.57068100  0.12625800  0.58515800  1
  C  C19  1  0.07053400  0.62630900  0.58529400  1
  C  C20  1  0.70895900  0.87630700  0.69677100  1
  C  C21  1  0.20906000  0.37626700  0.69668700  1
  C  C22  1  0.92931800  0.37374600  0.41483900  1
  C  C23  1  0.42945900  0.87368400  0.41472400  1
  C  C24  1  0.19250700  0.43693200  0.13343000  1
  C  C25  1  0.69255900  0.93712500  0.13338100  1
  C  C26  1  0.05376500  0.81281100  0.37041500  1
  C  C27  1  0.55373800  0.31276300  0.37032700  1
  C  C28  1  0.30755400  0.06299900  0.86658000  1
  C  C29  1  0.80741700  0.56289600  0.86659800  1
  C  C30  1  0.44628800  0.68703400  0.62948700  1
  C  C31  1  0.94627400  0.18722900  0.62966600  1
  C  C32  1  0.48293500  0.54794200  0.20054600  1
  C  C33  1  0.98292900  0.04807600  0.20061100  1
  C  C34  1  0.59745600  0.20197400  0.96876100  1
  C  C35  1  0.09725200  0.70200700  0.96878300  1
  C  C36  1  0.01692300  0.95209000  0.79954600  1
  C  C37  1  0.51715900  0.45187700  0.79935400  1
  C  C38  1  0.90255000  0.29802600  0.03126300  1
  C  C39  1  0.40275000  0.79796300  0.03116600  1
