# generated using pymatgen
data_Cu6Ni3C2
_symmetry_space_group_name_H-M   'P 1'
_cell_length_a   10.33976080
_cell_length_b   10.33976080
_cell_length_c   10.33976082
_cell_angle_alpha   34.86715335
_cell_angle_beta   34.86715335
_cell_angle_gamma   34.86715566
_symmetry_Int_Tables_number   1
_chemical_formula_structural   Cu6Ni3C2
_chemical_formula_sum   'Cu12 Ni6 C4'
_cell_volume   322.49711001
_cell_formula_units_Z   2
loop_
 _symmetry_equiv_pos_site_id
 _symmetry_equiv_pos_as_xyz
  1  'x, y, z'
loop_
 _atom_site_type_symbol
 _atom_site_label
 _atom_site_symmetry_multiplicity
 _atom_site_fract_x
 _atom_site_fract_y
 _atom_site_fract_z
 _atom_site_occupancy
  C  C0  1  0.16335600  0.16335600  0.16335600  1
  C  C1  1  0.66335600  0.66335600  0.66335600  1
  C  C2  1  0.83664400  0.83664400  0.83664400  1
  C  C3  1  0.33664400  0.33664400  0.33664400  1
  Ni  Ni4  1  0.44902400  0.75000000  0.05097600  1
  Ni  Ni5  1  0.05097600  0.44902400  0.75000000  1
  Ni  Ni6  1  0.75000000  0.05097600  0.44902400  1
  Ni  Ni7  1  0.25000000  0.94902400  0.55097600  1
  Ni  Ni8  1  0.55097600  0.25000000  0.94902400  1
  Ni  Ni9  1  0.94902400  0.55097600  0.25000000  1
  Cu  Cu10  1  0.46295800  0.85387400  0.05510700  1
  Cu  Cu11  1  0.05510700  0.46295800  0.85387400  1
  Cu  Cu12  1  0.85387400  0.05510700  0.46295800  1
  Cu  Cu13  1  0.35387400  0.96295800  0.55510700  1
  Cu  Cu14  1  0.55510700  0.35387400  0.96295800  1
  Cu  Cu15  1  0.96295800  0.55510700  0.35387400  1
  Cu  Cu16  1  0.53704200  0.14612600  0.94489300  1
  Cu  Cu17  1  0.94489300  0.53704200  0.14612600  1
  Cu  Cu18  1  0.14612600  0.94489300  0.53704200  1
  Cu  Cu19  1  0.64612600  0.03704200  0.44489300  1
  Cu  Cu20  1  0.44489300  0.64612600  0.03704200  1
  Cu  Cu21  1  0.03704200  0.44489300  0.64612600  1
