# generated using pymatgen
data_Cu3NiC8
_symmetry_space_group_name_H-M   'P 1'
_cell_length_a   3.43734517
_cell_length_b   3.43734517
_cell_length_c   39.20869700
_cell_angle_alpha   90.00000000
_cell_angle_beta   90.00000000
_cell_angle_gamma   119.99998404
_symmetry_Int_Tables_number   1
_chemical_formula_structural   Cu3NiC8
_chemical_formula_sum   'Cu3 Ni1 C8'
_cell_volume   401.19859356
_cell_formula_units_Z   1
loop_
 _symmetry_equiv_pos_site_id
 _symmetry_equiv_pos_as_xyz
  1  'x, y, z'
loop_
 _atom_site_type_symbol
 _atom_site_label
 _atom_site_symmetry_multiplicity
 _atom_site_fract_x
 _atom_site_fract_y
 _atom_site_fract_z
 _atom_site_occupancy
  C  C0  1  0.33333300  0.66666700  0.32910200  1
  C  C1  1  0.66666700  0.33333300  0.42207000  1
  C  C2  1  0.66666700  0.33333300  0.51733000  1
  C  C3  1  0.33333300  0.66666700  0.23441300  1
  Ni  Ni4  1  0.66666700  0.33333300  0.28177400  1
  Cu  Cu5  1  0.33333300  0.66666700  0.09392200  1
  Cu  Cu6  1  0.33333300  0.66666700  0.46968700  1
  Cu  Cu7  1  0.66666700  0.33333300  0.65753000  1
  C  C8  1  0.33333300  0.66666700  0.69944700  1
  C  C9  1  0.66666700  0.33333300  0.05203100  1
  C  C10  1  0.66666700  0.33333300  0.13581000  1
  C  C11  1  0.33333300  0.66666700  0.61563100  1
