# generated using pymatgen
data_Cu4NiC9
_symmetry_space_group_name_H-M   'P 1'
_cell_length_a   7.18939800
_cell_length_b   8.89321261
_cell_length_c   11.88704418
_cell_angle_alpha   98.47035790
_cell_angle_beta   107.60209729
_cell_angle_gamma   90.00000000
_symmetry_Int_Tables_number   1
_chemical_formula_structural   Cu4NiC9
_chemical_formula_sum   'Cu16 Ni4 C36'
_cell_volume   715.73346132
_cell_formula_units_Z   4
loop_
 _symmetry_equiv_pos_site_id
 _symmetry_equiv_pos_as_xyz
  1  'x, y, z'
loop_
 _atom_site_type_symbol
 _atom_site_label
 _atom_site_symmetry_multiplicity
 _atom_site_fract_x
 _atom_site_fract_y
 _atom_site_fract_z
 _atom_site_occupancy
  C  C0  1  0.15382500  0.33910700  0.30765000  1
  C  C1  1  0.84617500  0.66089300  0.69235000  1
  C  C2  1  0.48187500  0.25541400  0.63643800  1
  C  C3  1  0.15456300  0.25541400  0.63643800  1
  C  C4  1  0.51812500  0.74458600  0.36356200  1
  C  C5  1  0.84543700  0.74458600  0.36356200  1
  C  C6  1  0.48836500  0.05268100  0.63610500  1
  C  C7  1  0.14774000  0.05268100  0.63610500  1
  C  C8  1  0.51163500  0.94731900  0.36389500  1
  C  C9  1  0.85226000  0.94731900  0.36389500  1
  C  C10  1  0.66798400  0.17754300  0.74922200  1
  C  C11  1  0.08123800  0.17754300  0.74922200  1
  C  C12  1  0.33201600  0.82245700  0.25077800  1
  C  C13  1  0.91876200  0.82245700  0.25077800  1
  C  C14  1  0.57574200  0.06479900  0.89987600  1
  C  C15  1  0.32413500  0.06479900  0.89987600  1
  C  C16  1  0.42425800  0.93520100  0.10012400  1
  C  C17  1  0.67586500  0.93520100  0.10012400  1
  C  C18  1  0.39305700  0.94277700  0.78611500  1
  C  C19  1  0.60694300  0.05722300  0.21388500  1
  C  C20  1  0.39656000  0.41898200  0.79312000  1
  C  C21  1  0.60344000  0.58101800  0.20688000  1
  C  C22  1  0.57760700  0.33581300  0.90482700  1
  C  C23  1  0.32722100  0.33581300  0.90482700  1
  C  C24  1  0.42239300  0.66418700  0.09517300  1
  C  C25  1  0.67277900  0.66418700  0.09517300  1
  C  C26  1  0.51610100  0.16492100  0.69176500  1
  C  C27  1  0.17566400  0.16492100  0.69176500  1
  C  C28  1  0.48389900  0.83507900  0.30823500  1
  C  C29  1  0.82433600  0.83507900  0.30823500  1
  C  C30  1  0.42235900  0.05292200  0.84471800  1
  C  C31  1  0.57764100  0.94707800  0.15528200  1
  C  C32  1  0.42457300  0.32905100  0.84914600  1
  C  C33  1  0.57542700  0.67094900  0.15085400  1
  C  C34  1  0.28405900  0.63617100  0.56811900  1
  C  C35  1  0.71594100  0.36382900  0.43188100  1
  Ni  Ni36  1  0.38466600  0.17747900  0.76933200  1
  Ni  Ni37  1  0.61533400  0.82252100  0.23066800  1
  Ni  Ni38  1  0.02308700  0.20796400  0.04617400  1
  Ni  Ni39  1  0.97691300  0.79203600  0.95382600  1
  Cu  Cu40  1  0.17486500  0.14954700  0.34973100  1
  Cu  Cu41  1  0.82513500  0.85045300  0.65026900  1
  Cu  Cu42  1  0.13195900  0.52762000  0.26391900  1
  Cu  Cu43  1  0.86804100  0.47238000  0.73608100  1
  Cu  Cu44  1  0.25312400  0.44461300  0.50624900  1
  Cu  Cu45  1  0.74687600  0.55538700  0.49375100  1
  Cu  Cu46  1  0.51553700  0.64413300  0.66597100  1
  Cu  Cu47  1  0.15043300  0.64413300  0.66597100  1
  Cu  Cu48  1  0.48446300  0.35586700  0.33402900  1
  Cu  Cu49  1  0.84956700  0.35586700  0.33402900  1
  Cu  Cu50  1  0.20454000  0.23537900  0.10588400  1
  Cu  Cu51  1  0.90134400  0.23537900  0.10588400  1
  Cu  Cu52  1  0.79546000  0.76462100  0.89411600  1
  Cu  Cu53  1  0.09865600  0.76462100  0.89411600  1
  Cu  Cu54  1  0.96897400  0.15877700  0.93794700  1
  Cu  Cu55  1  0.03102600  0.84122300  0.06205300  1
