# generated using pymatgen
data_CuNiC8
_symmetry_space_group_name_H-M   'P 1'
_cell_length_a   7.98461200
_cell_length_b   11.60128400
_cell_length_c   13.04378300
_cell_angle_alpha   90.00000000
_cell_angle_beta   90.00000000
_cell_angle_gamma   90.00000000
_symmetry_Int_Tables_number   1
_chemical_formula_structural   CuNiC8
_chemical_formula_sum   'Cu4 Ni4 C32'
_cell_volume   1208.26846472
_cell_formula_units_Z   4
loop_
 _symmetry_equiv_pos_site_id
 _symmetry_equiv_pos_as_xyz
  1  'x, y, z'
loop_
 _atom_site_type_symbol
 _atom_site_label
 _atom_site_symmetry_multiplicity
 _atom_site_fract_x
 _atom_site_fract_y
 _atom_site_fract_z
 _atom_site_occupancy
  C  C0  1  0.82303800  0.66551700  0.25920400  1
  C  C1  1  0.17696200  0.33448300  0.75920400  1
  C  C2  1  0.82303800  0.83448300  0.75920400  1
  C  C3  1  0.17696200  0.16551700  0.25920400  1
  Ni  Ni4  1  0.65895400  0.43523700  0.01618300  1
  Ni  Ni5  1  0.34104600  0.56476300  0.51618300  1
  Ni  Ni6  1  0.65895400  0.06476300  0.51618300  1
  Ni  Ni7  1  0.34104600  0.93523700  0.01618300  1
  Cu  Cu8  1  0.48669000  0.51470300  0.06267900  1
  Cu  Cu9  1  0.51331000  0.48529700  0.56267900  1
  Cu  Cu10  1  0.48669000  0.98529700  0.56267900  1
  Cu  Cu11  1  0.51331000  0.01470300  0.06267900  1
  C  C12  1  0.70005700  0.46471700  0.92277600  1
  C  C13  1  0.29994300  0.53528300  0.42277600  1
  C  C14  1  0.70005700  0.03528300  0.42277600  1
  C  C15  1  0.29994300  0.96471700  0.92277600  1
  C  C16  1  0.71360800  0.35953800  0.08231100  1
  C  C17  1  0.28639200  0.64046200  0.58231100  1
  C  C18  1  0.71360800  0.14046200  0.58231100  1
  C  C19  1  0.28639200  0.85953800  0.08231100  1
  C  C20  1  0.00085800  0.77997000  0.35600400  1
  C  C21  1  0.99914200  0.22003000  0.85600400  1
  C  C22  1  0.00085800  0.72003000  0.85600400  1
  C  C23  1  0.99914200  0.27997000  0.35600400  1
  C  C24  1  0.61557000  0.77361900  0.33603500  1
  C  C25  1  0.38443000  0.22638100  0.83603500  1
  C  C26  1  0.61557000  0.72638100  0.83603500  1
  C  C27  1  0.38443000  0.27361900  0.33603500  1
  C  C28  1  0.06959600  0.58631700  0.19808700  1
  C  C29  1  0.93040400  0.41368300  0.69808700  1
  C  C30  1  0.06959600  0.91368300  0.69808700  1
  C  C31  1  0.93040400  0.08631700  0.19808700  1
  C  C32  1  0.74347800  0.53613200  0.30024800  1
  C  C33  1  0.25652200  0.46386800  0.80024800  1
  C  C34  1  0.74347800  0.96386800  0.80024800  1
  C  C35  1  0.25652200  0.03613200  0.30024800  1
  C  C36  1  0.75322300  0.69731700  0.13827300  1
  C  C37  1  0.24677700  0.30268300  0.63827300  1
  C  C38  1  0.75322300  0.80268300  0.63827300  1
  C  C39  1  0.24677700  0.19731700  0.13827300  1
