# generated using pymatgen
data_Cu4NiC3
_symmetry_space_group_name_H-M   'P 1'
_cell_length_a   14.32880155
_cell_length_b   14.32880155
_cell_length_c   14.32880136
_cell_angle_alpha   18.73357045
_cell_angle_beta   18.73357045
_cell_angle_gamma   18.73357096
_symmetry_Int_Tables_number   1
_chemical_formula_structural   Cu4NiC3
_chemical_formula_sum   'Cu4 Ni1 C3'
_cell_volume   265.14021896
_cell_formula_units_Z   1
loop_
 _symmetry_equiv_pos_site_id
 _symmetry_equiv_pos_as_xyz
  1  'x, y, z'
loop_
 _atom_site_type_symbol
 _atom_site_label
 _atom_site_symmetry_multiplicity
 _atom_site_fract_x
 _atom_site_fract_y
 _atom_site_fract_z
 _atom_site_occupancy
  C  C0  1  0.24899600  0.24899600  0.24899600  1
  C  C1  1  0.50000000  0.50000000  0.50000000  1
  C  C2  1  0.75100400  0.75100400  0.75100400  1
  Ni  Ni3  1  0.00000000  0.00000000  0.00000000  1
  Cu  Cu4  1  0.37468900  0.37468900  0.37468900  1
  Cu  Cu5  1  0.12457600  0.12457600  0.12457600  1
  Cu  Cu6  1  0.62531100  0.62531100  0.62531100  1
  Cu  Cu7  1  0.87542400  0.87542400  0.87542400  1
