# generated using pymatgen
data_CuNiC5
_symmetry_space_group_name_H-M   'P 1'
_cell_length_a   5.18823800
_cell_length_b   7.52905800
_cell_length_c   9.59657000
_cell_angle_alpha   90.00000000
_cell_angle_beta   90.00000000
_cell_angle_gamma   90.00000000
_symmetry_Int_Tables_number   1
_chemical_formula_structural   CuNiC5
_chemical_formula_sum   'Cu4 Ni4 C20'
_cell_volume   374.86644574
_cell_formula_units_Z   4
loop_
 _symmetry_equiv_pos_site_id
 _symmetry_equiv_pos_as_xyz
  1  'x, y, z'
loop_
 _atom_site_type_symbol
 _atom_site_label
 _atom_site_symmetry_multiplicity
 _atom_site_fract_x
 _atom_site_fract_y
 _atom_site_fract_z
 _atom_site_occupancy
  C  C0  1  0.02402700  0.21107100  0.34469100  1
  C  C1  1  0.52402700  0.28892900  0.65530900  1
  C  C2  1  0.97597300  0.71107100  0.15530900  1
  C  C3  1  0.47597300  0.78892900  0.84469100  1
  Ni  Ni4  1  0.47813800  0.89953800  0.49148300  1
  Ni  Ni5  1  0.97813800  0.60046200  0.50851700  1
  Ni  Ni6  1  0.52186200  0.39953800  0.00851700  1
  Ni  Ni7  1  0.02186200  0.10046200  0.99148300  1
  Cu  Cu8  1  0.51216700  0.01429600  0.16176300  1
  Cu  Cu9  1  0.01216700  0.48570400  0.83823700  1
  Cu  Cu10  1  0.48783300  0.51429600  0.33823700  1
  Cu  Cu11  1  0.98783300  0.98570400  0.66176300  1
  C  C12  1  0.82527800  0.02192700  0.15335000  1
  C  C13  1  0.32527800  0.47807300  0.84665000  1
  C  C14  1  0.17472200  0.52192700  0.34665000  1
  C  C15  1  0.67472200  0.97807300  0.65335000  1
  C  C16  1  0.41163900  0.03625000  0.32437600  1
  C  C17  1  0.91163900  0.46375000  0.67562400  1
  C  C18  1  0.58836100  0.53625000  0.17562400  1
  C  C19  1  0.08836100  0.96375000  0.82437600  1
  C  C20  1  0.63217400  0.67049100  0.43116400  1
  C  C21  1  0.13217400  0.82950900  0.56883600  1
  C  C22  1  0.36782600  0.17049100  0.06883600  1
  C  C23  1  0.86782600  0.32950900  0.93116400  1
  C  C24  1  0.61511200  0.33091100  0.40333500  1
  C  C25  1  0.11511200  0.16908900  0.59666500  1
  C  C26  1  0.38488800  0.83091100  0.09666500  1
  C  C27  1  0.88488800  0.66908900  0.90333500  1
