# generated using pymatgen
data_Cu2Ni7C15
_symmetry_space_group_name_H-M   'P 1'
_cell_length_a   7.18981400
_cell_length_b   7.41650600
_cell_length_c   21.29410318
_cell_angle_alpha   90.00000000
_cell_angle_beta   100.12095720
_cell_angle_gamma   90.00000000
_symmetry_Int_Tables_number   1
_chemical_formula_structural   Cu2Ni7C15
_chemical_formula_sum   'Cu8 Ni28 C60'
_cell_volume   1117.80271258
_cell_formula_units_Z   4
loop_
 _symmetry_equiv_pos_site_id
 _symmetry_equiv_pos_as_xyz
  1  'x, y, z'
loop_
 _atom_site_type_symbol
 _atom_site_label
 _atom_site_symmetry_multiplicity
 _atom_site_fract_x
 _atom_site_fract_y
 _atom_site_fract_z
 _atom_site_occupancy
  C  C0  1  0.43534600  0.91826000  0.87787800  1
  C  C1  1  0.43534600  0.58174000  0.37787800  1
  C  C2  1  0.56465400  0.08174000  0.12212200  1
  C  C3  1  0.56465400  0.41826000  0.62212200  1
  C  C4  1  0.94387700  0.92378800  0.88089100  1
  C  C5  1  0.94387700  0.57621200  0.38089100  1
  C  C6  1  0.05612300  0.07621200  0.11910900  1
  C  C7  1  0.05612300  0.42378800  0.61910900  1
  C  C8  1  0.00000000  0.50000000  0.00000000  1
  C  C9  1  0.00000000  0.00000000  0.50000000  1
  C  C10  1  0.50000000  0.50000000  0.00000000  1
  C  C11  1  0.50000000  0.00000000  0.50000000  1
  Ni  Ni12  1  0.73338900  0.27633500  0.96779600  1
  Ni  Ni13  1  0.73338900  0.22366500  0.46779600  1
  Ni  Ni14  1  0.26661100  0.72366500  0.03220400  1
  Ni  Ni15  1  0.26661100  0.77633500  0.53220400  1
  Ni  Ni16  1  0.94118800  0.24658000  0.80529100  1
  Ni  Ni17  1  0.94118800  0.25342000  0.30529100  1
  Ni  Ni18  1  0.05881200  0.75342000  0.19470900  1
  Ni  Ni19  1  0.05881200  0.74658000  0.69470900  1
  Ni  Ni20  1  0.84833700  0.09022100  0.76070800  1
  Ni  Ni21  1  0.84833700  0.40977900  0.26070800  1
  Ni  Ni22  1  0.15166300  0.90977900  0.23929200  1
  Ni  Ni23  1  0.15166300  0.59022100  0.73929200  1
  Ni  Ni24  1  0.69873000  0.62191400  0.85628300  1
  Ni  Ni25  1  0.69873000  0.87808600  0.35628300  1
  Ni  Ni26  1  0.30127000  0.37808600  0.14371700  1
  Ni  Ni27  1  0.30127000  0.12191400  0.64371700  1
  Ni  Ni28  1  0.63630200  0.70198900  0.78775200  1
  Ni  Ni29  1  0.63630200  0.79801100  0.28775200  1
  Ni  Ni30  1  0.36369800  0.29801100  0.21224800  1
  Ni  Ni31  1  0.36369800  0.20198900  0.71224800  1
  Ni  Ni32  1  0.37028400  0.25838500  0.81297800  1
  Ni  Ni33  1  0.37028400  0.24161500  0.31297800  1
  Ni  Ni34  1  0.62971600  0.74161500  0.18702200  1
  Ni  Ni35  1  0.62971600  0.75838500  0.68702200  1
  Ni  Ni36  1  0.57650600  0.18846400  0.80595100  1
  Ni  Ni37  1  0.57650600  0.31153600  0.30595100  1
  Ni  Ni38  1  0.42349400  0.81153600  0.19404900  1
  Ni  Ni39  1  0.42349400  0.68846400  0.69404900  1
  Cu  Cu40  1  0.81805500  0.47328500  0.13033800  1
  Cu  Cu41  1  0.81805500  0.02671500  0.63033800  1
  Cu  Cu42  1  0.18194500  0.52671500  0.86966200  1
  Cu  Cu43  1  0.18194500  0.97328500  0.36966200  1
  Cu  Cu44  1  0.74543900  0.87074500  0.99620600  1
  Cu  Cu45  1  0.74543900  0.62925500  0.49620600  1
  Cu  Cu46  1  0.25456100  0.12925500  0.00379400  1
  Cu  Cu47  1  0.25456100  0.37074500  0.50379400  1
  C  C48  1  0.82316700  0.27776100  0.14312100  1
  C  C49  1  0.82316700  0.22223900  0.64312100  1
  C  C50  1  0.17683300  0.72223900  0.85687900  1
  C  C51  1  0.17683300  0.77776100  0.35687900  1
  C  C52  1  0.84872900  0.57826600  0.19071100  1
  C  C53  1  0.84872900  0.92173400  0.69071100  1
  C  C54  1  0.15127100  0.42173400  0.80928900  1
  C  C55  1  0.15127100  0.07826600  0.30928900  1
  C  C56  1  0.37142700  0.47248300  0.90690200  1
  C  C57  1  0.37142700  0.02751700  0.40690200  1
  C  C58  1  0.62857300  0.52751700  0.09309800  1
  C  C59  1  0.62857300  0.97248300  0.59309800  1
  C  C60  1  0.02745200  0.47677200  0.90597900  1
  C  C61  1  0.02745200  0.02322800  0.40597900  1
  C  C62  1  0.97254800  0.52322800  0.09402100  1
  C  C63  1  0.97254800  0.97677200  0.59402100  1
  C  C64  1  0.90912300  0.75817200  0.98229400  1
  C  C65  1  0.90912300  0.74182800  0.48229400  1
  C  C66  1  0.09087700  0.24182800  0.01770600  1
  C  C67  1  0.09087700  0.25817200  0.51770600  1
  C  C68  1  0.56821100  0.75783800  0.98134600  1
  C  C69  1  0.56821100  0.74216200  0.48134600  1
  C  C70  1  0.43178900  0.24216200  0.01865400  1
  C  C71  1  0.43178900  0.25783800  0.51865400  1
  C  C72  1  0.72282600  0.02057600  0.94968300  1
  C  C73  1  0.72282600  0.47942400  0.44968300  1
  C  C74  1  0.27717400  0.97942400  0.05031700  1
  C  C75  1  0.27717400  0.52057600  0.55031700  1
  C  C76  1  0.77894100  0.93026500  0.06272100  1
  C  C77  1  0.77894100  0.56973500  0.56272100  1
  C  C78  1  0.22105900  0.06973500  0.93727900  1
  C  C79  1  0.22105900  0.43026500  0.43727900  1
  C  C80  1  0.73770800  0.40696700  0.97613900  1
  C  C81  1  0.73770800  0.09303300  0.47613900  1
  C  C82  1  0.26229200  0.59303300  0.02386100  1
  C  C83  1  0.26229200  0.90696700  0.52386100  1
  C  C84  1  0.84841100  0.14752400  0.80244900  1
  C  C85  1  0.84841100  0.35247600  0.30244900  1
  C  C86  1  0.15158900  0.85247600  0.19755100  1
  C  C87  1  0.15158900  0.64752400  0.69755100  1
  C  C88  1  0.67059300  0.73540600  0.83351300  1
  C  C89  1  0.67059300  0.76459400  0.33351300  1
  C  C90  1  0.32940700  0.26459400  0.16648700  1
  C  C91  1  0.32940700  0.23540600  0.66648700  1
  C  C92  1  0.44085900  0.15689000  0.79858700  1
  C  C93  1  0.44085900  0.34311000  0.29858700  1
  C  C94  1  0.55914100  0.84311000  0.20141300  1
  C  C95  1  0.55914100  0.65689000  0.70141300  1
