# generated using pymatgen
data_CuNi3C16
_symmetry_space_group_name_H-M   'P 1'
_cell_length_a   5.33918300
_cell_length_b   10.83152000
_cell_length_c   15.15263300
_cell_angle_alpha   90.00000000
_cell_angle_beta   90.00000000
_cell_angle_gamma   89.99998398
_symmetry_Int_Tables_number   1
_chemical_formula_structural   CuNi3C16
_chemical_formula_sum   'Cu4 Ni12 C64'
_cell_volume   876.29900209
_cell_formula_units_Z   4
loop_
 _symmetry_equiv_pos_site_id
 _symmetry_equiv_pos_as_xyz
  1  'x, y, z'
loop_
 _atom_site_type_symbol
 _atom_site_label
 _atom_site_symmetry_multiplicity
 _atom_site_fract_x
 _atom_site_fract_y
 _atom_site_fract_z
 _atom_site_occupancy
  C  C0  1  0.99137300  0.02117100  0.12500000  1
  C  C1  1  0.99150700  0.02230100  0.62500000  1
  C  C2  1  0.99104300  0.52297900  0.12500000  1
  C  C3  1  0.99136500  0.52219800  0.62500000  1
  C  C4  1  0.00868800  0.47831300  0.37505300  1
  C  C5  1  0.00868800  0.47831300  0.87494700  1
  C  C6  1  0.00854200  0.97763400  0.37536500  1
  C  C7  1  0.00854200  0.97763400  0.87463500  1
  C  C8  1  0.49156600  0.22836800  0.37550600  1
  C  C9  1  0.49156600  0.22836800  0.87449400  1
  C  C10  1  0.49119700  0.72731800  0.37489800  1
  C  C11  1  0.49119700  0.72731800  0.87510200  1
  C  C12  1  0.50870900  0.27242300  0.12500000  1
  C  C13  1  0.50855000  0.27211800  0.62500000  1
  C  C14  1  0.50881600  0.77119900  0.12500000  1
  C  C15  1  0.50857600  0.77236100  0.62500000  1
  Ni  Ni16  1  0.50023500  0.00009500  0.50013600  1
  Ni  Ni17  1  0.50076900  0.50006400  0.00014100  1
  Ni  Ni18  1  0.50014700  0.50004400  0.49996100  1
  Ni  Ni19  1  0.99949000  0.25013600  0.50010800  1
  Ni  Ni20  1  0.00049500  0.74990000  0.99998400  1
  Ni  Ni21  1  0.00006700  0.74995700  0.49999500  1
  Ni  Ni22  1  0.99949000  0.25013600  0.74989200  1
  Ni  Ni23  1  0.00049500  0.74990000  0.25001600  1
  Ni  Ni24  1  0.00006700  0.74995700  0.75000500  1
  Ni  Ni25  1  0.50023500  0.00009500  0.74986400  1
  Ni  Ni26  1  0.50076900  0.50006400  0.24985900  1
  Ni  Ni27  1  0.50014700  0.50004400  0.75003900  1
  Cu  Cu28  1  0.49761200  0.99950000  0.99964500  1
  Cu  Cu29  1  0.99921200  0.25014400  0.99995800  1
  Cu  Cu30  1  0.99921200  0.25014400  0.25004200  1
  Cu  Cu31  1  0.49761200  0.99950000  0.25035500  1
  C  C32  1  0.20775100  0.10401600  0.26959600  1
  C  C33  1  0.20601700  0.10393600  0.77048500  1
  C  C34  1  0.20587600  0.60353000  0.27026700  1
  C  C35  1  0.20598200  0.60392500  0.77015800  1
  C  C36  1  0.79405300  0.39655400  0.23000300  1
  C  C37  1  0.79386200  0.39616700  0.72978900  1
  C  C38  1  0.79336700  0.89583900  0.22959500  1
  C  C39  1  0.79406800  0.89605900  0.72990900  1
  C  C40  1  0.70780500  0.14578800  0.23010700  1
  C  C41  1  0.70605600  0.14616300  0.72984400  1
  C  C42  1  0.70578300  0.64647200  0.22978100  1
  C  C43  1  0.70599700  0.64607400  0.72981400  1
  C  C44  1  0.29364400  0.35411100  0.27024400  1
  C  C45  1  0.29380400  0.35386900  0.77033100  1
  C  C46  1  0.29383300  0.85335000  0.26983600  1
  C  C47  1  0.29414100  0.85399600  0.77032800  1
  C  C48  1  0.29380400  0.35386900  0.47966800  1
  C  C49  1  0.29364400  0.35411100  0.97975500  1
  C  C50  1  0.29414100  0.85399700  0.47967100  1
  C  C51  1  0.29383300  0.85335000  0.98016300  1
  C  C52  1  0.70780500  0.14578800  0.01989200  1
  C  C53  1  0.70605600  0.14616300  0.52015500  1
  C  C54  1  0.70578300  0.64647100  0.02021800  1
  C  C55  1  0.70599700  0.64607300  0.52018500  1
  C  C56  1  0.79405300  0.39655400  0.01999600  1
  C  C57  1  0.79386200  0.39616700  0.52021000  1
  C  C58  1  0.79336700  0.89583800  0.02040400  1
  C  C59  1  0.79406800  0.89605900  0.52009000  1
  C  C60  1  0.20601700  0.10393600  0.47951400  1
  C  C61  1  0.20775100  0.10401600  0.98040300  1
  C  C62  1  0.20598200  0.60392500  0.47984100  1
  C  C63  1  0.20587600  0.60353000  0.97973200  1
  C  C64  1  0.57744700  0.00972800  0.37483000  1
  C  C65  1  0.57744700  0.00972900  0.87517000  1
  C  C66  1  0.57850800  0.50944700  0.37504400  1
  C  C67  1  0.57850800  0.50944700  0.87495600  1
  C  C68  1  0.42153500  0.49013200  0.12500000  1
  C  C69  1  0.42191200  0.49048700  0.62500000  1
  C  C70  1  0.42372800  0.99087900  0.12500000  1
  C  C71  1  0.42188200  0.99055200  0.62500000  1
  C  C72  1  0.07573300  0.24029500  0.12500000  1
  C  C73  1  0.07816500  0.24059100  0.62500000  1
  C  C74  1  0.07898300  0.74058900  0.12500000  1
  C  C75  1  0.07808900  0.74047600  0.62500000  1
  C  C76  1  0.92223300  0.25940100  0.37489000  1
  C  C77  1  0.92223300  0.25940200  0.87511000  1
  C  C78  1  0.92177100  0.75972100  0.37503000  1
  C  C79  1  0.92177100  0.75972100  0.87497000  1
