# generated using pymatgen
data_Cu(NiC6)2
_symmetry_space_group_name_H-M   'P 1'
_cell_length_a   5.64249834
_cell_length_b   5.64249834
_cell_length_c   6.87880900
_cell_angle_alpha   90.00000000
_cell_angle_beta   90.00000000
_cell_angle_gamma   120.00000397
_symmetry_Int_Tables_number   1
_chemical_formula_structural   Cu(NiC6)2
_chemical_formula_sum   'Cu1 Ni2 C12'
_cell_volume   189.66480327
_cell_formula_units_Z   1
loop_
 _symmetry_equiv_pos_site_id
 _symmetry_equiv_pos_as_xyz
  1  'x, y, z'
loop_
 _atom_site_type_symbol
 _atom_site_label
 _atom_site_symmetry_multiplicity
 _atom_site_fract_x
 _atom_site_fract_y
 _atom_site_fract_z
 _atom_site_occupancy
  Ni  Ni0  1  0.66666700  0.33333300  0.33532800  1
  Ni  Ni1  1  0.33333300  0.66666700  0.66467200  1
  Cu  Cu2  1  0.00000000  0.00000000  0.00000000  1
  C  C3  1  0.00000000  0.00000000  0.50000000  1
  C  C4  1  0.66666700  0.33333300  0.83360000  1
  C  C5  1  0.33333300  0.66666700  0.16640000  1
  C  C6  1  0.67710300  0.83855100  0.32090300  1
  C  C7  1  0.32289700  0.16144900  0.67909700  1
  C  C8  1  0.00000000  0.50000000  0.00000000  1
  C  C9  1  0.83855100  0.67710300  0.67909700  1
  C  C10  1  0.50000000  0.00000000  0.00000000  1
  C  C11  1  0.16144900  0.32289700  0.32090300  1
  C  C12  1  0.83855100  0.16144900  0.67909700  1
  C  C13  1  0.50000000  0.50000000  0.00000000  1
  C  C14  1  0.16144900  0.83855100  0.32090300  1
