# generated using pymatgen
data_Cu3NiC12
_symmetry_space_group_name_H-M   'P 1'
_cell_length_a   5.92340850
_cell_length_b   8.34338256
_cell_length_c   5.94983851
_cell_angle_alpha   89.53346629
_cell_angle_beta   87.38348816
_cell_angle_gamma   90.55067644
_symmetry_Int_Tables_number   1
_chemical_formula_structural   Cu3NiC12
_chemical_formula_sum   'Cu6 Ni2 C24'
_cell_volume   293.71757105
_cell_formula_units_Z   2
loop_
 _symmetry_equiv_pos_site_id
 _symmetry_equiv_pos_as_xyz
  1  'x, y, z'
loop_
 _atom_site_type_symbol
 _atom_site_label
 _atom_site_symmetry_multiplicity
 _atom_site_fract_x
 _atom_site_fract_y
 _atom_site_fract_z
 _atom_site_occupancy
  C  C0  1  0.99830300  0.50173700  0.99711400  1
  C  C1  1  0.50164100  0.99826000  0.50285000  1
  C  C2  1  0.49862400  0.50435900  0.00256100  1
  C  C3  1  0.00132400  0.99554400  0.49750200  1
  C  C4  1  0.74987900  0.25006900  0.24989300  1
  C  C5  1  0.25002500  0.75000800  0.74996000  1
  C  C6  1  0.24996600  0.24999300  0.25007900  1
  C  C7  1  0.74999800  0.75000400  0.75002600  1
  Ni  Ni8  1  0.50429400  0.49182900  0.51168300  1
  Ni  Ni9  1  0.99572300  0.00818200  0.98834800  1
  Cu  Cu10  1  0.74999900  0.74998700  0.24997700  1
  Cu  Cu11  1  0.25001300  0.24999600  0.75003800  1
  Cu  Cu12  1  0.24999400  0.74999700  0.24997900  1
  Cu  Cu13  1  0.49359300  0.99922700  0.00316600  1
  Cu  Cu14  1  0.00643900  0.50076700  0.49682600  1
  Cu  Cu15  1  0.75003600  0.24998200  0.74999100  1
  C  C16  1  0.48264800  0.76765900  0.01236000  1
  C  C17  1  0.00660700  0.27363300  0.51375700  1
  C  C18  1  0.49343300  0.22641300  0.98637400  1
  C  C19  1  0.01736700  0.73235300  0.48756400  1
  C  C20  1  0.50641500  0.26420300  0.49475400  1
  C  C21  1  0.99051100  0.75855300  0.02224100  1
  C  C22  1  0.50946800  0.74143600  0.47767500  1
  C  C23  1  0.99362300  0.23581000  0.00531100  1
  C  C24  1  0.25750800  0.50371400  0.27555100  1
  C  C25  1  0.74711700  0.99455300  0.77718600  1
  C  C26  1  0.73933000  0.51733300  0.25317500  1
  C  C27  1  0.22504400  0.99445600  0.75487000  1
  C  C28  1  0.75292300  0.50545600  0.72280800  1
  C  C29  1  0.24251400  0.99629100  0.22443800  1
  C  C30  1  0.27490600  0.50554900  0.74509800  1
  C  C31  1  0.76073800  0.98264600  0.24684800  1
