# generated using pymatgen
data_Cu11NiC2
_symmetry_space_group_name_H-M   'P 1'
_cell_length_a   9.89762400
_cell_length_b   10.33642900
_cell_length_c   12.91402389
_cell_angle_alpha   90.00000000
_cell_angle_beta   124.12040356
_cell_angle_gamma   90.00000000
_symmetry_Int_Tables_number   1
_chemical_formula_structural   Cu11NiC2
_chemical_formula_sum   'Cu44 Ni4 C8'
_cell_volume   1093.75561175
_cell_formula_units_Z   4
loop_
 _symmetry_equiv_pos_site_id
 _symmetry_equiv_pos_as_xyz
  1  'x, y, z'
loop_
 _atom_site_type_symbol
 _atom_site_label
 _atom_site_symmetry_multiplicity
 _atom_site_fract_x
 _atom_site_fract_y
 _atom_site_fract_z
 _atom_site_occupancy
  C  C0  1  0.51996800  0.55884600  0.36876500  1
  C  C1  1  0.51996800  0.94115400  0.86876500  1
  C  C2  1  0.48003200  0.44115400  0.63123500  1
  C  C3  1  0.48003200  0.05884600  0.13123500  1
  C  C4  1  0.11115400  0.62783200  0.38246100  1
  C  C5  1  0.11115400  0.87216800  0.88246100  1
  C  C6  1  0.88884600  0.37216800  0.61753900  1
  C  C7  1  0.88884600  0.12783200  0.11753900  1
  Ni  Ni8  1  0.23693100  0.69753400  0.23075400  1
  Ni  Ni9  1  0.23693100  0.80246600  0.73075400  1
  Ni  Ni10  1  0.76306900  0.30246600  0.76924600  1
  Ni  Ni11  1  0.76306900  0.19753400  0.26924600  1
  Cu  Cu12  1  0.62699100  0.69983900  0.46752600  1
  Cu  Cu13  1  0.62699100  0.80016100  0.96752600  1
  Cu  Cu14  1  0.37300900  0.30016100  0.53247400  1
  Cu  Cu15  1  0.37300900  0.19983900  0.03247400  1
  Cu  Cu16  1  0.41387300  0.41061100  0.28451900  1
  Cu  Cu17  1  0.41387300  0.08938900  0.78451900  1
  Cu  Cu18  1  0.58612700  0.58938900  0.71548100  1
  Cu  Cu19  1  0.58612700  0.91061100  0.21548100  1
  Cu  Cu20  1  0.21087500  0.78316300  0.44881000  1
  Cu  Cu21  1  0.21087500  0.71683700  0.94881000  1
  Cu  Cu22  1  0.78912500  0.21683700  0.55119000  1
  Cu  Cu23  1  0.78912500  0.28316300  0.05119000  1
  Cu  Cu24  1  0.06572700  0.47197600  0.30200200  1
  Cu  Cu25  1  0.06572700  0.02802400  0.80200200  1
  Cu  Cu26  1  0.93427300  0.52802400  0.69799800  1
  Cu  Cu27  1  0.93427300  0.97197600  0.19799800  1
  Cu  Cu28  1  0.37260400  0.55718600  0.45235100  1
  Cu  Cu29  1  0.37260400  0.94281400  0.95235100  1
  Cu  Cu30  1  0.62739600  0.44281400  0.54764900  1
  Cu  Cu31  1  0.62739600  0.05718600  0.04764900  1
  Cu  Cu32  1  0.79333900  0.45551300  0.45912700  1
  Cu  Cu33  1  0.79333900  0.04448700  0.95912700  1
  Cu  Cu34  1  0.20666100  0.54448700  0.54087300  1
  Cu  Cu35  1  0.20666100  0.95551300  0.04087300  1
  Cu  Cu36  1  0.54655100  0.60935200  0.24140800  1
  Cu  Cu37  1  0.54655100  0.89064800  0.74140800  1
  Cu  Cu38  1  0.45344900  0.39064800  0.75859200  1
  Cu  Cu39  1  0.45344900  0.10935200  0.25859200  1
  Cu  Cu40  1  0.95469700  0.69236100  0.43394000  1
  Cu  Cu41  1  0.95469700  0.80763900  0.93394000  1
  Cu  Cu42  1  0.04530300  0.30763900  0.56606000  1
  Cu  Cu43  1  0.04530300  0.19236100  0.06606000  1
  Cu  Cu44  1  0.94030100  0.70894900  0.24401700  1
  Cu  Cu45  1  0.94030100  0.79105100  0.74401700  1
  Cu  Cu46  1  0.05969900  0.29105100  0.75598300  1
  Cu  Cu47  1  0.05969900  0.20894900  0.25598300  1
  Cu  Cu48  1  0.06081700  0.47049600  0.01363500  1
  Cu  Cu49  1  0.06081700  0.02950400  0.51363500  1
  Cu  Cu50  1  0.93918300  0.52950400  0.98636500  1
  Cu  Cu51  1  0.93918300  0.97049600  0.48636500  1
  Cu  Cu52  1  0.43487200  0.01932700  0.45593200  1
  Cu  Cu53  1  0.43487200  0.48067300  0.95593200  1
  Cu  Cu54  1  0.56512800  0.98067300  0.54406800  1
  Cu  Cu55  1  0.56512800  0.51932700  0.04406800  1
