# generated using pymatgen
data_Cu(NiC3)3
_symmetry_space_group_name_H-M   'P 1'
_cell_length_a   9.49752035
_cell_length_b   9.49752035
_cell_length_c   13.88989300
_cell_angle_alpha   90.00000000
_cell_angle_beta   90.00000000
_cell_angle_gamma   120.00000246
_symmetry_Int_Tables_number   1
_chemical_formula_structural   Cu(NiC3)3
_chemical_formula_sum   'Cu6 Ni18 C54'
_cell_volume   1085.05058869
_cell_formula_units_Z   6
loop_
 _symmetry_equiv_pos_site_id
 _symmetry_equiv_pos_as_xyz
  1  'x, y, z'
loop_
 _atom_site_type_symbol
 _atom_site_label
 _atom_site_symmetry_multiplicity
 _atom_site_fract_x
 _atom_site_fract_y
 _atom_site_fract_z
 _atom_site_occupancy
  Ni  Ni0  1  0.00000000  0.00000000  0.50000000  1
  Ni  Ni1  1  0.00000000  0.00000000  0.00000000  1
  Ni  Ni2  1  0.66666700  0.33333300  0.75000000  1
  Ni  Ni3  1  0.33333300  0.66666700  0.25000000  1
  Ni  Ni4  1  0.66666700  0.33333300  0.25000000  1
  Ni  Ni5  1  0.33333300  0.66666700  0.75000000  1
  Ni  Ni6  1  0.31716500  0.98649100  0.41077900  1
  Ni  Ni7  1  0.01350900  0.33067400  0.41077900  1
  Ni  Ni8  1  0.66932600  0.68283500  0.41077900  1
  Ni  Ni9  1  0.68283500  0.01350900  0.91077900  1
  Ni  Ni10  1  0.98649100  0.66932600  0.91077900  1
  Ni  Ni11  1  0.33067400  0.31716500  0.91077900  1
  Ni  Ni12  1  0.68283500  0.01350900  0.58922100  1
  Ni  Ni13  1  0.98649100  0.66932600  0.58922100  1
  Ni  Ni14  1  0.33067400  0.31716500  0.58922100  1
  Ni  Ni15  1  0.31716500  0.98649100  0.08922100  1
  Ni  Ni16  1  0.01350900  0.33067400  0.08922100  1
  Ni  Ni17  1  0.66932600  0.68283500  0.08922100  1
  Cu  Cu18  1  0.00000000  0.00000000  0.25000000  1
  Cu  Cu19  1  0.00000000  0.00000000  0.75000000  1
  Cu  Cu20  1  0.66666700  0.33333300  0.51874400  1
  Cu  Cu21  1  0.33333300  0.66666700  0.01874400  1
  Cu  Cu22  1  0.33333300  0.66666700  0.48125600  1
  Cu  Cu23  1  0.66666700  0.33333300  0.98125600  1
  C  C24  1  0.98195000  0.65379100  0.35932200  1
  C  C25  1  0.34620900  0.32815900  0.35932200  1
  C  C26  1  0.67184100  0.01805000  0.35932200  1
  C  C27  1  0.01805000  0.34620900  0.85932200  1
  C  C28  1  0.65379100  0.67184100  0.85932200  1
  C  C29  1  0.32815900  0.98195000  0.85932200  1
  C  C30  1  0.01805000  0.34620900  0.64067800  1
  C  C31  1  0.65379100  0.67184100  0.64067800  1
  C  C32  1  0.32815900  0.98195000  0.64067800  1
  C  C33  1  0.98195000  0.65379100  0.14067800  1
  C  C34  1  0.34620900  0.32815900  0.14067800  1
  C  C35  1  0.67184100  0.01805000  0.14067800  1
  C  C36  1  0.82863100  0.55836500  0.43400800  1
  C  C37  1  0.44163500  0.27026600  0.43400800  1
  C  C38  1  0.72973400  0.17136900  0.43400800  1
  C  C39  1  0.17136900  0.44163500  0.93400800  1
  C  C40  1  0.55836500  0.72973400  0.93400800  1
  C  C41  1  0.27026600  0.82863100  0.93400800  1
  C  C42  1  0.17136900  0.44163500  0.56599200  1
  C  C43  1  0.55836500  0.72973400  0.56599200  1
  C  C44  1  0.27026600  0.82863100  0.56599200  1
  C  C45  1  0.82863100  0.55836500  0.06599200  1
  C  C46  1  0.44163500  0.27026600  0.06599200  1
  C  C47  1  0.72973400  0.17136900  0.06599200  1
  C  C48  1  0.04865600  0.84962400  0.36028900  1
  C  C49  1  0.15037600  0.19903200  0.36028900  1
  C  C50  1  0.80096800  0.95134400  0.36028900  1
  C  C51  1  0.95134400  0.15037600  0.86028900  1
  C  C52  1  0.84962400  0.80096800  0.86028900  1
  C  C53  1  0.19903200  0.04865600  0.86028900  1
  C  C54  1  0.95134400  0.15037600  0.63971100  1
  C  C55  1  0.84962400  0.80096800  0.63971100  1
  C  C56  1  0.19903200  0.04865600  0.63971100  1
  C  C57  1  0.04865600  0.84962400  0.13971100  1
  C  C58  1  0.15037600  0.19903200  0.13971100  1
  C  C59  1  0.80096800  0.95134400  0.13971100  1
  C  C60  1  0.60986000  0.48504000  0.62057600  1
  C  C61  1  0.51496000  0.12482000  0.62057600  1
  C  C62  1  0.87518000  0.39014000  0.62057600  1
  C  C63  1  0.39014000  0.51496000  0.12057600  1
  C  C64  1  0.48504000  0.87518000  0.12057600  1
  C  C65  1  0.12482000  0.60986000  0.12057600  1
  C  C66  1  0.39014000  0.51496000  0.37942400  1
  C  C67  1  0.48504000  0.87518000  0.37942400  1
  C  C68  1  0.12482000  0.60986000  0.37942400  1
  C  C69  1  0.60986000  0.48504000  0.87942400  1
  C  C70  1  0.51496000  0.12482000  0.87942400  1
  C  C71  1  0.87518000  0.39014000  0.87942400  1
  C  C72  1  0.89978300  0.58101100  0.25000000  1
  C  C73  1  0.41898900  0.31877200  0.25000000  1
  C  C74  1  0.68122800  0.10021700  0.25000000  1
  C  C75  1  0.10021700  0.41898900  0.75000000  1
  C  C76  1  0.58101100  0.68122800  0.75000000  1
  C  C77  1  0.31877200  0.89978300  0.75000000  1
