# generated using pymatgen
data_Cu3NiC2
_symmetry_space_group_name_H-M   'P 1'
_cell_length_a   3.22109603
_cell_length_b   3.22109603
_cell_length_c   36.30738800
_cell_angle_alpha   90.00000000
_cell_angle_beta   90.00000000
_cell_angle_gamma   120.00000064
_symmetry_Int_Tables_number   1
_chemical_formula_structural   Cu3NiC2
_chemical_formula_sum   'Cu6 Ni2 C4'
_cell_volume   326.23682414
_cell_formula_units_Z   2
loop_
 _symmetry_equiv_pos_site_id
 _symmetry_equiv_pos_as_xyz
  1  'x, y, z'
loop_
 _atom_site_type_symbol
 _atom_site_label
 _atom_site_symmetry_multiplicity
 _atom_site_fract_x
 _atom_site_fract_y
 _atom_site_fract_z
 _atom_site_occupancy
  C  C0  1  0.33333300  0.66666700  0.09390900  1
  C  C1  1  0.33333300  0.66666700  0.46964800  1
  C  C2  1  0.66666700  0.33333300  0.28180700  1
  C  C3  1  0.66666700  0.33333300  0.65754000  1
  Ni  Ni4  1  0.66666700  0.33333300  0.04680300  1
  Ni  Ni5  1  0.66666700  0.33333300  0.14101600  1
  Cu  Cu6  1  0.33333300  0.66666700  0.32458100  1
  Cu  Cu7  1  0.33333300  0.66666700  0.70051700  1
  Cu  Cu8  1  0.66666700  0.33333300  0.42688900  1
  Cu  Cu9  1  0.66666700  0.33333300  0.51243800  1
  Cu  Cu10  1  0.33333300  0.66666700  0.23903600  1
  Cu  Cu11  1  0.33333300  0.66666700  0.61456500  1
