# generated using pymatgen
data_Cu2Ni2C5
_symmetry_space_group_name_H-M   'P 1'
_cell_length_a   7.27988254
_cell_length_b   7.52553735
_cell_length_c   7.52553735
_cell_angle_alpha   107.00287159
_cell_angle_beta   97.25834994
_cell_angle_gamma   97.25834994
_symmetry_Int_Tables_number   1
_chemical_formula_structural   Cu2Ni2C5
_chemical_formula_sum   'Cu8 Ni8 C20'
_cell_volume   385.26864923
_cell_formula_units_Z   4
loop_
 _symmetry_equiv_pos_site_id
 _symmetry_equiv_pos_as_xyz
  1  'x, y, z'
loop_
 _atom_site_type_symbol
 _atom_site_label
 _atom_site_symmetry_multiplicity
 _atom_site_fract_x
 _atom_site_fract_y
 _atom_site_fract_z
 _atom_site_occupancy
  C  C0  1  0.00000000  0.00000000  0.00000000  1
  C  C1  1  0.50000000  0.00000000  0.00000000  1
  C  C2  1  0.25000000  0.24955900  0.75044100  1
  C  C3  1  0.75000000  0.75044100  0.24955900  1
  C  C4  1  0.09688900  0.12376300  0.43259800  1
  C  C5  1  0.40311100  0.56740200  0.87623700  1
  C  C6  1  0.90311100  0.87623700  0.56740200  1
  C  C7  1  0.59688900  0.43259800  0.12376300  1
  C  C8  1  0.57210100  0.23510200  0.61795900  1
  C  C9  1  0.92789900  0.38204100  0.76489800  1
  C  C10  1  0.42789900  0.76489800  0.38204100  1
  C  C11  1  0.07210100  0.61795900  0.23510200  1
  C  C12  1  0.64413700  0.23870400  0.40301500  1
  C  C13  1  0.85586300  0.59698500  0.76129600  1
  C  C14  1  0.35586300  0.76129600  0.59698500  1
  C  C15  1  0.14413700  0.40301500  0.23870400  1
  C  C16  1  0.36155600  0.19421300  0.39733900  1
  C  C17  1  0.13844400  0.60266100  0.80578700  1
  C  C18  1  0.63844400  0.80578700  0.60266100  1
  C  C19  1  0.86155600  0.39733900  0.19421300  1
  Ni  Ni20  1  0.22791900  0.18009400  0.50986600  1
  Ni  Ni21  1  0.27208100  0.49013400  0.81990600  1
  Ni  Ni22  1  0.77208000  0.81990600  0.49013400  1
  Ni  Ni23  1  0.72792000  0.50986600  0.18009400  1
  Ni  Ni24  1  0.54291700  0.24356300  0.48467600  1
  Ni  Ni25  1  0.95708300  0.51532400  0.75643700  1
  Ni  Ni26  1  0.45708300  0.75643700  0.51532400  1
  Ni  Ni27  1  0.04291700  0.48467600  0.24356300  1
  Cu  Cu28  1  0.06397600  0.16830500  0.78689000  1
  Cu  Cu29  1  0.43602400  0.21311000  0.83169500  1
  Cu  Cu30  1  0.93602400  0.83169500  0.21311000  1
  Cu  Cu31  1  0.56397600  0.78689000  0.16830500  1
  Cu  Cu32  1  0.31316100  0.16487100  0.22311200  1
  Cu  Cu33  1  0.18683900  0.77688800  0.83512900  1
  Cu  Cu34  1  0.68683900  0.83512900  0.77688800  1
  Cu  Cu35  1  0.81316100  0.22311200  0.16487100  1
