# generated using pymatgen
data_Cu6Ni2C21
_symmetry_space_group_name_H-M   'P 1'
_cell_length_a   14.14068300
_cell_length_b   6.87486900
_cell_length_c   10.13479751
_cell_angle_alpha   68.81171342
_cell_angle_beta   90.00000000
_cell_angle_gamma   90.00000000
_symmetry_Int_Tables_number   1
_chemical_formula_structural   Cu6Ni2C21
_chemical_formula_sum   'Cu12 Ni4 C42'
_cell_volume   918.65213441
_cell_formula_units_Z   2
loop_
 _symmetry_equiv_pos_site_id
 _symmetry_equiv_pos_as_xyz
  1  'x, y, z'
loop_
 _atom_site_type_symbol
 _atom_site_label
 _atom_site_symmetry_multiplicity
 _atom_site_fract_x
 _atom_site_fract_y
 _atom_site_fract_z
 _atom_site_occupancy
  C  C0  1  0.21620800  0.95493300  0.92655500  1
  C  C1  1  0.78379200  0.95493300  0.42655500  1
  Ni  Ni2  1  0.00758400  0.00122700  0.50050500  1
  Ni  Ni3  1  0.99241600  0.00122700  0.00050500  1
  Ni  Ni4  1  0.35596200  0.60577700  0.15030800  1
  Ni  Ni5  1  0.64403800  0.60577700  0.65030800  1
  Cu  Cu6  1  0.15015600  0.65811700  0.48356500  1
  Cu  Cu7  1  0.84984400  0.65811700  0.98356500  1
  Cu  Cu8  1  0.03758300  0.29125400  0.69211200  1
  Cu  Cu9  1  0.96241700  0.29125400  0.19211200  1
  Cu  Cu10  1  0.12476800  0.59184300  0.19293400  1
  Cu  Cu11  1  0.87523200  0.59184300  0.69293400  1
  Cu  Cu12  1  0.47521000  0.97547800  0.93905300  1
  Cu  Cu13  1  0.52479000  0.97547800  0.43905300  1
  Cu  Cu14  1  0.37285200  0.64200000  0.46197300  1
  Cu  Cu15  1  0.62714800  0.64200000  0.96197300  1
  Cu  Cu16  1  0.49987700  0.26055300  0.12170900  1
  Cu  Cu17  1  0.50012300  0.26055300  0.62170900  1
  C  C18  1  0.10248100  0.88220500  0.45289300  1
  C  C19  1  0.89751900  0.88220500  0.95289300  1
  C  C20  1  0.04445100  0.14605700  0.59858800  1
  C  C21  1  0.95554900  0.14605700  0.09858800  1
  C  C22  1  0.07871900  0.81172600  0.08857900  1
  C  C23  1  0.92128100  0.81172600  0.58857900  1
  C  C24  1  0.11209700  0.48649400  0.63378200  1
  C  C25  1  0.88790300  0.48649400  0.13378200  1
  C  C26  1  0.12417800  0.57188500  0.35717800  1
  C  C27  1  0.87582200  0.57188500  0.85717800  1
  C  C28  1  0.06916100  0.38917900  0.18388300  1
  C  C29  1  0.93083900  0.38917900  0.68388300  1
  C  C30  1  0.06529800  0.15046400  0.85562900  1
  C  C31  1  0.93470200  0.15046400  0.35562900  1
  C  C32  1  0.26359800  0.66986000  0.49864000  1
  C  C33  1  0.73640200  0.66986000  0.99864000  1
  C  C34  1  0.23160200  0.60609300  0.12893400  1
  C  C35  1  0.76839800  0.60609300  0.62893400  1
  C  C36  1  0.43153100  0.82952200  0.48853100  1
  C  C37  1  0.56846900  0.82952200  0.98853100  1
  C  C38  1  0.48257000  0.16572400  0.99787000  1
  C  C39  1  0.51743000  0.16572400  0.49787000  1
  C  C40  1  0.37956100  0.83776100  0.99977600  1
  C  C41  1  0.62043900  0.83776100  0.49977600  1
  C  C42  1  0.41009800  0.42072600  0.57892400  1
  C  C43  1  0.58990200  0.42072600  0.07892400  1
  C  C44  1  0.38672900  0.64574800  0.30367900  1
  C  C45  1  0.61327100  0.64574800  0.80367900  1
  C  C46  1  0.40546300  0.38053300  0.13901800  1
  C  C47  1  0.59453700  0.38053300  0.63901800  1
  C  C48  1  0.46862700  0.07178200  0.76683400  1
  C  C49  1  0.53137300  0.07178200  0.26683400  1
  C  C50  1  0.24940400  0.02291700  0.67778100  1
  C  C51  1  0.75059600  0.02291700  0.17778100  1
  C  C52  1  0.23557200  0.10120300  0.11571000  1
  C  C53  1  0.76442800  0.10120300  0.61571000  1
  C  C54  1  0.28455900  0.30466000  0.84029400  1
  C  C55  1  0.71544100  0.30466000  0.34029400  1
  C  C56  1  0.15374000  0.66148000  0.86846200  1
  C  C57  1  0.84626000  0.66148000  0.36846200  1
