# generated using pymatgen
data_Cu6NiC9
_symmetry_space_group_name_H-M   'P 1'
_cell_length_a   8.94841963
_cell_length_b   4.45203825
_cell_length_c   4.45203825
_cell_angle_alpha   90.00000000
_cell_angle_beta   90.00000000
_cell_angle_gamma   90.00000000
_symmetry_Int_Tables_number   1
_chemical_formula_structural   Cu6NiC9
_chemical_formula_sum   'Cu6 Ni1 C9'
_cell_volume   177.36344503
_cell_formula_units_Z   1
loop_
 _symmetry_equiv_pos_site_id
 _symmetry_equiv_pos_as_xyz
  1  'x, y, z'
loop_
 _atom_site_type_symbol
 _atom_site_label
 _atom_site_symmetry_multiplicity
 _atom_site_fract_x
 _atom_site_fract_y
 _atom_site_fract_z
 _atom_site_occupancy
  C  C0  1  0.00000000  0.00000000  0.00000000  1
  Ni  Ni1  1  0.50000000  -0.00000000  0.00000000  1
  Cu  Cu2  1  -0.00000000  0.50000000  0.50000000  1
  Cu  Cu3  1  0.50000000  0.50000000  0.50000000  1
  Cu  Cu4  1  0.24566614  -0.00000000  0.50000000  1
  Cu  Cu5  1  0.75433386  0.00000000  0.50000000  1
  Cu  Cu6  1  0.24566614  0.50000000  0.00000000  1
  Cu  Cu7  1  0.75433386  0.50000000  -0.00000000  1
  C  C8  1  0.25789059  0.00000000  0.00000000  1
  C  C9  1  0.74210941  -0.00000000  -0.00000000  1
  C  C10  1  0.24700400  0.50000000  0.50000000  1
  C  C11  1  0.75299600  0.50000000  0.50000000  1
  C  C12  1  -0.00000000  -0.00000000  0.50000000  1
  C  C13  1  0.50000000  -0.00000000  0.50000000  1
  C  C14  1  -0.00000000  0.50000000  0.00000000  1
  C  C15  1  0.50000000  0.50000000  0.00000000  1
