# generated using pymatgen
data_Cu8NiC5
_symmetry_space_group_name_H-M   'P 1'
_cell_length_a   8.13715393
_cell_length_b   8.11031766
_cell_length_c   7.93748307
_cell_angle_alpha   60.92472840
_cell_angle_beta   60.58667890
_cell_angle_gamma   58.48859270
_symmetry_Int_Tables_number   1
_chemical_formula_structural   Cu8NiC5
_chemical_formula_sum   'Cu16 Ni2 C10'
_cell_volume   370.01855787
_cell_formula_units_Z   2
loop_
 _symmetry_equiv_pos_site_id
 _symmetry_equiv_pos_as_xyz
  1  'x, y, z'
loop_
 _atom_site_type_symbol
 _atom_site_label
 _atom_site_symmetry_multiplicity
 _atom_site_fract_x
 _atom_site_fract_y
 _atom_site_fract_z
 _atom_site_occupancy
  C  C0  1  0.24748100  0.24748100  0.25251900  1
  C  C1  1  0.74748100  0.74748100  0.75251900  1
  Ni  Ni2  1  0.80199300  0.55820800  0.19800700  1
  Ni  Ni3  1  0.55820800  0.80199300  0.44179200  1
  Cu  Cu4  1  0.06958900  0.93057200  0.29706700  1
  Cu  Cu5  1  0.93057200  0.06958900  0.70277200  1
  Cu  Cu6  1  0.56948800  0.43207200  0.20309000  1
  Cu  Cu7  1  0.43207200  0.56948800  0.79534900  1
  Cu  Cu8  1  0.79691000  0.20465100  0.43051200  1
  Cu  Cu9  1  0.20465100  0.79691000  0.56792800  1
  Cu  Cu10  1  0.70293300  0.29722800  0.93041100  1
  Cu  Cu11  1  0.29722800  0.70293300  0.06942800  1
  Cu  Cu12  1  0.00154900  0.00154900  0.99845100  1
  Cu  Cu13  1  0.49981100  0.49981100  0.50018900  1
  Cu  Cu14  1  0.30676500  0.05577300  0.94422700  1
  Cu  Cu15  1  0.05577300  0.30676500  0.69323500  1
  Cu  Cu16  1  0.19209000  0.44472300  0.80791000  1
  Cu  Cu17  1  0.44472300  0.19209000  0.55527700  1
  Cu  Cu18  1  0.69504600  0.94570600  0.05429400  1
  Cu  Cu19  1  0.94570600  0.69504600  0.30495400  1
  C  C20  1  0.29559700  0.94777100  0.70440300  1
  C  C21  1  0.94777100  0.29559700  0.05222900  1
  C  C22  1  0.79533100  0.45195700  0.54804300  1
  C  C23  1  0.45195700  0.79533100  0.20466900  1
  C  C24  1  0.70507200  0.04818500  0.29492800  1
  C  C25  1  0.04818500  0.70507200  0.95181500  1
  C  C26  1  0.20643400  0.54958200  0.45041800  1
  C  C27  1  0.54958200  0.20643400  0.79356600  1
