# generated using pymatgen
data_Cu6Ni8C
_symmetry_space_group_name_H-M   'P 1'
_cell_length_a   5.20911100
_cell_length_b   7.08546000
_cell_length_c   14.60248000
_cell_angle_alpha   90.00000000
_cell_angle_beta   90.00000000
_cell_angle_gamma   90.00000000
_symmetry_Int_Tables_number   1
_chemical_formula_structural   Cu6Ni8C
_chemical_formula_sum   'Cu12 Ni16 C2'
_cell_volume   538.96216953
_cell_formula_units_Z   2
loop_
 _symmetry_equiv_pos_site_id
 _symmetry_equiv_pos_as_xyz
  1  'x, y, z'
loop_
 _atom_site_type_symbol
 _atom_site_label
 _atom_site_symmetry_multiplicity
 _atom_site_fract_x
 _atom_site_fract_y
 _atom_site_fract_z
 _atom_site_occupancy
  C  C0  1  0.00000000  0.50000000  0.50000000  1
  C  C1  1  0.00000000  0.00000000  0.00000000  1
  Ni  Ni2  1  0.44001300  0.00000000  0.70625200  1
  Ni  Ni3  1  0.44001300  0.50000000  0.79374800  1
  Ni  Ni4  1  0.55998700  0.00000000  0.29374800  1
  Ni  Ni5  1  0.55998700  0.50000000  0.20625200  1
  Ni  Ni6  1  0.62759800  0.00000000  0.63618500  1
  Ni  Ni7  1  0.62759800  0.50000000  0.86381500  1
  Ni  Ni8  1  0.37240200  0.00000000  0.36381500  1
  Ni  Ni9  1  0.37240200  0.50000000  0.13618500  1
  Ni  Ni10  1  0.72805900  0.16664400  0.60026000  1
  Ni  Ni11  1  0.72805900  0.33335600  0.89974000  1
  Ni  Ni12  1  0.27194100  0.16664400  0.39974000  1
  Ni  Ni13  1  0.72805900  0.66664400  0.89974000  1
  Ni  Ni14  1  0.27194100  0.83335600  0.39974000  1
  Ni  Ni15  1  0.27194100  0.66664400  0.10026000  1
  Ni  Ni16  1  0.72805900  0.83335600  0.60026000  1
  Ni  Ni17  1  0.27194100  0.33335600  0.10026000  1
  Cu  Cu18  1  0.81960500  0.29971200  0.56603700  1
  Cu  Cu19  1  0.81960500  0.20028800  0.93396300  1
  Cu  Cu20  1  0.18039500  0.29971200  0.43396300  1
  Cu  Cu21  1  0.81960500  0.79971200  0.93396300  1
  Cu  Cu22  1  0.18039500  0.70028800  0.43396300  1
  Cu  Cu23  1  0.18039500  0.79971200  0.06603700  1
  Cu  Cu24  1  0.81960500  0.70028800  0.56603700  1
  Cu  Cu25  1  0.18039500  0.20028800  0.06603700  1
  Cu  Cu26  1  0.28453400  0.00000000  0.76413600  1
  Cu  Cu27  1  0.28453400  0.50000000  0.73586400  1
  Cu  Cu28  1  0.71546600  0.00000000  0.23586400  1
  Cu  Cu29  1  0.71546600  0.50000000  0.26413600  1
