# generated using pymatgen
data_Cu2Ni3C32
_symmetry_space_group_name_H-M   'P 1'
_cell_length_a   6.02267341
_cell_length_b   6.02267341
_cell_length_c   14.42683800
_cell_angle_alpha   90.00000000
_cell_angle_beta   90.00000000
_cell_angle_gamma   119.99999351
_symmetry_Int_Tables_number   1
_chemical_formula_structural   Cu2Ni3C32
_chemical_formula_sum   'Cu2 Ni3 C32'
_cell_volume   453.19012904
_cell_formula_units_Z   1
loop_
 _symmetry_equiv_pos_site_id
 _symmetry_equiv_pos_as_xyz
  1  'x, y, z'
loop_
 _atom_site_type_symbol
 _atom_site_label
 _atom_site_symmetry_multiplicity
 _atom_site_fract_x
 _atom_site_fract_y
 _atom_site_fract_z
 _atom_site_occupancy
  C  C0  1  0.66666700  0.33333300  0.57536600  1
  C  C1  1  0.33333300  0.66666700  0.42463400  1
  C  C2  1  0.83506000  0.67012000  0.82838300  1
  C  C3  1  0.83506000  0.16494000  0.82838300  1
  C  C4  1  0.32988000  0.16494000  0.82838300  1
  C  C5  1  0.16494000  0.32988000  0.17161700  1
  C  C6  1  0.16494000  0.83506000  0.17161700  1
  C  C7  1  0.67012000  0.83506000  0.17161700  1
  C  C8  1  0.66666700  0.33333300  0.04635600  1
  C  C9  1  0.33333300  0.66666700  0.95364400  1
  Ni  Ni10  1  0.00000000  0.00000000  0.62220300  1
  Ni  Ni11  1  0.00000000  0.00000000  0.37779700  1
  Ni  Ni12  1  0.00000000  0.00000000  0.00000000  1
  Cu  Cu13  1  0.66666700  0.33333300  0.32412800  1
  Cu  Cu14  1  0.33333300  0.66666700  0.67587200  1
  C  C15  1  0.84448200  0.68896400  0.08657900  1
  C  C16  1  0.84448200  0.15551800  0.08657900  1
  C  C17  1  0.31103600  0.15551800  0.08657900  1
  C  C18  1  0.15551800  0.31103600  0.91342100  1
  C  C19  1  0.15551800  0.84448200  0.91342100  1
  C  C20  1  0.68896400  0.84448200  0.91342100  1
  C  C21  1  0.82051400  0.64102800  0.40706500  1
  C  C22  1  0.82051400  0.17948600  0.40706500  1
  C  C23  1  0.35897200  0.17948600  0.40706500  1
  C  C24  1  0.17948600  0.35897200  0.59293500  1
  C  C25  1  0.17948600  0.82051400  0.59293500  1
  C  C26  1  0.64102800  0.82051400  0.59293500  1
  C  C27  1  0.00000000  0.00000000  0.76078800  1
  C  C28  1  0.00000000  0.00000000  0.23921200  1
  C  C29  1  0.66666700  0.33333300  0.90896600  1
  C  C30  1  0.33333300  0.66666700  0.09103400  1
  C  C31  1  0.50366400  0.00732700  0.75510400  1
  C  C32  1  0.50366400  0.49633600  0.75510400  1
  C  C33  1  0.99267300  0.49633600  0.75510400  1
  C  C34  1  0.49633600  0.99267300  0.24489600  1
  C  C35  1  0.49633600  0.50366400  0.24489600  1
  C  C36  1  0.00732700  0.50366400  0.24489600  1
