# generated using pymatgen
data_Cu3Ni12C11
_symmetry_space_group_name_H-M   'P 1'
_cell_length_a   10.92933273
_cell_length_b   10.92933273
_cell_length_c   6.70020100
_cell_angle_alpha   90.00000000
_cell_angle_beta   90.00000000
_cell_angle_gamma   120.00000441
_symmetry_Int_Tables_number   1
_chemical_formula_structural   Cu3Ni12C11
_chemical_formula_sum   'Cu6 Ni24 C22'
_cell_volume   693.11570442
_cell_formula_units_Z   2
loop_
 _symmetry_equiv_pos_site_id
 _symmetry_equiv_pos_as_xyz
  1  'x, y, z'
loop_
 _atom_site_type_symbol
 _atom_site_label
 _atom_site_symmetry_multiplicity
 _atom_site_fract_x
 _atom_site_fract_y
 _atom_site_fract_z
 _atom_site_occupancy
  C  C0  1  0.33333300  0.66666700  0.18933400  1
  C  C1  1  0.66666700  0.33333300  0.68933400  1
  C  C2  1  0.00000000  0.00000000  0.15253300  1
  C  C3  1  0.00000000  0.00000000  0.65253300  1
  C  C4  1  0.93853600  0.45740800  0.05479900  1
  C  C5  1  0.51887200  0.06146400  0.05479900  1
  C  C6  1  0.54259200  0.48112800  0.05479900  1
  C  C7  1  0.48112800  0.54259200  0.55479900  1
  C  C8  1  0.45740800  0.93853600  0.55479900  1
  C  C9  1  0.06146400  0.51887200  0.55479900  1
  C  C10  1  0.82501600  0.63173700  0.37236700  1
  C  C11  1  0.80672100  0.17498400  0.37236700  1
  C  C12  1  0.36826300  0.19327900  0.37236700  1
  C  C13  1  0.19327900  0.36826300  0.87236700  1
  C  C14  1  0.63173700  0.82501600  0.87236700  1
  C  C15  1  0.17498400  0.80672100  0.87236700  1
  C  C16  1  0.15403900  0.81619000  0.35075500  1
  C  C17  1  0.66215200  0.84596100  0.35075500  1
  C  C18  1  0.18381000  0.33784800  0.35075500  1
  C  C19  1  0.33784800  0.18381000  0.85075500  1
  C  C20  1  0.81619000  0.15403900  0.85075500  1
  C  C21  1  0.84596100  0.66215200  0.85075500  1
  Ni  Ni22  1  0.21807100  0.77086900  0.54257000  1
  Ni  Ni23  1  0.55279800  0.78192900  0.54257000  1
  Ni  Ni24  1  0.22913100  0.44720200  0.54257000  1
  Ni  Ni25  1  0.44720200  0.22913100  0.04257000  1
  Ni  Ni26  1  0.77086900  0.21807100  0.04257000  1
  Ni  Ni27  1  0.78192900  0.55279800  0.04257000  1
  Ni  Ni28  1  0.07324200  0.67084700  0.21527600  1
  Ni  Ni29  1  0.59760500  0.92675800  0.21527600  1
  Ni  Ni30  1  0.32915300  0.40239500  0.21527600  1
  Ni  Ni31  1  0.40239500  0.32915300  0.71527600  1
  Ni  Ni32  1  0.67084700  0.07324200  0.71527600  1
  Ni  Ni33  1  0.92675800  0.59760500  0.71527600  1
  Ni  Ni34  1  0.28676100  0.94362600  0.22547600  1
  Ni  Ni35  1  0.65686500  0.71323900  0.22547600  1
  Ni  Ni36  1  0.05637400  0.34313500  0.22547600  1
  Ni  Ni37  1  0.34313500  0.05637400  0.72547600  1
  Ni  Ni38  1  0.94362600  0.28676100  0.72547600  1
  Ni  Ni39  1  0.71323900  0.65686500  0.72547600  1
  Ni  Ni40  1  0.82657700  0.96571200  0.40964000  1
  Ni  Ni41  1  0.13913500  0.17342300  0.40964000  1
  Ni  Ni42  1  0.03428800  0.86086500  0.40964000  1
  Ni  Ni43  1  0.86086500  0.03428800  0.90964000  1
  Ni  Ni44  1  0.96571200  0.82657700  0.90964000  1
  Ni  Ni45  1  0.17342300  0.13913500  0.90964000  1
  Cu  Cu46  1  0.15160900  0.56319700  0.88325700  1
  Cu  Cu47  1  0.41158900  0.84839100  0.88325700  1
  Cu  Cu48  1  0.43680300  0.58841100  0.88325700  1
  Cu  Cu49  1  0.58841100  0.43680300  0.38325700  1
  Cu  Cu50  1  0.56319700  0.15160900  0.38325700  1
  Cu  Cu51  1  0.84839100  0.41158900  0.38325700  1
