# generated using pymatgen
data_Cu30NiC33
_symmetry_space_group_name_H-M   'P 1'
_cell_length_a   8.74514500
_cell_length_b   8.74514500
_cell_length_c   8.77656900
_cell_angle_alpha   90.00000000
_cell_angle_beta   90.00000000
_cell_angle_gamma   90.00000000
_symmetry_Int_Tables_number   1
_chemical_formula_structural   Cu30NiC33
_chemical_formula_sum   'Cu30 Ni1 C33'
_cell_volume   671.21059169
_cell_formula_units_Z   1
loop_
 _symmetry_equiv_pos_site_id
 _symmetry_equiv_pos_as_xyz
  1  'x, y, z'
loop_
 _atom_site_type_symbol
 _atom_site_label
 _atom_site_symmetry_multiplicity
 _atom_site_fract_x
 _atom_site_fract_y
 _atom_site_fract_z
 _atom_site_occupancy
  C  C0  1  0.00000000  0.00000000  0.00000000  1
  Ni  Ni1  1  0.00000000  0.00000000  0.50000000  1
  Cu  Cu2  1  0.00000000  0.50000000  0.00000000  1
  Cu  Cu3  1  0.00000000  0.50000000  0.50000000  1
  Cu  Cu4  1  0.50000000  0.00000000  0.00000000  1
  Cu  Cu5  1  0.50000000  0.00000000  0.50000000  1
  Cu  Cu6  1  0.50000000  0.50000000  0.00000000  1
  Cu  Cu7  1  0.50000000  0.50000000  0.50000000  1
  Cu  Cu8  1  0.00000000  0.26471700  0.25118100  1
  Cu  Cu9  1  0.00000000  0.26471700  0.74881900  1
  Cu  Cu10  1  0.00000000  0.73528300  0.25118100  1
  Cu  Cu11  1  0.00000000  0.73528300  0.74881900  1
  Cu  Cu12  1  0.50000000  0.25246000  0.24990100  1
  Cu  Cu13  1  0.50000000  0.25246000  0.75009900  1
  Cu  Cu14  1  0.50000000  0.74754000  0.24990100  1
  Cu  Cu15  1  0.50000000  0.74754000  0.75009900  1
  Cu  Cu16  1  0.26471700  0.00000000  0.25118100  1
  Cu  Cu17  1  0.26471700  0.00000000  0.74881900  1
  Cu  Cu18  1  0.25246000  0.50000000  0.24990100  1
  Cu  Cu19  1  0.25246000  0.50000000  0.75009900  1
  Cu  Cu20  1  0.73528300  0.00000000  0.25118100  1
  Cu  Cu21  1  0.73528300  0.00000000  0.74881900  1
  Cu  Cu22  1  0.74754000  0.50000000  0.24990100  1
  Cu  Cu23  1  0.74754000  0.50000000  0.75009900  1
  Cu  Cu24  1  0.25878300  0.25878300  0.00000000  1
  Cu  Cu25  1  0.25525200  0.25525200  0.50000000  1
  Cu  Cu26  1  0.25878300  0.74121700  0.00000000  1
  Cu  Cu27  1  0.25525200  0.74474800  0.50000000  1
  Cu  Cu28  1  0.74121700  0.25878300  0.00000000  1
  Cu  Cu29  1  0.74474800  0.25525200  0.50000000  1
  Cu  Cu30  1  0.74121700  0.74121700  0.00000000  1
  Cu  Cu31  1  0.74474800  0.74474800  0.50000000  1
  C  C32  1  0.27911100  0.00000000  0.00000000  1
  C  C33  1  0.25332700  0.00000000  0.50000000  1
  C  C34  1  0.25577600  0.50000000  0.00000000  1
  C  C35  1  0.25082000  0.50000000  0.50000000  1
  C  C36  1  0.72088900  0.00000000  0.00000000  1
  C  C37  1  0.74667300  0.00000000  0.50000000  1
  C  C38  1  0.74422400  0.50000000  0.00000000  1
  C  C39  1  0.74918000  0.50000000  0.50000000  1
  C  C40  1  0.24879900  0.24879900  0.24921700  1
  C  C41  1  0.24879900  0.24879900  0.75078300  1
  C  C42  1  0.24879900  0.75120100  0.24921700  1
  C  C43  1  0.24879900  0.75120100  0.75078300  1
  C  C44  1  0.75120100  0.24879900  0.24921700  1
  C  C45  1  0.75120100  0.24879900  0.75078300  1
  C  C46  1  0.75120100  0.75120100  0.24921700  1
  C  C47  1  0.75120100  0.75120100  0.75078300  1
  C  C48  1  0.00000000  0.00000000  0.27341100  1
  C  C49  1  0.00000000  0.00000000  0.72658900  1
  C  C50  1  0.00000000  0.50000000  0.25692500  1
  C  C51  1  0.00000000  0.50000000  0.74307500  1
  C  C52  1  0.50000000  0.00000000  0.25692500  1
  C  C53  1  0.50000000  0.00000000  0.74307500  1
  C  C54  1  0.50000000  0.50000000  0.25162700  1
  C  C55  1  0.50000000  0.50000000  0.74837300  1
  C  C56  1  0.00000000  0.27911100  0.00000000  1
  C  C57  1  0.00000000  0.25332700  0.50000000  1
  C  C58  1  0.00000000  0.72088900  0.00000000  1
  C  C59  1  0.00000000  0.74667300  0.50000000  1
  C  C60  1  0.50000000  0.25577600  0.00000000  1
  C  C61  1  0.50000000  0.25082000  0.50000000  1
  C  C62  1  0.50000000  0.74422400  0.00000000  1
  C  C63  1  0.50000000  0.74918000  0.50000000  1
