# generated using pymatgen
data_Cu4NiC3
_symmetry_space_group_name_H-M   'P 1'
_cell_length_a   6.77596200
_cell_length_b   8.79053200
_cell_length_c   7.35153319
_cell_angle_alpha   89.99997134
_cell_angle_beta   113.60226813
_cell_angle_gamma   89.99992713
_symmetry_Int_Tables_number   1
_chemical_formula_structural   Cu4NiC3
_chemical_formula_sum   'Cu16 Ni4 C12'
_cell_volume   401.25822587
_cell_formula_units_Z   4
loop_
 _symmetry_equiv_pos_site_id
 _symmetry_equiv_pos_as_xyz
  1  'x, y, z'
loop_
 _atom_site_type_symbol
 _atom_site_label
 _atom_site_symmetry_multiplicity
 _atom_site_fract_x
 _atom_site_fract_y
 _atom_site_fract_z
 _atom_site_occupancy
  C  C0  1  0.50000400  0.83819300  0.75000500  1
  C  C1  1  0.99999800  0.33817900  0.75000900  1
  C  C2  1  0.49999600  0.16179700  0.25001000  1
  C  C3  1  0.00000200  0.66182000  0.25000800  1
  C  C4  1  0.49989500  0.50008600  0.99978300  1
  C  C5  1  0.99998100  0.99989600  0.49991000  1
  C  C6  1  0.00002400  0.99999700  0.99983000  1
  C  C7  1  0.50008600  0.50008800  0.50024500  1
  Ni  Ni8  1  0.50000100  0.18091800  0.75000800  1
  Ni  Ni9  1  0.99999200  0.68090300  0.75000700  1
  Ni  Ni10  1  0.50000100  0.81906900  0.25000800  1
  Ni  Ni11  1  0.99999300  0.31906200  0.25001000  1
  Cu  Cu12  1  0.39350400  0.27863100  0.85143200  1
  Cu  Cu13  1  0.89350600  0.77862600  0.85142400  1
  Cu  Cu14  1  0.60650100  0.27863600  0.64860700  1
  Cu  Cu15  1  0.10649700  0.77862900  0.64858200  1
  Cu  Cu16  1  0.60649500  0.72136900  0.14858300  1
  Cu  Cu17  1  0.10648900  0.22136300  0.14859000  1
  Cu  Cu18  1  0.39350400  0.72136100  0.35141500  1
  Cu  Cu19  1  0.89351800  0.22136600  0.35143600  1
  Cu  Cu20  1  0.66221600  0.08018300  0.89915800  1
  Cu  Cu21  1  0.16220300  0.58019200  0.89914700  1
  Cu  Cu22  1  0.33779100  0.08018900  0.60086300  1
  Cu  Cu23  1  0.83780300  0.58019300  0.60087000  1
  Cu  Cu24  1  0.33778600  0.91980900  0.10085900  1
  Cu  Cu25  1  0.83777800  0.41981400  0.10085600  1
  Cu  Cu26  1  0.66220700  0.91980300  0.39915600  1
  Cu  Cu27  1  0.16222300  0.41981800  0.39916500  1
  C  C28  1  0.49999700  0.58638200  0.75000700  1
  C  C29  1  0.99999700  0.08636100  0.75000100  1
  C  C30  1  0.50000400  0.41362800  0.25001700  1
  C  C31  1  0.00000500  0.91363800  0.25000100  1
