# generated using pymatgen
data_Cu5Ni2C25
_symmetry_space_group_name_H-M   'P 1'
_cell_length_a   9.85291249
_cell_length_b   9.85291249
_cell_length_c   10.28304300
_cell_angle_alpha   84.12707498
_cell_angle_beta   84.12707498
_cell_angle_gamma   16.89865025
_symmetry_Int_Tables_number   1
_chemical_formula_structural   Cu5Ni2C25
_chemical_formula_sum   'Cu5 Ni2 C25'
_cell_volume   288.62193797
_cell_formula_units_Z   1
loop_
 _symmetry_equiv_pos_site_id
 _symmetry_equiv_pos_as_xyz
  1  'x, y, z'
loop_
 _atom_site_type_symbol
 _atom_site_label
 _atom_site_symmetry_multiplicity
 _atom_site_fract_x
 _atom_site_fract_y
 _atom_site_fract_z
 _atom_site_occupancy
  C  C0  1  0.37970600  0.37970600  0.92890200  1
  C  C1  1  0.11844500  0.11844500  0.80482200  1
  C  C2  1  0.88272000  0.88272000  0.69720700  1
  C  C3  1  0.62027900  0.62027900  0.56506200  1
  C  C4  1  0.38286800  0.38286800  0.43807300  1
  C  C5  1  0.11888500  0.11888500  0.31593700  1
  C  C6  1  0.87788800  0.87788800  0.18598400  1
  C  C7  1  0.62191800  0.62191800  0.05563500  1
  C  C8  1  0.49817200  0.49817200  0.75166600  1
  Ni  Ni9  1  0.99798800  0.99798800  0.99324400  1
  Ni  Ni10  1  0.75059700  0.75059700  0.37491300  1
  Cu  Cu11  1  0.74958100  0.74958100  0.87406800  1
  Cu  Cu12  1  0.25034700  0.25034700  0.62756600  1
  Cu  Cu13  1  0.00412000  0.00412000  0.51981900  1
  Cu  Cu14  1  0.49986600  0.49986600  0.25524200  1
  Cu  Cu15  1  0.24921200  0.24921200  0.12275600  1
  C  C16  1  0.44395800  0.44395800  0.08725000  1
  C  C17  1  0.19108500  0.19108500  0.96282500  1
  C  C18  1  0.94203500  0.94203500  0.86040000  1
  C  C19  1  0.69486400  0.69486400  0.71281700  1
  C  C20  1  0.44056200  0.44056200  0.58692900  1
  C  C21  1  0.19380400  0.19380400  0.45153000  1
  C  C22  1  0.94163600  0.94163600  0.33506800  1
  C  C23  1  0.69862700  0.69862700  0.21941900  1
  C  C24  1  0.30865400  0.30865400  0.78813000  1
  C  C25  1  0.06222400  0.06222400  0.64584900  1
  C  C26  1  0.80102800  0.80102800  0.52785200  1
  C  C27  1  0.55763400  0.55763400  0.40478100  1
  C  C28  1  0.30721900  0.30721900  0.29540000  1
  C  C29  1  0.05536500  0.05536500  0.15302600  1
  C  C30  1  0.80363700  0.80363700  0.04051000  1
  C  C31  1  0.55507400  0.55507400  0.91731900  1
