# generated using pymatgen
data_CuNiC
_symmetry_space_group_name_H-M   'P 1'
_cell_length_a   3.25414504
_cell_length_b   3.25414504
_cell_length_c   36.90233000
_cell_angle_alpha   90.00000000
_cell_angle_beta   90.00000000
_cell_angle_gamma   119.99998057
_symmetry_Int_Tables_number   1
_chemical_formula_structural   CuNiC
_chemical_formula_sum   'Cu4 Ni4 C4'
_cell_volume   338.42178974
_cell_formula_units_Z   4
loop_
 _symmetry_equiv_pos_site_id
 _symmetry_equiv_pos_as_xyz
  1  'x, y, z'
loop_
 _atom_site_type_symbol
 _atom_site_label
 _atom_site_symmetry_multiplicity
 _atom_site_fract_x
 _atom_site_fract_y
 _atom_site_fract_z
 _atom_site_occupancy
  C  C0  1  0.33333300  0.66666700  0.71818300  1
  C  C1  1  0.33333300  0.66666700  0.09396200  1
  C  C2  1  0.66666700  0.33333300  0.90603800  1
  C  C3  1  0.66666700  0.33333300  0.28181700  1
  Ni  Ni4  1  0.33333300  0.66666700  0.95227500  1
  Ni  Ni5  1  0.66666700  0.33333300  0.04772500  1
  Ni  Ni6  1  0.66666700  0.33333300  0.14019000  1
  Ni  Ni7  1  0.33333300  0.66666700  0.85981000  1
  Cu  Cu8  1  0.33333300  0.66666700  0.32379300  1
  Cu  Cu9  1  0.66666700  0.33333300  0.67620700  1
  Cu  Cu10  1  0.66666700  0.33333300  0.76016700  1
  Cu  Cu11  1  0.33333300  0.66666700  0.23983300  1
