# generated using pymatgen
data_Cu(Ni2C)4
_symmetry_space_group_name_H-M   'P 1'
_cell_length_a   4.00602500
_cell_length_b   4.16021900
_cell_length_c   16.10911400
_cell_angle_alpha   90.00000000
_cell_angle_beta   90.00000000
_cell_angle_gamma   90.00000000
_symmetry_Int_Tables_number   1
_chemical_formula_structural   Cu(Ni2C)4
_chemical_formula_sum   'Cu1 Ni8 C4'
_cell_volume   268.47354863
_cell_formula_units_Z   1
loop_
 _symmetry_equiv_pos_site_id
 _symmetry_equiv_pos_as_xyz
  1  'x, y, z'
loop_
 _atom_site_type_symbol
 _atom_site_label
 _atom_site_symmetry_multiplicity
 _atom_site_fract_x
 _atom_site_fract_y
 _atom_site_fract_z
 _atom_site_occupancy
  C  C0  1  0.25000000  0.00000000  0.09858500  1
  C  C1  1  0.25000000  0.50000000  0.60924900  1
  C  C2  1  0.75000000  0.50000000  0.39985400  1
  C  C3  1  0.75000000  0.00000000  0.89454000  1
  Ni  Ni4  1  0.25000000  0.00000000  0.46212300  1
  Ni  Ni5  1  0.25000000  0.50000000  0.94532000  1
  Ni  Ni6  1  0.75000000  0.50000000  0.05276800  1
  Ni  Ni7  1  0.75000000  0.00000000  0.56296000  1
  Ni  Ni8  1  0.25000000  0.50000000  0.23028700  1
  Ni  Ni9  1  0.25000000  0.00000000  0.74927600  1
  Ni  Ni10  1  0.75000000  0.00000000  0.22951200  1
  Ni  Ni11  1  0.75000000  0.50000000  0.75324000  1
  Cu  Cu12  1  0.25000000  0.00000000  0.31228600  1
