# generated using pymatgen
data_Cu4Ni6C11
_symmetry_space_group_name_H-M   'P 1'
_cell_length_a   11.47535996
_cell_length_b   11.47535996
_cell_length_c   11.47535996
_cell_angle_alpha   119.97031754
_cell_angle_beta   119.97031754
_cell_angle_gamma   90.05141922
_symmetry_Int_Tables_number   1
_chemical_formula_structural   Cu4Ni6C11
_chemical_formula_sum   'Cu8 Ni12 C22'
_cell_volume   1069.00212331
_cell_formula_units_Z   2
loop_
 _symmetry_equiv_pos_site_id
 _symmetry_equiv_pos_as_xyz
  1  'x, y, z'
loop_
 _atom_site_type_symbol
 _atom_site_label
 _atom_site_symmetry_multiplicity
 _atom_site_fract_x
 _atom_site_fract_y
 _atom_site_fract_z
 _atom_site_occupancy
  C  C0  1  0.68525200  0.93535200  0.25010000  1
  C  C1  1  0.68525200  0.43515200  0.74990000  1
  C  C2  1  0.93535200  0.68525200  0.25010000  1
  C  C3  1  0.43515200  0.68525200  0.74990000  1
  C  C4  1  0.31474800  0.06464800  0.74990000  1
  C  C5  1  0.31474800  0.56484800  0.25010000  1
  C  C6  1  0.06464800  0.31474800  0.74990000  1
  C  C7  1  0.56484800  0.31474800  0.25010000  1
  C  C8  1  0.89840600  0.24338500  0.34497800  1
  C  C9  1  0.89840600  0.55342800  0.65502200  1
  C  C10  1  0.24338500  0.89840600  0.34497800  1
  C  C11  1  0.55342800  0.89840600  0.65502200  1
  C  C12  1  0.10159400  0.75661500  0.65502200  1
  C  C13  1  0.10159400  0.44657200  0.34497800  1
  C  C14  1  0.75661500  0.10159400  0.65502200  1
  C  C15  1  0.44657200  0.10159400  0.34497800  1
  C  C16  1  0.32999100  0.32999100  0.65998200  1
  C  C17  1  0.67000900  0.67000900  0.34001800  1
  C  C18  1  0.32999100  0.67000900  0.00000000  1
  C  C19  1  0.67000900  0.32999100  0.00000000  1
  C  C20  1  0.83206800  0.83206800  0.00000000  1
  C  C21  1  0.16793200  0.16793200  0.00000000  1
  Ni  Ni22  1  0.03377400  0.03377400  0.41078300  1
  Ni  Ni23  1  0.62299100  0.62299100  0.58921700  1
  Ni  Ni24  1  0.03377400  0.62299100  0.00000000  1
  Ni  Ni25  1  0.62299100  0.03377400  0.00000000  1
  Ni  Ni26  1  0.96622600  0.96622600  0.58921700  1
  Ni  Ni27  1  0.37700900  0.37700900  0.41078300  1
  Ni  Ni28  1  0.96622600  0.37700900  0.00000000  1
  Ni  Ni29  1  0.37700900  0.96622600  0.00000000  1
  Ni  Ni30  1  0.12876400  0.12876400  0.25752700  1
  Ni  Ni31  1  0.87123600  0.87123600  0.74247300  1
  Ni  Ni32  1  0.12876400  0.87123600  0.00000000  1
  Ni  Ni33  1  0.87123600  0.12876400  0.00000000  1
  Cu  Cu34  1  0.15240300  0.50000000  0.65240300  1
  Cu  Cu35  1  0.84759700  0.50000000  0.34759700  1
  Cu  Cu36  1  0.50000000  0.84759700  0.34759700  1
  Cu  Cu37  1  0.50000000  0.15240300  0.65240300  1
  Cu  Cu38  1  0.61524900  0.61524900  0.00000000  1
  Cu  Cu39  1  0.38475100  0.38475100  0.00000000  1
  Cu  Cu40  1  0.75000000  0.25000000  0.50000000  1
  Cu  Cu41  1  0.25000000  0.75000000  0.50000000  1
