# generated using pymatgen
data_Cu2Ni2C5
_symmetry_space_group_name_H-M   'P 1'
_cell_length_a   3.36722100
_cell_length_b   6.15521087
_cell_length_c   6.19578247
_cell_angle_alpha   94.22691631
_cell_angle_beta   105.76752645
_cell_angle_gamma   74.12580938
_symmetry_Int_Tables_number   1
_chemical_formula_structural   Cu2Ni2C5
_chemical_formula_sum   'Cu2 Ni2 C5'
_cell_volume   118.86872987
_cell_formula_units_Z   1
loop_
 _symmetry_equiv_pos_site_id
 _symmetry_equiv_pos_as_xyz
  1  'x, y, z'
loop_
 _atom_site_type_symbol
 _atom_site_label
 _atom_site_symmetry_multiplicity
 _atom_site_fract_x
 _atom_site_fract_y
 _atom_site_fract_z
 _atom_site_occupancy
  C  C0  1  0.99505500  0.00985400  0.99996400  1
  Ni  Ni1  1  0.82320600  0.54186000  0.18827300  1
  Ni  Ni2  1  0.62992200  0.19329900  0.45314300  1
  Cu  Cu3  1  0.19150300  0.44353600  0.82654300  1
  Cu  Cu4  1  0.36002400  0.82815300  0.54820000  1
  C  C5  1  0.58939100  0.63686400  0.81564500  1
  C  C6  1  0.39991400  0.34529100  0.14511900  1
  C  C7  1  0.76588500  0.83640900  0.36817800  1
  C  C8  1  0.24510000  0.16473400  0.65493500  1
