# generated using pymatgen
data_Cu3(NiC4)5
_symmetry_space_group_name_H-M   'P 1'
_cell_length_a   3.86827200
_cell_length_b   3.86827200
_cell_length_c   24.99576300
_cell_angle_alpha   90.00000000
_cell_angle_beta   90.00000000
_cell_angle_gamma   90.00000000
_symmetry_Int_Tables_number   1
_chemical_formula_structural   Cu3(NiC4)5
_chemical_formula_sum   'Cu3 Ni5 C20'
_cell_volume   374.02480618
_cell_formula_units_Z   1
loop_
 _symmetry_equiv_pos_site_id
 _symmetry_equiv_pos_as_xyz
  1  'x, y, z'
loop_
 _atom_site_type_symbol
 _atom_site_label
 _atom_site_symmetry_multiplicity
 _atom_site_fract_x
 _atom_site_fract_y
 _atom_site_fract_z
 _atom_site_occupancy
  Ni  Ni0  1  0.00000000  0.00000000  0.19401900  1
  Ni  Ni1  1  0.00000000  0.00000000  0.69089200  1
  Ni  Ni2  1  0.50000000  0.50000000  0.30985500  1
  Ni  Ni3  1  0.50000000  0.50000000  0.80706300  1
  Ni  Ni4  1  0.00000000  0.00000000  0.04744000  1
  Cu  Cu5  1  0.00000000  0.00000000  0.54634500  1
  Cu  Cu6  1  0.50000000  0.50000000  0.45399600  1
  Cu  Cu7  1  0.50000000  0.50000000  0.94943100  1
  C  C8  1  0.50000000  0.50000000  0.12495300  1
  C  C9  1  0.50000000  0.50000000  0.61979200  1
  C  C10  1  0.00000000  0.00000000  0.38055400  1
  C  C11  1  0.00000000  0.00000000  0.87847300  1
  C  C12  1  0.50000000  0.50000000  0.21813700  1
  C  C13  1  0.50000000  0.50000000  0.71514500  1
  C  C14  1  0.00000000  0.00000000  0.28592100  1
  C  C15  1  0.00000000  0.00000000  0.78283200  1
  C  C16  1  0.50000000  0.00000000  0.99471900  1
  C  C17  1  0.50000000  0.00000000  0.50017600  1
  C  C18  1  0.00000000  0.50000000  0.99471900  1
  C  C19  1  0.00000000  0.50000000  0.50017600  1
  C  C20  1  0.50000000  0.00000000  0.12394800  1
  C  C21  1  0.50000000  0.00000000  0.61889900  1
  C  C22  1  0.00000000  0.50000000  0.38155300  1
  C  C23  1  0.00000000  0.50000000  0.87828000  1
  C  C24  1  0.50000000  0.00000000  0.38155300  1
  C  C25  1  0.50000000  0.00000000  0.87828000  1
  C  C26  1  0.00000000  0.50000000  0.12394800  1
  C  C27  1  0.00000000  0.50000000  0.61889900  1
