# generated using pymatgen
data_Cu8Ni12C11
_symmetry_space_group_name_H-M   'P 1'
_cell_length_a   12.74200466
_cell_length_b   12.74200466
_cell_length_c   12.74200466
_cell_angle_alpha   154.74938055
_cell_angle_beta   127.81000371
_cell_angle_gamma   58.83559348
_symmetry_Int_Tables_number   1
_chemical_formula_structural   Cu8Ni12C11
_chemical_formula_sum   'Cu8 Ni12 C11'
_cell_volume   693.00497194
_cell_formula_units_Z   1
loop_
 _symmetry_equiv_pos_site_id
 _symmetry_equiv_pos_as_xyz
  1  'x, y, z'
loop_
 _atom_site_type_symbol
 _atom_site_label
 _atom_site_symmetry_multiplicity
 _atom_site_fract_x
 _atom_site_fract_y
 _atom_site_fract_z
 _atom_site_occupancy
  C  C0  1  0.80806500  0.30806500  0.50000000  1
  C  C1  1  0.19193500  0.69193500  0.50000000  1
  C  C2  1  0.73077400  0.50000000  0.23077400  1
  C  C3  1  0.00000000  0.00000000  0.00000000  1
  C  C4  1  0.26922600  0.50000000  0.76922600  1
  C  C5  1  0.05946400  0.80359100  0.25587300  1
  C  C6  1  0.30204000  0.30204000  0.00000000  1
  C  C7  1  0.54771900  0.80359100  0.74412700  1
  C  C8  1  0.45228100  0.19640900  0.25587300  1
  C  C9  1  0.69796000  0.69796000  0.00000000  1
  C  C10  1  0.94053600  0.19640900  0.74412700  1
  Ni  Ni11  1  0.63130000  0.13130000  0.50000000  1
  Ni  Ni12  1  0.88762400  0.62230500  0.26531900  1
  Ni  Ni13  1  0.12452100  0.12452100  0.00000000  1
  Ni  Ni14  1  0.35698600  0.62230500  0.73468100  1
  Ni  Ni15  1  0.64301400  0.37769500  0.26531900  1
  Ni  Ni16  1  0.87547900  0.87547900  0.00000000  1
  Ni  Ni17  1  0.11237600  0.37769500  0.73468100  1
  Ni  Ni18  1  0.36870000  0.86870000  0.50000000  1
  Ni  Ni19  1  0.23862700  0.00000000  0.23862700  1
  Ni  Ni20  1  0.50000000  0.50000000  0.00000000  1
  Ni  Ni21  1  0.76137300  0.00000000  0.76137300  1
  Ni  Ni22  1  0.00000000  0.50000000  0.50000000  1
  Cu  Cu23  1  0.62312000  0.99475800  0.11614400  1
  Cu  Cu24  1  0.87861300  0.50697500  0.88385600  1
  Cu  Cu25  1  0.12138700  0.00524200  0.62836200  1
  Cu  Cu26  1  0.37688000  0.49302500  0.37163800  1
  Cu  Cu27  1  0.62312000  0.50697500  0.62836200  1
  Cu  Cu28  1  0.87861300  0.99475800  0.37163800  1
  Cu  Cu29  1  0.12138700  0.49302500  0.11614400  1
  Cu  Cu30  1  0.37688000  0.00524200  0.88385600  1
