# generated using pymatgen
data_Cu24Ni2C17
_symmetry_space_group_name_H-M   'P 1'
_cell_length_a   10.77824621
_cell_length_b   10.77414381
_cell_length_c   8.31184086
_cell_angle_alpha   90.00000000
_cell_angle_beta   90.00000000
_cell_angle_gamma   120.07563412
_symmetry_Int_Tables_number   1
_chemical_formula_structural   Cu24Ni2C17
_chemical_formula_sum   'Cu24 Ni2 C17'
_cell_volume   835.27064994
_cell_formula_units_Z   1
loop_
 _symmetry_equiv_pos_site_id
 _symmetry_equiv_pos_as_xyz
  1  'x, y, z'
loop_
 _atom_site_type_symbol
 _atom_site_label
 _atom_site_symmetry_multiplicity
 _atom_site_fract_x
 _atom_site_fract_y
 _atom_site_fract_z
 _atom_site_occupancy
  C  C0  1  0.66657394  0.33332605  0.50061489  1
  C  C1  1  0.33100556  0.66537616  0.43573474  1
  C  C2  1  0.00590073  0.25258808  0.25000000  1
  C  C3  1  0.33100556  0.66537616  0.06426526  1
  C  C4  1  0.74604831  0.75322095  0.25000000  1
  C  C5  1  0.24660684  0.99350091  0.25000000  1
  C  C6  1  0.75414691  0.00950888  0.75000000  1
  C  C7  1  0.99130332  0.74325490  0.75000000  1
  C  C8  1  0.66657394  0.33332605  0.99938511  1
  C  C9  1  0.25592213  0.24629330  0.75000000  1
  C  C10  1  0.33777850  0.66871330  0.75000000  1
  C  C11  1  0.95479454  0.59372524  0.25000000  1
  C  C12  1  0.60157520  0.63178834  0.75000000  1
  C  C13  1  0.36846672  0.96977743  0.75000000  1
  C  C14  1  0.40616270  0.36175991  0.25000000  1
  C  C15  1  0.03200190  0.39984266  0.75000000  1
  C  C16  1  0.63759217  0.04372228  0.25000000  1
  Ni  Ni17  1  0.99992155  0.99980360  0.00211532  1
  Ni  Ni18  1  0.99992155  0.99980360  0.49788468  1
  Cu  Cu19  1  0.64786358  0.74084680  0.91949407  1
  Cu  Cu20  1  0.32289017  0.46532070  0.25000000  1
  Cu  Cu21  1  0.35820480  0.25501409  0.42009160  1
  Cu  Cu22  1  0.41029678  0.53222942  0.75000000  1
  Cu  Cu23  1  0.09314726  0.35215468  0.58017965  1
  Cu  Cu24  1  0.67386769  0.51878282  0.75000000  1
  Cu  Cu25  1  0.84649360  0.32881496  0.75000000  1
  Cu  Cu26  1  0.12675532  0.59162432  0.75000000  1
  Cu  Cu27  1  0.59109269  0.46913950  0.25000000  1
  Cu  Cu28  1  0.74449236  0.10248134  0.08007639  1
  Cu  Cu29  1  0.09314726  0.35215468  0.91982035  1
  Cu  Cu30  1  0.87798939  0.40887464  0.25000000  1
  Cu  Cu31  1  0.46854270  0.87879533  0.75000000  1
  Cu  Cu32  1  0.89614210  0.64138350  0.07968827  1
  Cu  Cu33  1  0.89614210  0.64138350  0.42031173  1
  Cu  Cu34  1  0.48138723  0.15553619  0.75000000  1
  Cu  Cu35  1  0.35820480  0.25501409  0.07990840  1
  Cu  Cu36  1  0.74449236  0.10248134  0.41992361  1
  Cu  Cu37  1  0.14167185  0.67772515  0.25000000  1
  Cu  Cu38  1  0.25950674  0.90750252  0.91957147  1
  Cu  Cu39  1  0.53377302  0.85683186  0.25000000  1
  Cu  Cu40  1  0.25950674  0.90750252  0.58042853  1
  Cu  Cu41  1  0.64786358  0.74084680  0.58050593  1
  Cu  Cu42  1  0.53072376  0.12160145  0.25000000  1
