# generated using pymatgen
data_CuNi2C5
_symmetry_space_group_name_H-M   'P 1'
_cell_length_a   7.78621900
_cell_length_b   8.39299600
_cell_length_c   12.17187900
_cell_angle_alpha   90.00000000
_cell_angle_beta   90.00000000
_cell_angle_gamma   90.00000000
_symmetry_Int_Tables_number   1
_chemical_formula_structural   CuNi2C5
_chemical_formula_sum   'Cu4 Ni8 C20'
_cell_volume   795.42870100
_cell_formula_units_Z   4
loop_
 _symmetry_equiv_pos_site_id
 _symmetry_equiv_pos_as_xyz
  1  'x, y, z'
loop_
 _atom_site_type_symbol
 _atom_site_label
 _atom_site_symmetry_multiplicity
 _atom_site_fract_x
 _atom_site_fract_y
 _atom_site_fract_z
 _atom_site_occupancy
  Ni  Ni0  1  0.54247800  0.49640700  0.67248200  1
  Ni  Ni1  1  0.45752200  0.50359300  0.32751800  1
  Ni  Ni2  1  0.04247800  0.50359300  0.82751800  1
  Ni  Ni3  1  0.45752200  0.99640700  0.32751800  1
  Ni  Ni4  1  0.95752200  0.49640700  0.17248200  1
  Ni  Ni5  1  0.54247800  0.00359300  0.67248200  1
  Ni  Ni6  1  0.95752200  0.00359300  0.17248200  1
  Ni  Ni7  1  0.04247800  0.99640700  0.82751800  1
  Cu  Cu8  1  0.58206900  0.75000000  0.99246300  1
  Cu  Cu9  1  0.41793100  0.25000000  0.00753700  1
  Cu  Cu10  1  0.08206900  0.25000000  0.50753700  1
  Cu  Cu11  1  0.91793100  0.75000000  0.49246300  1
  C  C12  1  0.36642000  0.75000000  0.81423200  1
  C  C13  1  0.63358000  0.25000000  0.18576800  1
  C  C14  1  0.86642000  0.25000000  0.68576800  1
  C  C15  1  0.13358000  0.75000000  0.31423200  1
  C  C16  1  0.66794800  0.45481600  0.91550700  1
  C  C17  1  0.33205200  0.54518400  0.08449300  1
  C  C18  1  0.16794800  0.54518400  0.58449300  1
  C  C19  1  0.33205200  0.95481600  0.08449300  1
  C  C20  1  0.83205200  0.45481600  0.41550700  1
  C  C21  1  0.66794800  0.04518400  0.91550700  1
  C  C22  1  0.83205200  0.04518400  0.41550700  1
  C  C23  1  0.16794800  0.95481600  0.58449300  1
  C  C24  1  0.93952900  0.75000000  0.99637500  1
  C  C25  1  0.06047100  0.25000000  0.00362500  1
  C  C26  1  0.43952900  0.25000000  0.50362500  1
  C  C27  1  0.56047100  0.75000000  0.49637500  1
  C  C28  1  0.83081000  0.75000000  0.71261600  1
  C  C29  1  0.16919000  0.25000000  0.28738400  1
  C  C30  1  0.33081000  0.25000000  0.78738400  1
  C  C31  1  0.66919000  0.75000000  0.21261600  1
