# generated using pymatgen
data_Cu3Ni2C9
_symmetry_space_group_name_H-M   'P 1'
_cell_length_a   9.24162473
_cell_length_b   9.24162473
_cell_length_c   7.58527800
_cell_angle_alpha   90.00000000
_cell_angle_beta   90.00000000
_cell_angle_gamma   120.00000523
_symmetry_Int_Tables_number   1
_chemical_formula_structural   Cu3Ni2C9
_chemical_formula_sum   'Cu6 Ni4 C18'
_cell_volume   561.04638689
_cell_formula_units_Z   2
loop_
 _symmetry_equiv_pos_site_id
 _symmetry_equiv_pos_as_xyz
  1  'x, y, z'
loop_
 _atom_site_type_symbol
 _atom_site_label
 _atom_site_symmetry_multiplicity
 _atom_site_fract_x
 _atom_site_fract_y
 _atom_site_fract_z
 _atom_site_occupancy
  Ni  Ni0  1  0.33333300  0.66666700  0.43858300  1
  Ni  Ni1  1  0.66666700  0.33333300  0.93858300  1
  Ni  Ni2  1  0.66666700  0.33333300  0.56141700  1
  Ni  Ni3  1  0.33333300  0.66666700  0.06141700  1
  Cu  Cu4  1  0.49084700  0.04111200  0.25000000  1
  Cu  Cu5  1  0.55026500  0.50915300  0.25000000  1
  Cu  Cu6  1  0.95888800  0.44973500  0.25000000  1
  Cu  Cu7  1  0.50915300  0.95888800  0.75000000  1
  Cu  Cu8  1  0.44973500  0.49084700  0.75000000  1
  Cu  Cu9  1  0.04111200  0.55026500  0.75000000  1
  C  C10  1  0.49440600  0.83336200  0.25000000  1
  C  C11  1  0.33895600  0.50559400  0.25000000  1
  C  C12  1  0.16663800  0.66104400  0.25000000  1
  C  C13  1  0.50559400  0.16663800  0.75000000  1
  C  C14  1  0.66104400  0.49440600  0.75000000  1
  C  C15  1  0.83336200  0.33895600  0.75000000  1
  C  C16  1  0.65504700  0.14474300  0.43232400  1
  C  C17  1  0.48969600  0.34495300  0.43232400  1
  C  C18  1  0.85525700  0.51030400  0.43232400  1
  C  C19  1  0.34495300  0.85525700  0.93232400  1
  C  C20  1  0.51030400  0.65504700  0.93232400  1
  C  C21  1  0.14474300  0.48969600  0.93232400  1
  C  C22  1  0.34495300  0.85525700  0.56767600  1
  C  C23  1  0.51030400  0.65504700  0.56767600  1
  C  C24  1  0.14474300  0.48969600  0.56767600  1
  C  C25  1  0.65504700  0.14474300  0.06767600  1
  C  C26  1  0.48969600  0.34495300  0.06767600  1
  C  C27  1  0.85525700  0.51030400  0.06767600  1
