# generated using pymatgen
data_CuNi2C7
_symmetry_space_group_name_H-M   'P 1'
_cell_length_a   7.87608900
_cell_length_b   5.52979300
_cell_length_c   5.56231619
_cell_angle_alpha   86.97135672
_cell_angle_beta   90.00000000
_cell_angle_gamma   90.00000000
_symmetry_Int_Tables_number   1
_chemical_formula_structural   CuNi2C7
_chemical_formula_sum   'Cu2 Ni4 C14'
_cell_volume   241.91797323
_cell_formula_units_Z   2
loop_
 _symmetry_equiv_pos_site_id
 _symmetry_equiv_pos_as_xyz
  1  'x, y, z'
loop_
 _atom_site_type_symbol
 _atom_site_label
 _atom_site_symmetry_multiplicity
 _atom_site_fract_x
 _atom_site_fract_y
 _atom_site_fract_z
 _atom_site_occupancy
  Ni  Ni0  1  0.75000000  0.50999900  0.53523800  1
  Ni  Ni1  1  0.25000000  0.49000100  0.46476200  1
  Ni  Ni2  1  0.75000000  0.98424200  0.03478100  1
  Ni  Ni3  1  0.25000000  0.01575800  0.96521900  1
  Cu  Cu4  1  0.50000000  0.50000000  0.00000000  1
  Cu  Cu5  1  0.00000000  0.50000000  0.00000000  1
  C  C6  1  0.50000000  0.00000000  0.50000000  1
  C  C7  1  0.00000000  0.00000000  0.50000000  1
  C  C8  1  0.42973000  0.63649300  0.68087000  1
  C  C9  1  0.07252700  0.80512100  0.14437200  1
  C  C10  1  0.92973000  0.36350700  0.31913000  1
  C  C11  1  0.57252700  0.19487900  0.85562800  1
  C  C12  1  0.42747300  0.80512100  0.14437200  1
  C  C13  1  0.92747300  0.19487900  0.85562800  1
  C  C14  1  0.25000000  0.14340200  0.61007700  1
  C  C15  1  0.07027000  0.63649300  0.68087000  1
  C  C16  1  0.75000000  0.63122100  0.91764700  1
  C  C17  1  0.57027000  0.36350700  0.31913000  1
  C  C18  1  0.75000000  0.85659800  0.38992300  1
  C  C19  1  0.25000000  0.36877900  0.08235300  1
