# generated using pymatgen
data_CuNiC6
_symmetry_space_group_name_H-M   'P 1'
_cell_length_a   8.37403436
_cell_length_b   11.79560300
_cell_length_c   5.11637582
_cell_angle_alpha   90.00000000
_cell_angle_beta   91.73954219
_cell_angle_gamma   90.00000000
_symmetry_Int_Tables_number   1
_chemical_formula_structural   CuNiC6
_chemical_formula_sum   'Cu4 Ni4 C24'
_cell_volume   505.14624884
_cell_formula_units_Z   4
loop_
 _symmetry_equiv_pos_site_id
 _symmetry_equiv_pos_as_xyz
  1  'x, y, z'
loop_
 _atom_site_type_symbol
 _atom_site_label
 _atom_site_symmetry_multiplicity
 _atom_site_fract_x
 _atom_site_fract_y
 _atom_site_fract_z
 _atom_site_occupancy
  Ni  Ni0  1  0.44843300  0.33053500  0.73806200  1
  Ni  Ni1  1  0.55156700  0.83053500  0.76193800  1
  Ni  Ni2  1  0.55156700  0.66946500  0.26193800  1
  Ni  Ni3  1  0.44843300  0.16946500  0.23806200  1
  Cu  Cu4  1  0.70030900  0.08913100  0.77384800  1
  Cu  Cu5  1  0.29969100  0.58913100  0.72615200  1
  Cu  Cu6  1  0.29969100  0.91086900  0.22615200  1
  Cu  Cu7  1  0.70030900  0.41086900  0.27384800  1
  C  C8  1  0.58668400  0.17456800  0.59015100  1
  C  C9  1  0.41331600  0.67456800  0.90984900  1
  C  C10  1  0.41331600  0.82543200  0.40984900  1
  C  C11  1  0.58668400  0.32543200  0.09015100  1
  C  C12  1  0.86761300  0.12552400  0.77514000  1
  C  C13  1  0.13238700  0.62552300  0.72486000  1
  C  C14  1  0.13238700  0.87447700  0.22486000  1
  C  C15  1  0.86761300  0.37447700  0.27514000  1
  C  C16  1  0.61915200  0.08837300  0.05111500  1
  C  C17  1  0.38084800  0.58837300  0.44888500  1
  C  C18  1  0.38084800  0.91162700  0.94888500  1
  C  C19  1  0.61915200  0.41162700  0.55111500  1
  C  C20  1  0.66195000  0.96842200  0.65038100  1
  C  C21  1  0.33805000  0.46842200  0.84961900  1
  C  C22  1  0.33805000  0.03157800  0.34961900  1
  C  C23  1  0.66195000  0.53157800  0.15038100  1
  C  C24  1  0.33008200  0.21355200  0.92178600  1
  C  C25  1  0.66991800  0.71355200  0.57821400  1
  C  C26  1  0.66991800  0.78644800  0.07821400  1
  C  C27  1  0.33008200  0.28644800  0.42178600  1
  C  C28  1  0.11375900  0.02042000  0.78303700  1
  C  C29  1  0.88624100  0.52042000  0.71696300  1
  C  C30  1  0.88624100  0.97958000  0.21696300  1
  C  C31  1  0.11375900  0.47958000  0.28303700  1
