# generated using pymatgen
data_Cu(NiC2)4
_symmetry_space_group_name_H-M   'P 1'
_cell_length_a   6.23785261
_cell_length_b   6.23785261
_cell_length_c   10.10553600
_cell_angle_alpha   90.00000000
_cell_angle_beta   90.00000000
_cell_angle_gamma   120.00000646
_symmetry_Int_Tables_number   1
_chemical_formula_structural   Cu(NiC2)4
_chemical_formula_sum   'Cu2 Ni8 C16'
_cell_volume   340.53376072
_cell_formula_units_Z   2
loop_
 _symmetry_equiv_pos_site_id
 _symmetry_equiv_pos_as_xyz
  1  'x, y, z'
loop_
 _atom_site_type_symbol
 _atom_site_label
 _atom_site_symmetry_multiplicity
 _atom_site_fract_x
 _atom_site_fract_y
 _atom_site_fract_z
 _atom_site_occupancy
  C  C0  1  0.33333300  0.66666700  0.82249100  1
  C  C1  1  0.66666700  0.33333300  0.32249100  1
  Ni  Ni2  1  0.00000000  0.00000000  0.25245900  1
  Ni  Ni3  1  0.00000000  0.00000000  0.75245900  1
  Ni  Ni4  1  0.34641800  0.17320900  0.00693900  1
  Ni  Ni5  1  0.82679100  0.65358200  0.00693900  1
  Ni  Ni6  1  0.82679100  0.17320900  0.00693900  1
  Ni  Ni7  1  0.65358200  0.82679100  0.50693900  1
  Ni  Ni8  1  0.17320900  0.34641800  0.50693900  1
  Ni  Ni9  1  0.17320900  0.82679100  0.50693900  1
  Cu  Cu10  1  0.33333300  0.66666700  0.19502500  1
  Cu  Cu11  1  0.66666700  0.33333300  0.69502500  1
  C  C12  1  0.00000000  0.00000000  0.05714200  1
  C  C13  1  0.00000000  0.00000000  0.55714200  1
  C  C14  1  0.17839300  0.35678500  0.31074100  1
  C  C15  1  0.17839300  0.82160700  0.31074100  1
  C  C16  1  0.64321500  0.82160700  0.31074100  1
  C  C17  1  0.82160700  0.64321500  0.81074100  1
  C  C18  1  0.82160700  0.17839300  0.81074100  1
  C  C19  1  0.35678500  0.17839300  0.81074100  1
  C  C20  1  0.48821600  0.97643300  0.08005500  1
  C  C21  1  0.48821600  0.51178400  0.08005500  1
  C  C22  1  0.02356700  0.51178400  0.08005500  1
  C  C23  1  0.51178400  0.02356700  0.58005500  1
  C  C24  1  0.51178400  0.48821600  0.58005500  1
  C  C25  1  0.97643300  0.48821600  0.58005500  1
