# generated using pymatgen
data_Cu8NiC19
_symmetry_space_group_name_H-M   'P 1'
_cell_length_a   3.10701500
_cell_length_b   9.15097100
_cell_length_c   10.94746384
_cell_angle_alpha   89.60829088
_cell_angle_beta   90.00000000
_cell_angle_gamma   90.00000000
_symmetry_Int_Tables_number   1
_chemical_formula_structural   Cu8NiC19
_chemical_formula_sum   'Cu8 Ni1 C19'
_cell_volume   311.25325286
_cell_formula_units_Z   1
loop_
 _symmetry_equiv_pos_site_id
 _symmetry_equiv_pos_as_xyz
  1  'x, y, z'
loop_
 _atom_site_type_symbol
 _atom_site_label
 _atom_site_symmetry_multiplicity
 _atom_site_fract_x
 _atom_site_fract_y
 _atom_site_fract_z
 _atom_site_occupancy
  C  C0  1  0.50000000  0.76347400  0.65775400  1
  C  C1  1  0.00000000  0.73635000  0.15767800  1
  C  C2  1  0.00000000  0.23742800  0.34200300  1
  Ni  Ni3  1  0.50000000  0.26304600  0.83914600  1
  Cu  Cu4  1  0.50000000  0.91130600  0.39683300  1
  Cu  Cu5  1  0.50000000  0.41200200  0.10395900  1
  Cu  Cu6  1  0.00000000  0.08687400  0.59812900  1
  Cu  Cu7  1  0.00000000  0.59134800  0.90071900  1
  Cu  Cu8  1  0.50000000  0.94135600  0.88413100  1
  Cu  Cu9  1  0.50000000  0.44803300  0.61510100  1
  Cu  Cu10  1  0.00000000  0.05491000  0.11805100  1
  Cu  Cu11  1  0.00000000  0.55586500  0.38254600  1
  C  C12  1  0.50000000  0.04359500  0.71359900  1
  C  C13  1  0.50000000  0.53044400  0.79162300  1
  C  C14  1  0.00000000  0.96377800  0.28772900  1
  C  C15  1  0.00000000  0.46463200  0.21288800  1
  C  C16  1  0.50000000  0.69552700  0.33997000  1
  C  C17  1  0.50000000  0.19408700  0.16117800  1
  C  C18  1  0.00000000  0.30212600  0.66538400  1
  C  C19  1  0.00000000  0.80493900  0.83952300  1
  C  C20  1  0.50000000  0.61656400  0.02348000  1
  C  C21  1  0.50000000  0.11286400  0.47557700  1
  C  C22  1  0.00000000  0.38403500  0.97498600  1
  C  C23  1  0.00000000  0.88276400  0.52031500  1
  C  C24  1  0.50000000  0.91756100  0.07025700  1
  C  C25  1  0.50000000  0.41741400  0.42960200  1
  C  C26  1  0.00000000  0.08529300  0.93114200  1
  C  C27  1  0.00000000  0.58238500  0.56669800  1
