# generated using pymatgen
data_CuNiC5
_symmetry_space_group_name_H-M   'P 1'
_cell_length_a   6.70474825
_cell_length_b   6.70474825
_cell_length_c   6.70474825
_cell_angle_alpha   147.24094588
_cell_angle_beta   147.24094588
_cell_angle_gamma   47.00715451
_symmetry_Int_Tables_number   1
_chemical_formula_structural   CuNiC5
_chemical_formula_sum   'Cu1 Ni1 C5'
_cell_volume   87.91996220
_cell_formula_units_Z   1
loop_
 _symmetry_equiv_pos_site_id
 _symmetry_equiv_pos_as_xyz
  1  'x, y, z'
loop_
 _atom_site_type_symbol
 _atom_site_label
 _atom_site_symmetry_multiplicity
 _atom_site_fract_x
 _atom_site_fract_y
 _atom_site_fract_z
 _atom_site_occupancy
  Ni  Ni0  1  0.64485300  0.64485300  0.00000000  1
  Cu  Cu1  1  0.36131800  0.36131800  0.00000000  1
  C  C2  1  0.00082400  0.00082400  0.00000000  1
  C  C3  1  0.83743100  0.83743100  0.00000000  1
  C  C4  1  0.18012700  0.18012700  0.00000000  1
  C  C5  1  0.98772400  0.48772400  0.50000000  1
  C  C6  1  0.48772400  0.98772400  0.50000000  1
