# generated using pymatgen
data_Cu3NiC30
_symmetry_space_group_name_H-M   'P 1'
_cell_length_a   11.92812263
_cell_length_b   11.92812263
_cell_length_c   11.92812316
_cell_angle_alpha   98.27430445
_cell_angle_beta   98.27430445
_cell_angle_gamma   98.27430314
_symmetry_Int_Tables_number   1
_chemical_formula_structural   Cu3NiC30
_chemical_formula_sum   'Cu6 Ni2 C60'
_cell_volume   1638.33419212
_cell_formula_units_Z   2
loop_
 _symmetry_equiv_pos_site_id
 _symmetry_equiv_pos_as_xyz
  1  'x, y, z'
loop_
 _atom_site_type_symbol
 _atom_site_label
 _atom_site_symmetry_multiplicity
 _atom_site_fract_x
 _atom_site_fract_y
 _atom_site_fract_z
 _atom_site_occupancy
  C  C0  1  0.21016800  0.44751600  0.08440100  1
  C  C1  1  0.54849000  0.77566000  0.43030100  1
  C  C2  1  0.88387100  0.12190300  0.75979000  1
  C  C3  1  0.43030100  0.54849000  0.77566000  1
  C  C4  1  0.75979000  0.88387100  0.12190300  1
  C  C5  1  0.08440100  0.21016800  0.44751600  1
  C  C6  1  0.12190300  0.75979000  0.88387100  1
  C  C7  1  0.44751600  0.08440100  0.21016800  1
  C  C8  1  0.77566000  0.43030100  0.54849000  1
  C  C9  1  0.12061700  0.89421000  0.23946400  1
  C  C10  1  0.45954500  0.22161200  0.58402300  1
  C  C11  1  0.78510200  0.54720800  0.91033800  1
  C  C12  1  0.91033800  0.78510200  0.54720800  1
  C  C13  1  0.23946400  0.12061700  0.89421000  1
  C  C14  1  0.58402300  0.45954500  0.22161200  1
  C  C15  1  0.22161200  0.58402300  0.45954500  1
  C  C16  1  0.54720800  0.91033800  0.78510200  1
  C  C17  1  0.89421000  0.23946400  0.12061700  1
  Ni  Ni18  1  0.83866300  0.83866300  0.83866300  1
  Ni  Ni19  1  0.33865100  0.33865100  0.33865100  1
  Cu  Cu20  1  0.88899000  0.55519000  0.22315200  1
  Cu  Cu21  1  0.22315200  0.88899000  0.55519000  1
  Cu  Cu22  1  0.55519000  0.22315200  0.88899000  1
  Cu  Cu23  1  0.72211400  0.05595100  0.38927200  1
  Cu  Cu24  1  0.05595100  0.38927200  0.72211400  1
  Cu  Cu25  1  0.38927200  0.72211400  0.05595100  1
  C  C26  1  0.73457900  0.89687400  0.64931500  1
  C  C27  1  0.06201400  0.23169800  0.97477000  1
  C  C28  1  0.39184500  0.55630800  0.30901700  1
  C  C29  1  0.97477000  0.06201400  0.23169800  1
  C  C30  1  0.30901700  0.39184500  0.55630800  1
  C  C31  1  0.64931500  0.73457900  0.89687400  1
  C  C32  1  0.55630800  0.30901700  0.39184500  1
  C  C33  1  0.89687400  0.64931500  0.73457900  1
  C  C34  1  0.23169800  0.97477000  0.06201400  1
  C  C35  1  0.94652200  0.78184300  0.02895700  1
  C  C36  1  0.28575400  0.12356600  0.37130300  1
  C  C37  1  0.61681400  0.44738100  0.70441500  1
  C  C38  1  0.70441500  0.61681400  0.44738100  1
  C  C39  1  0.02895700  0.94652200  0.78184300  1
  C  C40  1  0.37130300  0.28575400  0.12356600  1
  C  C41  1  0.12356600  0.37130300  0.28575400  1
  C  C42  1  0.44738100  0.70441500  0.61681400  1
  C  C43  1  0.78184300  0.02895700  0.94652200  1
  C  C44  1  0.67837500  0.34227500  0.01124000  1
  C  C45  1  0.01124000  0.67837500  0.34227500  1
  C  C46  1  0.34227500  0.01124000  0.67837500  1
  C  C47  1  0.84230200  0.17868400  0.51088400  1
  C  C48  1  0.17868400  0.51088400  0.84230200  1
  C  C49  1  0.51088400  0.84230200  0.17868400  1
  C  C50  1  0.77132700  0.88867200  0.36720500  1
  C  C51  1  0.10658900  0.22236500  0.69701100  1
  C  C52  1  0.44049200  0.55642500  0.02909900  1
  C  C53  1  0.69701100  0.10658900  0.22236500  1
  C  C54  1  0.02909900  0.44049200  0.55642500  1
  C  C55  1  0.36720500  0.77132700  0.88867200  1
  C  C56  1  0.55642500  0.02909900  0.44049200  1
  C  C57  1  0.88867200  0.36720500  0.77132700  1
  C  C58  1  0.22236500  0.69701100  0.10658900  1
  C  C59  1  0.74612000  0.62916300  0.15175200  1
  C  C60  1  0.07914900  0.96182100  0.48560500  1
  C  C61  1  0.40906800  0.29435100  0.82212000  1
  C  C62  1  0.82212000  0.40906800  0.29435100  1
  C  C63  1  0.15175200  0.74612000  0.62916300  1
  C  C64  1  0.48560500  0.07914900  0.96182100  1
  C  C65  1  0.96182100  0.48560500  0.07914900  1
  C  C66  1  0.29435100  0.82212000  0.40906800  1
  C  C67  1  0.62916300  0.15175200  0.74612000  1
