# generated using pymatgen
data_CuNi2C3
_symmetry_space_group_name_H-M   'P 1'
_cell_length_a   3.39912423
_cell_length_b   3.39912423
_cell_length_c   40.00886200
_cell_angle_alpha   90.00000000
_cell_angle_beta   90.00000000
_cell_angle_gamma   120.00000447
_symmetry_Int_Tables_number   1
_chemical_formula_structural   CuNi2C3
_chemical_formula_sum   'Cu2 Ni4 C6'
_cell_volume   400.33253380
_cell_formula_units_Z   2
loop_
 _symmetry_equiv_pos_site_id
 _symmetry_equiv_pos_as_xyz
  1  'x, y, z'
loop_
 _atom_site_type_symbol
 _atom_site_label
 _atom_site_symmetry_multiplicity
 _atom_site_fract_x
 _atom_site_fract_y
 _atom_site_fract_z
 _atom_site_occupancy
  Ni  Ni0  1  0.00000000  0.00000000  0.32748700  1
  Ni  Ni1  1  0.33333300  0.66666700  0.42368700  1
  Ni  Ni2  1  0.33333300  0.66666700  0.51734400  1
  Ni  Ni3  1  0.00000000  0.00000000  0.23368800  1
  C  C4  1  0.00000000  0.00000000  0.09388000  1
  C  C5  1  0.00000000  0.00000000  0.47051200  1
  C  C6  1  0.33333300  0.66666700  0.28060300  1
  C  C7  1  0.33333300  0.66666700  0.65794300  1
  Cu  Cu8  1  0.00000000  0.00000000  0.69913600  1
  Cu  Cu9  1  0.00000000  0.00000000  0.61674500  1
  C  C10  1  0.33333300  0.66666700  0.05630000  1
  C  C11  1  0.33333300  0.66666700  0.13142200  1
