# generated using pymatgen
data_Cu3Ni6C31
_symmetry_space_group_name_H-M   'P 1'
_cell_length_a   3.77269900
_cell_length_b   11.65099000
_cell_length_c   12.16286729
_cell_angle_alpha   71.38282544
_cell_angle_beta   90.00000000
_cell_angle_gamma   90.00000000
_symmetry_Int_Tables_number   1
_chemical_formula_structural   Cu3Ni6C31
_chemical_formula_sum   'Cu3 Ni6 C31'
_cell_volume   506.65152181
_cell_formula_units_Z   1
loop_
 _symmetry_equiv_pos_site_id
 _symmetry_equiv_pos_as_xyz
  1  'x, y, z'
loop_
 _atom_site_type_symbol
 _atom_site_label
 _atom_site_symmetry_multiplicity
 _atom_site_fract_x
 _atom_site_fract_y
 _atom_site_fract_z
 _atom_site_occupancy
  Ni  Ni0  1  0.50000000  0.10580100  0.17231100  1
  Ni  Ni1  1  0.50000000  0.77946800  0.17211600  1
  Ni  Ni2  1  0.50000000  0.43978300  0.18043500  1
  Ni  Ni3  1  0.50000000  0.89419900  0.82768900  1
  Ni  Ni4  1  0.50000000  0.56021700  0.81956500  1
  Ni  Ni5  1  0.50000000  0.22053200  0.82788400  1
  Cu  Cu6  1  0.50000000  0.00000000  0.50000000  1
  Cu  Cu7  1  0.50000000  0.66664100  0.49933100  1
  Cu  Cu8  1  0.50000000  0.33335900  0.50066900  1
  C  C9  1  0.00000000  0.00000000  0.00000000  1
  C  C10  1  0.00000000  0.21774300  0.34613500  1
  C  C11  1  0.00000000  0.88415100  0.34799800  1
  C  C12  1  0.00000000  0.55138700  0.34612000  1
  C  C13  1  0.00000000  0.11584900  0.65200200  1
  C  C14  1  0.00000000  0.78225700  0.65386500  1
  C  C15  1  0.00000000  0.44861300  0.65388000  1
  C  C16  1  0.00000000  0.33668400  0.00001800  1
  C  C17  1  0.00000000  0.66331600  0.99998200  1
  C  C18  1  0.00000000  0.04286200  0.37316600  1
  C  C19  1  0.00000000  0.70832600  0.37334900  1
  C  C20  1  0.00000000  0.37605000  0.37190900  1
  C  C21  1  0.50000000  0.20864000  0.37669400  1
  C  C22  1  0.50000000  0.87384100  0.37846000  1
  C  C23  1  0.50000000  0.54028500  0.37678200  1
  C  C24  1  0.00000000  0.95713800  0.62683400  1
  C  C25  1  0.00000000  0.62395000  0.62809100  1
  C  C26  1  0.00000000  0.29167400  0.62665100  1
  C  C27  1  0.50000000  0.12615900  0.62154000  1
  C  C28  1  0.50000000  0.79136000  0.62330600  1
  C  C29  1  0.50000000  0.45971500  0.62321800  1
  C  C30  1  0.00000000  0.28055600  0.16352500  1
  C  C31  1  0.00000000  0.94376500  0.16861800  1
  C  C32  1  0.00000000  0.61046900  0.16346900  1
  C  C33  1  0.00000000  0.05623500  0.83138200  1
  C  C34  1  0.00000000  0.71944400  0.83647500  1
  C  C35  1  0.00000000  0.38953100  0.83653100  1
  C  C36  1  0.50000000  0.00000000  0.00000000  1
  C  C37  1  0.00000000  0.17712500  0.00003100  1
  C  C38  1  0.00000000  0.50000000  0.00000000  1
  C  C39  1  0.00000000  0.82287500  0.99996900  1
