# generated using pymatgen
data_CuNi6C19
_symmetry_space_group_name_H-M   'P 1'
_cell_length_a   13.84014281
_cell_length_b   13.84014281
_cell_length_c   13.98467157
_cell_angle_alpha   90.00000000
_cell_angle_beta   90.00000000
_cell_angle_gamma   90.00000000
_symmetry_Int_Tables_number   1
_chemical_formula_structural   CuNi6C19
_chemical_formula_sum   'Cu8 Ni48 C152'
_cell_volume   2678.75758810
_cell_formula_units_Z   8
loop_
 _symmetry_equiv_pos_site_id
 _symmetry_equiv_pos_as_xyz
  1  'x, y, z'
loop_
 _atom_site_type_symbol
 _atom_site_label
 _atom_site_symmetry_multiplicity
 _atom_site_fract_x
 _atom_site_fract_y
 _atom_site_fract_z
 _atom_site_occupancy
  C  C0  1  0.47138423  0.15256366  0.33869697  1
  C  C1  1  0.52861577  0.84743634  0.83869697  1
  C  C2  1  0.65256366  0.02861577  0.58869697  1
  C  C3  1  0.34743634  0.97138423  0.08869697  1
  C  C4  1  0.84743634  0.52861577  0.16130303  1
  C  C5  1  0.15256366  0.47138423  0.66130303  1
  C  C6  1  0.02861577  0.65256366  0.41130303  1
  C  C7  1  0.97138423  0.34743634  0.91130303  1
  C  C8  1  0.51974729  0.45643474  0.37587186  1
  C  C9  1  0.48025271  0.54356526  0.87587186  1
  C  C10  1  0.95643474  0.98025271  0.62587186  1
  C  C11  1  0.04356526  0.01974729  0.12587186  1
  C  C12  1  0.54356526  0.48025271  0.12412814  1
  C  C13  1  0.45643474  0.51974729  0.62412814  1
  C  C14  1  0.98025271  0.95643474  0.37412814  1
  C  C15  1  0.01974729  0.04356526  0.87412814  1
  C  C16  1  0.53911551  0.33528748  0.34042257  1
  C  C17  1  0.46088449  0.66471252  0.84042257  1
  C  C18  1  0.83528748  0.96088449  0.59042257  1
  C  C19  1  0.16471252  0.03911551  0.09042257  1
  C  C20  1  0.66471252  0.46088449  0.15957743  1
  C  C21  1  0.33528748  0.53911551  0.65957743  1
  C  C22  1  0.96088449  0.83528748  0.40957743  1
  C  C23  1  0.03911551  0.16471252  0.90957743  1
  C  C24  1  0.49461901  0.82733253  0.40461469  1
  C  C25  1  0.50538099  0.17266747  0.90461469  1
  C  C26  1  0.32733253  0.00538099  0.65461469  1
  C  C27  1  0.67266747  0.99461901  0.15461469  1
  C  C28  1  0.17266747  0.50538099  0.09538531  1
  C  C29  1  0.82733253  0.49461901  0.59538531  1
  C  C30  1  0.00538099  0.32733253  0.34538531  1
  C  C31  1  0.99461901  0.67266747  0.84538531  1
  C  C32  1  0.50141271  0.95470488  0.40682303  1
  C  C33  1  0.49858729  0.04529512  0.90682303  1
  C  C34  1  0.45470488  0.99858729  0.65682303  1
  C  C35  1  0.54529512  0.00141271  0.15682303  1
  C  C36  1  0.04529512  0.49858729  0.09317697  1
  C  C37  1  0.95470488  0.50141271  0.59317697  1
  C  C38  1  0.99858729  0.45470488  0.34317697  1
  C  C39  1  0.00141271  0.54529512  0.84317697  1
  C  C40  1  0.63873048  0.26985964  0.02011354  1
  C  C41  1  0.36126952  0.73014036  0.52011354  1
  C  C42  1  0.76985964  0.86126952  0.27011354  1
  C  C43  1  0.23014036  0.13873048  0.77011354  1
  C  C44  1  0.73014036  0.36126952  0.47988646  1
  C  C45  1  0.26985964  0.63873048  0.97988646  1
  C  C46  1  0.86126952  0.76985964  0.72988646  1
  C  C47  1  0.13873048  0.23014036  0.22988646  1
  C  C48  1  0.71874786  0.21126925  0.09899800  1
  C  C49  1  0.28125214  0.78873075  0.59899800  1
  C  C50  1  0.71126925  0.78125214  0.34899800  1
  C  C51  1  0.28873075  0.21874786  0.84899800  1
  C  C52  1  0.78873075  0.28125214  0.40100200  1
  C  C53  1  0.21126925  0.71874786  0.90100200  1
  C  C54  1  0.78125214  0.71126925  0.65100200  1
  C  C55  1  0.21874786  0.28873075  0.15100200  1
  C  C56  1  0.41263880  0.74896829  0.29251059  1
  C  C57  1  0.58736120  0.25103171  0.79251059  1
  C  C58  1  0.24896829  0.08736120  0.54251059  1
  C  C59  1  0.75103171  0.91263880  0.04251059  1
  C  C60  1  0.25103171  0.58736120  0.20748941  1
  C  C61  1  0.74896829  0.41263880  0.70748941  1
  C  C62  1  0.08736120  0.24896829  0.45748941  1
  C  C63  1  0.91263880  0.75103171  0.95748941  1
  C  C64  1  0.34995213  0.81331202  0.20104187  1
  C  C65  1  0.65004787  0.18668798  0.70104187  1
  C  C66  1  0.31331202  0.15004787  0.45104187  1
  C  C67  1  0.68668798  0.84995213  0.95104187  1
  C  C68  1  0.18668798  0.65004787  0.29895813  1
  C  C69  1  0.81331202  0.34995213  0.79895813  1
  C  C70  1  0.15004787  0.31331202  0.54895813  1
  C  C71  1  0.84995213  0.68668798  0.04895813  1
  C  C72  1  0.48513488  0.29992269  0.06406649  1
  C  C73  1  0.51486512  0.70007731  0.56406649  1
  C  C74  1  0.79992269  0.01486512  0.31406649  1
  C  C75  1  0.20007731  0.98513488  0.81406649  1
  C  C76  1  0.70007731  0.51486512  0.43593351  1
  C  C77  1  0.29992269  0.48513488  0.93593351  1
  C  C78  1  0.01486512  0.79992269  0.68593351  1
  C  C79  1  0.98513488  0.20007731  0.18593351  1
  C  C80  1  0.44344634  0.26832559  0.18042771  1
  C  C81  1  0.55655366  0.73167441  0.68042771  1
  C  C82  1  0.76832559  0.05655366  0.43042771  1
  C  C83  1  0.23167441  0.94344634  0.93042771  1
  C  C84  1  0.73167441  0.55655366  0.31957229  1
  C  C85  1  0.26832559  0.44344634  0.81957229  1
  C  C86  1  0.05655366  0.76832559  0.56957229  1
  C  C87  1  0.94344634  0.23167441  0.06957229  1
  C  C88  1  0.36903465  0.51515129  0.39680705  1
  C  C89  1  0.63096535  0.48484871  0.89680705  1
  C  C90  1  0.01515129  0.13096535  0.64680705  1
  C  C91  1  0.98484871  0.86903465  0.14680705  1
  C  C92  1  0.48484871  0.63096535  0.10319295  1
  C  C93  1  0.51515129  0.36903465  0.60319295  1
  C  C94  1  0.13096535  0.01515129  0.35319295  1
  C  C95  1  0.86903465  0.98484871  0.85319295  1
  C  C96  1  0.26835185  0.43821550  0.38609904  1
  C  C97  1  0.73164815  0.56178450  0.88609904  1
  C  C98  1  0.93821550  0.23164815  0.63609904  1
  C  C99  1  0.06178450  0.76835185  0.13609904  1
  C  C100  1  0.56178450  0.73164815  0.11390096  1
  C  C101  1  0.43821550  0.26835185  0.61390096  1
  C  C102  1  0.23164815  0.93821550  0.36390096  1
  C  C103  1  0.76835185  0.06178450  0.86390096  1
  C  C104  1  0.58383865  0.23411644  0.15225162  1
  C  C105  1  0.41616135  0.76588356  0.65225162  1
  C  C106  1  0.73411644  0.91616135  0.40225162  1
  C  C107  1  0.26588356  0.08383865  0.90225162  1
  C  C108  1  0.76588356  0.41616135  0.34774838  1
  C  C109  1  0.23411644  0.58383865  0.84774838  1
  C  C110  1  0.91616135  0.73411644  0.59774838  1
  C  C111  1  0.08383865  0.26588356  0.09774838  1
  C  C112  1  0.42574467  0.89596858  0.29499346  1
  C  C113  1  0.57425533  0.10403142  0.79499346  1
  C  C114  1  0.39596858  0.07425533  0.54499346  1
  C  C115  1  0.60403142  0.92574467  0.04499346  1
  C  C116  1  0.10403142  0.57425533  0.20500654  1
  C  C117  1  0.89596858  0.42574467  0.70500654  1
  C  C118  1  0.07425533  0.39596858  0.45500654  1
  C  C119  1  0.92574467  0.60403142  0.95500654  1
  C  C120  1  0.39801058  0.37427272  0.35872611  1
  C  C121  1  0.60198942  0.62572728  0.85872611  1
  C  C122  1  0.87427272  0.10198942  0.60872611  1
  C  C123  1  0.12572728  0.89801058  0.10872611  1
  C  C124  1  0.62572728  0.60198942  0.14127389  1
  C  C125  1  0.37427272  0.39801058  0.64127389  1
  C  C126  1  0.10198942  0.87427272  0.39127389  1
  C  C127  1  0.89801058  0.12572728  0.89127389  1
  C  C128  1  0.39582608  0.00600238  0.24310966  1
  C  C129  1  0.60417392  0.99399762  0.74310966  1
  C  C130  1  0.50600238  0.10417392  0.49310966  1
  C  C131  1  0.49399762  0.89582608  0.99310966  1
  C  C132  1  0.99399762  0.60417392  0.25689034  1
  C  C133  1  0.00600238  0.39582608  0.75689034  1
  C  C134  1  0.10417392  0.50600238  0.50689034  1
  C  C135  1  0.89582608  0.49399762  0.00689034  1
  C  C136  1  0.34813522  0.26437783  0.32624883  1
  C  C137  1  0.65186478  0.73562217  0.82624883  1
  C  C138  1  0.76437783  0.15186478  0.57624883  1
  C  C139  1  0.23562217  0.84813522  0.07624883  1
  C  C140  1  0.73562217  0.65186478  0.17375117  1
  C  C141  1  0.26437783  0.34813522  0.67375117  1
  C  C142  1  0.15186478  0.76437783  0.42375117  1
  C  C143  1  0.84813522  0.23562217  0.92375117  1
  C  C144  1  0.61086278  0.18349743  0.26147548  1
  C  C145  1  0.38913722  0.81650257  0.76147548  1
  C  C146  1  0.68349743  0.88913722  0.51147548  1
  C  C147  1  0.31650257  0.11086278  0.01147548  1
  C  C148  1  0.81650257  0.38913722  0.23852452  1
  C  C149  1  0.18349743  0.61086278  0.73852452  1
  C  C150  1  0.88913722  0.68349743  0.48852452  1
  C  C151  1  0.11086278  0.31650257  0.98852452  1
  Ni  Ni152  1  0.49324367  0.38987842  0.35892122  1
  Ni  Ni153  1  0.50675633  0.61012158  0.85892122  1
  Ni  Ni154  1  0.88987842  0.00675633  0.60892122  1
  Ni  Ni155  1  0.11012158  0.99324367  0.10892122  1
  Ni  Ni156  1  0.61012158  0.50675633  0.14107878  1
  Ni  Ni157  1  0.38987842  0.49324367  0.64107878  1
  Ni  Ni158  1  0.00675633  0.88987842  0.39107878  1
  Ni  Ni159  1  0.99324367  0.11012158  0.89107878  1
  Ni  Ni160  1  0.47762988  0.89274832  0.37503674  1
  Ni  Ni161  1  0.52237012  0.10725168  0.87503674  1
  Ni  Ni162  1  0.39274832  0.02237012  0.62503674  1
  Ni  Ni163  1  0.60725168  0.97762988  0.12503674  1
  Ni  Ni164  1  0.10725168  0.52237012  0.12496326  1
  Ni  Ni165  1  0.89274832  0.47762988  0.62496326  1
  Ni  Ni166  1  0.02237012  0.39274832  0.37496326  1
  Ni  Ni167  1  0.97762988  0.60725168  0.87496326  1
  Ni  Ni168  1  0.65205614  0.23739909  0.08458251  1
  Ni  Ni169  1  0.34794386  0.76260091  0.58458251  1
  Ni  Ni170  1  0.73739909  0.84794386  0.33458251  1
  Ni  Ni171  1  0.26260091  0.15205614  0.83458251  1
  Ni  Ni172  1  0.76260091  0.34794386  0.41541749  1
  Ni  Ni173  1  0.23739909  0.65205614  0.91541749  1
  Ni  Ni174  1  0.84794386  0.73739909  0.66541749  1
  Ni  Ni175  1  0.15205614  0.26260091  0.16541749  1
  Ni  Ni176  1  0.39810168  0.81218628  0.25617758  1
  Ni  Ni177  1  0.60189832  0.18781372  0.75617758  1
  Ni  Ni178  1  0.31218628  0.10189832  0.50617758  1
  Ni  Ni179  1  0.68781372  0.89810168  0.00617758  1
  Ni  Ni180  1  0.18781372  0.60189832  0.24382242  1
  Ni  Ni181  1  0.81218628  0.39810168  0.74382242  1
  Ni  Ni182  1  0.10189832  0.31218628  0.49382242  1
  Ni  Ni183  1  0.89810168  0.68781372  0.99382242  1
  Ni  Ni184  1  0.49753679  0.27205351  0.13080075  1
  Ni  Ni185  1  0.50246321  0.72794649  0.63080075  1
  Ni  Ni186  1  0.77205351  0.00246321  0.38080075  1
  Ni  Ni187  1  0.22794649  0.99753679  0.88080075  1
  Ni  Ni188  1  0.72794649  0.50246321  0.36919925  1
  Ni  Ni189  1  0.27205351  0.49753679  0.86919925  1
  Ni  Ni190  1  0.00246321  0.77205351  0.61919925  1
  Ni  Ni191  1  0.99753679  0.22794649  0.11919925  1
  Ni  Ni192  1  0.34060647  0.44781008  0.38297556  1
  Ni  Ni193  1  0.65939353  0.55218992  0.88297556  1
  Ni  Ni194  1  0.94781008  0.15939353  0.63297556  1
  Ni  Ni195  1  0.05218992  0.84060647  0.13297556  1
  Ni  Ni196  1  0.55218992  0.65939353  0.11702444  1
  Ni  Ni197  1  0.44781008  0.34060647  0.61702444  1
  Ni  Ni198  1  0.15939353  0.94781008  0.36702444  1
  Ni  Ni199  1  0.84060647  0.05218992  0.86702444  1
  Cu  Cu200  1  0.53184096  0.35003321  0.91053372  1
  Cu  Cu201  1  0.46815904  0.64996679  0.41053372  1
  Cu  Cu202  1  0.85003321  0.96815904  0.16053372  1
  Cu  Cu203  1  0.14996679  0.03184096  0.66053372  1
  Cu  Cu204  1  0.64996679  0.46815904  0.58946628  1
  Cu  Cu205  1  0.35003321  0.53184096  0.08946628  1
  Cu  Cu206  1  0.96815904  0.85003321  0.83946628  1
  Cu  Cu207  1  0.03184096  0.14996679  0.33946628  1
