# generated using pymatgen
data_Cu18Ni3C19
_symmetry_space_group_name_H-M   'P 1'
_cell_length_a   11.95660330
_cell_length_b   11.95660330
_cell_length_c   6.80943200
_cell_angle_alpha   90.00000000
_cell_angle_beta   90.00000000
_cell_angle_gamma   119.99999613
_symmetry_Int_Tables_number   1
_chemical_formula_structural   Cu18Ni3C19
_chemical_formula_sum   'Cu36 Ni6 C38'
_cell_volume   843.05746184
_cell_formula_units_Z   2
loop_
 _symmetry_equiv_pos_site_id
 _symmetry_equiv_pos_as_xyz
  1  'x, y, z'
loop_
 _atom_site_type_symbol
 _atom_site_label
 _atom_site_symmetry_multiplicity
 _atom_site_fract_x
 _atom_site_fract_y
 _atom_site_fract_z
 _atom_site_occupancy
  C  C0  1  0.66666700  0.33333300  0.75002100  1
  C  C1  1  0.33333300  0.66666700  0.25002100  1
  C  C2  1  0.74864100  0.11644100  0.75199600  1
  C  C3  1  0.36779900  0.25135900  0.75199600  1
  C  C4  1  0.88355900  0.63220100  0.75199600  1
  C  C5  1  0.36779900  0.11644100  0.75199600  1
  C  C6  1  0.88355900  0.25135900  0.75199600  1
  C  C7  1  0.74864100  0.63220100  0.75199600  1
  C  C8  1  0.25135900  0.88355900  0.25199600  1
  C  C9  1  0.63220100  0.74864100  0.25199600  1
  C  C10  1  0.11644100  0.36779900  0.25199600  1
  C  C11  1  0.63220100  0.88355900  0.25199600  1
  C  C12  1  0.11644100  0.74864100  0.25199600  1
  C  C13  1  0.25135900  0.36779900  0.25199600  1
  C  C14  1  0.63038800  0.50201000  0.06662100  1
  C  C15  1  0.87162200  0.36961200  0.06662100  1
  C  C16  1  0.49799000  0.12837800  0.06662100  1
  C  C17  1  0.87162200  0.50201000  0.06662100  1
  C  C18  1  0.49799000  0.36961200  0.06662100  1
  C  C19  1  0.63038800  0.12837800  0.06662100  1
  C  C20  1  0.36983000  0.49807800  0.93336200  1
  C  C21  1  0.12824800  0.63017000  0.93336200  1
  C  C22  1  0.50192200  0.87175200  0.93336200  1
  C  C23  1  0.12824800  0.49807800  0.93336200  1
  C  C24  1  0.50192200  0.63017000  0.93336200  1
  C  C25  1  0.36983000  0.87175200  0.93336200  1
  C  C26  1  0.36961200  0.49799000  0.56662100  1
  C  C27  1  0.12837800  0.63038800  0.56662100  1
  C  C28  1  0.50201000  0.87162200  0.56662100  1
  C  C29  1  0.12837800  0.49799000  0.56662100  1
  C  C30  1  0.50201000  0.63038800  0.56662100  1
  C  C31  1  0.36961200  0.87162200  0.56662100  1
  C  C32  1  0.63017000  0.50192200  0.43336200  1
  C  C33  1  0.87175200  0.36983000  0.43336200  1
  C  C34  1  0.49807800  0.12824800  0.43336200  1
  C  C35  1  0.87175200  0.50192200  0.43336200  1
  C  C36  1  0.49807800  0.36983000  0.43336200  1
  C  C37  1  0.63017000  0.12824800  0.43336200  1
  Ni  Ni38  1  0.86898500  0.73797000  0.25782400  1
  Ni  Ni39  1  0.86898500  0.13101500  0.25782400  1
  Ni  Ni40  1  0.26203000  0.13101500  0.25782400  1
  Ni  Ni41  1  0.13101500  0.26203000  0.75782400  1
  Ni  Ni42  1  0.13101500  0.86898500  0.75782400  1
  Ni  Ni43  1  0.73797000  0.86898500  0.75782400  1
  Cu  Cu44  1  0.57922800  0.15845700  0.99350800  1
  Cu  Cu45  1  0.57922800  0.42077200  0.99350800  1
  Cu  Cu46  1  0.84154300  0.42077200  0.99350800  1
  Cu  Cu47  1  0.42076100  0.84152200  0.00632500  1
  Cu  Cu48  1  0.42076100  0.57923900  0.00632500  1
  Cu  Cu49  1  0.15847800  0.57923900  0.00632500  1
  Cu  Cu50  1  0.42077200  0.84154300  0.49350800  1
  Cu  Cu51  1  0.42077200  0.57922800  0.49350800  1
  Cu  Cu52  1  0.15845700  0.57922800  0.49350800  1
  Cu  Cu53  1  0.57923900  0.15847800  0.50632500  1
  Cu  Cu54  1  0.57923900  0.42076100  0.50632500  1
  Cu  Cu55  1  0.84152200  0.42076100  0.50632500  1
  Cu  Cu56  1  0.78873000  0.57746000  0.74602100  1
  Cu  Cu57  1  0.78873000  0.21127000  0.74602100  1
  Cu  Cu58  1  0.42254000  0.21127000  0.74602100  1
  Cu  Cu59  1  0.21127000  0.42254000  0.24602100  1
  Cu  Cu60  1  0.21127000  0.78873000  0.24602100  1
  Cu  Cu61  1  0.57746000  0.78873000  0.24602100  1
  Cu  Cu62  1  0.93193800  0.63675400  0.24986400  1
  Cu  Cu63  1  0.70481500  0.06806200  0.24986400  1
  Cu  Cu64  1  0.36324600  0.29518500  0.24986400  1
  Cu  Cu65  1  0.70481500  0.63675400  0.24986400  1
  Cu  Cu66  1  0.36324600  0.06806200  0.24986400  1
  Cu  Cu67  1  0.93193800  0.29518500  0.24986400  1
  Cu  Cu68  1  0.06806200  0.36324600  0.74986400  1
  Cu  Cu69  1  0.29518500  0.93193800  0.74986400  1
  Cu  Cu70  1  0.63675400  0.70481500  0.74986400  1
  Cu  Cu71  1  0.29518500  0.36324600  0.74986400  1
  Cu  Cu72  1  0.63675400  0.93193800  0.74986400  1
  Cu  Cu73  1  0.06806200  0.70481500  0.74986400  1
  Cu  Cu74  1  0.90707000  0.81414000  0.04412900  1
  Cu  Cu75  1  0.90707000  0.09293000  0.04412900  1
  Cu  Cu76  1  0.18586000  0.09293000  0.04412900  1
  Cu  Cu77  1  0.09293000  0.18586000  0.54412900  1
  Cu  Cu78  1  0.09293000  0.90707000  0.54412900  1
  Cu  Cu79  1  0.81414000  0.90707000  0.54412900  1
