# generated using pymatgen
data_CuNiC2
_symmetry_space_group_name_H-M   'P 1'
_cell_length_a   3.07292500
_cell_length_b   5.33273000
_cell_length_c   10.42373900
_cell_angle_alpha   90.00000000
_cell_angle_beta   90.00000000
_cell_angle_gamma   90.00000000
_symmetry_Int_Tables_number   1
_chemical_formula_structural   CuNiC2
_chemical_formula_sum   'Cu4 Ni4 C8'
_cell_volume   170.81463796
_cell_formula_units_Z   4
loop_
 _symmetry_equiv_pos_site_id
 _symmetry_equiv_pos_as_xyz
  1  'x, y, z'
loop_
 _atom_site_type_symbol
 _atom_site_label
 _atom_site_symmetry_multiplicity
 _atom_site_fract_x
 _atom_site_fract_y
 _atom_site_fract_z
 _atom_site_occupancy
  Ni  Ni0  1  0.25000000  0.42104000  0.62229500  1
  Ni  Ni1  1  0.75000000  0.57896000  0.37770500  1
  Ni  Ni2  1  0.75000000  0.92104000  0.87770500  1
  Ni  Ni3  1  0.25000000  0.07896000  0.12229500  1
  Cu  Cu4  1  0.25000000  0.08098400  0.37866200  1
  Cu  Cu5  1  0.25000000  0.41901600  0.87866200  1
  Cu  Cu6  1  0.75000000  0.58098400  0.12133800  1
  Cu  Cu7  1  0.75000000  0.91901600  0.62133800  1
  C  C8  1  0.25000000  0.41214200  0.25369500  1
  C  C9  1  0.75000000  0.58785800  0.74630500  1
  C  C10  1  0.75000000  0.91214200  0.24630500  1
  C  C11  1  0.25000000  0.08785800  0.75369500  1
  C  C12  1  0.25000000  0.76507500  0.99401700  1
  C  C13  1  0.75000000  0.23492500  0.00598300  1
  C  C14  1  0.25000000  0.73492500  0.49401700  1
  C  C15  1  0.75000000  0.26507500  0.50598300  1
