# generated using pymatgen
data_Cu3NiC16
_symmetry_space_group_name_H-M   'P 1'
_cell_length_a   5.55972907
_cell_length_b   5.55562579
_cell_length_c   10.70177130
_cell_angle_alpha   84.94723815
_cell_angle_beta   84.71320872
_cell_angle_gamma   119.87556530
_symmetry_Int_Tables_number   1
_chemical_formula_structural   Cu3NiC16
_chemical_formula_sum   'Cu3 Ni1 C16'
_cell_volume   281.95046567
_cell_formula_units_Z   1
loop_
 _symmetry_equiv_pos_site_id
 _symmetry_equiv_pos_as_xyz
  1  'x, y, z'
loop_
 _atom_site_type_symbol
 _atom_site_label
 _atom_site_symmetry_multiplicity
 _atom_site_fract_x
 _atom_site_fract_y
 _atom_site_fract_z
 _atom_site_occupancy
  C  C0  1  0.49363100  0.48963200  0.02496300  1
  C  C1  1  0.33123400  0.67243900  0.49409000  1
  C  C2  1  0.99747000  0.99523200  0.48978300  1
  C  C3  1  0.67837300  0.34067000  0.48980400  1
  Ni  Ni4  1  0.09560600  0.75742200  0.22391900  1
  Cu  Cu5  1  0.75721500  0.08930300  0.21922800  1
  Cu  Cu6  1  0.91399600  0.24386500  0.77341700  1
  Cu  Cu7  1  0.24579800  0.90741900  0.77306900  1
  C  C8  1  0.01918200  0.01641800  0.16625300  1
  C  C9  1  0.99266600  0.98913500  0.83949100  1
  C  C10  1  0.87211800  0.44382900  0.16685700  1
  C  C11  1  0.44778600  0.87531400  0.15946100  1
  C  C12  1  0.11575000  0.55171900  0.84266200  1
  C  C13  1  0.55633800  0.11717100  0.83852400  1
  C  C14  1  0.04869400  0.70363200  0.39345600  1
  C  C15  1  0.68875200  0.02413300  0.39114200  1
  C  C16  1  0.97502800  0.30616600  0.60720800  1
  C  C17  1  0.29896900  0.95749800  0.60670000  1
  C  C18  1  0.36552900  0.38699900  0.40080000  1
  C  C19  1  0.60586200  0.63200600  0.59917600  1
