# generated using pymatgen
data_Cu(NiC2)3
_symmetry_space_group_name_H-M   'P 1'
_cell_length_a   5.94887609
_cell_length_b   7.46052666
_cell_length_c   12.20128249
_cell_angle_alpha   82.88059909
_cell_angle_beta   86.18081933
_cell_angle_gamma   111.31654412
_symmetry_Int_Tables_number   1
_chemical_formula_structural   Cu(NiC2)3
_chemical_formula_sum   'Cu1 Ni3 C6'
_cell_volume   496.91244561
_cell_formula_units_Z   1
loop_
 _symmetry_equiv_pos_site_id
 _symmetry_equiv_pos_as_xyz
  1  'x, y, z'
loop_
 _atom_site_type_symbol
 _atom_site_label
 _atom_site_symmetry_multiplicity
 _atom_site_fract_x
 _atom_site_fract_y
 _atom_site_fract_z
 _atom_site_occupancy
  Ni  Ni0  1  0.00000000  0.00000000  0.50000000  1
  Ni  Ni1  1  0.50000000  0.50000000  0.00000000  1
  Ni  Ni2  1  0.00000000  0.50000000  0.00000000  1
  Cu  Cu3  1  0.00000000  0.00000000  0.00000000  1
  C  C4  1  0.91127800  0.23484900  0.95028100  1
  C  C5  1  0.08872200  0.76515100  0.04971900  1
  C  C6  1  0.93222200  0.97143900  0.66195800  1
  C  C7  1  0.06777800  0.02856100  0.33804200  1
  C  C8  1  0.65709300  0.79245300  0.98637200  1
  C  C9  1  0.34290700  0.20754700  0.01362800  1
