# generated using pymatgen
data_CuNiC8
_symmetry_space_group_name_H-M   'P 1'
_cell_length_a   7.61336677
_cell_length_b   7.55295257
_cell_length_c   7.59209114
_cell_angle_alpha   90.00000000
_cell_angle_beta   90.00000000
_cell_angle_gamma   90.00000000
_symmetry_Int_Tables_number   1
_chemical_formula_structural   CuNiC8
_chemical_formula_sum   'Cu4 Ni4 C32'
_cell_volume   436.57103932
_cell_formula_units_Z   4
loop_
 _symmetry_equiv_pos_site_id
 _symmetry_equiv_pos_as_xyz
  1  'x, y, z'
loop_
 _atom_site_type_symbol
 _atom_site_label
 _atom_site_symmetry_multiplicity
 _atom_site_fract_x
 _atom_site_fract_y
 _atom_site_fract_z
 _atom_site_occupancy
  C  C0  1  0.00000000  0.50000000  0.50000000  1
  C  C1  1  0.50000000  -0.00000000  0.50000000  1
  C  C2  1  0.50000000  -0.00000000  -0.00000000  1
  C  C3  1  0.00000000  0.50000000  -0.00000000  1
  C  C4  1  0.50000000  0.50000000  -0.00000000  1
  C  C5  1  0.00000000  -0.00000000  0.50000000  1
  C  C6  1  0.00000000  -0.00000000  -0.00000000  1
  C  C7  1  0.50000000  0.50000000  0.50000000  1
  Ni  Ni8  1  0.25000000  0.25000000  0.25000000  1
  Ni  Ni9  1  0.75000000  0.75000000  0.25000000  1
  Ni  Ni10  1  0.75000000  0.25000000  0.75000000  1
  Ni  Ni11  1  0.25000000  0.75000000  0.75000000  1
  Cu  Cu12  1  0.75000000  0.75000000  0.75000000  1
  Cu  Cu13  1  0.25000000  0.25000000  0.75000000  1
  Cu  Cu14  1  0.25000000  0.75000000  0.25000000  1
  Cu  Cu15  1  0.75000000  0.25000000  0.25000000  1
  C  C16  1  -0.00061093  0.20713202  0.26383195  1
  C  C17  1  0.00061093  0.79286798  0.26383195  1
  C  C18  1  0.00061093  0.20713202  0.73616805  1
  C  C19  1  -0.00061093  0.79286798  0.73616805  1
  C  C20  1  0.26181342  -0.00639598  0.19485588  1
  C  C21  1  0.26181342  0.00639598  0.80514412  1
  C  C22  1  0.73818658  0.00639598  0.19485588  1
  C  C23  1  0.73818658  -0.00639598  0.80514412  1
  C  C24  1  0.22768423  0.29771379  -0.00853903  1
  C  C25  1  0.77231577  0.29771379  0.00853903  1
  C  C26  1  0.22768423  0.70228621  0.00853903  1
  C  C27  1  0.77231577  0.70228621  -0.00853903  1
  C  C28  1  0.50061093  0.29286798  0.23616805  1
  C  C29  1  0.49938907  0.70713202  0.23616805  1
  C  C30  1  0.49938907  0.29286798  0.76383195  1
  C  C31  1  0.50061093  0.70713202  0.76383195  1
  C  C32  1  0.23818658  0.50639598  0.30514412  1
  C  C33  1  0.23818658  0.49360402  0.69485588  1
  C  C34  1  0.76181342  0.49360402  0.30514412  1
  C  C35  1  0.76181342  0.50639598  0.69485588  1
  C  C36  1  0.27231577  0.20228621  0.50853903  1
  C  C37  1  0.72768423  0.20228621  0.49146097  1
  C  C38  1  0.27231577  0.79771379  0.49146097  1
  C  C39  1  0.72768423  0.79771379  0.50853903  1
