# generated using pymatgen
data_Cu(NiC6)2
_symmetry_space_group_name_H-M   'P 1'
_cell_length_a   7.36968845
_cell_length_b   7.36968845
_cell_length_c   7.59192400
_cell_angle_alpha   90.00000000
_cell_angle_beta   90.00000000
_cell_angle_gamma   117.45010927
_symmetry_Int_Tables_number   1
_chemical_formula_structural   Cu(NiC6)2
_chemical_formula_sum   'Cu2 Ni4 C24'
_cell_volume   365.91118407
_cell_formula_units_Z   2
loop_
 _symmetry_equiv_pos_site_id
 _symmetry_equiv_pos_as_xyz
  1  'x, y, z'
loop_
 _atom_site_type_symbol
 _atom_site_label
 _atom_site_symmetry_multiplicity
 _atom_site_fract_x
 _atom_site_fract_y
 _atom_site_fract_z
 _atom_site_occupancy
  Ni  Ni0  1  0.76358500  0.50613400  0.03925200  1
  Ni  Ni1  1  0.50613400  0.76358500  0.96074800  1
  Ni  Ni2  1  0.26358500  0.00613400  0.46074800  1
  Ni  Ni3  1  0.00613400  0.26358500  0.53925200  1
  C  C4  1  0.81033200  0.44034700  0.33575900  1
  C  C5  1  0.44034700  0.81033200  0.66424100  1
  C  C6  1  0.31033200  0.94034700  0.16424100  1
  C  C7  1  0.94034700  0.31033200  0.83575900  1
  C  C8  1  0.08484000  0.73860000  0.95635600  1
  C  C9  1  0.73860000  0.08484000  0.04364400  1
  C  C10  1  0.58484000  0.23860000  0.54364400  1
  C  C11  1  0.23860000  0.58484000  0.45635600  1
  C  C12  1  0.40746700  0.42927100  0.11731500  1
  C  C13  1  0.42927100  0.40746700  0.88268500  1
  C  C14  1  0.90746700  0.92927100  0.38268500  1
  C  C15  1  0.92927100  0.90746700  0.61731500  1
  Cu  Cu16  1  0.49952100  0.49952100  0.00000000  1
  Cu  Cu17  1  0.99952100  0.99952100  0.50000000  1
  C  C18  1  0.82016500  0.56124100  0.26244200  1
  C  C19  1  0.56124100  0.82016500  0.73755800  1
  C  C20  1  0.32016500  0.06124100  0.23755800  1
  C  C21  1  0.06124100  0.32016500  0.76244200  1
  C  C22  1  0.94135200  0.71778100  0.92421400  1
  C  C23  1  0.71778100  0.94135200  0.07578600  1
  C  C24  1  0.44135200  0.21778100  0.57578600  1
  C  C25  1  0.21778100  0.44135200  0.42421400  1
  C  C26  1  0.76754400  0.29074200  0.96779300  1
  C  C27  1  0.29074200  0.76754400  0.03220700  1
  C  C28  1  0.26754400  0.79074200  0.53220700  1
  C  C29  1  0.79074200  0.26754400  0.46779300  1
