# generated using pymatgen
data_Cu4NiC
_symmetry_space_group_name_H-M   'P 1'
_cell_length_a   12.58602492
_cell_length_b   12.58602492
_cell_length_c   9.93310000
_cell_angle_alpha   90.00000000
_cell_angle_beta   90.00000000
_cell_angle_gamma   119.99999432
_symmetry_Int_Tables_number   1
_chemical_formula_structural   Cu4NiC
_chemical_formula_sum   'Cu72 Ni18 C18'
_cell_volume   1362.67609964
_cell_formula_units_Z   18
loop_
 _symmetry_equiv_pos_site_id
 _symmetry_equiv_pos_as_xyz
  1  'x, y, z'
loop_
 _atom_site_type_symbol
 _atom_site_label
 _atom_site_symmetry_multiplicity
 _atom_site_fract_x
 _atom_site_fract_y
 _atom_site_fract_z
 _atom_site_occupancy
  C  C0  1  0.12017400  0.89039200  0.25194600  1
  C  C1  1  0.77021800  0.87982600  0.25194600  1
  C  C2  1  0.10960800  0.22978200  0.25194600  1
  C  C3  1  0.12017400  0.89039200  0.74805400  1
  C  C4  1  0.77021800  0.87982600  0.74805400  1
  C  C5  1  0.10960800  0.22978200  0.74805400  1
  C  C6  1  0.43771900  0.22011600  0.24254500  1
  C  C7  1  0.78239700  0.56228100  0.24254500  1
  C  C8  1  0.77988400  0.21760300  0.24254500  1
  C  C9  1  0.43771900  0.22011600  0.75745500  1
  C  C10  1  0.78239700  0.56228100  0.75745500  1
  C  C11  1  0.77988400  0.21760300  0.75745500  1
  C  C12  1  0.10074100  0.55316300  0.25320700  1
  C  C13  1  0.45242200  0.89925900  0.25320700  1
  C  C14  1  0.44683700  0.54757800  0.25320700  1
  C  C15  1  0.10074100  0.55316300  0.74679300  1
  C  C16  1  0.45242200  0.89925900  0.74679300  1
  C  C17  1  0.44683700  0.54757800  0.74679300  1
  Ni  Ni18  1  0.64556300  0.13938400  0.50000000  1
  Ni  Ni19  1  0.49382100  0.35443700  0.50000000  1
  Ni  Ni20  1  0.86061600  0.50617900  0.50000000  1
  Ni  Ni21  1  0.19188700  0.16314800  0.50000000  1
  Ni  Ni22  1  0.97126000  0.80811300  0.50000000  1
  Ni  Ni23  1  0.83685200  0.02874000  0.50000000  1
  Ni  Ni24  1  0.17168000  0.70149700  0.50000000  1
  Ni  Ni25  1  0.52981600  0.82832000  0.50000000  1
  Ni  Ni26  1  0.29850300  0.47018400  0.50000000  1
  Ni  Ni27  1  0.57736400  0.13108900  0.00000000  1
  Ni  Ni28  1  0.55372500  0.42263600  0.00000000  1
  Ni  Ni29  1  0.86891100  0.44627500  0.00000000  1
  Ni  Ni30  1  0.31218500  0.84179200  0.00000000  1
  Ni  Ni31  1  0.52960600  0.68781500  0.00000000  1
  Ni  Ni32  1  0.15820800  0.47039400  0.00000000  1
  Ni  Ni33  1  0.19953000  0.03277800  0.00000000  1
  Ni  Ni34  1  0.83324800  0.80047000  0.00000000  1
  Ni  Ni35  1  0.96722200  0.16675200  0.00000000  1
  Cu  Cu36  1  0.75040200  0.23993600  0.50000000  1
  Cu  Cu37  1  0.48953400  0.24959800  0.50000000  1
  Cu  Cu38  1  0.76006400  0.51046600  0.50000000  1
  Cu  Cu39  1  0.59613300  0.08996400  0.38583600  1
  Cu  Cu40  1  0.49383100  0.40386700  0.38583600  1
  Cu  Cu41  1  0.91003600  0.50616900  0.38583600  1
  Cu  Cu42  1  0.59613300  0.08996400  0.61416400  1
  Cu  Cu43  1  0.49383100  0.40386700  0.61416400  1
  Cu  Cu44  1  0.91003600  0.50616900  0.61416400  1
  Cu  Cu45  1  0.09348700  0.17297200  0.50000000  1
  Cu  Cu46  1  0.07948500  0.90651300  0.50000000  1
  Cu  Cu47  1  0.82702800  0.92051500  0.50000000  1
  Cu  Cu48  1  0.23881300  0.16071700  0.38511500  1
  Cu  Cu49  1  0.92190500  0.76118700  0.38511500  1
  Cu  Cu50  1  0.83928300  0.07809500  0.38511500  1
  Cu  Cu51  1  0.23881300  0.16071700  0.61488500  1
  Cu  Cu52  1  0.92190500  0.76118700  0.61488500  1
  Cu  Cu53  1  0.83928300  0.07809500  0.61488500  1
  Cu  Cu54  1  0.16077500  0.59298800  0.50000000  1
  Cu  Cu55  1  0.43221300  0.83922500  0.50000000  1
  Cu  Cu56  1  0.40701200  0.56778700  0.50000000  1
  Cu  Cu57  1  0.17467700  0.75120000  0.38547200  1
  Cu  Cu58  1  0.57652300  0.82532300  0.38547200  1
  Cu  Cu59  1  0.24880000  0.42347700  0.38547200  1
  Cu  Cu60  1  0.17467700  0.75120000  0.61452800  1
  Cu  Cu61  1  0.57652300  0.82532300  0.61452800  1
  Cu  Cu62  1  0.24880000  0.42347700  0.61452800  1
  Cu  Cu63  1  0.69594700  0.19106500  0.00000000  1
  Cu  Cu64  1  0.49511800  0.30405300  0.00000000  1
  Cu  Cu65  1  0.80893500  0.50488200  0.00000000  1
  Cu  Cu66  1  0.51917700  0.10152500  0.88615000  1
  Cu  Cu67  1  0.58234700  0.48082300  0.88615000  1
  Cu  Cu68  1  0.89847500  0.41765300  0.88615000  1
  Cu  Cu69  1  0.51917700  0.10152500  0.11385000  1
  Cu  Cu70  1  0.58234700  0.48082300  0.11385000  1
  Cu  Cu71  1  0.89847500  0.41765300  0.11385000  1
  Cu  Cu72  1  0.41925900  0.84933700  0.00000000  1
  Cu  Cu73  1  0.43007900  0.58074100  0.00000000  1
  Cu  Cu74  1  0.15066300  0.56992100  0.00000000  1
  Cu  Cu75  1  0.26240400  0.83962400  0.88565100  1
  Cu  Cu76  1  0.57722000  0.73759600  0.88565100  1
  Cu  Cu77  1  0.16037600  0.42278000  0.88565100  1
  Cu  Cu78  1  0.26240400  0.83962400  0.11434900  1
  Cu  Cu79  1  0.57722000  0.73759600  0.11434900  1
  Cu  Cu80  1  0.16037600  0.42278000  0.11434900  1
  Cu  Cu81  1  0.09973800  0.92688200  0.00000000  1
  Cu  Cu82  1  0.82714400  0.90026200  0.00000000  1
  Cu  Cu83  1  0.07311800  0.17285600  0.00000000  1
  Cu  Cu84  1  0.24812500  0.08232000  0.88607000  1
  Cu  Cu85  1  0.83419400  0.75187500  0.88607000  1
  Cu  Cu86  1  0.91768000  0.16580600  0.88607000  1
  Cu  Cu87  1  0.24812500  0.08232000  0.11393000  1
  Cu  Cu88  1  0.83419400  0.75187500  0.11393000  1
  Cu  Cu89  1  0.91768000  0.16580600  0.11393000  1
  Cu  Cu90  1  0.00000000  0.00000000  0.24586200  1
  Cu  Cu91  1  0.00000000  0.00000000  0.75413800  1
  Cu  Cu92  1  0.66666700  0.33333300  0.25266100  1
  Cu  Cu93  1  0.66666700  0.33333300  0.74733900  1
  Cu  Cu94  1  0.33333300  0.66666700  0.24939400  1
  Cu  Cu95  1  0.33333300  0.66666700  0.75060600  1
  Cu  Cu96  1  0.00474500  0.67346900  0.19166200  1
  Cu  Cu97  1  0.66872400  0.99525500  0.19166200  1
  Cu  Cu98  1  0.32653100  0.33127600  0.19166200  1
  Cu  Cu99  1  0.00474500  0.67346900  0.80833800  1
  Cu  Cu100  1  0.66872400  0.99525500  0.80833800  1
  Cu  Cu101  1  0.32653100  0.33127600  0.80833800  1
  Cu  Cu102  1  0.99520200  0.33579700  0.30652400  1
  Cu  Cu103  1  0.34059500  0.00479800  0.30652400  1
  Cu  Cu104  1  0.66420300  0.65940500  0.30652400  1
  Cu  Cu105  1  0.99520200  0.33579700  0.69347600  1
  Cu  Cu106  1  0.34059500  0.00479800  0.69347600  1
  Cu  Cu107  1  0.66420300  0.65940500  0.69347600  1
