# generated using pymatgen
data_CuNi3C10
_symmetry_space_group_name_H-M   'P 1'
_cell_length_a   10.99974300
_cell_length_b   6.09365500
_cell_length_c   9.34201363
_cell_angle_alpha   89.85328925
_cell_angle_beta   90.00000000
_cell_angle_gamma   90.00000000
_symmetry_Int_Tables_number   1
_chemical_formula_structural   CuNi3C10
_chemical_formula_sum   'Cu4 Ni12 C40'
_cell_volume   626.18040540
_cell_formula_units_Z   4
loop_
 _symmetry_equiv_pos_site_id
 _symmetry_equiv_pos_as_xyz
  1  'x, y, z'
loop_
 _atom_site_type_symbol
 _atom_site_label
 _atom_site_symmetry_multiplicity
 _atom_site_fract_x
 _atom_site_fract_y
 _atom_site_fract_z
 _atom_site_occupancy
  C  C0  1  0.38383900  0.88186000  0.00006900  1
  C  C1  1  0.88383900  0.11814000  0.99993100  1
  C  C2  1  0.13542900  0.86598300  0.45104300  1
  C  C3  1  0.63542900  0.13401700  0.54895700  1
  C  C4  1  0.34346700  0.38332800  0.98968300  1
  C  C5  1  0.84346700  0.61667200  0.01031700  1
  C  C6  1  0.15795600  0.37390000  0.49420900  1
  C  C7  1  0.65795600  0.62610000  0.50579100  1
  Ni  Ni8  1  0.10513900  0.37637800  0.81207900  1
  Ni  Ni9  1  0.60050400  0.37609200  0.83078400  1
  Ni  Ni10  1  0.10050400  0.62390800  0.16921600  1
  Ni  Ni11  1  0.60513900  0.62362200  0.18792100  1
  Ni  Ni12  1  0.38936600  0.37584900  0.31593500  1
  Ni  Ni13  1  0.38207700  0.87300300  0.31446900  1
  Ni  Ni14  1  0.89382000  0.87089300  0.34096200  1
  Ni  Ni15  1  0.89336200  0.37583900  0.33834300  1
  Ni  Ni16  1  0.39382000  0.12910700  0.65903800  1
  Ni  Ni17  1  0.39336200  0.62416100  0.66165700  1
  Ni  Ni18  1  0.88207700  0.12699700  0.68553100  1
  Ni  Ni19  1  0.88936600  0.62415100  0.68406500  1
  Cu  Cu20  1  0.11991800  0.87409200  0.80771800  1
  Cu  Cu21  1  0.60293900  0.87840200  0.83201600  1
  Cu  Cu22  1  0.10293900  0.12159800  0.16798400  1
  Cu  Cu23  1  0.61991800  0.12590800  0.19228200  1
  C  C24  1  0.71735800  0.62191100  0.77913500  1
  C  C25  1  0.71244900  0.13295500  0.76819900  1
  C  C26  1  0.92738700  0.87631000  0.83421200  1
  C  C27  1  0.92469500  0.37310700  0.83439500  1
  C  C28  1  0.47508300  0.12815400  0.87065800  1
  C  C29  1  0.47565400  0.62721300  0.86856500  1
  C  C30  1  0.16262300  0.13093400  0.95381300  1
  C  C31  1  0.15601900  0.61841800  0.95401000  1
  C  C32  1  0.66262300  0.86906600  0.04618700  1
  C  C33  1  0.65601900  0.38158200  0.04599000  1
  C  C34  1  0.97508300  0.87184600  0.12934200  1
  C  C35  1  0.97565400  0.37278700  0.13143500  1
  C  C36  1  0.42738700  0.12369000  0.16578800  1
  C  C37  1  0.42469500  0.62689300  0.16560500  1
  C  C38  1  0.21735800  0.37808900  0.22086500  1
  C  C39  1  0.21244900  0.86704500  0.23180100  1
  C  C40  1  0.79110400  0.12311600  0.27585600  1
  C  C41  1  0.78297000  0.62380000  0.27728600  1
  C  C42  1  0.57037800  0.86888800  0.33152200  1
  C  C43  1  0.57259200  0.37863900  0.33555700  1
  C  C44  1  0.02407800  0.12056400  0.37332800  1
  C  C45  1  0.02279400  0.62284200  0.36876300  1
  C  C46  1  0.33741100  0.12963600  0.45063200  1
  C  C47  1  0.33958800  0.62050300  0.45203700  1
  C  C48  1  0.83741100  0.87036400  0.54936800  1
  C  C49  1  0.83958800  0.37949700  0.54796300  1
  C  C50  1  0.52407800  0.87943600  0.62667200  1
  C  C51  1  0.52279400  0.37715800  0.63123700  1
  C  C52  1  0.07259200  0.62136100  0.66444300  1
  C  C53  1  0.07037800  0.13111200  0.66847800  1
  C  C54  1  0.29110400  0.87688400  0.72414400  1
  C  C55  1  0.28297000  0.37620000  0.72271400  1
