# generated using pymatgen
data_CuNiC5
_symmetry_space_group_name_H-M   'P 1'
_cell_length_a   7.21702062
_cell_length_b   7.21702062
_cell_length_c   7.21702062
_cell_angle_alpha   120.01811912
_cell_angle_beta   119.67445131
_cell_angle_gamma   90.26670513
_symmetry_Int_Tables_number   1
_chemical_formula_structural   CuNiC5
_chemical_formula_sum   'Cu2 Ni2 C10'
_cell_volume   266.41382507
_cell_formula_units_Z   2
loop_
 _symmetry_equiv_pos_site_id
 _symmetry_equiv_pos_as_xyz
  1  'x, y, z'
loop_
 _atom_site_type_symbol
 _atom_site_label
 _atom_site_symmetry_multiplicity
 _atom_site_fract_x
 _atom_site_fract_y
 _atom_site_fract_z
 _atom_site_occupancy
  Ni  Ni0  1  0.00000000  0.00000000  0.50000000  1
  Ni  Ni1  1  0.00000000  0.50000000  0.00000000  1
  Cu  Cu2  1  0.50000000  0.00000000  0.50000000  1
  Cu  Cu3  1  0.00000000  0.00000000  0.00000000  1
  C  C4  1  0.62769900  0.37769900  0.25000000  1
  C  C5  1  0.37230100  0.62230100  0.75000000  1
  C  C6  1  0.23975200  0.23943800  0.00031400  1
  C  C7  1  0.73912400  0.23943800  0.49968600  1
  C  C8  1  0.74785000  0.22701400  0.97916400  1
  C  C9  1  0.74785000  0.76868600  0.52083600  1
  C  C10  1  0.76024800  0.76056200  0.99968600  1
  C  C11  1  0.26087600  0.76056200  0.50031400  1
  C  C12  1  0.25215000  0.77298600  0.02083600  1
  C  C13  1  0.25215000  0.23131400  0.47916400  1
