# generated using pymatgen
data_Cu3Ni2C19
_symmetry_space_group_name_H-M   'P 1'
_cell_length_a   2.91008489
_cell_length_b   12.11638376
_cell_length_c   12.69868142
_cell_angle_alpha   107.21966251
_cell_angle_beta   89.85074943
_cell_angle_gamma   85.19302567
_symmetry_Int_Tables_number   1
_chemical_formula_structural   Cu3Ni2C19
_chemical_formula_sum   'Cu6 Ni4 C38'
_cell_volume   426.00102615
_cell_formula_units_Z   2
loop_
 _symmetry_equiv_pos_site_id
 _symmetry_equiv_pos_as_xyz
  1  'x, y, z'
loop_
 _atom_site_type_symbol
 _atom_site_label
 _atom_site_symmetry_multiplicity
 _atom_site_fract_x
 _atom_site_fract_y
 _atom_site_fract_z
 _atom_site_occupancy
  C  C0  1  0.58383400  0.83296600  0.08324900  1
  C  C1  1  0.08514200  0.83448800  0.58293400  1
  C  C2  1  0.87334500  0.25061100  0.12880700  1
  C  C3  1  0.37446100  0.25259300  0.62687600  1
  C  C4  1  0.28986700  0.41582500  0.03836200  1
  C  C5  1  0.79148000  0.41457400  0.53758900  1
  C  C6  1  0.19563700  0.59089900  0.46222100  1
  C  C7  1  0.69392800  0.59164500  0.96252300  1
  C  C8  1  0.47464700  0.07503800  0.20659200  1
  C  C9  1  0.97322100  0.07556200  0.70458500  1
  C  C10  1  0.63084000  0.74880300  0.38334200  1
  C  C11  1  0.13044200  0.74918800  0.88369600  1
  C  C12  1  0.03570900  0.91763600  0.28250100  1
  C  C13  1  0.53645000  0.91755600  0.78282500  1
  Ni  Ni14  1  0.01073300  0.99601000  0.00545100  1
  Ni  Ni15  1  0.51857500  0.99597200  0.50101100  1
  Ni  Ni16  1  0.15741100  0.67041800  0.16214500  1
  Ni  Ni17  1  0.65636400  0.67121500  0.66155500  1
  Cu  Cu18  1  0.83299600  0.33329300  0.83310000  1
  Cu  Cu19  1  0.73092200  0.50004700  0.25322400  1
  Cu  Cu20  1  0.93411100  0.16517900  0.41518800  1
  Cu  Cu21  1  0.32546600  0.33258100  0.33593300  1
  Cu  Cu22  1  0.23371100  0.50145300  0.75278200  1
  Cu  Cu23  1  0.43264900  0.16556700  0.91385800  1
  C  C24  1  0.46640000  0.11226900  0.05464000  1
  C  C25  1  0.97095700  0.11404700  0.54768600  1
  C  C26  1  0.70007700  0.55384300  0.11326100  1
  C  C27  1  0.19912400  0.55536600  0.61291800  1
  C  C28  1  0.73186700  0.44903400  0.38936900  1
  C  C29  1  0.24457500  0.44826900  0.88892400  1
  C  C30  1  0.92024900  0.21518800  0.28369600  1
  C  C31  1  0.42216900  0.21803300  0.77691600  1
  C  C32  1  0.33178000  0.28574900  0.47210700  1
  C  C33  1  0.84979600  0.28436900  0.97097500  1
  C  C34  1  0.31330000  0.37935300  0.19709900  1
  C  C35  1  0.81538300  0.38258800  0.69591400  1
  C  C36  1  0.16377200  0.61871100  0.30208500  1
  C  C37  1  0.66309900  0.61955700  0.80291400  1
  C  C38  1  0.52475700  0.04682900  0.36351500  1
  C  C39  1  0.00342800  0.04756400  0.86370400  1
  C  C40  1  0.61715800  0.77570900  0.22347600  1
  C  C41  1  0.11631400  0.77660900  0.72338700  1
  C  C42  1  0.05818200  0.89035000  0.44200200  1
  C  C43  1  0.55022100  0.89102400  0.94328000  1
  C  C44  1  0.02107500  0.96312300  0.13625000  1
  C  C45  1  0.51994700  0.96629700  0.63459500  1
  C  C46  1  0.14692400  0.70312700  0.03059400  1
  C  C47  1  0.64750900  0.70387300  0.53034400  1
