# generated using pymatgen
data_CuNi10C7
_symmetry_space_group_name_H-M   'P 1'
_cell_length_a   9.03726100
_cell_length_b   12.13398600
_cell_length_c   22.65508800
_cell_angle_alpha   90.00000000
_cell_angle_beta   90.00000000
_cell_angle_gamma   90.00000000
_symmetry_Int_Tables_number   1
_chemical_formula_structural   CuNi10C7
_chemical_formula_sum   'Cu8 Ni80 C56'
_cell_volume   2484.31160484
_cell_formula_units_Z   8
loop_
 _symmetry_equiv_pos_site_id
 _symmetry_equiv_pos_as_xyz
  1  'x, y, z'
loop_
 _atom_site_type_symbol
 _atom_site_label
 _atom_site_symmetry_multiplicity
 _atom_site_fract_x
 _atom_site_fract_y
 _atom_site_fract_z
 _atom_site_occupancy
  C  C0  1  0.25000000  0.55715600  0.95613400  1
  C  C1  1  0.25000000  0.94284400  0.45613400  1
  C  C2  1  0.75000000  0.44284400  0.04386600  1
  C  C3  1  0.75000000  0.05715600  0.54386600  1
  C  C4  1  0.25000000  0.95295000  0.98396800  1
  C  C5  1  0.25000000  0.54705000  0.48396800  1
  C  C6  1  0.75000000  0.04705000  0.01603200  1
  C  C7  1  0.75000000  0.45295000  0.51603200  1
  C  C8  1  0.25000000  0.82186600  0.77174500  1
  C  C9  1  0.25000000  0.67813400  0.27174500  1
  C  C10  1  0.75000000  0.17813400  0.22825500  1
  C  C11  1  0.75000000  0.32186600  0.72825500  1
  C  C12  1  0.25000000  0.37742200  0.76274100  1
  C  C13  1  0.25000000  0.12257800  0.26274100  1
  C  C14  1  0.75000000  0.62257800  0.23725900  1
  C  C15  1  0.75000000  0.87742200  0.73725900  1
  C  C16  1  0.50010700  0.09685300  0.84897200  1
  C  C17  1  0.99989300  0.40314700  0.34897200  1
  C  C18  1  0.00010700  0.90314700  0.15102800  1
  C  C19  1  0.49989300  0.59685300  0.65102800  1
  C  C20  1  0.49989300  0.90314700  0.15102800  1
  C  C21  1  0.00010700  0.59685300  0.65102800  1
  C  C22  1  0.99989300  0.09685300  0.84897200  1
  C  C23  1  0.50010700  0.40314700  0.34897200  1
  C  C24  1  0.07034100  0.30495300  0.61177400  1
  C  C25  1  0.42965900  0.19504700  0.11177400  1
  C  C26  1  0.57034100  0.69504700  0.38822600  1
  C  C27  1  0.92965900  0.80495300  0.88822600  1
  C  C28  1  0.92965900  0.69504700  0.38822600  1
  C  C29  1  0.57034100  0.80495300  0.88822600  1
  C  C30  1  0.42965900  0.30495300  0.61177400  1
  C  C31  1  0.07034100  0.19504700  0.11177400  1
  C  C32  1  0.07043100  0.08923500  0.68991000  1
  C  C33  1  0.42956900  0.41076500  0.18991000  1
  C  C34  1  0.57043100  0.91076500  0.31009000  1
  C  C35  1  0.92956900  0.58923500  0.81009000  1
  C  C36  1  0.92956900  0.91076500  0.31009000  1
  C  C37  1  0.57043100  0.58923500  0.81009000  1
  C  C38  1  0.42956900  0.08923500  0.68991000  1
  C  C39  1  0.07043100  0.41076500  0.18991000  1
  C  C40  1  0.07313700  0.24921300  0.97918400  1
  C  C41  1  0.42686300  0.25078700  0.47918400  1
  C  C42  1  0.57313700  0.75078700  0.02081600  1
  C  C43  1  0.92686300  0.74921300  0.52081600  1
  C  C44  1  0.92686300  0.75078700  0.02081600  1
  C  C45  1  0.57313700  0.74921300  0.52081600  1
  C  C46  1  0.42686300  0.24921300  0.97918400  1
  C  C47  1  0.07313700  0.25078700  0.47918400  1
  C  C48  1  0.07210200  0.87563500  0.61753500  1
  C  C49  1  0.42789800  0.62436500  0.11753500  1
  C  C50  1  0.57210200  0.12436500  0.38246500  1
  C  C51  1  0.92789800  0.37563500  0.88246500  1
  C  C52  1  0.92789800  0.12436500  0.38246500  1
  C  C53  1  0.57210200  0.37563500  0.88246500  1
  C  C54  1  0.42789800  0.87563500  0.61753500  1
  C  C55  1  0.07210200  0.62436500  0.11753500  1
  Ni  Ni56  1  0.25000000  0.31833400  0.60854200  1
  Ni  Ni57  1  0.25000000  0.18166600  0.10854200  1
  Ni  Ni58  1  0.75000000  0.68166600  0.39145800  1
  Ni  Ni59  1  0.75000000  0.81833400  0.89145800  1
  Ni  Ni60  1  0.25000000  0.07754900  0.69533600  1
  Ni  Ni61  1  0.25000000  0.42245100  0.19533600  1
  Ni  Ni62  1  0.75000000  0.92245100  0.30466400  1
  Ni  Ni63  1  0.75000000  0.57754900  0.80466400  1
  Ni  Ni64  1  0.25000000  0.27625800  0.98238600  1
  Ni  Ni65  1  0.25000000  0.22374200  0.48238600  1
  Ni  Ni66  1  0.75000000  0.72374200  0.01761400  1
  Ni  Ni67  1  0.75000000  0.77625800  0.51761400  1
  Ni  Ni68  1  0.25000000  0.88638700  0.60626400  1
  Ni  Ni69  1  0.25000000  0.61361300  0.10626400  1
  Ni  Ni70  1  0.75000000  0.11361300  0.39373600  1
  Ni  Ni71  1  0.75000000  0.38638700  0.89373600  1
  Ni  Ni72  1  0.03091100  0.21164700  0.66249800  1
  Ni  Ni73  1  0.46908900  0.28835300  0.16249800  1
  Ni  Ni74  1  0.53091100  0.78835300  0.33750200  1
  Ni  Ni75  1  0.96908900  0.71164700  0.83750200  1
  Ni  Ni76  1  0.96908900  0.78835300  0.33750200  1
  Ni  Ni77  1  0.53091100  0.71164700  0.83750200  1
  Ni  Ni78  1  0.46908900  0.21164700  0.66249800  1
  Ni  Ni79  1  0.03091100  0.28835300  0.16249800  1
  Ni  Ni80  1  0.01202900  0.25279800  0.54819900  1
  Ni  Ni81  1  0.48797100  0.24720200  0.04819900  1
  Ni  Ni82  1  0.51202900  0.74720200  0.45180100  1
  Ni  Ni83  1  0.98797100  0.75279800  0.95180100  1
  Ni  Ni84  1  0.98797100  0.74720200  0.45180100  1
  Ni  Ni85  1  0.51202900  0.75279800  0.95180100  1
  Ni  Ni86  1  0.48797100  0.25279800  0.54819900  1
  Ni  Ni87  1  0.01202900  0.24720200  0.04819900  1
  Ni  Ni88  1  0.01340600  0.99806200  0.64014400  1
  Ni  Ni89  1  0.48659400  0.50193800  0.14014400  1
  Ni  Ni90  1  0.51340600  0.00193800  0.35985600  1
  Ni  Ni91  1  0.98659400  0.49806200  0.85985600  1
  Ni  Ni92  1  0.98659400  0.00193800  0.35985600  1
  Ni  Ni93  1  0.51340600  0.49806200  0.85985600  1
  Ni  Ni94  1  0.48659400  0.99806200  0.64014400  1
  Ni  Ni95  1  0.01340600  0.50193800  0.14014400  1
  Ni  Ni96  1  0.00944500  0.91831800  0.87163800  1
  Ni  Ni97  1  0.49055500  0.58168200  0.37163800  1
  Ni  Ni98  1  0.50944500  0.08168200  0.12836200  1
  Ni  Ni99  1  0.99055500  0.41831800  0.62836200  1
  Ni  Ni100  1  0.99055500  0.08168200  0.12836200  1
  Ni  Ni101  1  0.50944500  0.41831800  0.62836200  1
  Ni  Ni102  1  0.49055500  0.91831800  0.87163800  1
  Ni  Ni103  1  0.00944500  0.58168200  0.37163800  1
  Ni  Ni104  1  0.00941200  0.57213800  0.74787600  1
  Ni  Ni105  1  0.49058800  0.92786200  0.24787600  1
  Ni  Ni106  1  0.50941200  0.42786200  0.25212400  1
  Ni  Ni107  1  0.99058800  0.07213800  0.75212400  1
  Ni  Ni108  1  0.99058800  0.42786200  0.25212400  1
  Ni  Ni109  1  0.50941200  0.07213800  0.75212400  1
  Ni  Ni110  1  0.49058800  0.57213800  0.74787600  1
  Ni  Ni111  1  0.00941200  0.92786200  0.24787600  1
  Ni  Ni112  1  0.02952000  0.13955300  0.94436000  1
  Ni  Ni113  1  0.47048000  0.36044700  0.44436000  1
  Ni  Ni114  1  0.52952000  0.86044700  0.05564000  1
  Ni  Ni115  1  0.97048000  0.63955300  0.55564000  1
  Ni  Ni116  1  0.97048000  0.86044700  0.05564000  1
  Ni  Ni117  1  0.52952000  0.63955300  0.55564000  1
  Ni  Ni118  1  0.47048000  0.13955300  0.94436000  1
  Ni  Ni119  1  0.02952000  0.36044700  0.44436000  1
  Ni  Ni120  1  0.02438300  0.77976400  0.66204400  1
  Ni  Ni121  1  0.47561700  0.72023600  0.16204400  1
  Ni  Ni122  1  0.52438300  0.22023600  0.33795600  1
  Ni  Ni123  1  0.97561700  0.27976400  0.83795600  1
  Ni  Ni124  1  0.97561700  0.22023600  0.33795600  1
  Ni  Ni125  1  0.52438300  0.27976400  0.83795600  1
  Ni  Ni126  1  0.47561700  0.77976400  0.66204400  1
  Ni  Ni127  1  0.02438300  0.72023600  0.16204400  1
  Ni  Ni128  1  0.00087600  0.86197100  0.55024500  1
  Ni  Ni129  1  0.49912400  0.63802900  0.05024500  1
  Ni  Ni130  1  0.50087600  0.13802900  0.44975500  1
  Ni  Ni131  1  0.99912400  0.36197100  0.94975500  1
  Ni  Ni132  1  0.99912400  0.13802900  0.44975500  1
  Ni  Ni133  1  0.50087600  0.36197100  0.94975500  1
  Ni  Ni134  1  0.49912400  0.86197100  0.55024500  1
  Ni  Ni135  1  0.00087600  0.63802900  0.05024500  1
  Cu  Cu136  1  0.25000000  0.58622600  0.64514700  1
  Cu  Cu137  1  0.25000000  0.91377400  0.14514700  1
  Cu  Cu138  1  0.75000000  0.41377400  0.35485300  1
  Cu  Cu139  1  0.75000000  0.08622600  0.85485300  1
  Cu  Cu140  1  0.25000000  0.10114500  0.84182100  1
  Cu  Cu141  1  0.25000000  0.39885500  0.34182100  1
  Cu  Cu142  1  0.75000000  0.89885500  0.15817900  1
  Cu  Cu143  1  0.75000000  0.60114500  0.65817900  1
