# generated using pymatgen
data_CuNi2C7
_symmetry_space_group_name_H-M   'P 1'
_cell_length_a   12.32388300
_cell_length_b   5.54602700
_cell_length_c   8.33671842
_cell_angle_alpha   89.56576480
_cell_angle_beta   90.00000000
_cell_angle_gamma   90.00000000
_symmetry_Int_Tables_number   1
_chemical_formula_structural   CuNi2C7
_chemical_formula_sum   'Cu4 Ni8 C28'
_cell_volume   569.78656740
_cell_formula_units_Z   4
loop_
 _symmetry_equiv_pos_site_id
 _symmetry_equiv_pos_as_xyz
  1  'x, y, z'
loop_
 _atom_site_type_symbol
 _atom_site_label
 _atom_site_symmetry_multiplicity
 _atom_site_fract_x
 _atom_site_fract_y
 _atom_site_fract_z
 _atom_site_occupancy
  Ni  Ni0  1  0.56109900  0.23501900  0.67725500  1
  Ni  Ni1  1  0.06109900  0.76498100  0.82274500  1
  Ni  Ni2  1  0.43890100  0.76498100  0.32274500  1
  Ni  Ni3  1  0.93890100  0.23501900  0.17725500  1
  Ni  Ni4  1  0.21998500  0.23459600  0.55189800  1
  Ni  Ni5  1  0.71998500  0.76540400  0.94810200  1
  Ni  Ni6  1  0.78001500  0.76540400  0.44810200  1
  Ni  Ni7  1  0.28001500  0.23459600  0.05189800  1
  Cu  Cu8  1  0.12619200  0.72183400  0.28386500  1
  Cu  Cu9  1  0.62619200  0.27816600  0.21613500  1
  Cu  Cu10  1  0.87380800  0.27816600  0.71613500  1
  Cu  Cu11  1  0.37380800  0.72183400  0.78386500  1
  C  C12  1  0.13631300  0.80068100  0.52375100  1
  C  C13  1  0.63631300  0.19931900  0.97624900  1
  C  C14  1  0.86368700  0.19931900  0.47624900  1
  C  C15  1  0.36368700  0.80068100  0.02375100  1
  C  C16  1  0.25491700  0.98508400  0.30308100  1
  C  C17  1  0.75491700  0.01491600  0.19691900  1
  C  C18  1  0.74508300  0.01491600  0.69691900  1
  C  C19  1  0.24508300  0.98508400  0.80308100  1
  C  C20  1  0.03666200  0.19852300  0.71004000  1
  C  C21  1  0.53666200  0.80147700  0.78996000  1
  C  C22  1  0.96333800  0.80147700  0.28996000  1
  C  C23  1  0.46333800  0.19852300  0.21004000  1
  C  C24  1  0.10522300  0.51200700  0.07505900  1
  C  C25  1  0.60522300  0.48799300  0.42494100  1
  C  C26  1  0.89477700  0.48799300  0.92494100  1
  C  C27  1  0.39477700  0.51200700  0.57505900  1
  C  C28  1  0.22964500  0.51276700  0.79238300  1
  C  C29  1  0.72964500  0.48723300  0.70761700  1
  C  C30  1  0.77035500  0.48723300  0.20761700  1
  C  C31  1  0.27035500  0.51276700  0.29238300  1
  C  C32  1  0.42493400  0.38636700  0.87099700  1
  C  C33  1  0.92493400  0.61363300  0.62900300  1
  C  C34  1  0.57506600  0.61363300  0.12900300  1
  C  C35  1  0.07506600  0.38636700  0.37099700  1
  C  C36  1  0.10502900  0.98352500  0.09096700  1
  C  C37  1  0.60502900  0.01647500  0.40903300  1
  C  C38  1  0.89497100  0.01647500  0.90903300  1
  C  C39  1  0.39497100  0.98352500  0.59096700  1
