# generated using pymatgen
data_Cu(NiC)4
_symmetry_space_group_name_H-M   'P 1'
_cell_length_a   8.61422100
_cell_length_b   9.63807700
_cell_length_c   12.53323800
_cell_angle_alpha   90.00000000
_cell_angle_beta   90.00000000
_cell_angle_gamma   90.00000000
_symmetry_Int_Tables_number   1
_chemical_formula_structural   Cu(NiC)4
_chemical_formula_sum   'Cu4 Ni16 C16'
_cell_volume   1040.56613533
_cell_formula_units_Z   4
loop_
 _symmetry_equiv_pos_site_id
 _symmetry_equiv_pos_as_xyz
  1  'x, y, z'
loop_
 _atom_site_type_symbol
 _atom_site_label
 _atom_site_symmetry_multiplicity
 _atom_site_fract_x
 _atom_site_fract_y
 _atom_site_fract_z
 _atom_site_occupancy
  C  C0  1  0.91939700  0.75000000  0.47505900  1
  C  C1  1  0.58060300  0.75000000  0.97505900  1
  C  C2  1  0.08060300  0.25000000  0.52494100  1
  C  C3  1  0.41939700  0.25000000  0.02494100  1
  C  C4  1  0.58765300  0.47851800  0.66322200  1
  C  C5  1  0.91234700  0.02148200  0.16322200  1
  C  C6  1  0.41234700  0.97851800  0.33677800  1
  C  C7  1  0.08765300  0.52148200  0.83677800  1
  C  C8  1  0.41234700  0.52148200  0.33677800  1
  C  C9  1  0.08765300  0.97851800  0.83677800  1
  C  C10  1  0.58765300  0.02148200  0.66322200  1
  C  C11  1  0.91234700  0.47851800  0.16322200  1
  C  C12  1  0.31258000  0.75000000  0.60587000  1
  C  C13  1  0.18742000  0.75000000  0.10587000  1
  C  C14  1  0.68742000  0.25000000  0.39413000  1
  C  C15  1  0.81258000  0.25000000  0.89413000  1
  Ni  Ni16  1  0.81078700  0.44905100  0.42797300  1
  Ni  Ni17  1  0.68921300  0.05094900  0.92797300  1
  Ni  Ni18  1  0.18921300  0.94905100  0.57202700  1
  Ni  Ni19  1  0.31078700  0.55094900  0.07202700  1
  Ni  Ni20  1  0.18921300  0.55094900  0.57202700  1
  Ni  Ni21  1  0.31078700  0.94905100  0.07202700  1
  Ni  Ni22  1  0.81078700  0.05094900  0.42797300  1
  Ni  Ni23  1  0.68921300  0.44905100  0.92797300  1
  Ni  Ni24  1  0.13835900  0.75000000  0.28250500  1
  Ni  Ni25  1  0.36164100  0.75000000  0.78250500  1
  Ni  Ni26  1  0.86164100  0.25000000  0.71749500  1
  Ni  Ni27  1  0.63835900  0.25000000  0.21749500  1
  Ni  Ni28  1  0.53464300  0.75000000  0.50852500  1
  Ni  Ni29  1  0.96535700  0.75000000  0.00852500  1
  Ni  Ni30  1  0.46535700  0.25000000  0.49147500  1
  Ni  Ni31  1  0.03464300  0.25000000  0.99147500  1
  Cu  Cu32  1  0.67116900  0.75000000  0.23240800  1
  Cu  Cu33  1  0.82883100  0.75000000  0.73240800  1
  Cu  Cu34  1  0.32883100  0.25000000  0.76759200  1
  Cu  Cu35  1  0.17116900  0.25000000  0.26759200  1
