# generated using pymatgen
data_CuNi3C14
_symmetry_space_group_name_H-M   'P 1'
_cell_length_a   3.97457000
_cell_length_b   5.62442200
_cell_length_c   10.84881582
_cell_angle_alpha   89.88248058
_cell_angle_beta   90.00000000
_cell_angle_gamma   90.00000000
_symmetry_Int_Tables_number   1
_chemical_formula_structural   CuNi3C14
_chemical_formula_sum   'Cu1 Ni3 C14'
_cell_volume   242.52106752
_cell_formula_units_Z   1
loop_
 _symmetry_equiv_pos_site_id
 _symmetry_equiv_pos_as_xyz
  1  'x, y, z'
loop_
 _atom_site_type_symbol
 _atom_site_label
 _atom_site_symmetry_multiplicity
 _atom_site_fract_x
 _atom_site_fract_y
 _atom_site_fract_z
 _atom_site_occupancy
  Ni  Ni0  1  0.50000000  0.78829000  0.86091400  1
  Ni  Ni1  1  0.50000000  0.71202500  0.37111000  1
  Ni  Ni2  1  0.50000000  0.28901100  0.63254100  1
  Cu  Cu3  1  0.50000000  0.19975800  0.13448000  1
  C  C4  1  0.00000000  0.23502700  0.37767300  1
  C  C5  1  0.00000000  0.76571600  0.62261200  1
  C  C6  1  0.00000000  0.73070200  0.12053300  1
  C  C7  1  0.00000000  0.26832300  0.87940400  1
  C  C8  1  0.00000000  0.94682000  0.27539600  1
  C  C9  1  0.00000000  0.04753600  0.72792400  1
  C  C10  1  0.00000000  0.42593300  0.20848700  1
  C  C11  1  0.00000000  0.54791000  0.77711600  1
  C  C12  1  0.00000000  0.50282000  0.49784300  1
  C  C13  1  0.00000000  0.01827100  0.00995000  1
  C  C14  1  0.50000000  0.21461600  0.38651100  1
  C  C15  1  0.50000000  0.79599300  0.60402200  1
  C  C16  1  0.50000000  0.71420400  0.10488500  1
  C  C17  1  0.50000000  0.29704500  0.90860000  1
