# generated using pymatgen
data_Cu7NiC31
_symmetry_space_group_name_H-M   'P 1'
_cell_length_a   10.90436052
_cell_length_b   15.28870460
_cell_length_c   10.75567876
_cell_angle_alpha   90.09142074
_cell_angle_beta   90.25156135
_cell_angle_gamma   90.04605192
_symmetry_Int_Tables_number   1
_chemical_formula_structural   Cu7NiC31
_chemical_formula_sum   'Cu28 Ni4 C124'
_cell_volume   1793.09719989
_cell_formula_units_Z   4
loop_
 _symmetry_equiv_pos_site_id
 _symmetry_equiv_pos_as_xyz
  1  'x, y, z'
loop_
 _atom_site_type_symbol
 _atom_site_label
 _atom_site_symmetry_multiplicity
 _atom_site_fract_x
 _atom_site_fract_y
 _atom_site_fract_z
 _atom_site_occupancy
  Ni  Ni0  1  0.01445160  0.12318545  0.50106656  1
  Ni  Ni1  1  0.49337326  0.38045902  0.99717711  1
  Ni  Ni2  1  0.23725559  0.38376036  0.25254785  1
  Ni  Ni3  1  0.24955823  0.11916415  0.25796113  1
  Cu  Cu4  1  0.01847989  0.11704683  0.98833647  1
  Cu  Cu5  1  0.02264309  0.62573749  0.49507237  1
  Cu  Cu6  1  0.02240157  0.62646121  0.99493557  1
  Cu  Cu7  1  0.52692088  0.12963138  0.50846463  1
  Cu  Cu8  1  0.53348233  0.12143403  0.97503009  1
  Cu  Cu9  1  0.52405344  0.62501312  0.49620372  1
  Cu  Cu10  1  0.52211147  0.62586832  0.99496626  1
  Cu  Cu11  1  0.47822105  0.38188503  0.51213371  1
  Cu  Cu12  1  0.47885845  0.87077475  0.99715011  1
  Cu  Cu13  1  0.47980185  0.86592311  0.51480827  1
  Cu  Cu14  1  0.96864034  0.38356126  0.99910931  1
  Cu  Cu15  1  0.97539984  0.37749171  0.50341413  1
  Cu  Cu16  1  0.97638930  0.87284063  0.00505471  1
  Cu  Cu17  1  0.97342362  0.87258459  0.50474158  1
  Cu  Cu18  1  0.22404087  0.37983656  0.74008267  1
  Cu  Cu19  1  0.22418753  0.87185489  0.24351896  1
  Cu  Cu20  1  0.22723986  0.87282307  0.74847458  1
  Cu  Cu21  1  0.73802677  0.38261114  0.24698989  1
  Cu  Cu22  1  0.72762110  0.37795821  0.74522199  1
  Cu  Cu23  1  0.73503393  0.86747739  0.24577620  1
  Cu  Cu24  1  0.72787188  0.87310735  0.74588656  1
  Cu  Cu25  1  0.27384976  0.12026934  0.74521917  1
  Cu  Cu26  1  0.27244392  0.62664992  0.25506613  1
  Cu  Cu27  1  0.27283544  0.62595990  0.75540224  1
  Cu  Cu28  1  0.77877139  0.12073205  0.25397286  1
  Cu  Cu29  1  0.77443947  0.12371531  0.75581378  1
  Cu  Cu30  1  0.77250899  0.62523440  0.25475839  1
  Cu  Cu31  1  0.77235117  0.62540397  0.75487210  1
  C  C32  1  0.99787076  0.99624032  0.24824501  1
  C  C33  1  0.99681005  0.99651166  0.75285252  1
  C  C34  1  0.99996537  0.50210027  0.24910000  1
  C  C35  1  0.99949157  0.50112789  0.74920940  1
  C  C36  1  0.51132286  0.98464445  0.23953632  1
  C  C37  1  0.50093327  0.99809653  0.74849138  1
  C  C38  1  0.50154711  0.50527763  0.25114909  1
  C  C39  1  0.49996641  0.50281096  0.74806437  1
  C  C40  1  0.25167319  0.00036525  0.99854178  1
  C  C41  1  0.23967184  0.99305242  0.50880180  1
  C  C42  1  0.24912713  0.50345655  0.00008979  1
  C  C43  1  0.24971478  0.50265231  0.50261474  1
  C  C44  1  0.75223344  0.99874092  0.99686651  1
  C  C45  1  0.74658568  0.99891471  0.50021805  1
  C  C46  1  0.75018986  0.50344095  0.00037859  1
  C  C47  1  0.75059219  0.50094184  0.50021560  1
  C  C48  1  0.25628358  0.24635680  0.96899130  1
  C  C49  1  0.24997265  0.25062373  0.50141867  1
  C  C50  1  0.24961771  0.75025939  0.00036380  1
  C  C51  1  0.25029149  0.74980083  0.49990614  1
  C  C52  1  0.75233287  0.24863378  0.99977232  1
  C  C53  1  0.75108257  0.24973853  0.50570965  1
  C  C54  1  0.74979469  0.75007643  0.99931809  1
  C  C55  1  0.75018332  0.74878949  0.50045354  1
  C  C56  1  0.99155498  0.25156749  0.25783979  1
  C  C57  1  0.99619373  0.25076514  0.74939383  1
  C  C58  1  0.99989460  0.74883115  0.24939090  1
  C  C59  1  0.00006586  0.74962017  0.74972187  1
  C  C60  1  0.52057047  0.25797050  0.26724899  1
  C  C61  1  0.50311047  0.25099988  0.74539258  1
  C  C62  1  0.49928298  0.74878103  0.25122234  1
  C  C63  1  0.50040904  0.74870667  0.75118661  1
  C  C64  1  0.10397738  0.26947790  0.60399059  1
  C  C65  1  0.10426561  0.77072408  0.10405954  1
  C  C66  1  0.10523505  0.77206915  0.60298129  1
  C  C67  1  0.59244179  0.25313151  0.10996672  1
  C  C68  1  0.59795401  0.26728364  0.59925164  1
  C  C69  1  0.60556825  0.77333614  0.10581510  1
  C  C70  1  0.60750643  0.76774237  0.60610145  1
  C  C71  1  0.39632896  0.22144216  0.37365121  1
  C  C72  1  0.40711620  0.23093313  0.89772226  1
  C  C73  1  0.39613683  0.72726638  0.39753425  1
  C  C74  1  0.39643847  0.73035554  0.89660259  1
  C  C75  1  0.88577884  0.23318095  0.39985014  1
  C  C76  1  0.89683026  0.23159467  0.90161592  1
  C  C77  1  0.89551579  0.72997334  0.39688954  1
  C  C78  1  0.89552325  0.72929962  0.89632715  1
  C  C79  1  0.14451125  0.23983151  0.34879219  1
  C  C80  1  0.13671275  0.22835616  0.85171409  1
  C  C81  1  0.14615342  0.73035145  0.35224114  1
  C  C82  1  0.14616187  0.73017441  0.85264863  1
  C  C83  1  0.65107009  0.21992072  0.35846945  1
  C  C84  1  0.64742331  0.22947336  0.85350838  1
  C  C85  1  0.64697143  0.72894423  0.35341815  1
  C  C86  1  0.64564394  0.72901050  0.85471294  1
  C  C87  1  0.35197688  0.26719932  0.64843329  1
  C  C88  1  0.35581570  0.77214269  0.14662311  1
  C  C89  1  0.35499969  0.77068290  0.64670655  1
  C  C90  1  0.85964953  0.27376482  0.14151157  1
  C  C91  1  0.85050596  0.27124534  0.64769608  1
  C  C92  1  0.85555998  0.76951572  0.14527310  1
  C  C93  1  0.85523446  0.77122887  0.64581053  1
  C  C94  1  0.36022303  0.48823939  0.14087648  1
  C  C95  1  0.35447796  0.48190022  0.64633830  1
  C  C96  1  0.35890731  0.99079606  0.15764392  1
  C  C97  1  0.35745208  0.97825982  0.64144317  1
  C  C98  1  0.85643862  0.48112143  0.14420237  1
  C  C99  1  0.85472077  0.47938488  0.64590276  1
  C  C100  1  0.85268281  0.97932607  0.14687997  1
  C  C101  1  0.85115117  0.97899191  0.64607249  1
  C  C102  1  0.14051620  0.00938197  0.35977251  1
  C  C103  1  0.14673019  0.02172834  0.85670411  1
  C  C104  1  0.14580400  0.52059707  0.35371532  1
  C  C105  1  0.14695948  0.51828311  0.85190726  1
  C  C106  1  0.62286654  0.03025307  0.35489504  1
  C  C107  1  0.64750995  0.02048096  0.85056111  1
  C  C108  1  0.64655686  0.52066470  0.35446522  1
  C  C109  1  0.64445498  0.51995350  0.85511255  1
  C  C110  1  0.39520473  0.02036215  0.89463511  1
  C  C111  1  0.39471343  0.52080685  0.39612463  1
  C  C112  1  0.39402888  0.51949598  0.89327805  1
  C  C113  1  0.88480545  0.01823195  0.38851213  1
  C  C114  1  0.89403827  0.01712223  0.89702321  1
  C  C115  1  0.89613229  0.51937545  0.39653884  1
  C  C116  1  0.89633073  0.51905228  0.89772640  1
  C  C117  1  0.10247882  0.48163891  0.10279034  1
  C  C118  1  0.10435290  0.47939443  0.60432103  1
  C  C119  1  0.10601211  0.98109908  0.10541190  1
  C  C120  1  0.09845513  0.97725130  0.61304817  1
  C  C121  1  0.61295814  0.48499184  0.11147521  1
  C  C122  1  0.60599360  0.48272283  0.60302688  1
  C  C123  1  0.60528806  0.98494105  0.09385248  1
  C  C124  1  0.59971179  0.98084199  0.59898366  1
  C  C125  1  0.00780293  0.37644575  0.28177728  1
  C  C126  1  0.00949504  0.37603881  0.78836473  1
  C  C127  1  0.00769667  0.87331623  0.28855773  1
  C  C128  1  0.00981341  0.87349522  0.79224067  1
  C  C129  1  0.49891935  0.37905292  0.28117279  1
  C  C130  1  0.51019713  0.37572330  0.77483212  1
  C  C131  1  0.50870836  0.87153772  0.30040042  1
  C  C132  1  0.51167621  0.87430083  0.78641817  1
  C  C133  1  0.49044199  0.12455417  0.71686122  1
  C  C134  1  0.49032250  0.62837486  0.21000927  1
  C  C135  1  0.48948923  0.62560757  0.71064289  1
  C  C136  1  0.99957290  0.12721100  0.21075615  1
  C  C137  1  0.98749131  0.12417092  0.72264624  1
  C  C138  1  0.98844420  0.62536181  0.21003796  1
  C  C139  1  0.98874476  0.62523383  0.71031911  1
  C  C140  1  0.24027163  0.13562746  0.03762628  1
  C  C141  1  0.25669924  0.12025356  0.52439666  1
  C  C142  1  0.23765422  0.62614869  0.03860205  1
  C  C143  1  0.23826769  0.62607522  0.54056196  1
  C  C144  1  0.74355128  0.12423592  0.03903835  1
  C  C145  1  0.74274918  0.12420405  0.54288582  1
  C  C146  1  0.73995165  0.62648888  0.03925697  1
  C  C147  1  0.74053930  0.62519885  0.53993029  1
  C  C148  1  0.26551373  0.37538331  0.47287582  1
  C  C149  1  0.25063412  0.36620585  0.98928827  1
  C  C150  1  0.26805753  0.87505350  0.45807312  1
  C  C151  1  0.26293799  0.87671661  0.96468428  1
  C  C152  1  0.75522091  0.37545679  0.46143810  1
  C  C153  1  0.75023097  0.37511858  0.96419914  1
  C  C154  1  0.75653097  0.87510750  0.45946977  1
  C  C155  1  0.75960155  0.87444729  0.96042975  1
