# generated using pymatgen
data_Cu5(NiC4)3
_symmetry_space_group_name_H-M   'P 1'
_cell_length_a   8.81237000
_cell_length_b   9.85912400
_cell_length_c   13.54711657
_cell_angle_alpha   64.29207759
_cell_angle_beta   90.00000000
_cell_angle_gamma   90.00000000
_symmetry_Int_Tables_number   1
_chemical_formula_structural   Cu5(NiC4)3
_chemical_formula_sum   'Cu20 Ni12 C48'
_cell_volume   1060.50062542
_cell_formula_units_Z   4
loop_
 _symmetry_equiv_pos_site_id
 _symmetry_equiv_pos_as_xyz
  1  'x, y, z'
loop_
 _atom_site_type_symbol
 _atom_site_label
 _atom_site_symmetry_multiplicity
 _atom_site_fract_x
 _atom_site_fract_y
 _atom_site_fract_z
 _atom_site_occupancy
  C  C0  1  0.96037000  0.68801700  0.25139700  1
  C  C1  1  0.03963000  0.31198300  0.74860300  1
  C  C2  1  0.46037000  0.31198300  0.24860300  1
  C  C3  1  0.53963000  0.68801700  0.75139700  1
  C  C4  1  0.79993600  0.92167000  0.45857900  1
  C  C5  1  0.20006400  0.07833000  0.54142100  1
  C  C6  1  0.29993600  0.07833000  0.04142100  1
  C  C7  1  0.70006400  0.92167000  0.95857900  1
  Ni  Ni8  1  0.41344900  0.96708400  0.33282000  1
  Ni  Ni9  1  0.58655100  0.03291600  0.66718000  1
  Ni  Ni10  1  0.91344900  0.03291600  0.16718000  1
  Ni  Ni11  1  0.08655100  0.96708400  0.83282000  1
  Ni  Ni12  1  0.30182000  0.73112400  0.07899200  1
  Ni  Ni13  1  0.69818000  0.26887600  0.92100800  1
  Ni  Ni14  1  0.80182000  0.26887600  0.42100800  1
  Ni  Ni15  1  0.19818000  0.73112400  0.57899200  1
  Ni  Ni16  1  0.75077600  0.56146100  0.06097600  1
  Ni  Ni17  1  0.24922400  0.43853900  0.93902400  1
  Ni  Ni18  1  0.25077600  0.43853900  0.43902400  1
  Ni  Ni19  1  0.74922400  0.56146100  0.56097600  1
  Cu  Cu20  1  0.48230300  0.73856300  0.28254000  1
  Cu  Cu21  1  0.51769700  0.26143700  0.71746000  1
  Cu  Cu22  1  0.98230300  0.26143700  0.21746000  1
  Cu  Cu23  1  0.01769700  0.73856300  0.78254000  1
  Cu  Cu24  1  0.52227600  0.48990000  0.28640200  1
  Cu  Cu25  1  0.47772400  0.51010000  0.71359800  1
  Cu  Cu26  1  0.02227600  0.51010000  0.21359800  1
  Cu  Cu27  1  0.97772400  0.48990000  0.78640200  1
  Cu  Cu28  1  0.31690800  0.84935000  0.34270600  1
  Cu  Cu29  1  0.68309200  0.15065000  0.65729400  1
  Cu  Cu30  1  0.81690800  0.15065000  0.15729400  1
  Cu  Cu31  1  0.18309200  0.84935000  0.84270600  1
  Cu  Cu32  1  0.22875400  0.74064400  0.98403900  1
  Cu  Cu33  1  0.77124600  0.25935600  0.01596100  1
  Cu  Cu34  1  0.72875400  0.25935600  0.51596100  1
  Cu  Cu35  1  0.27124600  0.74064400  0.48403900  1
  Cu  Cu36  1  0.89433200  0.49702500  0.05737600  1
  Cu  Cu37  1  0.10566800  0.50297500  0.94262400  1
  Cu  Cu38  1  0.39433200  0.50297500  0.44262400  1
  Cu  Cu39  1  0.60566800  0.49702500  0.55737600  1
  C  C40  1  0.62522200  0.59749200  0.33918600  1
  C  C41  1  0.37477800  0.40250800  0.66081400  1
  C  C42  1  0.12522200  0.40250800  0.16081400  1
  C  C43  1  0.87477800  0.59749200  0.83918600  1
  C  C44  1  0.83264000  0.43942300  0.35828700  1
  C  C45  1  0.16736000  0.56057700  0.64171300  1
  C  C46  1  0.33264000  0.56057700  0.14171300  1
  C  C47  1  0.66736000  0.43942300  0.85828700  1
  C  C48  1  0.56440400  0.90498900  0.39072600  1
  C  C49  1  0.43559600  0.09501100  0.60927400  1
  C  C50  1  0.06440400  0.09501100  0.10927400  1
  C  C51  1  0.93559600  0.90498900  0.89072600  1
  C  C52  1  0.19006100  0.79711900  0.13608300  1
  C  C53  1  0.80993900  0.20288100  0.86391700  1
  C  C54  1  0.69006100  0.20288100  0.36391700  1
  C  C55  1  0.30993900  0.79711900  0.63608300  1
  C  C56  1  0.43944700  0.84038800  0.04050200  1
  C  C57  1  0.56055300  0.15961200  0.95949800  1
  C  C58  1  0.93944700  0.15961200  0.45949800  1
  C  C59  1  0.06055300  0.84038800  0.54050200  1
  C  C60  1  0.77363900  0.67115600  0.11409900  1
  C  C61  1  0.22636100  0.32884400  0.88590100  1
  C  C62  1  0.27363900  0.32884400  0.38590100  1
  C  C63  1  0.72636100  0.67115600  0.61409900  1
  C  C64  1  0.79347500  0.66586300  0.43850300  1
  C  C65  1  0.20652500  0.33413700  0.56149700  1
  C  C66  1  0.29347500  0.33413700  0.06149700  1
  C  C67  1  0.70652500  0.66586300  0.93850300  1
  C  C68  1  0.83452400  0.93702500  0.11550200  1
  C  C69  1  0.16547600  0.06297500  0.88449800  1
  C  C70  1  0.33452400  0.06297500  0.38449800  1
  C  C71  1  0.66547600  0.93702500  0.61550200  1
  C  C72  1  0.93119200  0.92879200  0.29152800  1
  C  C73  1  0.06880800  0.07120800  0.70847200  1
  C  C74  1  0.43119200  0.07120800  0.20847200  1
  C  C75  1  0.56880800  0.92879200  0.79152800  1
  C  C76  1  0.64353400  0.43066700  0.11786200  1
  C  C77  1  0.35646600  0.56933300  0.88213800  1
  C  C78  1  0.14353400  0.56933300  0.38213800  1
  C  C79  1  0.85646600  0.43066700  0.61786200  1
