# generated using pymatgen
data_Cu15NiC8
_symmetry_space_group_name_H-M   'P 1'
_cell_length_a   8.21456720
_cell_length_b   9.87108085
_cell_length_c   17.47814289
_cell_angle_alpha   90.00000000
_cell_angle_beta   90.00000000
_cell_angle_gamma   90.53068215
_symmetry_Int_Tables_number   1
_chemical_formula_structural   Cu15NiC8
_chemical_formula_sum   'Cu60 Ni4 C32'
_cell_volume   1417.18338648
_cell_formula_units_Z   4
loop_
 _symmetry_equiv_pos_site_id
 _symmetry_equiv_pos_as_xyz
  1  'x, y, z'
loop_
 _atom_site_type_symbol
 _atom_site_label
 _atom_site_symmetry_multiplicity
 _atom_site_fract_x
 _atom_site_fract_y
 _atom_site_fract_z
 _atom_site_occupancy
  C  C0  1  0.81852313  0.25251516  0.18378612  1
  C  C1  1  0.31852313  0.75251516  0.31621388  1
  C  C2  1  0.18147687  0.74748484  0.81621388  1
  C  C3  1  0.68147687  0.24748484  0.68378612  1
  C  C4  1  0.68797602  0.78490348  0.08438213  1
  C  C5  1  0.18797602  0.28490348  0.41561787  1
  C  C6  1  0.31202398  0.21509652  0.91561787  1
  C  C7  1  0.81202398  0.71509652  0.58438213  1
  C  C8  1  0.70222884  0.63465909  0.19548613  1
  C  C9  1  0.20222884  0.13465909  0.30451387  1
  C  C10  1  0.29777116  0.36534091  0.80451387  1
  C  C11  1  0.79777116  0.86534091  0.69548613  1
  C  C12  1  0.40368755  0.25218969  0.20134368  1
  C  C13  1  0.90368755  0.75218969  0.29865632  1
  C  C14  1  0.59631245  0.74781031  0.79865632  1
  C  C15  1  0.09631245  0.24781031  0.70134368  1
  C  C16  1  0.69672101  0.89206321  0.21221524  1
  C  C17  1  0.19672101  0.39206321  0.28778476  1
  C  C18  1  0.30327899  0.10793679  0.78778476  1
  C  C19  1  0.80327899  0.60793679  0.71221524  1
  C  C20  1  0.95364075  0.52372317  0.24894573  1
  C  C21  1  0.45364075  0.02372317  0.25105427  1
  C  C22  1  0.04635925  0.47627683  0.75105427  1
  C  C23  1  0.54635925  0.97627683  0.74894573  1
  C  C24  1  0.35383343  0.27298366  0.05563208  1
  C  C25  1  0.85383343  0.77298366  0.44436792  1
  C  C26  1  0.64616657  0.72701634  0.94436792  1
  C  C27  1  0.14616657  0.22701634  0.55563208  1
  C  C28  1  0.95129574  0.99594461  0.27157910  1
  C  C29  1  0.45129574  0.49594461  0.22842090  1
  C  C30  1  0.04870426  0.00405539  0.72842090  1
  C  C31  1  0.54870426  0.50405539  0.77157910  1
  Ni  Ni32  1  0.70027422  0.30575441  0.43985645  1
  Ni  Ni33  1  0.20027422  0.80575441  0.06014355  1
  Ni  Ni34  1  0.29972578  0.69424559  0.56014355  1
  Ni  Ni35  1  0.79972578  0.19424559  0.93985645  1
  Cu  Cu36  1  0.32680277  0.22695280  0.12872120  1
  Cu  Cu37  1  0.82680277  0.72695280  0.37127880  1
  Cu  Cu38  1  0.67319723  0.77304720  0.87127880  1
  Cu  Cu39  1  0.17319723  0.27304720  0.62872120  1
  Cu  Cu40  1  0.79987992  0.51601890  0.21757507  1
  Cu  Cu41  1  0.29987992  0.01601890  0.28242493  1
  Cu  Cu42  1  0.20012008  0.48398110  0.78242493  1
  Cu  Cu43  1  0.70012008  0.98398110  0.71757507  1
  Cu  Cu44  1  0.79937211  0.00687179  0.23814040  1
  Cu  Cu45  1  0.29937211  0.50687179  0.26185960  1
  Cu  Cu46  1  0.20062789  0.99312821  0.76185960  1
  Cu  Cu47  1  0.70062789  0.49312821  0.73814040  1
  Cu  Cu48  1  0.27402907  0.26033010  0.26369650  1
  Cu  Cu49  1  0.77402907  0.76033010  0.23630350  1
  Cu  Cu50  1  0.72597093  0.73966990  0.73630350  1
  Cu  Cu51  1  0.22597093  0.23966990  0.76369650  1
  Cu  Cu52  1  0.51072376  0.37338022  0.20447923  1
  Cu  Cu53  1  0.01072376  0.87338022  0.29552077  1
  Cu  Cu54  1  0.48927624  0.62661978  0.79552077  1
  Cu  Cu55  1  0.98927624  0.12661978  0.70447923  1
  Cu  Cu56  1  0.68640673  0.80797569  0.00617994  1
  Cu  Cu57  1  0.18640673  0.30797569  0.49382006  1
  Cu  Cu58  1  0.31359327  0.19202431  0.99382006  1
  Cu  Cu59  1  0.81359327  0.69202431  0.50617994  1
  Cu  Cu60  1  0.67559388  0.89704736  0.13074369  1
  Cu  Cu61  1  0.17559388  0.39704736  0.36925631  1
  Cu  Cu62  1  0.32440612  0.10295264  0.86925631  1
  Cu  Cu63  1  0.82440612  0.60295264  0.63074369  1
  Cu  Cu64  1  0.70531122  0.65707221  0.11430482  1
  Cu  Cu65  1  0.20531122  0.15707221  0.38569518  1
  Cu  Cu66  1  0.29468878  0.34292779  0.88569518  1
  Cu  Cu67  1  0.79468878  0.84292779  0.61430482  1
  Cu  Cu68  1  0.03519636  0.40201045  0.24779140  1
  Cu  Cu69  1  0.53519636  0.90201045  0.25220860  1
  Cu  Cu70  1  0.96480364  0.59798955  0.75220860  1
  Cu  Cu71  1  0.46480364  0.09798955  0.74779140  1
  Cu  Cu72  1  0.70905041  0.18402640  0.03842595  1
  Cu  Cu73  1  0.20905041  0.68402640  0.46157405  1
  Cu  Cu74  1  0.29094959  0.81597360  0.96157405  1
  Cu  Cu75  1  0.79094959  0.31597360  0.53842595  1
  Cu  Cu76  1  0.51708594  0.14099851  0.22081603  1
  Cu  Cu77  1  0.01708594  0.64099851  0.27918397  1
  Cu  Cu78  1  0.48291406  0.85900149  0.77918397  1
  Cu  Cu79  1  0.98291406  0.35900149  0.72081603  1
  Cu  Cu80  1  0.95906172  0.15801601  0.10912655  1
  Cu  Cu81  1  0.45906172  0.65801601  0.39087345  1
  Cu  Cu82  1  0.04093828  0.84198399  0.89087345  1
  Cu  Cu83  1  0.54093828  0.34198399  0.60912655  1
  Cu  Cu84  1  0.03313369  0.11760093  0.27545816  1
  Cu  Cu85  1  0.53313369  0.61760093  0.22454184  1
  Cu  Cu86  1  0.96686631  0.88239907  0.72454184  1
  Cu  Cu87  1  0.46686631  0.38239907  0.77545816  1
  Cu  Cu88  1  0.85458803  0.36537305  0.08278260  1
  Cu  Cu89  1  0.35458803  0.86537305  0.41721740  1
  Cu  Cu90  1  0.14541197  0.63462695  0.91721740  1
  Cu  Cu91  1  0.64541197  0.13462695  0.58278260  1
  Cu  Cu92  1  0.42419314  0.39744267  0.04774801  1
  Cu  Cu93  1  0.92419314  0.89744267  0.45225199  1
  Cu  Cu94  1  0.57580686  0.60255733  0.95225199  1
  Cu  Cu95  1  0.07580686  0.10255733  0.54774801  1
