# generated using pymatgen
data_Cu9(Ni9C31)2
_symmetry_space_group_name_H-M   'P 1'
_cell_length_a   13.42481177
_cell_length_b   13.55239211
_cell_length_c   18.95679666
_cell_angle_alpha   71.66273752
_cell_angle_beta   74.85753375
_cell_angle_gamma   63.45436065
_symmetry_Int_Tables_number   1
_chemical_formula_structural   Cu9(Ni9C31)2
_chemical_formula_sum   'Cu18 Ni36 C124'
_cell_volume   2899.00462070
_cell_formula_units_Z   2
loop_
 _symmetry_equiv_pos_site_id
 _symmetry_equiv_pos_as_xyz
  1  'x, y, z'
loop_
 _atom_site_type_symbol
 _atom_site_label
 _atom_site_symmetry_multiplicity
 _atom_site_fract_x
 _atom_site_fract_y
 _atom_site_fract_z
 _atom_site_occupancy
  C  C0  1  0.00000000  0.50000000  0.50000000  1
  C  C1  1  0.00008600  0.33359000  0.66097800  1
  C  C2  1  0.99991400  0.66641000  0.33902200  1
  C  C3  1  0.94517500  0.19089000  0.83709100  1
  C  C4  1  0.05482500  0.80911000  0.16290900  1
  C  C5  1  0.00000000  0.00000000  0.00000000  1
  C  C6  1  0.52806200  0.09172500  0.72473000  1
  C  C7  1  0.47193800  0.90827500  0.27527000  1
  C  C8  1  0.35242000  0.42763800  0.76174500  1
  C  C9  1  0.64758000  0.57236200  0.23825500  1
  C  C10  1  0.05156900  0.31104600  0.90964100  1
  C  C11  1  0.94843100  0.68895400  0.09035900  1
  C  C12  1  0.02038900  0.22481100  0.14138900  1
  C  C13  1  0.97961100  0.77518900  0.85861100  1
  C  C14  1  0.91203900  0.22560700  0.10247700  1
  C  C15  1  0.08796100  0.77439300  0.89752300  1
  C  C16  1  0.04824200  0.11146000  0.10045800  1
  C  C17  1  0.95175800  0.88854000  0.89954200  1
  C  C18  1  0.08845800  0.34914900  0.07731200  1
  C  C19  1  0.91154200  0.65085100  0.92268800  1
  C  C20  1  0.18711200  0.30038100  0.99936400  1
  C  C21  1  0.81288800  0.69961900  0.00063600  1
  C  C22  1  0.05964900  0.42238700  0.98396300  1
  C  C23  1  0.94035100  0.57761300  0.01603700  1
  C  C24  1  0.74692600  0.00787700  0.93252600  1
  C  C25  1  0.25307400  0.99212300  0.06747400  1
  C  C26  1  0.59562500  0.30132600  0.01169200  1
  C  C27  1  0.40437500  0.69867400  0.98830800  1
  C  C28  1  0.74273400  0.22381200  0.01932800  1
  C  C29  1  0.25726600  0.77618800  0.98067200  1
  C  C30  1  0.69808500  0.30454800  0.93046500  1
  C  C31  1  0.30191500  0.69545200  0.06953500  1
  C  C32  1  0.50079200  0.20628600  0.01894300  1
  C  C33  1  0.49920800  0.79371400  0.98105700  1
  C  C34  1  0.53420800  0.14479200  0.94130300  1
  C  C35  1  0.46579300  0.85520800  0.05869700  1
  C  C36  1  0.57411300  0.05679900  0.03105400  1
  C  C37  1  0.42588700  0.94320100  0.96894600  1
  C  C38  1  0.89215300  0.04426200  0.74696900  1
  C  C39  1  0.10784700  0.95573800  0.25303100  1
  C  C40  1  0.17540200  0.92929700  0.59261900  1
  C  C41  1  0.82459800  0.07070300  0.40738100  1
  C  C42  1  0.11284700  0.07949200  0.58381500  1
  C  C43  1  0.88715300  0.92050800  0.41618500  1
  C  C44  1  0.19192300  0.98832100  0.65854700  1
  C  C45  1  0.80807700  0.01167900  0.34145300  1
  C  C46  1  0.06451500  0.84383100  0.63270300  1
  C  C47  1  0.93548500  0.15616900  0.36729700  1
  C  C48  1  0.00232600  0.83712000  0.72758000  1
  C  C49  1  0.99767400  0.16288000  0.27242000  1
  C  C50  1  0.91777100  0.92714800  0.65487800  1
  C  C51  1  0.08222900  0.07285200  0.34512200  1
  C  C52  1  0.70073900  0.44670300  0.75019700  1
  C  C53  1  0.29926100  0.55329700  0.24980300  1
  C  C54  1  0.74500500  0.60029700  0.89015800  1
  C  C55  1  0.25499500  0.39970300  0.10984200  1
  C  C56  1  0.82365500  0.45004500  0.90593200  1
  C  C57  1  0.17634500  0.54995500  0.09406800  1
  C  C58  1  0.86538500  0.54077300  0.82460500  1
  C  C59  1  0.13461500  0.45922700  0.17539500  1
  C  C60  1  0.58507200  0.66296400  0.85610100  1
  C  C61  1  0.41492800  0.33703600  0.14389900  1
  C  C62  1  0.57746200  0.64880500  0.76806900  1
  C  C63  1  0.42253800  0.35119500  0.23193100  1
  C  C64  1  0.54390400  0.55646800  0.85199200  1
  C  C65  1  0.45609600  0.44353200  0.14800800  1
  C  C66  1  0.26691200  0.19410000  0.58154100  1
  C  C67  1  0.73308800  0.80590000  0.41845900  1
  C  C68  1  0.32259400  0.27393900  0.35043400  1
  C  C69  1  0.67740600  0.72606100  0.64956600  1
  C  C70  1  0.19333900  0.25807100  0.38958800  1
  C  C71  1  0.80666100  0.74192900  0.61041200  1
  C  C72  1  0.20591100  0.38366500  0.39006900  1
  C  C73  1  0.79408900  0.61633500  0.60993100  1
  C  C74  1  0.45869500  0.16770100  0.41217000  1
  C  C75  1  0.54130500  0.83229900  0.58783000  1
  C  C76  1  0.45006000  0.19552500  0.49980100  1
  C  C77  1  0.54994000  0.80447500  0.50019900  1
  C  C78  1  0.42800700  0.07622100  0.49674000  1
  C  C79  1  0.57199300  0.92377900  0.50326000  1
  C  C80  1  0.68811300  0.50176700  0.59148800  1
  C  C81  1  0.31188700  0.49823300  0.40851200  1
  C  C82  1  0.83553200  0.24208300  0.48037600  1
  C  C83  1  0.16446800  0.75791700  0.51962400  1
  C  C84  1  0.91200700  0.32986000  0.46085900  1
  C  C85  1  0.08799300  0.67014000  0.53914100  1
  C  C86  1  0.91318500  0.22950000  0.54857500  1
  C  C87  1  0.08681500  0.77050000  0.45142500  1
  C  C88  1  0.65611200  0.32602400  0.50049800  1
  C  C89  1  0.34388800  0.67397600  0.49950200  1
  C  C90  1  0.59876300  0.37455200  0.58504700  1
  C  C91  1  0.40123700  0.62544800  0.41495300  1
  C  C92  1  0.60284700  0.47352500  0.49632900  1
  C  C93  1  0.39715300  0.52647500  0.50367100  1
  Ni  Ni94  1  0.02383600  0.25687300  0.96077400  1
  Ni  Ni95  1  0.97616400  0.74312700  0.03922600  1
  Ni  Ni96  1  0.00290500  0.20321100  0.09626800  1
  Ni  Ni97  1  0.99709500  0.79678900  0.90373200  1
  Ni  Ni98  1  0.09720000  0.33868200  0.02079600  1
  Ni  Ni99  1  0.90280000  0.66131800  0.97920400  1
  Ni  Ni100  1  0.76160500  0.07696300  0.94123800  1
  Ni  Ni101  1  0.23839500  0.92303700  0.05876200  1
  Ni  Ni102  1  0.67750200  0.25101600  0.98427600  1
  Ni  Ni103  1  0.32249800  0.74898400  0.01572400  1
  Ni  Ni104  1  0.56401700  0.13876100  0.99180900  1
  Ni  Ni105  1  0.43598400  0.86123900  0.00819100  1
  Ni  Ni106  1  0.96699800  0.06012200  0.71365500  1
  Ni  Ni107  1  0.03300200  0.93987800  0.28634500  1
  Ni  Ni108  1  0.13369800  0.99652300  0.62362900  1
  Ni  Ni109  1  0.86630200  0.00347700  0.37637100  1
  Ni  Ni110  1  0.00144200  0.89405700  0.67158700  1
  Ni  Ni111  1  0.99855800  0.10594300  0.32841300  1
  Ni  Ni112  1  0.76142900  0.44509800  0.78074600  1
  Ni  Ni113  1  0.23857100  0.55490200  0.21925400  1
  Ni  Ni114  1  0.79250300  0.52891700  0.86308100  1
  Ni  Ni115  1  0.20749700  0.47108200  0.13691900  1
  Ni  Ni116  1  0.59950200  0.60166500  0.82441700  1
  Ni  Ni117  1  0.40049800  0.39833500  0.17558300  1
  Ni  Ni118  1  0.22394200  0.24599100  0.53177700  1
  Ni  Ni119  1  0.77605800  0.75400900  0.46822300  1
  Ni  Ni120  1  0.25096400  0.29176200  0.39523000  1
  Ni  Ni121  1  0.74903600  0.70823800  0.60477000  1
  Ni  Ni122  1  0.41412400  0.16486000  0.46957600  1
  Ni  Ni123  1  0.58587600  0.83514000  0.53042400  1
  Ni  Ni124  1  0.77004900  0.43990700  0.57041800  1
  Ni  Ni125  1  0.22995100  0.56009300  0.42958200  1
  Ni  Ni126  1  0.86135100  0.28892300  0.50456800  1
  Ni  Ni127  1  0.13864900  0.71107700  0.49543200  1
  Ni  Ni128  1  0.64753100  0.38832300  0.52931100  1
  Ni  Ni129  1  0.35246900  0.61167700  0.47068900  1
  Cu  Cu130  1  0.69055300  0.04412100  0.58789400  1
  Cu  Cu131  1  0.30944700  0.95587900  0.41210600  1
  Cu  Cu132  1  0.68058500  0.89473900  0.82781200  1
  Cu  Cu133  1  0.31941500  0.10526100  0.17218800  1
  Cu  Cu134  1  0.39801500  0.96971400  0.71164400  1
  Cu  Cu135  1  0.60198500  0.03028600  0.28835600  1
  Cu  Cu136  1  0.60769800  0.26601000  0.76015900  1
  Cu  Cu137  1  0.39230200  0.73399000  0.23984100  1
  Cu  Cu138  1  0.37050300  0.32945500  0.62725400  1
  Cu  Cu139  1  0.62949700  0.67054500  0.37274600  1
  Cu  Cu140  1  0.32709100  0.19498500  0.86047700  1
  Cu  Cu141  1  0.67290900  0.80501500  0.13952300  1
  Cu  Cu142  1  0.39649200  0.63032700  0.67316700  1
  Cu  Cu143  1  0.60350800  0.36967300  0.32683300  1
  Cu  Cu144  1  0.32117600  0.48694300  0.90988700  1
  Cu  Cu145  1  0.67882400  0.51305700  0.09011300  1
  Cu  Cu146  1  0.08315500  0.53251400  0.72903300  1
  Cu  Cu147  1  0.91684500  0.46748600  0.27096700  1
  C  C148  1  0.67107400  0.15290000  0.97206200  1
  C  C149  1  0.32892600  0.84710000  0.02793800  1
  C  C150  1  0.03944000  0.26710800  0.02436300  1
  C  C151  1  0.96056000  0.73289200  0.97563700  1
  C  C152  1  0.03146600  0.98648800  0.67035400  1
  C  C153  1  0.96853400  0.01351200  0.32964600  1
  C  C154  1  0.71866000  0.52328800  0.82124600  1
  C  C155  1  0.28134000  0.47671200  0.17875400  1
  C  C156  1  0.29375600  0.23568100  0.46719200  1
  C  C157  1  0.70624400  0.76431900  0.53280800  1
  C  C158  1  0.76010300  0.37374800  0.53596600  1
  C  C159  1  0.23989700  0.62625100  0.46403400  1
  C  C160  1  0.85769100  0.08057600  0.92249400  1
  C  C161  1  0.14230900  0.91942400  0.07750600  1
  C  C162  1  0.98103400  0.19278300  0.95756100  1
  C  C163  1  0.01896600  0.80721700  0.04243900  1
  C  C164  1  0.98665900  0.14036900  0.71789700  1
  C  C165  1  0.01334200  0.85963100  0.28210300  1
  C  C166  1  0.86178100  0.37382300  0.77741900  1
  C  C167  1  0.13821900  0.62617700  0.22258100  1
  C  C168  1  0.12000500  0.30624600  0.53776600  1
  C  C169  1  0.87999500  0.69375400  0.46223400  1
  C  C170  1  0.86228900  0.43461800  0.57902800  1
  C  C171  1  0.13771100  0.56538200  0.42097200  1
  C  C172  1  0.14319900  0.04654700  0.85875500  1
  C  C173  1  0.85680100  0.95345300  0.14124500  1
  C  C174  1  0.17018100  0.11977000  0.80679400  1
  C  C175  1  0.82981900  0.88023000  0.19320600  1
  C  C176  1  0.06024200  0.47404100  0.65770700  1
  C  C177  1  0.93975800  0.52595900  0.34229300  1
