# generated using pymatgen
data_Cu(NiC7)3
_symmetry_space_group_name_H-M   'P 1'
_cell_length_a   5.50928300
_cell_length_b   9.42559426
_cell_length_c   12.10487833
_cell_angle_alpha   97.47856284
_cell_angle_beta   102.71429166
_cell_angle_gamma   105.05654348
_symmetry_Int_Tables_number   1
_chemical_formula_structural   Cu(NiC7)3
_chemical_formula_sum   'Cu2 Ni6 C42'
_cell_volume   580.29556598
_cell_formula_units_Z   2
loop_
 _symmetry_equiv_pos_site_id
 _symmetry_equiv_pos_as_xyz
  1  'x, y, z'
loop_
 _atom_site_type_symbol
 _atom_site_label
 _atom_site_symmetry_multiplicity
 _atom_site_fract_x
 _atom_site_fract_y
 _atom_site_fract_z
 _atom_site_occupancy
  Ni  Ni0  1  0.55343100  0.95093900  0.14915900  1
  Ni  Ni1  1  0.35037100  0.14984700  0.54729400  1
  Ni  Ni2  1  0.84375700  0.64807900  0.04894000  1
  Ni  Ni3  1  0.24999600  0.25038600  0.24905100  1
  Ni  Ni4  1  0.64959500  0.85072900  0.44948500  1
  Ni  Ni5  1  0.04861500  0.44918200  0.65342700  1
  Cu  Cu6  1  0.75174100  0.74991300  0.75108800  1
  Cu  Cu7  1  0.14731500  0.34752000  0.94949900  1
  C  C8  1  0.94852300  0.55075900  0.35274400  1
  C  C9  1  0.45776200  0.05218100  0.84924700  1
  C  C10  1  0.50001900  0.50047300  0.50182900  1
  C  C11  1  0.69963900  0.30045000  0.09858000  1
  C  C12  1  0.10160100  0.90080300  0.29984700  1
  C  C13  1  0.90186800  0.10049500  0.70145800  1
  C  C14  1  0.29639700  0.69723600  0.89834700  1
  C  C15  1  0.60059000  0.40233400  0.80112300  1
  C  C16  1  0.79891400  0.19913300  0.40030700  1
  C  C17  1  0.20150900  0.79911800  0.60229400  1
  C  C18  1  0.00175300  0.00014600  0.99861700  1
  C  C19  1  0.39818800  0.59943500  0.19792400  1
  C  C20  1  0.06182400  0.93858800  0.68381000  1
  C  C21  1  0.24804100  0.73520800  0.27589700  1
  C  C22  1  0.66410500  0.34708900  0.47339400  1
  C  C23  1  0.43612500  0.52949900  0.87585900  1
  C  C24  1  0.86195000  0.14359300  0.07324300  1
  C  C25  1  0.73444200  0.25470600  0.72653900  1
  C  C26  1  0.94149300  0.05709000  0.32699400  1
  C  C27  1  0.33160600  0.65603600  0.51955300  1
  C  C28  1  0.14629200  0.86452900  0.91737600  1
  C  C29  1  0.51567300  0.44837700  0.11840000  1
  C  C30  1  0.52743600  0.48045200  0.66030500  1
  C  C31  1  0.73050500  0.28124500  0.25918800  1
  C  C32  1  0.12587300  0.87069200  0.45886200  1
  C  C33  1  0.92039000  0.08370100  0.86108100  1
  C  C34  1  0.32728700  0.67764100  0.05847200  1
  C  C35  1  0.87790500  0.12825600  0.54495000  1
  C  C36  1  0.07230100  0.92554500  0.13977600  1
  C  C37  1  0.49049800  0.52895600  0.34271000  1
  C  C38  1  0.29303400  0.72463900  0.74173100  1
  C  C39  1  0.69268600  0.32312900  0.94117200  1
  C  C40  1  0.15293700  0.35911400  0.44641900  1
  C  C41  1  0.35784400  0.14707000  0.03885200  1
  C  C42  1  0.74818800  0.73967100  0.25055500  1
  C  C43  1  0.55128700  0.94823300  0.65866000  1
  C  C44  1  0.93757000  0.55678100  0.84918200  1
  C  C45  1  0.25342000  0.24050900  0.75765800  1
  C  C46  1  0.44986600  0.04941400  0.34895400  1
  C  C47  1  0.85490900  0.65119000  0.55051400  1
  C  C48  1  0.65503000  0.85442800  0.94159200  1
  C  C49  1  0.03790000  0.45546000  0.15804300  1
