# generated using pymatgen
data_CuNiC8
_symmetry_space_group_name_H-M   'P 1'
_cell_length_a   6.61703134
_cell_length_b   6.61703134
_cell_length_c   8.61429100
_cell_angle_alpha   90.00000000
_cell_angle_beta   90.00000000
_cell_angle_gamma   117.20075197
_symmetry_Int_Tables_number   1
_chemical_formula_structural   CuNiC8
_chemical_formula_sum   'Cu2 Ni2 C16'
_cell_volume   335.46569286
_cell_formula_units_Z   2
loop_
 _symmetry_equiv_pos_site_id
 _symmetry_equiv_pos_as_xyz
  1  'x, y, z'
loop_
 _atom_site_type_symbol
 _atom_site_label
 _atom_site_symmetry_multiplicity
 _atom_site_fract_x
 _atom_site_fract_y
 _atom_site_fract_z
 _atom_site_occupancy
  C  C0  1  0.69253200  0.30746800  0.75000000  1
  C  C1  1  0.30746800  0.69253200  0.25000000  1
  Ni  Ni2  1  0.00000000  0.00000000  0.00000000  1
  Ni  Ni3  1  0.00000000  0.00000000  0.50000000  1
  Cu  Cu4  1  0.30917200  0.69082800  0.75000000  1
  Cu  Cu5  1  0.69082800  0.30917200  0.25000000  1
  C  C6  1  0.34995700  0.06524200  0.75000000  1
  C  C7  1  0.65004300  0.93475800  0.25000000  1
  C  C8  1  0.93475800  0.65004300  0.75000000  1
  C  C9  1  0.06524200  0.34995700  0.25000000  1
  C  C10  1  0.51213700  0.48786300  0.75000000  1
  C  C11  1  0.48786300  0.51213700  0.25000000  1
  C  C12  1  0.70334000  0.29666000  0.98282000  1
  C  C13  1  0.29666000  0.70334000  0.01718000  1
  C  C14  1  0.29666000  0.70334000  0.48282000  1
  C  C15  1  0.70334000  0.29666000  0.51718000  1
  C  C16  1  0.66957300  0.97775100  0.75000000  1
  C  C17  1  0.33042700  0.02224900  0.25000000  1
  C  C18  1  0.02224900  0.33042700  0.75000000  1
  C  C19  1  0.97775100  0.66957300  0.25000000  1
