# generated using pymatgen
data_Cu9Ni3C2
_symmetry_space_group_name_H-M   'P 1'
_cell_length_a   7.59268944
_cell_length_b   7.84745997
_cell_length_c   24.14198407
_cell_angle_alpha   91.27093370
_cell_angle_beta   90.00000000
_cell_angle_gamma   90.00000000
_symmetry_Int_Tables_number   1
_chemical_formula_structural   Cu9Ni3C2
_chemical_formula_sum   'Cu72 Ni24 C16'
_cell_volume   1438.10584221
_cell_formula_units_Z   8
loop_
 _symmetry_equiv_pos_site_id
 _symmetry_equiv_pos_as_xyz
  1  'x, y, z'
loop_
 _atom_site_type_symbol
 _atom_site_label
 _atom_site_symmetry_multiplicity
 _atom_site_fract_x
 _atom_site_fract_y
 _atom_site_fract_z
 _atom_site_occupancy
  C  C0  1  0.81581100  0.70651783  0.63408822  1
  C  C1  1  0.18418900  0.29348217  0.36591178  1
  C  C2  1  0.31581100  0.79348217  0.86591178  1
  C  C3  1  0.68418900  0.20651783  0.13408822  1
  C  C4  1  0.55777418  0.00052697  0.74535706  1
  C  C5  1  0.44222582  0.99947303  0.25464294  1
  C  C6  1  0.05777418  0.49947303  0.75464294  1
  C  C7  1  0.94222582  0.50052697  0.24535706  1
  C  C8  1  0.28995075  0.74256537  0.52591986  1
  C  C9  1  0.71004925  0.25743463  0.47408014  1
  C  C10  1  0.78995075  0.75743463  0.97408014  1
  C  C11  1  0.21004925  0.24256537  0.02591986  1
  C  C12  1  0.30593427  0.24273594  0.60967157  1
  C  C13  1  0.69406573  0.75726406  0.39032843  1
  C  C14  1  0.80593427  0.25726406  0.89032843  1
  C  C15  1  0.19406573  0.74273594  0.10967157  1
  Ni  Ni16  1  0.79825746  0.73540724  0.73524320  1
  Ni  Ni17  1  0.20174254  0.26459276  0.26475680  1
  Ni  Ni18  1  0.29825746  0.76459276  0.76475680  1
  Ni  Ni19  1  0.70174254  0.23540724  0.23524320  1
  Ni  Ni20  1  0.30196606  0.26086130  0.72954704  1
  Ni  Ni21  1  0.69803394  0.73913870  0.27045296  1
  Ni  Ni22  1  0.80196606  0.23913870  0.77045296  1
  Ni  Ni23  1  0.19803394  0.76086130  0.22954704  1
  Ni  Ni24  1  0.49369609  0.14560063  0.94572956  1
  Ni  Ni25  1  0.50630391  0.85439937  0.05427044  1
  Ni  Ni26  1  0.99369609  0.35439937  0.55427044  1
  Ni  Ni27  1  0.00630391  0.64560063  0.44572956  1
  Ni  Ni28  1  0.12771565  0.40030935  0.93586483  1
  Ni  Ni29  1  0.87228435  0.59969065  0.06413517  1
  Ni  Ni30  1  0.62771565  0.09969065  0.56413517  1
  Ni  Ni31  1  0.37228435  0.90030935  0.43586483  1
  Ni  Ni32  1  0.11482382  0.92630750  0.60656636  1
  Ni  Ni33  1  0.88517618  0.07369250  0.39343364  1
  Ni  Ni34  1  0.61482382  0.57369250  0.89343364  1
  Ni  Ni35  1  0.38517618  0.42630750  0.10656636  1
  Ni  Ni36  1  0.00676327  0.94714086  0.90251892  1
  Ni  Ni37  1  0.99323673  0.05285914  0.09748108  1
  Ni  Ni38  1  0.50676327  0.55285914  0.59748108  1
  Ni  Ni39  1  0.49323673  0.44714086  0.40251892  1
  Cu  Cu40  1  0.39704344  0.15362411  0.70130354  1
  Cu  Cu41  1  0.60295656  0.84637589  0.29869646  1
  Cu  Cu42  1  0.89704344  0.34637589  0.79869646  1
  Cu  Cu43  1  0.10295656  0.65362411  0.20130354  1
  Cu  Cu44  1  0.52485943  0.09209989  0.89652200  1
  Cu  Cu45  1  0.47514057  0.90790011  0.10347800  1
  Cu  Cu46  1  0.02485943  0.40790011  0.60347800  1
  Cu  Cu47  1  0.97514057  0.59209989  0.39652200  1
  Cu  Cu48  1  0.60821483  0.24643799  0.96778255  1
  Cu  Cu49  1  0.39178517  0.75356201  0.03221745  1
  Cu  Cu50  1  0.10821483  0.25356201  0.53221745  1
  Cu  Cu51  1  0.89178517  0.74643799  0.46778255  1
  Cu  Cu52  1  0.30025764  0.26888213  0.78017485  1
  Cu  Cu53  1  0.69974236  0.73111787  0.21982515  1
  Cu  Cu54  1  0.80025764  0.23111787  0.71982515  1
  Cu  Cu55  1  0.19974236  0.76888213  0.28017485  1
  Cu  Cu56  1  0.26351864  0.45694553  0.95758359  1
  Cu  Cu57  1  0.73648136  0.54305447  0.04241641  1
  Cu  Cu58  1  0.76351864  0.04305447  0.54241641  1
  Cu  Cu59  1  0.23648136  0.95694553  0.45758359  1
  Cu  Cu60  1  0.04859849  0.05793890  0.86726790  1
  Cu  Cu61  1  0.95140151  0.94206110  0.13273210  1
  Cu  Cu62  1  0.54859849  0.44206110  0.63273210  1
  Cu  Cu63  1  0.45140151  0.55793890  0.36726790  1
  Cu  Cu64  1  0.35830220  0.10183431  0.97103707  1
  Cu  Cu65  1  0.64169780  0.89816569  0.02896293  1
  Cu  Cu66  1  0.85830220  0.39816569  0.52896293  1
  Cu  Cu67  1  0.14169780  0.60183431  0.47103707  1
  Cu  Cu68  1  0.29638074  0.75462404  0.71341394  1
  Cu  Cu69  1  0.70361926  0.24537596  0.28658606  1
  Cu  Cu70  1  0.79638074  0.74537596  0.78658606  1
  Cu  Cu71  1  0.20361926  0.25462404  0.21341394  1
  Cu  Cu72  1  0.63831177  0.47328481  0.42924116  1
  Cu  Cu73  1  0.36168823  0.52671519  0.57075884  1
  Cu  Cu74  1  0.13831177  0.02671519  0.07075884  1
  Cu  Cu75  1  0.86168823  0.97328481  0.92924116  1
  Cu  Cu76  1  0.03330536  0.79063711  0.59914349  1
  Cu  Cu77  1  0.96669464  0.20936289  0.40085651  1
  Cu  Cu78  1  0.53330536  0.70936289  0.90085651  1
  Cu  Cu79  1  0.46669464  0.29063711  0.09914349  1
  Cu  Cu80  1  0.02083974  0.30357249  0.96434035  1
  Cu  Cu81  1  0.97916026  0.69642751  0.03565965  1
  Cu  Cu82  1  0.52083974  0.19642751  0.53565965  1
  Cu  Cu83  1  0.47916026  0.80357249  0.46434035  1
  Cu  Cu84  1  0.08210381  0.42725676  0.88662716  1
  Cu  Cu85  1  0.91789619  0.57274324  0.11337284  1
  Cu  Cu86  1  0.58210381  0.07274324  0.61337284  1
  Cu  Cu87  1  0.41789619  0.92725676  0.38662716  1
  Cu  Cu88  1  0.20808735  0.36050993  0.69935579  1
  Cu  Cu89  1  0.79191265  0.63949007  0.30064421  1
  Cu  Cu90  1  0.70808735  0.13949007  0.80064421  1
  Cu  Cu91  1  0.29191265  0.86050993  0.19935579  1
  Cu  Cu92  1  0.59814235  0.68034226  0.58806326  1
  Cu  Cu93  1  0.40185765  0.31965774  0.41193674  1
  Cu  Cu94  1  0.09814235  0.81965774  0.91193674  1
  Cu  Cu95  1  0.90185765  0.18034226  0.08806326  1
  Cu  Cu96  1  0.06384523  0.04840330  0.63769713  1
  Cu  Cu97  1  0.93615477  0.95159670  0.36230287  1
  Cu  Cu98  1  0.56384523  0.45159670  0.86230287  1
  Cu  Cu99  1  0.43615477  0.54840330  0.13769713  1
  Cu  Cu100  1  0.26206009  0.94816128  0.58074028  1
  Cu  Cu101  1  0.73793991  0.05183872  0.41925972  1
  Cu  Cu102  1  0.76206009  0.55183872  0.91925972  1
  Cu  Cu103  1  0.23793991  0.44816128  0.08074028  1
  Cu  Cu104  1  0.39141815  0.87643230  0.79115121  1
  Cu  Cu105  1  0.60858185  0.12356770  0.20884879  1
  Cu  Cu106  1  0.89141815  0.62356770  0.70884879  1
  Cu  Cu107  1  0.10858185  0.37643230  0.29115121  1
  Cu  Cu108  1  0.70835596  0.83514421  0.70484062  1
  Cu  Cu109  1  0.29164404  0.16485579  0.29515938  1
  Cu  Cu110  1  0.20835596  0.66485579  0.79515938  1
  Cu  Cu111  1  0.79164404  0.33514421  0.20484062  1
