# generated using pymatgen
data_Cu2Ni4C3
_symmetry_space_group_name_H-M   'P 1'
_cell_length_a   5.11139600
_cell_length_b   9.98648547
_cell_length_c   9.98648547
_cell_angle_alpha   86.24484983
_cell_angle_beta   75.17215105
_cell_angle_gamma   75.17215105
_symmetry_Int_Tables_number   1
_chemical_formula_structural   Cu2Ni4C3
_chemical_formula_sum   'Cu4 Ni8 C6'
_cell_volume   476.37341672
_cell_formula_units_Z   2
loop_
 _symmetry_equiv_pos_site_id
 _symmetry_equiv_pos_as_xyz
  1  'x, y, z'
loop_
 _atom_site_type_symbol
 _atom_site_label
 _atom_site_symmetry_multiplicity
 _atom_site_fract_x
 _atom_site_fract_y
 _atom_site_fract_z
 _atom_site_occupancy
  C  C0  1  0.00000000  0.00000000  0.00000000  1
  Ni  Ni1  1  0.54797200  0.32201500  0.19371900  1
  Ni  Ni2  1  0.06370700  0.67798500  0.80628100  1
  Ni  Ni3  1  0.13001300  0.80628100  0.32201500  1
  Ni  Ni4  1  0.25830800  0.19371900  0.67798500  1
  Ni  Ni5  1  0.57116800  0.30975300  0.06000700  1
  Ni  Ni6  1  0.94092700  0.69024700  0.93999300  1
  Ni  Ni7  1  0.11907900  0.93999300  0.30975300  1
  Ni  Ni8  1  0.36882600  0.06000700  0.69024700  1
  Cu  Cu9  1  0.68407900  0.23896900  0.91351000  1
  Cu  Cu10  1  0.83655800  0.76103100  0.08649000  1
  Cu  Cu11  1  0.07695200  0.08649000  0.23896900  1
  Cu  Cu12  1  0.40241100  0.91351000  0.76103100  1
  C  C13  1  0.55924100  0.31363500  0.31302600  1
  C  C14  1  0.18590300  0.68636500  0.68697400  1
  C  C15  1  0.12712300  0.68697400  0.31363500  1
  C  C16  1  0.12773300  0.31302600  0.68636500  1
  C  C17  1  0.25000000  0.50000000  0.50000000  1
