# generated using pymatgen
data_Cu2NiC
_symmetry_space_group_name_H-M   'P 1'
_cell_length_a   8.67669967
_cell_length_b   8.67669967
_cell_length_c   4.23151500
_cell_angle_alpha   90.00000000
_cell_angle_beta   90.00000000
_cell_angle_gamma   151.88707684
_symmetry_Int_Tables_number   1
_chemical_formula_structural   Cu2NiC
_chemical_formula_sum   'Cu4 Ni2 C2'
_cell_volume   150.11368391
_cell_formula_units_Z   2
loop_
 _symmetry_equiv_pos_site_id
 _symmetry_equiv_pos_as_xyz
  1  'x, y, z'
loop_
 _atom_site_type_symbol
 _atom_site_label
 _atom_site_symmetry_multiplicity
 _atom_site_fract_x
 _atom_site_fract_y
 _atom_site_fract_z
 _atom_site_occupancy
  C  C0  1  0.61031500  0.38968500  0.25000000  1
  C  C1  1  0.38968500  0.61031500  0.75000000  1
  Ni  Ni2  1  0.81938000  0.18062000  0.25000000  1
  Ni  Ni3  1  0.18062000  0.81938000  0.75000000  1
  Cu  Cu4  1  0.95650300  0.04349700  0.25000000  1
  Cu  Cu5  1  0.04349700  0.95650300  0.75000000  1
  Cu  Cu6  1  0.25005700  0.74994300  0.25000000  1
  Cu  Cu7  1  0.74994300  0.25005700  0.75000000  1
