# generated using pymatgen
data_Cu2NiC14
_symmetry_space_group_name_H-M   'P 1'
_cell_length_a   7.33463378
_cell_length_b   7.33463378
_cell_length_c   13.30632000
_cell_angle_alpha   90.00000000
_cell_angle_beta   90.00000000
_cell_angle_gamma   133.48266573
_symmetry_Int_Tables_number   1
_chemical_formula_structural   Cu2NiC14
_chemical_formula_sum   'Cu4 Ni2 C28'
_cell_volume   519.39969170
_cell_formula_units_Z   2
loop_
 _symmetry_equiv_pos_site_id
 _symmetry_equiv_pos_as_xyz
  1  'x, y, z'
loop_
 _atom_site_type_symbol
 _atom_site_label
 _atom_site_symmetry_multiplicity
 _atom_site_fract_x
 _atom_site_fract_y
 _atom_site_fract_z
 _atom_site_occupancy
  C  C0  1  0.48717500  0.51282500  0.88789700  1
  C  C1  1  0.00926300  0.99073700  0.11583300  1
  C  C2  1  0.51282500  0.48717500  0.38789700  1
  C  C3  1  0.99073700  0.00926300  0.61583300  1
  C  C4  1  0.28400900  0.71599100  0.63903000  1
  C  C5  1  0.21748000  0.78252000  0.35488800  1
  C  C6  1  0.71599100  0.28400900  0.13903000  1
  C  C7  1  0.78252000  0.21748000  0.85488800  1
  Ni  Ni8  1  0.60939400  0.39060700  0.65307500  1
  Ni  Ni9  1  0.39060600  0.60939400  0.15307500  1
  Cu  Cu10  1  0.74995500  0.25004500  0.50441100  1
  Cu  Cu11  1  0.25004500  0.74995500  0.00441100  1
  Cu  Cu12  1  0.87542600  0.12457400  0.34595200  1
  Cu  Cu13  1  0.12457400  0.87542600  0.84595200  1
  C  C14  1  0.78345000  0.21655000  0.65061300  1
  C  C15  1  0.71996200  0.28003800  0.35168900  1
  C  C16  1  0.21655000  0.78345000  0.15061300  1
  C  C17  1  0.28003800  0.71996200  0.85168900  1
  C  C18  1  0.42157400  0.13975300  0.54213200  1
  C  C19  1  0.63146200  0.91346500  0.46048800  1
  C  C20  1  0.13975300  0.42157400  0.04213200  1
  C  C21  1  0.91346500  0.63146200  0.96048800  1
  C  C22  1  0.08653500  0.36853800  0.46048800  1
  C  C23  1  0.86024700  0.57842600  0.54213200  1
  C  C24  1  0.36853800  0.08653500  0.96048800  1
  C  C25  1  0.57842600  0.86024700  0.04213200  1
  C  C26  1  0.47644000  0.52356000  0.65296500  1
  C  C27  1  0.02011800  0.97988200  0.34634200  1
  C  C28  1  0.52356000  0.47644000  0.15296500  1
  C  C29  1  0.97988200  0.02011800  0.84634200  1
  C  C30  1  0.38218800  0.12742100  0.74603400  1
  C  C31  1  0.61781200  0.87257900  0.24603400  1
  C  C32  1  0.12742100  0.38218800  0.24603400  1
  C  C33  1  0.87257900  0.61781200  0.74603400  1
