# generated using pymatgen
data_CuNiC6
_symmetry_space_group_name_H-M   'P 1'
_cell_length_a   6.34057100
_cell_length_b   7.37623800
_cell_length_c   11.28834100
_cell_angle_alpha   90.00000000
_cell_angle_beta   90.00000000
_cell_angle_gamma   90.00000000
_symmetry_Int_Tables_number   1
_chemical_formula_structural   CuNiC6
_chemical_formula_sum   'Cu4 Ni4 C24'
_cell_volume   527.95075019
_cell_formula_units_Z   4
loop_
 _symmetry_equiv_pos_site_id
 _symmetry_equiv_pos_as_xyz
  1  'x, y, z'
loop_
 _atom_site_type_symbol
 _atom_site_label
 _atom_site_symmetry_multiplicity
 _atom_site_fract_x
 _atom_site_fract_y
 _atom_site_fract_z
 _atom_site_occupancy
  C  C0  1  0.39133100  0.75000000  0.50000000  1
  C  C1  1  0.39133100  0.75000000  0.00000000  1
  C  C2  1  0.60866900  0.25000000  0.50000000  1
  C  C3  1  0.60866900  0.25000000  0.00000000  1
  C  C4  1  0.87204200  0.96223700  0.75000000  1
  C  C5  1  0.87204200  0.53776300  0.25000000  1
  C  C6  1  0.12795800  0.46223700  0.75000000  1
  C  C7  1  0.12795800  0.03776300  0.25000000  1
  Ni  Ni8  1  0.11398000  0.25000000  0.00000000  1
  Ni  Ni9  1  0.88602000  0.75000000  0.00000000  1
  Ni  Ni10  1  0.88602000  0.75000000  0.50000000  1
  Ni  Ni11  1  0.11398000  0.25000000  0.50000000  1
  Cu  Cu12  1  0.57378400  0.61031400  0.75000000  1
  Cu  Cu13  1  0.57378400  0.88968600  0.25000000  1
  Cu  Cu14  1  0.42621600  0.11031400  0.75000000  1
  Cu  Cu15  1  0.42621600  0.38968600  0.25000000  1
  C  C16  1  0.26947200  0.07788000  0.46768200  1
  C  C17  1  0.26947200  0.42212000  0.53231800  1
  C  C18  1  0.73052800  0.57788000  0.03231800  1
  C  C19  1  0.73052800  0.92212000  0.96768200  1
  C  C20  1  0.73052800  0.92212000  0.53231800  1
  C  C21  1  0.73052800  0.57788000  0.46768200  1
  C  C22  1  0.26947200  0.42212000  0.96768200  1
  C  C23  1  0.26947200  0.07788000  0.03231800  1
  C  C24  1  0.04514400  0.76816700  0.38403200  1
  C  C25  1  0.04514400  0.76816700  0.11596800  1
  C  C26  1  0.95485600  0.26816700  0.11596800  1
  C  C27  1  0.95485600  0.23183300  0.88403200  1
  C  C28  1  0.95485600  0.23183300  0.61596800  1
  C  C29  1  0.95485600  0.26816700  0.38403200  1
  C  C30  1  0.04514400  0.73183300  0.88403200  1
  C  C31  1  0.04514400  0.73183300  0.61596800  1
