# generated using pymatgen
data_CuNi2C3
_symmetry_space_group_name_H-M   'P 1'
_cell_length_a   11.93127096
_cell_length_b   10.19284061
_cell_length_c   8.75553823
_cell_angle_alpha   77.64251812
_cell_angle_beta   56.56416567
_cell_angle_gamma   45.79331621
_symmetry_Int_Tables_number   1
_chemical_formula_structural   CuNi2C3
_chemical_formula_sum   'Cu4 Ni8 C12'
_cell_volume   610.63695137
_cell_formula_units_Z   4
loop_
 _symmetry_equiv_pos_site_id
 _symmetry_equiv_pos_as_xyz
  1  'x, y, z'
loop_
 _atom_site_type_symbol
 _atom_site_label
 _atom_site_symmetry_multiplicity
 _atom_site_fract_x
 _atom_site_fract_y
 _atom_site_fract_z
 _atom_site_occupancy
  Ni  Ni0  1  0.62218600  0.62218600  0.37781400  1
  Ni  Ni1  1  0.37781400  0.37781400  0.62218600  1
  Ni  Ni2  1  0.62781400  0.62781400  0.87218600  1
  Ni  Ni3  1  0.87218600  0.87218600  0.62781400  1
  Ni  Ni4  1  0.12385700  0.12385700  0.87614300  1
  Ni  Ni5  1  0.87614300  0.87614300  0.12385700  1
  Ni  Ni6  1  0.12614300  0.12614300  0.37385700  1
  Ni  Ni7  1  0.37385700  0.37385700  0.12614300  1
  Cu  Cu8  1  0.83305400  0.16694600  0.83305400  1
  Cu  Cu9  1  0.16694600  0.83305400  0.16694600  1
  Cu  Cu10  1  0.41694600  0.08305400  0.41694600  1
  Cu  Cu11  1  0.08305400  0.41694600  0.08305400  1
  C  C12  1  0.17119600  0.83460300  0.66246200  1
  C  C13  1  0.33173900  0.66246200  0.83460300  1
  C  C14  1  0.66246200  0.33173900  0.17119600  1
  C  C15  1  0.83460300  0.17119600  0.33173900  1
  C  C16  1  0.07880400  0.41539700  0.58753800  1
  C  C17  1  0.91826100  0.58753800  0.41539700  1
  C  C18  1  0.58753800  0.91826100  0.07880400  1
  C  C19  1  0.41539700  0.07880400  0.91826100  1
  C  C20  1  0.66666000  0.33334000  0.66666000  1
  C  C21  1  0.33334000  0.66666000  0.33334000  1
  C  C22  1  0.58334000  0.91666000  0.58334000  1
  C  C23  1  0.91666000  0.58334000  0.91666000  1
