# generated using pymatgen
data_CuNiC
_symmetry_space_group_name_H-M   'P 1'
_cell_length_a   4.17087000
_cell_length_b   4.17087000
_cell_length_c   7.77393014
_cell_angle_alpha   105.56075675
_cell_angle_beta   105.56075675
_cell_angle_gamma   90.00000000
_symmetry_Int_Tables_number   1
_chemical_formula_structural   CuNiC
_chemical_formula_sum   'Cu2 Ni2 C2'
_cell_volume   125.12651821
_cell_formula_units_Z   2
loop_
 _symmetry_equiv_pos_site_id
 _symmetry_equiv_pos_as_xyz
  1  'x, y, z'
loop_
 _atom_site_type_symbol
 _atom_site_label
 _atom_site_symmetry_multiplicity
 _atom_site_fract_x
 _atom_site_fract_y
 _atom_site_fract_z
 _atom_site_occupancy
  C  C0  1  0.25449900  0.75449900  0.50899800  1
  C  C1  1  0.00449900  0.00449900  0.00899800  1
  Ni  Ni2  1  0.83312500  0.33312500  0.66625000  1
  Ni  Ni3  1  0.58312500  0.58312500  0.16625000  1
  Cu  Cu4  1  0.66597600  0.16597600  0.33195200  1
  Cu  Cu5  1  0.41597600  0.41597600  0.83195200  1
