# generated using pymatgen
data_CuNiC5
_symmetry_space_group_name_H-M   'P 1'
_cell_length_a   11.37382800
_cell_length_b   3.61862000
_cell_length_c   13.21396500
_cell_angle_alpha   90.00000000
_cell_angle_beta   90.00000000
_cell_angle_gamma   90.00000000
_symmetry_Int_Tables_number   1
_chemical_formula_structural   CuNiC5
_chemical_formula_sum   'Cu4 Ni4 C20'
_cell_volume   543.85457685
_cell_formula_units_Z   4
loop_
 _symmetry_equiv_pos_site_id
 _symmetry_equiv_pos_as_xyz
  1  'x, y, z'
loop_
 _atom_site_type_symbol
 _atom_site_label
 _atom_site_symmetry_multiplicity
 _atom_site_fract_x
 _atom_site_fract_y
 _atom_site_fract_z
 _atom_site_occupancy
  Ni  Ni0  1  0.95241400  0.75000000  0.88408300  1
  Ni  Ni1  1  0.54758600  0.25000000  0.38408300  1
  Ni  Ni2  1  0.92819000  0.75000000  0.41095800  1
  Ni  Ni3  1  0.57181000  0.25000000  0.91095800  1
  Cu  Cu4  1  0.06342900  0.25000000  0.11099300  1
  Cu  Cu5  1  0.43657100  0.75000000  0.61099300  1
  Cu  Cu6  1  0.09494700  0.25000000  0.59468700  1
  Cu  Cu7  1  0.40505300  0.75000000  0.09468700  1
  C  C8  1  0.24619200  0.25000000  0.31535700  1
  C  C9  1  0.74990000  0.75000000  0.66284500  1
  C  C10  1  0.25380800  0.75000000  0.81535700  1
  C  C11  1  0.75010000  0.25000000  0.16284500  1
  C  C12  1  0.04838400  0.75000000  0.70905500  1
  C  C13  1  0.98379800  0.25000000  0.28488200  1
  C  C14  1  0.45161600  0.25000000  0.20905500  1
  C  C15  1  0.51620200  0.75000000  0.78488200  1
  C  C16  1  0.09996400  0.25000000  0.93354400  1
  C  C17  1  0.92007000  0.75000000  0.07700900  1
  C  C18  1  0.40003600  0.75000000  0.43354400  1
  C  C19  1  0.57993000  0.25000000  0.57700900  1
  C  C20  1  0.13383200  0.75000000  0.47977600  1
  C  C21  1  0.88547800  0.25000000  0.54439100  1
  C  C22  1  0.36616800  0.25000000  0.97977600  1
  C  C23  1  0.61452200  0.75000000  0.04439100  1
  C  C24  1  0.19989900  0.75000000  0.15251900  1
  C  C25  1  0.79527800  0.25000000  0.83990000  1
  C  C26  1  0.30010100  0.25000000  0.65251900  1
  C  C27  1  0.70472200  0.75000000  0.33990000  1
