# generated using pymatgen
data_CuNiC
_symmetry_space_group_name_H-M   'P 1'
_cell_length_a   4.47059200
_cell_length_b   4.47059200
_cell_length_c   8.82754997
_cell_angle_alpha   104.66802864
_cell_angle_beta   104.66802864
_cell_angle_gamma   90.00000000
_symmetry_Int_Tables_number   1
_chemical_formula_structural   CuNiC
_chemical_formula_sum   'Cu2 Ni2 C2'
_cell_volume   164.72859965
_cell_formula_units_Z   2
loop_
 _symmetry_equiv_pos_site_id
 _symmetry_equiv_pos_as_xyz
  1  'x, y, z'
loop_
 _atom_site_type_symbol
 _atom_site_label
 _atom_site_symmetry_multiplicity
 _atom_site_fract_x
 _atom_site_fract_y
 _atom_site_fract_z
 _atom_site_occupancy
  Ni  Ni0  1  0.82480800  0.82480800  0.64961600  1
  Ni  Ni1  1  0.17519200  0.17519200  0.35038400  1
  Cu  Cu2  1  0.50000000  0.00000000  0.00000000  1
  Cu  Cu3  1  0.00000000  0.50000000  0.00000000  1
  C  C4  1  0.62626800  0.62626800  0.25253600  1
  C  C5  1  0.37373200  0.37373200  0.74746400  1
