# generated using pymatgen
data_Cu6Ni4C19
_symmetry_space_group_name_H-M   'P 1'
_cell_length_a   5.48143587
_cell_length_b   10.41704000
_cell_length_c   12.20275028
_cell_angle_alpha   90.00000000
_cell_angle_beta   99.81037858
_cell_angle_gamma   90.00000000
_symmetry_Int_Tables_number   1
_chemical_formula_structural   Cu6Ni4C19
_chemical_formula_sum   'Cu12 Ni8 C38'
_cell_volume   686.59215398
_cell_formula_units_Z   2
loop_
 _symmetry_equiv_pos_site_id
 _symmetry_equiv_pos_as_xyz
  1  'x, y, z'
loop_
 _atom_site_type_symbol
 _atom_site_label
 _atom_site_symmetry_multiplicity
 _atom_site_fract_x
 _atom_site_fract_y
 _atom_site_fract_z
 _atom_site_occupancy
  C  C0  1  0.63635600  0.14900300  0.81947200  1
  C  C1  1  0.36364400  0.64900300  0.68052800  1
  C  C2  1  0.36364400  0.85099700  0.18052800  1
  C  C3  1  0.63635600  0.35099700  0.31947200  1
  C  C4  1  0.50000000  0.50000000  0.00000000  1
  C  C5  1  0.50000000  0.00000000  0.50000000  1
  Ni  Ni6  1  0.91678300  0.49136100  0.80776100  1
  Ni  Ni7  1  0.08321700  0.99136100  0.69223900  1
  Ni  Ni8  1  0.08321700  0.50863900  0.19223900  1
  Ni  Ni9  1  0.91678300  0.00863900  0.30776100  1
  Ni  Ni10  1  0.26486900  0.19858900  0.05333900  1
  Ni  Ni11  1  0.73513100  0.69858900  0.44666100  1
  Ni  Ni12  1  0.73513100  0.80141100  0.94666100  1
  Ni  Ni13  1  0.26486900  0.30141100  0.55333900  1
  Cu  Cu14  1  0.11229100  0.32443200  0.74769200  1
  Cu  Cu15  1  0.88770900  0.82443200  0.75230800  1
  Cu  Cu16  1  0.88770900  0.67556800  0.25230800  1
  Cu  Cu17  1  0.11229100  0.17556800  0.24769200  1
  Cu  Cu18  1  0.20752400  0.03743400  0.93209400  1
  Cu  Cu19  1  0.79247600  0.53743400  0.56790600  1
  Cu  Cu20  1  0.79247600  0.96256600  0.06790600  1
  Cu  Cu21  1  0.20752400  0.46256600  0.43209400  1
  Cu  Cu22  1  0.92643700  0.31598100  0.05471500  1
  Cu  Cu23  1  0.07356300  0.81598100  0.44528500  1
  Cu  Cu24  1  0.07356300  0.68401900  0.94528500  1
  Cu  Cu25  1  0.92643700  0.18401900  0.55471500  1
  C  C26  1  0.68142000  0.49447200  0.85906100  1
  C  C27  1  0.31858000  0.99447200  0.64093900  1
  C  C28  1  0.31858000  0.50552800  0.14093900  1
  C  C29  1  0.68142000  0.00552800  0.35906100  1
  C  C30  1  0.85327700  0.44762300  0.11879300  1
  C  C31  1  0.14672300  0.94762300  0.38120700  1
  C  C32  1  0.14672300  0.55237700  0.88120700  1
  C  C33  1  0.85327700  0.05237700  0.61879300  1
  C  C34  1  0.42609500  0.27900500  0.98957300  1
  C  C35  1  0.57390500  0.77900500  0.51042700  1
  C  C36  1  0.57390500  0.72099500  0.01042700  1
  C  C37  1  0.42609500  0.22099500  0.48957300  1
  C  C38  1  0.33664600  0.19696100  0.17938000  1
  C  C39  1  0.66335400  0.69696100  0.32062000  1
  C  C40  1  0.66335400  0.80303900  0.82062000  1
  C  C41  1  0.33664600  0.30303900  0.67938000  1
  C  C42  1  0.87448300  0.55771300  0.69293200  1
  C  C43  1  0.12551700  0.05771300  0.80706800  1
  C  C44  1  0.12551700  0.44228700  0.30706800  1
  C  C45  1  0.87448300  0.94228700  0.19293200  1
  C  C46  1  0.96985700  0.34232000  0.78922300  1
  C  C47  1  0.03014300  0.84232000  0.71077700  1
  C  C48  1  0.03014300  0.65768000  0.21077700  1
  C  C49  1  0.96985700  0.15768000  0.28922300  1
  C  C50  1  0.26741100  0.05204700  0.01565300  1
  C  C51  1  0.73258900  0.55204700  0.48434700  1
  C  C52  1  0.73258900  0.94795300  0.98434700  1
  C  C53  1  0.26741100  0.44795300  0.51565300  1
  C  C54  1  0.97755000  0.23383800  0.01990800  1
  C  C55  1  0.02245000  0.73383800  0.48009200  1
  C  C56  1  0.02245000  0.76616200  0.98009200  1
  C  C57  1  0.97755000  0.26616200  0.51990800  1
