# generated using pymatgen
data_CuNi
_symmetry_space_group_name_H-M   'P 1'
_cell_length_a   7.17238000
_cell_length_b   8.09574900
_cell_length_c   13.22785700
_cell_angle_alpha   90.00000000
_cell_angle_beta   90.00000000
_cell_angle_gamma   90.00000000
_symmetry_Int_Tables_number   1
_chemical_formula_structural   CuNi
_chemical_formula_sum   'Cu16 Ni16'
_cell_volume   768.08594307
_cell_formula_units_Z   16
loop_
 _symmetry_equiv_pos_site_id
 _symmetry_equiv_pos_as_xyz
  1  'x, y, z'
loop_
 _atom_site_type_symbol
 _atom_site_label
 _atom_site_symmetry_multiplicity
 _atom_site_fract_x
 _atom_site_fract_y
 _atom_site_fract_z
 _atom_site_occupancy
  Ni  Ni0  1  0.22458700  0.68324200  0.13422500  1
  Ni  Ni1  1  0.27541300  0.18324200  0.36577500  1
  Ni  Ni2  1  0.77541300  0.31675800  0.63422500  1
  Ni  Ni3  1  0.72458700  0.81675800  0.86577500  1
  Ni  Ni4  1  0.77541300  0.31675800  0.86577500  1
  Ni  Ni5  1  0.72458700  0.81675800  0.63422500  1
  Ni  Ni6  1  0.22458700  0.68324200  0.36577500  1
  Ni  Ni7  1  0.27541300  0.18324200  0.13422500  1
  Ni  Ni8  1  0.81024500  0.58708900  0.13441100  1
  Ni  Ni9  1  0.68975500  0.08708900  0.36558900  1
  Ni  Ni10  1  0.18975500  0.41291100  0.63441100  1
  Ni  Ni11  1  0.31024500  0.91291100  0.86558900  1
  Ni  Ni12  1  0.18975500  0.41291100  0.86558900  1
  Ni  Ni13  1  0.31024500  0.91291100  0.63441100  1
  Ni  Ni14  1  0.81024500  0.58708900  0.36558900  1
  Ni  Ni15  1  0.68975500  0.08708900  0.13441100  1
  Cu  Cu16  1  0.28513600  0.69285300  0.25000000  1
  Cu  Cu17  1  0.21486400  0.19285300  0.25000000  1
  Cu  Cu18  1  0.71486400  0.30714700  0.75000000  1
  Cu  Cu19  1  0.78513600  0.80714700  0.75000000  1
  Cu  Cu20  1  0.75748800  0.55388000  0.25000000  1
  Cu  Cu21  1  0.74251200  0.05388000  0.25000000  1
  Cu  Cu22  1  0.24251200  0.44612000  0.75000000  1
  Cu  Cu23  1  0.25748800  0.94612000  0.75000000  1
  Cu  Cu24  1  0.01759400  0.63475100  0.10195500  1
  Cu  Cu25  1  0.48240600  0.13475100  0.39804500  1
  Cu  Cu26  1  0.98240600  0.36524900  0.60195500  1
  Cu  Cu27  1  0.51759400  0.86524900  0.89804500  1
  Cu  Cu28  1  0.98240600  0.36524900  0.89804500  1
  Cu  Cu29  1  0.51759400  0.86524900  0.60195500  1
  Cu  Cu30  1  0.01759400  0.63475100  0.39804500  1
  Cu  Cu31  1  0.48240600  0.13475100  0.10195500  1
