# generated using pymatgen
data_CuNiC
_symmetry_space_group_name_H-M   'P 1'
_cell_length_a   4.03103200
_cell_length_b   4.03103200
_cell_length_c   7.75447423
_cell_angle_alpha   105.06510913
_cell_angle_beta   105.06510913
_cell_angle_gamma   90.00000000
_symmetry_Int_Tables_number   1
_chemical_formula_structural   CuNiC
_chemical_formula_sum   'Cu2 Ni2 C2'
_cell_volume   117.18296513
_cell_formula_units_Z   2
loop_
 _symmetry_equiv_pos_site_id
 _symmetry_equiv_pos_as_xyz
  1  'x, y, z'
loop_
 _atom_site_type_symbol
 _atom_site_label
 _atom_site_symmetry_multiplicity
 _atom_site_fract_x
 _atom_site_fract_y
 _atom_site_fract_z
 _atom_site_occupancy
  C  C0  1  0.75065500  0.75065500  0.50131000  1
  C  C1  1  0.00065500  0.50065500  0.00131000  1
  Ni  Ni2  1  0.16995500  0.16995500  0.33991000  1
  Ni  Ni3  1  0.41995500  0.91995500  0.83991000  1
  Cu  Cu4  1  0.58492000  0.08492000  0.16984000  1
  Cu  Cu5  1  0.33492000  0.33492000  0.66984000  1
