# generated using pymatgen
data_Cu33(Ni4C25)2
_symmetry_space_group_name_H-M   'P 1'
_cell_length_a   9.51004700
_cell_length_b   13.10476376
_cell_length_c   13.10476376
_cell_angle_alpha   88.77293208
_cell_angle_beta   90.00000000
_cell_angle_gamma   90.00000000
_symmetry_Int_Tables_number   1
_chemical_formula_structural   Cu33(Ni4C25)2
_chemical_formula_sum   'Cu66 Ni16 C100'
_cell_volume   1632.83180565
_cell_formula_units_Z   2
loop_
 _symmetry_equiv_pos_site_id
 _symmetry_equiv_pos_as_xyz
  1  'x, y, z'
loop_
 _atom_site_type_symbol
 _atom_site_label
 _atom_site_symmetry_multiplicity
 _atom_site_fract_x
 _atom_site_fract_y
 _atom_site_fract_z
 _atom_site_occupancy
  C  C0  1  0.86682419  0.86460183  0.54418434  1
  C  C1  1  0.36682419  0.95581566  0.63539817  1
  C  C2  1  0.36682419  0.54418434  0.86460183  1
  C  C3  1  0.86682419  0.63539817  0.95581566  1
  C  C4  1  0.12971737  0.13358261  0.45584844  1
  C  C5  1  0.62971737  0.04415156  0.36641739  1
  C  C6  1  0.62971737  0.45584844  0.13358261  1
  C  C7  1  0.12971737  0.36641739  0.04415156  1
  C  C8  1  0.07387916  0.01510239  0.86319666  1
  C  C9  1  0.57387916  0.63680334  0.48489761  1
  C  C10  1  0.57387916  0.86319666  0.01510239  1
  C  C11  1  0.07387916  0.48489761  0.63680334  1
  C  C12  1  0.92445442  0.98492759  0.13625922  1
  C  C13  1  0.42445442  0.36374078  0.51507241  1
  C  C14  1  0.42445442  0.13625922  0.98492759  1
  C  C15  1  0.92445442  0.51507241  0.36374078  1
  C  C16  1  0.37603104  0.95831516  0.86430454  1
  C  C17  1  0.87603104  0.63569546  0.54168484  1
  C  C18  1  0.87603104  0.86430454  0.95831516  1
  C  C19  1  0.37603104  0.54168484  0.63569546  1
  C  C20  1  0.62253291  0.04336215  0.13556366  1
  C  C21  1  0.12253291  0.36443634  0.45663785  1
  C  C22  1  0.12253291  0.13556366  0.04336215  1
  C  C23  1  0.62253291  0.45663785  0.36443634  1
  C  C24  1  0.06251212  0.01089282  0.63991616  1
  C  C25  1  0.56251212  0.86008384  0.48910718  1
  C  C26  1  0.56251212  0.63991616  0.01089282  1
  C  C27  1  0.06251212  0.48910718  0.86008384  1
  C  C28  1  0.93375395  0.98671126  0.36081506  1
  C  C29  1  0.43375395  0.13918494  0.51328874  1
  C  C30  1  0.43375395  0.36081506  0.98671126  1
  C  C31  1  0.93375395  0.51328874  0.13918494  1
  C  C32  1  0.21243207  0.82197474  0.95355633  1
  C  C33  1  0.71243207  0.54644367  0.67802526  1
  C  C34  1  0.71243207  0.95355633  0.82197474  1
  C  C35  1  0.21243207  0.67802526  0.54644367  1
  C  C36  1  0.79035371  0.17827301  0.04473050  1
  C  C37  1  0.29035371  0.45526950  0.32172699  1
  C  C38  1  0.29035371  0.04473050  0.17827301  1
  C  C39  1  0.79035371  0.32172699  0.45526950  1
  C  C40  1  0.03385435  0.31712331  0.75447988  1
  C  C41  1  0.53385435  0.74552012  0.18287669  1
  C  C42  1  0.53385435  0.75447988  0.31712331  1
  C  C43  1  0.03385435  0.18287669  0.74552012  1
  C  C44  1  0.98712167  0.67885594  0.24590841  1
  C  C45  1  0.48712167  0.25409159  0.82114406  1
  C  C46  1  0.48712167  0.24590841  0.67885594  1
  C  C47  1  0.98712167  0.82114406  0.25409159  1
  C  C48  1  0.29220912  0.70214561  0.96666613  1
  C  C49  1  0.79220912  0.53333387  0.79785439  1
  C  C50  1  0.79220912  0.96666613  0.70214561  1
  C  C51  1  0.29220912  0.79785439  0.53333387  1
  C  C52  1  0.70911496  0.29676529  0.02986505  1
  C  C53  1  0.20911496  0.47013495  0.20323471  1
  C  C54  1  0.20911496  0.02986505  0.29676529  1
  C  C55  1  0.70911496  0.20323471  0.47013495  1
  C  C56  1  0.15290450  0.68516494  0.75755750  1
  C  C57  1  0.65290450  0.74244250  0.81483506  1
  C  C58  1  0.65290450  0.75755750  0.68516494  1
  C  C59  1  0.15290450  0.81483506  0.74244250  1
  C  C60  1  0.84601974  0.31482483  0.24322661  1
  C  C61  1  0.34601974  0.25677339  0.18517517  1
  C  C62  1  0.34601974  0.24322661  0.31482483  1
  C  C63  1  0.84601974  0.18517517  0.25677339  1
  C  C64  1  0.24630497  0.76976366  0.06659983  1
  C  C65  1  0.74630497  0.43340017  0.73023634  1
  C  C66  1  0.74630497  0.06659983  0.76976366  1
  C  C67  1  0.24630497  0.73023634  0.43340017  1
  C  C68  1  0.76170163  0.22975854  0.93044108  1
  C  C69  1  0.26170163  0.56955892  0.27024146  1
  C  C70  1  0.26170163  0.93044108  0.22975854  1
  C  C71  1  0.76170163  0.27024146  0.56955892  1
  C  C72  1  0.11363744  0.72080801  0.99577196  1
  C  C73  1  0.61363744  0.50422804  0.77919199  1
  C  C74  1  0.61363744  0.99577196  0.72080801  1
  C  C75  1  0.11363744  0.77919199  0.50422804  1
  C  C76  1  0.88872444  0.28034533  0.00391566  1
  C  C77  1  0.38872444  0.49608434  0.21965467  1
  C  C78  1  0.38872444  0.00391566  0.28034533  1
  C  C79  1  0.88872444  0.21965467  0.49608434  1
  C  C80  1  0.02708914  0.75514088  0.81477747  1
  C  C81  1  0.52708914  0.68522253  0.74485912  1
  C  C82  1  0.52708914  0.81477747  0.75514088  1
  C  C83  1  0.02708914  0.74485912  0.68522253  1
  C  C84  1  0.97205893  0.24538163  0.18517439  1
  C  C85  1  0.47205893  0.31482561  0.25461837  1
  C  C86  1  0.47205893  0.18517439  0.24538163  1
  C  C87  1  0.97205893  0.25461837  0.31482561  1
  C  C88  1  0.91338122  0.25686090  0.68479403  1
  C  C89  1  0.41338122  0.81520597  0.24313910  1
  C  C90  1  0.41338122  0.68479403  0.25686090  1
  C  C91  1  0.91338122  0.24313910  0.81520597  1
  C  C92  1  0.10410154  0.74421474  0.31485454  1
  C  C93  1  0.60410154  0.18514546  0.75578526  1
  C  C94  1  0.60410154  0.31485454  0.74421474  1
  C  C95  1  0.10410154  0.75578526  0.18514546  1
  C  C96  1  0.29086214  0.25994747  0.68956023  1
  C  C97  1  0.79086214  0.81043977  0.24005253  1
  C  C98  1  0.79086214  0.68956023  0.25994747  1
  C  C99  1  0.29086214  0.24005253  0.81043977  1
  Ni  Ni100  1  0.97101994  0.25000000  0.75000000  1
  Ni  Ni101  1  0.47101994  0.75000000  0.25000000  1
  Ni  Ni102  1  0.04512005  0.75000000  0.25000000  1
  Ni  Ni103  1  0.54512005  0.25000000  0.75000000  1
  Ni  Ni104  1  0.21322236  0.75249722  0.99496167  1
  Ni  Ni105  1  0.71322236  0.50503833  0.74750278  1
  Ni  Ni106  1  0.71322236  0.99496167  0.75249722  1
  Ni  Ni107  1  0.21322236  0.74750278  0.50503833  1
  Ni  Ni108  1  0.78972352  0.24757301  0.00295620  1
  Ni  Ni109  1  0.28972352  0.49704380  0.25242699  1
  Ni  Ni110  1  0.28972352  0.00295620  0.24757301  1
  Ni  Ni111  1  0.78972352  0.25242699  0.49704380  1
  Ni  Ni112  1  0.09188020  0.75000000  0.75000000  1
  Ni  Ni113  1  0.59188020  0.75000000  0.75000000  1
  Ni  Ni114  1  0.90712061  0.25000000  0.25000000  1
  Ni  Ni115  1  0.40712061  0.25000000  0.25000000  1
  Cu  Cu116  1  0.41914031  0.92611022  0.75378410  1
  Cu  Cu117  1  0.91914031  0.74621590  0.57388978  1
  Cu  Cu118  1  0.91914031  0.75378410  0.92611022  1
  Cu  Cu119  1  0.41914031  0.57388978  0.74621590  1
  Cu  Cu120  1  0.57965330  0.07511558  0.24674437  1
  Cu  Cu121  1  0.07965330  0.25325563  0.42488442  1
  Cu  Cu122  1  0.07965330  0.24674437  0.07511558  1
  Cu  Cu123  1  0.57965330  0.42488442  0.25325563  1
  Cu  Cu124  1  0.05503666  0.10139451  0.56213019  1
  Cu  Cu125  1  0.55503666  0.93786981  0.39860549  1
  Cu  Cu126  1  0.55503666  0.56213019  0.10139451  1
  Cu  Cu127  1  0.05503666  0.39860549  0.93786981  1
  Cu  Cu128  1  0.94181316  0.89621161  0.43728036  1
  Cu  Cu129  1  0.44181316  0.06271964  0.60378839  1
  Cu  Cu130  1  0.44181316  0.43728036  0.89621161  1
  Cu  Cu131  1  0.94181316  0.60378839  0.06271964  1
  Cu  Cu132  1  0.93032122  0.94052563  0.63164258  1
  Cu  Cu133  1  0.43032122  0.86835742  0.55947437  1
  Cu  Cu134  1  0.43032122  0.63164258  0.94052563  1
  Cu  Cu135  1  0.93032122  0.55947437  0.86835742  1
  Cu  Cu136  1  0.06665876  0.05654450  0.36634483  1
  Cu  Cu137  1  0.56665876  0.13365517  0.44345550  1
  Cu  Cu138  1  0.56665876  0.36634483  0.05654450  1
  Cu  Cu139  1  0.06665876  0.44345550  0.13365517  1
  Cu  Cu140  1  0.05610583  0.05889986  0.74651997  1
  Cu  Cu141  1  0.55610583  0.75348003  0.44110014  1
  Cu  Cu142  1  0.55610583  0.74651997  0.05889986  1
  Cu  Cu143  1  0.05610583  0.44110014  0.75348003  1
  Cu  Cu144  1  0.93547891  0.93512295  0.25369491  1
  Cu  Cu145  1  0.43547891  0.24630509  0.56487705  1
  Cu  Cu146  1  0.43547891  0.25369491  0.93512295  1
  Cu  Cu147  1  0.93547891  0.56487705  0.24630509  1
  Cu  Cu148  1  0.21482930  0.94530500  0.87779115  1
  Cu  Cu149  1  0.71482930  0.62220885  0.55469500  1
  Cu  Cu150  1  0.71482930  0.87779115  0.94530500  1
  Cu  Cu151  1  0.21482930  0.55469500  0.62220885  1
  Cu  Cu152  1  0.78427900  0.05603083  0.12271028  1
  Cu  Cu153  1  0.28427900  0.37728972  0.44396917  1
  Cu  Cu154  1  0.28427900  0.12271028  0.05603083  1
  Cu  Cu155  1  0.78427900  0.44396917  0.37728972  1
  Cu  Cu156  1  0.44179110  0.88182450  0.94032459  1
  Cu  Cu157  1  0.94179110  0.55967541  0.61817550  1
  Cu  Cu158  1  0.94179110  0.94032459  0.88182450  1
  Cu  Cu159  1  0.44179110  0.61817550  0.55967541  1
  Cu  Cu160  1  0.55756714  0.12107716  0.05974676  1
  Cu  Cu161  1  0.05756714  0.44025324  0.37892284  1
  Cu  Cu162  1  0.05756714  0.05974676  0.12107716  1
  Cu  Cu163  1  0.55756714  0.37892284  0.44025324  1
  Cu  Cu164  1  0.23289100  0.25000000  0.75000000  1
  Cu  Cu165  1  0.73289100  0.75000000  0.25000000  1
  Cu  Cu166  1  0.19580572  0.94535947  0.62671647  1
  Cu  Cu167  1  0.69580572  0.87328353  0.55464053  1
  Cu  Cu168  1  0.69580572  0.62671647  0.94535947  1
  Cu  Cu169  1  0.19580572  0.55464053  0.87328353  1
  Cu  Cu170  1  0.80146620  0.05328097  0.37308055  1
  Cu  Cu171  1  0.30146620  0.12691945  0.44671903  1
  Cu  Cu172  1  0.30146620  0.37308055  0.05328097  1
  Cu  Cu173  1  0.80146620  0.44671903  0.12691945  1
  Cu  Cu174  1  0.42813940  0.06816779  0.88171932  1
  Cu  Cu175  1  0.92813940  0.61828068  0.43183221  1
  Cu  Cu176  1  0.92813940  0.88171932  0.06816779  1
  Cu  Cu177  1  0.42813940  0.43183221  0.61828068  1
  Cu  Cu178  1  0.57027550  0.93400270  0.11786585  1
  Cu  Cu179  1  0.07027550  0.38213415  0.56599730  1
  Cu  Cu180  1  0.07027550  0.11786585  0.93400270  1
  Cu  Cu181  1  0.57027550  0.56599730  0.38213415  1
