# generated using pymatgen
data_Cu2NiC4
_symmetry_space_group_name_H-M   'P 1'
_cell_length_a   6.03712581
_cell_length_b   6.03712581
_cell_length_c   6.03712602
_cell_angle_alpha   59.44126560
_cell_angle_beta   59.44126560
_cell_angle_gamma   59.44127535
_symmetry_Int_Tables_number   1
_chemical_formula_structural   Cu2NiC4
_chemical_formula_sum   'Cu4 Ni2 C8'
_cell_volume   153.61009128
_cell_formula_units_Z   2
loop_
 _symmetry_equiv_pos_site_id
 _symmetry_equiv_pos_as_xyz
  1  'x, y, z'
loop_
 _atom_site_type_symbol
 _atom_site_label
 _atom_site_symmetry_multiplicity
 _atom_site_fract_x
 _atom_site_fract_y
 _atom_site_fract_z
 _atom_site_occupancy
  Ni  Ni0  1  0.00333300  0.00333300  0.00333300  1
  Ni  Ni1  1  0.62718200  0.62718200  0.62718200  1
  Cu  Cu2  1  0.24475700  0.24475700  0.24475700  1
  Cu  Cu3  1  0.62608200  0.62608200  0.11959000  1
  Cu  Cu4  1  0.11959000  0.62608200  0.62608200  1
  Cu  Cu5  1  0.62608200  0.11959000  0.62608200  1
  C  C6  1  0.37795900  0.85137200  0.37795900  1
  C  C7  1  0.85137200  0.37795900  0.37795900  1
  C  C8  1  0.37795900  0.37795900  0.85137200  1
  C  C9  1  0.38522100  0.38522100  0.38522100  1
  C  C10  1  0.86509500  0.86509500  0.86509500  1
  C  C11  1  0.86906300  0.86906300  0.40724300  1
  C  C12  1  0.40724300  0.86906300  0.86906300  1
  C  C13  1  0.86906300  0.40724300  0.86906300  1
