# generated using pymatgen
data_Cu3Ni2C3
_symmetry_space_group_name_H-M   'P 1'
_cell_length_a   6.67567800
_cell_length_b   7.09784334
_cell_length_c   8.95885038
_cell_angle_alpha   98.60473786
_cell_angle_beta   105.28882022
_cell_angle_gamma   88.92625932
_symmetry_Int_Tables_number   1
_chemical_formula_structural   Cu3Ni2C3
_chemical_formula_sum   'Cu6 Ni4 C6'
_cell_volume   404.76855222
_cell_formula_units_Z   2
loop_
 _symmetry_equiv_pos_site_id
 _symmetry_equiv_pos_as_xyz
  1  'x, y, z'
loop_
 _atom_site_type_symbol
 _atom_site_label
 _atom_site_symmetry_multiplicity
 _atom_site_fract_x
 _atom_site_fract_y
 _atom_site_fract_z
 _atom_site_occupancy
  C  C0  1  0.73476800  0.71621300  0.61479300  1
  C  C1  1  0.26523200  0.28378700  0.38520700  1
  C  C2  1  0.64107400  0.25288500  0.01880300  1
  C  C3  1  0.35892600  0.74711500  0.98119700  1
  C  C4  1  0.86690300  0.76053000  0.08754300  1
  C  C5  1  0.13309700  0.23947000  0.91245700  1
  Ni  Ni6  1  0.74324500  0.32442800  0.33203300  1
  Ni  Ni7  1  0.25675500  0.67557200  0.66796700  1
  Ni  Ni8  1  0.39100900  0.80702700  0.28703800  1
  Ni  Ni9  1  0.60899100  0.19297300  0.71296200  1
  Cu  Cu10  1  0.68072800  0.57734900  0.01581100  1
  Cu  Cu11  1  0.31927200  0.42265100  0.98418900  1
  Cu  Cu12  1  0.68294300  0.92970800  0.02732700  1
  Cu  Cu13  1  0.31705700  0.07029200  0.97267300  1
  Cu  Cu14  1  0.99718500  0.25825300  0.05065000  1
  Cu  Cu15  1  0.00281500  0.74174700  0.94935000  1
