# generated using pymatgen
data_CuNiC11
_symmetry_space_group_name_H-M   'P 1'
_cell_length_a   7.44554400
_cell_length_b   5.49368800
_cell_length_c   9.41768670
_cell_angle_alpha   89.09003702
_cell_angle_beta   90.00000000
_cell_angle_gamma   90.00000000
_symmetry_Int_Tables_number   1
_chemical_formula_structural   CuNiC11
_chemical_formula_sum   'Cu2 Ni2 C22'
_cell_volume   385.16772660
_cell_formula_units_Z   2
loop_
 _symmetry_equiv_pos_site_id
 _symmetry_equiv_pos_as_xyz
  1  'x, y, z'
loop_
 _atom_site_type_symbol
 _atom_site_label
 _atom_site_symmetry_multiplicity
 _atom_site_fract_x
 _atom_site_fract_y
 _atom_site_fract_z
 _atom_site_occupancy
  C  C0  1  0.66105700  0.23820100  0.94504100  1
  C  C1  1  0.16105700  0.76179900  0.05495900  1
  C  C2  1  0.38933400  0.75197400  0.58843100  1
  C  C3  1  0.88933400  0.24802600  0.41156900  1
  Ni  Ni4  1  0.36495400  0.26926400  0.32335400  1
  Ni  Ni5  1  0.86495400  0.73073600  0.67664600  1
  Cu  Cu6  1  0.66992800  0.75295000  0.23202500  1
  Cu  Cu7  1  0.16992800  0.24705000  0.76797500  1
  C  C8  1  0.84359400  0.98441300  0.17303100  1
  C  C9  1  0.34359400  0.01558700  0.82696900  1
  C  C10  1  0.19851600  0.03466500  0.30599300  1
  C  C11  1  0.69851600  0.96533500  0.69400700  1
  C  C12  1  0.82504300  0.49531400  0.17212000  1
  C  C13  1  0.32504300  0.50468600  0.82788000  1
  C  C14  1  0.19541800  0.50693100  0.33002300  1
  C  C15  1  0.69541800  0.49306900  0.66997700  1
  C  C16  1  0.51702800  0.80715700  0.05212300  1
  C  C17  1  0.01702800  0.19284300  0.94787700  1
  C  C18  1  0.34971800  0.24238300  0.51819700  1
  C  C19  1  0.84971800  0.75761700  0.48180300  1
  C  C20  1  0.54728100  0.03185100  0.34098100  1
  C  C21  1  0.04728100  0.96814900  0.65901900  1
  C  C22  1  0.39555600  0.30974500  0.13817600  1
  C  C23  1  0.89555600  0.69025500  0.86182400  1
  C  C24  1  0.54257300  0.50851500  0.35704100  1
  C  C25  1  0.04257300  0.49148500  0.64295900  1
