# generated using pymatgen
data_CuNi14C
_symmetry_space_group_name_H-M   'P 1'
_cell_length_a   6.49382572
_cell_length_b   6.48319282
_cell_length_c   10.32344090
_cell_angle_alpha   90.00000000
_cell_angle_beta   90.00000000
_cell_angle_gamma   119.94585601
_symmetry_Int_Tables_number   1
_chemical_formula_structural   CuNi14C
_chemical_formula_sum   'Cu1 Ni14 C1'
_cell_volume   376.60090840
_cell_formula_units_Z   1
loop_
 _symmetry_equiv_pos_site_id
 _symmetry_equiv_pos_as_xyz
  1  'x, y, z'
loop_
 _atom_site_type_symbol
 _atom_site_label
 _atom_site_symmetry_multiplicity
 _atom_site_fract_x
 _atom_site_fract_y
 _atom_site_fract_z
 _atom_site_occupancy
  C  C0  1  0.16736241  0.33368070  0.12500000  1
  Ni  Ni1  1  0.16708099  0.33353999  0.62500000  1
  Ni  Ni2  1  0.16534524  0.83267212  0.62500000  1
  Ni  Ni3  1  0.66202019  0.32871772  0.12500000  1
  Ni  Ni4  1  0.66674245  0.33433605  0.62500000  1
  Ni  Ni5  1  0.66202019  0.83330146  0.12500000  1
  Ni  Ni6  1  0.66674245  0.83240540  0.62500000  1
  Ni  Ni7  1  0.33362754  0.15809012  0.37713055  1
  Ni  Ni8  1  0.33362754  0.15809012  0.87286945  1
  Ni  Ni9  1  0.33362754  0.67553842  0.37713055  1
  Ni  Ni10  1  0.33362754  0.67553842  0.87286945  1
  Ni  Ni11  1  0.82764443  0.16382272  0.38073114  1
  Ni  Ni12  1  0.82764443  0.16382272  0.86926886  1
  Ni  Ni13  1  0.83943069  0.66971585  0.36885246  1
  Ni  Ni14  1  0.83943069  0.66971585  0.88114754  1
  Cu  Cu15  1  0.17402567  0.83701233  0.12500000  1
