# generated using pymatgen
data_Cu(Ni4C3)2
_symmetry_space_group_name_H-M   'P 1'
_cell_length_a   13.70279273
_cell_length_b   17.60490222
_cell_length_c   5.61890455
_cell_angle_alpha   96.10615403
_cell_angle_beta   86.08187922
_cell_angle_gamma   129.96979708
_symmetry_Int_Tables_number   1
_chemical_formula_structural   Cu(Ni4C3)2
_chemical_formula_sum   'Cu3 Ni24 C18'
_cell_volume   1032.92632978
_cell_formula_units_Z   3
loop_
 _symmetry_equiv_pos_site_id
 _symmetry_equiv_pos_as_xyz
  1  'x, y, z'
loop_
 _atom_site_type_symbol
 _atom_site_label
 _atom_site_symmetry_multiplicity
 _atom_site_fract_x
 _atom_site_fract_y
 _atom_site_fract_z
 _atom_site_occupancy
  Ni  Ni0  1  0.00000000  0.61914800  0.33520000  1
  Ni  Ni1  1  0.54471300  0.93466100  0.66545800  1
  Ni  Ni2  1  0.45528700  0.38994700  0.66545800  1
  Ni  Ni3  1  0.00000000  0.54976600  0.79882700  1
  Ni  Ni4  1  0.46514300  0.92794600  0.13717400  1
  Ni  Ni5  1  0.53485700  0.46280200  0.13717400  1
  Ni  Ni6  1  0.83983000  0.63603100  0.97160800  1
  Ni  Ni7  1  0.68852100  0.18080700  0.28698800  1
  Ni  Ni8  1  0.37283000  0.20752500  0.30320000  1
  Ni  Ni9  1  0.16017000  0.79620100  0.97160800  1
  Ni  Ni10  1  0.62717000  0.83469400  0.30320000  1
  Ni  Ni11  1  0.31147900  0.49228600  0.28698800  1
  Ni  Ni12  1  0.62695600  0.68169800  0.02255100  1
  Ni  Ni13  1  0.00000000  0.32443300  0.93241900  1
  Ni  Ni14  1  0.37304400  0.05474200  0.02255100  1
  Ni  Ni15  1  0.56887800  0.63030000  0.54702700  1
  Ni  Ni16  1  0.00000000  0.39760900  0.47443800  1
  Ni  Ni17  1  0.43112200  0.06142200  0.54702700  1
  Ni  Ni18  1  0.84806000  0.71935700  0.52513500  1
  Ni  Ni19  1  0.85399100  0.09488000  0.72678500  1
  Ni  Ni20  1  0.19619800  0.09944000  0.84586100  1
  Ni  Ni21  1  0.15194000  0.87129700  0.52513500  1
  Ni  Ni22  1  0.80380200  0.90324100  0.84586100  1
  Ni  Ni23  1  0.14600900  0.24089000  0.72678500  1
  Cu  Cu24  1  0.00000000  0.97788400  0.38748700  1
  Cu  Cu25  1  0.27962700  0.66987100  0.31915800  1
  Cu  Cu26  1  0.72037300  0.39024400  0.31915800  1
  C  C27  1  0.00000000  0.06690300  0.76273500  1
  C  C28  1  0.17012600  0.00139800  0.54527900  1
  C  C29  1  0.82987400  0.83127300  0.54527900  1
  C  C30  1  0.48628600  0.66015900  0.29327400  1
  C  C31  1  0.13956300  0.44789200  0.19137400  1
  C  C32  1  0.30219400  0.92723300  0.22436900  1
  C  C33  1  0.51371400  0.17387300  0.29327400  1
  C  C34  1  0.69780600  0.62503900  0.22436900  1
  C  C35  1  0.86043700  0.30833000  0.19137400  1
  C  C36  1  0.29416800  0.23033400  0.62988400  1
  C  C37  1  0.00000000  0.74160400  0.28062200  1
  C  C38  1  0.70583200  0.93616500  0.62988400  1
  C  C39  1  0.15092900  0.66934600  0.05301300  1
  C  C40  1  0.46168800  0.83014400  0.33872100  1
  C  C41  1  0.42352300  0.46891700  0.43855700  1
  C  C42  1  0.84907100  0.51841700  0.05301300  1
  C  C43  1  0.57647700  0.04539400  0.43855700  1
  C  C44  1  0.53831200  0.36845700  0.33872100  1
