# generated using pymatgen
data_Cu11Ni3C5
_symmetry_space_group_name_H-M   'P 1'
_cell_length_a   9.40213670
_cell_length_b   9.40213670
_cell_length_c   6.61029071
_cell_angle_alpha   89.97942252
_cell_angle_beta   89.97942252
_cell_angle_gamma   120.09593338
_symmetry_Int_Tables_number   1
_chemical_formula_structural   Cu11Ni3C5
_chemical_formula_sum   'Cu22 Ni6 C10'
_cell_volume   505.57263778
_cell_formula_units_Z   2
loop_
 _symmetry_equiv_pos_site_id
 _symmetry_equiv_pos_as_xyz
  1  'x, y, z'
loop_
 _atom_site_type_symbol
 _atom_site_label
 _atom_site_symmetry_multiplicity
 _atom_site_fract_x
 _atom_site_fract_y
 _atom_site_fract_z
 _atom_site_occupancy
  C  C0  1  0.56563800  0.56122300  0.42595300  1
  C  C1  1  0.56122300  0.56563800  0.92595300  1
  C  C2  1  0.00044300  0.69504200  0.64239000  1
  C  C3  1  0.69504200  0.00044300  0.14239000  1
  C  C4  1  0.43369400  0.87060000  0.69878300  1
  C  C5  1  0.87060000  0.43369400  0.19878300  1
  C  C6  1  0.25693400  0.12878600  0.70502600  1
  C  C7  1  0.12878600  0.25693400  0.20502600  1
  C  C8  1  0.23041800  0.89663400  0.17739500  1
  C  C9  1  0.89663400  0.23041800  0.67739500  1
  Ni  Ni10  1  0.23340900  0.48956000  0.65325600  1
  Ni  Ni11  1  0.48956000  0.23340900  0.15325600  1
  Ni  Ni12  1  0.63813400  0.30852400  0.66307200  1
  Ni  Ni13  1  0.30852400  0.63813400  0.16307200  1
  Ni  Ni14  1  0.82073900  0.89459500  0.70818300  1
  Ni  Ni15  1  0.89459500  0.82073900  0.20818300  1
  Cu  Cu16  1  0.18673300  0.33215600  0.63512700  1
  Cu  Cu17  1  0.33215600  0.18673300  0.13512700  1
  Cu  Cu18  1  0.79512000  0.41823900  0.63899200  1
  Cu  Cu19  1  0.41823900  0.79512000  0.13899200  1
  Cu  Cu20  1  0.38286300  0.60153200  0.65417100  1
  Cu  Cu21  1  0.60153200  0.38286300  0.15417100  1
  Cu  Cu22  1  0.52652500  0.34613100  0.65974000  1
  Cu  Cu23  1  0.34613100  0.52652500  0.15974000  1
  Cu  Cu24  1  0.71019700  0.94043800  0.73416300  1
  Cu  Cu25  1  0.94043800  0.71019700  0.23416300  1
  Cu  Cu26  1  0.11078500  0.51741000  0.67044500  1
  Cu  Cu27  1  0.51741000  0.11078500  0.17044500  1
  Cu  Cu28  1  0.97022100  0.01728600  0.67894500  1
  Cu  Cu29  1  0.01728600  0.97022100  0.17894500  1
  Cu  Cu30  1  0.78441500  0.74568900  0.71055300  1
  Cu  Cu31  1  0.74568900  0.78441500  0.21055300  1
  Cu  Cu32  1  0.60964400  0.15853200  0.69115900  1
  Cu  Cu33  1  0.15853200  0.60964400  0.19115900  1
  Cu  Cu34  1  0.21207000  0.88141700  0.89641300  1
  Cu  Cu35  1  0.88141700  0.21207000  0.39641300  1
  Cu  Cu36  1  0.24731100  0.91047200  0.45821500  1
  Cu  Cu37  1  0.91047200  0.24731100  0.95821500  1
