# generated using pymatgen
data_CuNi5C3
_symmetry_space_group_name_H-M   'P 1'
_cell_length_a   7.00519800
_cell_length_b   10.19516800
_cell_length_c   13.57051800
_cell_angle_alpha   90.00000000
_cell_angle_beta   90.00000000
_cell_angle_gamma   90.00000000
_symmetry_Int_Tables_number   1
_chemical_formula_structural   CuNi5C3
_chemical_formula_sum   'Cu4 Ni20 C12'
_cell_volume   969.19513859
_cell_formula_units_Z   4
loop_
 _symmetry_equiv_pos_site_id
 _symmetry_equiv_pos_as_xyz
  1  'x, y, z'
loop_
 _atom_site_type_symbol
 _atom_site_label
 _atom_site_symmetry_multiplicity
 _atom_site_fract_x
 _atom_site_fract_y
 _atom_site_fract_z
 _atom_site_occupancy
  C  C0  1  0.16467500  0.00060200  0.14390000  1
  C  C1  1  0.33532500  0.49939800  0.64390000  1
  C  C2  1  0.83532500  0.50060200  0.85610000  1
  C  C3  1  0.66467500  0.99939800  0.35610000  1
  C  C4  1  0.83532500  0.99939800  0.85610000  1
  C  C5  1  0.66467500  0.50060200  0.35610000  1
  C  C6  1  0.16467500  0.49939800  0.14390000  1
  C  C7  1  0.33532500  0.00060200  0.64390000  1
  C  C8  1  0.66873900  0.75000000  0.09525100  1
  C  C9  1  0.83126100  0.75000000  0.59525100  1
  C  C10  1  0.33126100  0.25000000  0.90474900  1
  C  C11  1  0.16873900  0.25000000  0.40474900  1
  Ni  Ni12  1  0.89104900  0.75000000  0.24563200  1
  Ni  Ni13  1  0.60895100  0.75000000  0.74563200  1
  Ni  Ni14  1  0.10895100  0.25000000  0.75436800  1
  Ni  Ni15  1  0.39104900  0.25000000  0.25436800  1
  Ni  Ni16  1  0.68692500  0.51590100  0.10680300  1
  Ni  Ni17  1  0.81307500  0.98409900  0.60680300  1
  Ni  Ni18  1  0.31307500  0.01590100  0.89319700  1
  Ni  Ni19  1  0.18692500  0.48409900  0.39319700  1
  Ni  Ni20  1  0.31307500  0.48409900  0.89319700  1
  Ni  Ni21  1  0.18692500  0.01590100  0.39319700  1
  Ni  Ni22  1  0.68692500  0.98409900  0.10680300  1
  Ni  Ni23  1  0.81307500  0.51590100  0.60680300  1
  Ni  Ni24  1  0.42486700  0.75000000  0.21929400  1
  Ni  Ni25  1  0.07513300  0.75000000  0.71929400  1
  Ni  Ni26  1  0.57513300  0.25000000  0.78070600  1
  Ni  Ni27  1  0.92486700  0.25000000  0.28070600  1
  Ni  Ni28  1  0.96163400  0.75000000  0.00344700  1
  Ni  Ni29  1  0.53836600  0.75000000  0.50344800  1
  Ni  Ni30  1  0.03836600  0.25000000  0.99655200  1
  Ni  Ni31  1  0.46163400  0.25000000  0.49655300  1
  Cu  Cu32  1  0.52035900  0.75000000  0.99934500  1
  Cu  Cu33  1  0.97964100  0.75000000  0.49934500  1
  Cu  Cu34  1  0.47964100  0.25000000  0.00065500  1
  Cu  Cu35  1  0.02035900  0.25000000  0.50065500  1
