# generated using pymatgen
data_Cu2NiC11
_symmetry_space_group_name_H-M   'P 1'
_cell_length_a   2.97128480
_cell_length_b   2.97128480
_cell_length_c   34.23684743
_cell_angle_alpha   86.25714495
_cell_angle_beta   86.25714495
_cell_angle_gamma   58.02467461
_symmetry_Int_Tables_number   1
_chemical_formula_structural   Cu2NiC11
_chemical_formula_sum   'Cu4 Ni2 C22'
_cell_volume   255.68562206
_cell_formula_units_Z   2
loop_
 _symmetry_equiv_pos_site_id
 _symmetry_equiv_pos_as_xyz
  1  'x, y, z'
loop_
 _atom_site_type_symbol
 _atom_site_label
 _atom_site_symmetry_multiplicity
 _atom_site_fract_x
 _atom_site_fract_y
 _atom_site_fract_z
 _atom_site_occupancy
  C  C0  1  0.86132100  0.86132100  0.71230300  1
  C  C1  1  0.29632800  0.29632800  0.56964800  1
  C  C2  1  0.70367200  0.70367200  0.43035200  1
  C  C3  1  0.13867900  0.13867900  0.28769700  1
  C  C4  1  0.57316100  0.57316100  0.14152800  1
  C  C5  1  0.00000000  0.00000000  0.00000000  1
  C  C6  1  0.42683900  0.42683900  0.85847200  1
  C  C7  1  0.00000000  0.00000000  0.50000000  1
  Ni  Ni8  1  0.14335000  0.14335000  0.78556300  1
  Ni  Ni9  1  0.85665000  0.85665000  0.21443700  1
  Cu  Cu10  1  0.57495700  0.57495700  0.64289900  1
  Cu  Cu11  1  0.42504300  0.42504300  0.35710100  1
  Cu  Cu12  1  0.28590900  0.28590900  0.07096100  1
  Cu  Cu13  1  0.71409100  0.71409100  0.92903900  1
  C  C14  1  0.52268100  0.52268100  0.75326800  1
  C  C15  1  0.92238400  0.92238400  0.61160600  1
  C  C16  1  0.35805400  0.35805400  0.46356200  1
  C  C17  1  0.78495200  0.78495200  0.32313700  1
  C  C18  1  0.23692300  0.23692300  0.18103000  1
  C  C19  1  0.64450400  0.64450400  0.03854200  1
  C  C20  1  0.07285300  0.07285300  0.89632200  1
  C  C21  1  0.21504800  0.21504800  0.67686300  1
  C  C22  1  0.64194600  0.64194600  0.53643800  1
  C  C23  1  0.07761600  0.07761600  0.38839400  1
  C  C24  1  0.47731900  0.47731900  0.24673200  1
  C  C25  1  0.92714700  0.92714700  0.10367800  1
  C  C26  1  0.35549600  0.35549600  0.96145800  1
  C  C27  1  0.76307700  0.76307700  0.81897000  1
