# generated using pymatgen
data_Cu4Ni2C9
_symmetry_space_group_name_H-M   'P 1'
_cell_length_a   8.95875691
_cell_length_b   8.95875691
_cell_length_c   10.42881322
_cell_angle_alpha   60.04371560
_cell_angle_beta   60.04371560
_cell_angle_gamma   62.97286956
_symmetry_Int_Tables_number   1
_chemical_formula_structural   Cu4Ni2C9
_chemical_formula_sum   'Cu8 Ni4 C18'
_cell_volume   604.40912968
_cell_formula_units_Z   2
loop_
 _symmetry_equiv_pos_site_id
 _symmetry_equiv_pos_as_xyz
  1  'x, y, z'
loop_
 _atom_site_type_symbol
 _atom_site_label
 _atom_site_symmetry_multiplicity
 _atom_site_fract_x
 _atom_site_fract_y
 _atom_site_fract_z
 _atom_site_occupancy
  C  C0  1  0.36892100  0.63107900  0.75000000  1
  C  C1  1  0.63107900  0.36892100  0.25000000  1
  Ni  Ni2  1  0.85956700  0.86147500  0.01873400  1
  Ni  Ni3  1  0.13852500  0.14043300  0.48126600  1
  Ni  Ni4  1  0.14043300  0.13852500  0.98126600  1
  Ni  Ni5  1  0.86147500  0.85956700  0.51873400  1
  Cu  Cu6  1  0.72308200  0.00194700  0.97038000  1
  Cu  Cu7  1  0.99805300  0.27691800  0.52962000  1
  Cu  Cu8  1  0.27691800  0.99805300  0.02962000  1
  Cu  Cu9  1  0.00194700  0.72308200  0.47038000  1
  Cu  Cu10  1  0.95731900  0.77080400  0.09825400  1
  Cu  Cu11  1  0.22919600  0.04268100  0.40174600  1
  Cu  Cu12  1  0.04268100  0.22919600  0.90174600  1
  Cu  Cu13  1  0.77080400  0.95731900  0.59825400  1
  C  C14  1  0.22939600  0.45672400  0.10290200  1
  C  C15  1  0.54327600  0.77060400  0.39709800  1
  C  C16  1  0.77060400  0.54327600  0.89709800  1
  C  C17  1  0.45672400  0.22939600  0.60290200  1
  C  C18  1  0.17497500  0.66579900  0.71332500  1
  C  C19  1  0.33420100  0.82502500  0.78667500  1
  C  C20  1  0.82502500  0.33420100  0.28667500  1
  C  C21  1  0.66579900  0.17497500  0.21332500  1
  C  C22  1  0.45232700  0.27095300  0.70071400  1
  C  C23  1  0.72904700  0.54767300  0.79928600  1
  C  C24  1  0.54767300  0.72904700  0.29928600  1
  C  C25  1  0.27095300  0.45232700  0.20071400  1
  C  C26  1  0.81964800  0.86573500  0.89986200  1
  C  C27  1  0.13426500  0.18035200  0.60013800  1
  C  C28  1  0.18035200  0.13426500  0.10013800  1
  C  C29  1  0.86573500  0.81964800  0.39986200  1
