# generated using pymatgen
data_CuNiC11
_symmetry_space_group_name_H-M   'P 1'
_cell_length_a   8.62912000
_cell_length_b   7.29651300
_cell_length_c   7.29651300
_cell_angle_alpha   90.00000000
_cell_angle_beta   90.00000000
_cell_angle_gamma   90.00000000
_symmetry_Int_Tables_number   1
_chemical_formula_structural   CuNiC11
_chemical_formula_sum   'Cu2 Ni2 C22'
_cell_volume   459.40659950
_cell_formula_units_Z   2
loop_
 _symmetry_equiv_pos_site_id
 _symmetry_equiv_pos_as_xyz
  1  'x, y, z'
loop_
 _atom_site_type_symbol
 _atom_site_label
 _atom_site_symmetry_multiplicity
 _atom_site_fract_x
 _atom_site_fract_y
 _atom_site_fract_z
 _atom_site_occupancy
  Ni  Ni0  1  0.25000000  0.00000000  0.50000000  1
  Ni  Ni1  1  0.75000000  0.50000000  0.00000000  1
  Cu  Cu2  1  0.00000000  0.50000000  0.50000000  1
  Cu  Cu3  1  0.50000000  0.00000000  0.00000000  1
  C  C4  1  0.50000000  0.50000000  0.50000000  1
  C  C5  1  0.00000000  0.00000000  0.00000000  1
  C  C6  1  0.24622600  0.40455400  0.70727400  1
  C  C7  1  0.74622600  0.09544600  0.20727400  1
  C  C8  1  0.75377400  0.29272600  0.40455400  1
  C  C9  1  0.25377400  0.20727400  0.90455400  1
  C  C10  1  0.24622600  0.59544600  0.29272600  1
  C  C11  1  0.74622600  0.90455400  0.79272600  1
  C  C12  1  0.75377400  0.70727400  0.59544600  1
  C  C13  1  0.25377400  0.79272600  0.09544600  1
  C  C14  1  0.00875800  0.94562000  0.44366200  1
  C  C15  1  0.50875800  0.55438000  0.94366200  1
  C  C16  1  0.99124200  0.55633800  0.94562000  1
  C  C17  1  0.49124200  0.94366200  0.44562000  1
  C  C18  1  0.00875800  0.05438000  0.55633800  1
  C  C19  1  0.50875800  0.44562000  0.05633800  1
  C  C20  1  0.99124200  0.44366200  0.05438000  1
  C  C21  1  0.49124200  0.05633800  0.55438000  1
  C  C22  1  0.25000000  0.83760300  0.66239700  1
  C  C23  1  0.75000000  0.66239700  0.16239700  1
  C  C24  1  0.75000000  0.33760300  0.83760300  1
  C  C25  1  0.25000000  0.16239700  0.33760300  1
