# generated using pymatgen
data_Cu2Ni2C17
_symmetry_space_group_name_H-M   'P 1'
_cell_length_a   5.66310167
_cell_length_b   5.53468715
_cell_length_c   8.94874161
_cell_angle_alpha   90.14591371
_cell_angle_beta   95.75192054
_cell_angle_gamma   90.96375263
_symmetry_Int_Tables_number   1
_chemical_formula_structural   Cu2Ni2C17
_chemical_formula_sum   'Cu2 Ni2 C17'
_cell_volume   279.03064715
_cell_formula_units_Z   1
loop_
 _symmetry_equiv_pos_site_id
 _symmetry_equiv_pos_as_xyz
  1  'x, y, z'
loop_
 _atom_site_type_symbol
 _atom_site_label
 _atom_site_symmetry_multiplicity
 _atom_site_fract_x
 _atom_site_fract_y
 _atom_site_fract_z
 _atom_site_occupancy
  C  C0  1  0.42476100  0.51697000  0.78841800  1
  C  C1  1  0.99412900  0.01980900  0.23505900  1
  C  C2  1  0.89395100  0.03027700  0.83182300  1
  C  C3  1  0.47421200  0.47893900  0.24825800  1
  C  C4  1  0.21523700  0.02199100  0.59328300  1
  Ni  Ni5  1  0.96775600  0.52020400  0.04466900  1
  Ni  Ni6  1  0.61199700  0.97098700  0.46062500  1
  Cu  Cu7  1  0.04898700  0.50269700  0.48354000  1
  Cu  Cu8  1  0.45943900  0.99612800  0.00878500  1
  C  C9  1  0.04627500  0.33530100  0.68288600  1
  C  C10  1  0.46448200  0.04858700  0.77383600  1
  C  C11  1  0.03760900  0.58620400  0.25473100  1
  C  C12  1  0.50094900  0.90872300  0.23691200  1
  C  C13  1  0.26128800  0.23320200  0.42113800  1
  C  C14  1  0.72910700  0.25289200  0.03956400  1
  C  C15  1  0.70097500  0.73453000  0.98464200  1
  C  C16  1  0.35543800  0.70656500  0.51831400  1
  C  C17  1  0.90220500  0.82581000  0.58072900  1
  C  C18  1  0.17803300  0.76123000  0.95989200  1
  C  C19  1  0.21933100  0.26436100  0.03481100  1
  C  C20  1  0.76383600  0.29649800  0.41809000  1
