# generated using pymatgen
data_Cu5NiC9
_symmetry_space_group_name_H-M   'P 1'
_cell_length_a   16.61705398
_cell_length_b   16.61705398
_cell_length_c   13.59332875
_cell_angle_alpha   85.06358182
_cell_angle_beta   85.06358182
_cell_angle_gamma   33.28859195
_symmetry_Int_Tables_number   1
_chemical_formula_structural   Cu5NiC9
_chemical_formula_sum   'Cu20 Ni4 C36'
_cell_volume   2051.79470029
_cell_formula_units_Z   4
loop_
 _symmetry_equiv_pos_site_id
 _symmetry_equiv_pos_as_xyz
  1  'x, y, z'
loop_
 _atom_site_type_symbol
 _atom_site_label
 _atom_site_symmetry_multiplicity
 _atom_site_fract_x
 _atom_site_fract_y
 _atom_site_fract_z
 _atom_site_occupancy
  C  C0  1  0.47961400  0.81542400  0.04267000  1
  C  C1  1  0.18457600  0.52038600  0.45733000  1
  C  C2  1  0.52038600  0.18457600  0.95733000  1
  C  C3  1  0.81542400  0.47961400  0.54267000  1
  C  C4  1  0.27782200  0.19132200  0.94536500  1
  C  C5  1  0.80867800  0.72217800  0.55463500  1
  C  C6  1  0.72217800  0.80867800  0.05463500  1
  C  C7  1  0.19132200  0.27782200  0.44536500  1
  C  C8  1  0.39536200  0.73185600  0.79318900  1
  C  C9  1  0.26814400  0.60463800  0.70681100  1
  C  C10  1  0.60463800  0.26814400  0.20681100  1
  C  C11  1  0.73185600  0.39536200  0.29318900  1
  C  C12  1  0.63564000  0.71536300  0.78337800  1
  C  C13  1  0.28463700  0.36436000  0.71662200  1
  C  C14  1  0.36436000  0.28463700  0.21662200  1
  C  C15  1  0.71536300  0.63564000  0.28337800  1
  C  C16  1  0.01430300  0.06361800  0.87994300  1
  C  C17  1  0.93638200  0.98569700  0.62005700  1
  C  C18  1  0.98569700  0.93638200  0.12005700  1
  C  C19  1  0.06361800  0.01430300  0.37994300  1
  C  C20  1  0.07671700  0.15342400  0.10252200  1
  C  C21  1  0.84657600  0.92328300  0.39747800  1
  C  C22  1  0.92328300  0.84657600  0.89747800  1
  C  C23  1  0.15342400  0.07671700  0.60252200  1
  C  C24  1  0.59347200  0.36592500  0.89517700  1
  C  C25  1  0.63407500  0.40652800  0.60482300  1
  C  C26  1  0.40652800  0.63407500  0.10482300  1
  C  C27  1  0.36592500  0.59347200  0.39517700  1
  C  C28  1  0.93175700  0.62034600  0.83152300  1
  C  C29  1  0.37965400  0.06824300  0.66847700  1
  C  C30  1  0.06824300  0.37965400  0.16847700  1
  C  C31  1  0.62034600  0.93175700  0.33152300  1
  C  C32  1  0.99625500  0.31654600  0.81943700  1
  C  C33  1  0.68345400  0.00374500  0.68056300  1
  C  C34  1  0.00374500  0.68345400  0.18056300  1
  C  C35  1  0.31654600  0.99625500  0.31943700  1
  Ni  Ni36  1  0.71459000  0.46702700  0.96283000  1
  Ni  Ni37  1  0.53297300  0.28541000  0.53717000  1
  Ni  Ni38  1  0.28541000  0.53297300  0.03717000  1
  Ni  Ni39  1  0.46702700  0.71459000  0.46283000  1
  Cu  Cu40  1  0.78744600  0.27391300  0.07657800  1
  Cu  Cu41  1  0.72608700  0.21255400  0.42342200  1
  Cu  Cu42  1  0.21255400  0.72608700  0.92342200  1
  Cu  Cu43  1  0.27391300  0.78744600  0.57657800  1
  Cu  Cu44  1  0.87790600  0.47165000  0.97368400  1
  Cu  Cu45  1  0.52835000  0.12209400  0.52631600  1
  Cu  Cu46  1  0.12209400  0.52835000  0.02631600  1
  Cu  Cu47  1  0.47165000  0.87790600  0.47368400  1
  Cu  Cu48  1  0.02940000  0.40021900  0.68586400  1
  Cu  Cu49  1  0.59978100  0.97060000  0.81413600  1
  Cu  Cu50  1  0.97060000  0.59978100  0.31413600  1
  Cu  Cu51  1  0.40021900  0.02940000  0.18586400  1
  Cu  Cu52  1  0.23562300  0.04649400  0.85207300  1
  Cu  Cu53  1  0.95350600  0.76437700  0.64792700  1
  Cu  Cu54  1  0.76437700  0.95350600  0.14792700  1
  Cu  Cu55  1  0.04649400  0.23562300  0.35207300  1
  Cu  Cu56  1  0.79830200  0.38644200  0.76698500  1
  Cu  Cu57  1  0.61355800  0.20169800  0.73301500  1
  Cu  Cu58  1  0.20169800  0.61355800  0.23301500  1
  Cu  Cu59  1  0.38644200  0.79830200  0.26698500  1
