# generated using pymatgen
data_Cu2Ni2C9
_symmetry_space_group_name_H-M   'P 1'
_cell_length_a   15.37541370
_cell_length_b   14.50367475
_cell_length_c   7.18572831
_cell_angle_alpha   82.94859329
_cell_angle_beta   69.41771893
_cell_angle_gamma   27.63368778
_symmetry_Int_Tables_number   1
_chemical_formula_structural   Cu2Ni2C9
_chemical_formula_sum   'Cu8 Ni8 C36'
_cell_volume   626.65514952
_cell_formula_units_Z   4
loop_
 _symmetry_equiv_pos_site_id
 _symmetry_equiv_pos_as_xyz
  1  'x, y, z'
loop_
 _atom_site_type_symbol
 _atom_site_label
 _atom_site_symmetry_multiplicity
 _atom_site_fract_x
 _atom_site_fract_y
 _atom_site_fract_z
 _atom_site_occupancy
  C  C0  1  0.80608000  0.29286200  0.40823000  1
  C  C1  1  0.29286200  0.80608000  0.49282800  1
  C  C2  1  0.40823000  0.49282800  0.80608000  1
  C  C3  1  0.49282800  0.40823000  0.29286200  1
  C  C4  1  0.44392000  0.95713800  0.84177000  1
  C  C5  1  0.95713800  0.44392000  0.75717200  1
  C  C6  1  0.84177000  0.75717200  0.44392000  1
  C  C7  1  0.75717200  0.84177000  0.95713800  1
  Ni  Ni8  1  0.77053400  0.37392600  0.94125100  1
  Ni  Ni9  1  0.37392600  0.77053400  0.91428900  1
  Ni  Ni10  1  0.94125100  0.91428900  0.77053400  1
  Ni  Ni11  1  0.91428900  0.94125100  0.37392600  1
  Ni  Ni12  1  0.47946600  0.87607400  0.30874900  1
  Ni  Ni13  1  0.87607400  0.47946600  0.33571100  1
  Ni  Ni14  1  0.30874900  0.33571100  0.47946600  1
  Ni  Ni15  1  0.33571100  0.30874900  0.87607400  1
  Cu  Cu16  1  0.13646600  0.13646600  0.36353400  1
  Cu  Cu17  1  0.36353400  0.36353400  0.13646600  1
  Cu  Cu18  1  0.11353400  0.11353400  0.88646600  1
  Cu  Cu19  1  0.88646600  0.88646600  0.11353400  1
  Cu  Cu20  1  0.42757000  0.07243000  0.42757000  1
  Cu  Cu21  1  0.07243000  0.42757000  0.07243000  1
  Cu  Cu22  1  0.82243000  0.17757000  0.82243000  1
  Cu  Cu23  1  0.17757000  0.82243000  0.17757000  1
  C  C24  1  0.59634500  0.59634500  0.90365500  1
  C  C25  1  0.90365500  0.90365500  0.59634500  1
  C  C26  1  0.65365500  0.65365500  0.34634500  1
  C  C27  1  0.34634500  0.34634500  0.65365500  1
  C  C28  1  0.95862800  0.30877900  0.38123400  1
  C  C29  1  0.30877900  0.95862800  0.35135900  1
  C  C30  1  0.38123400  0.35135900  0.95862800  1
  C  C31  1  0.35135900  0.38123400  0.30877900  1
  C  C32  1  0.29137200  0.94122100  0.86876600  1
  C  C33  1  0.94122100  0.29137200  0.89864100  1
  C  C34  1  0.86876600  0.89864100  0.29137200  1
  C  C35  1  0.89864100  0.86876600  0.94122100  1
  C  C36  1  0.76128700  0.15338400  0.87813300  1
  C  C37  1  0.15338400  0.76128700  0.20719600  1
  C  C38  1  0.87813300  0.20719600  0.76128700  1
  C  C39  1  0.20719600  0.87813300  0.15338400  1
  C  C40  1  0.48871300  0.09661600  0.37186700  1
  C  C41  1  0.09661600  0.48871300  0.04280400  1
  C  C42  1  0.37186700  0.04280400  0.48871300  1
  C  C43  1  0.04280400  0.37186700  0.09661600  1
  C  C44  1  0.50529100  0.07701600  0.81568000  1
  C  C45  1  0.07701600  0.50529100  0.60201300  1
  C  C46  1  0.81568000  0.60201300  0.50529100  1
  C  C47  1  0.60201300  0.81568000  0.07701600  1
  C  C48  1  0.74470900  0.17298400  0.43432000  1
  C  C49  1  0.17298400  0.74470900  0.64798700  1
  C  C50  1  0.43432000  0.64798700  0.74470900  1
  C  C51  1  0.64798700  0.43432000  0.17298400  1
