# generated using pymatgen
data_Cu(NiC4)3
_symmetry_space_group_name_H-M   'P 1'
_cell_length_a   15.13168150
_cell_length_b   15.22311150
_cell_length_c   15.31244234
_cell_angle_alpha   90.00000000
_cell_angle_beta   90.00000000
_cell_angle_gamma   90.00000000
_symmetry_Int_Tables_number   1
_chemical_formula_structural   Cu(NiC4)3
_chemical_formula_sum   'Cu16 Ni48 C192'
_cell_volume   3527.24061113
_cell_formula_units_Z   16
loop_
 _symmetry_equiv_pos_site_id
 _symmetry_equiv_pos_as_xyz
  1  'x, y, z'
loop_
 _atom_site_type_symbol
 _atom_site_label
 _atom_site_symmetry_multiplicity
 _atom_site_fract_x
 _atom_site_fract_y
 _atom_site_fract_z
 _atom_site_occupancy
  Ni  Ni0  1  0.89010782  0.13111625  0.15261113  1
  Ni  Ni1  1  0.39010782  0.86888375  0.34738887  1
  Ni  Ni2  1  0.10989218  0.36888375  0.65261113  1
  Ni  Ni3  1  0.60989218  0.63111625  0.84738887  1
  Ni  Ni4  1  0.12737761  0.33151771  0.11730402  1
  Ni  Ni5  1  0.62737761  0.66848229  0.38269598  1
  Ni  Ni6  1  0.87262239  0.16848229  0.61730402  1
  Ni  Ni7  1  0.37262239  0.83151771  0.88269598  1
  Ni  Ni8  1  0.13813154  0.40798140  0.39265430  1
  Ni  Ni9  1  0.63813154  0.59201860  0.10734570  1
  Ni  Ni10  1  0.86186846  0.09201860  0.89265430  1
  Ni  Ni11  1  0.36186846  0.90798140  0.60734570  1
  Ni  Ni12  1  0.49683151  0.05305900  0.44753181  1
  Ni  Ni13  1  0.99683151  0.94694100  0.05246819  1
  Ni  Ni14  1  0.50316849  0.44694100  0.94753181  1
  Ni  Ni15  1  0.00316849  0.55305900  0.55246819  1
  Ni  Ni16  1  0.39788315  0.37705332  0.16186829  1
  Ni  Ni17  1  0.89788315  0.62294668  0.33813171  1
  Ni  Ni18  1  0.60211685  0.12294668  0.66186829  1
  Ni  Ni19  1  0.10211685  0.87705332  0.83813171  1
  Ni  Ni20  1  0.34787199  0.09846705  0.12051067  1
  Ni  Ni21  1  0.84787199  0.90153295  0.37948933  1
  Ni  Ni22  1  0.65212801  0.40153295  0.62051067  1
  Ni  Ni23  1  0.15212801  0.59846705  0.87948933  1
  Ni  Ni24  1  0.85292929  0.38073825  0.14960401  1
  Ni  Ni25  1  0.35292929  0.61926175  0.35039599  1
  Ni  Ni26  1  0.14707071  0.11926175  0.64960401  1
  Ni  Ni27  1  0.64707071  0.88073825  0.85039599  1
  Ni  Ni28  1  0.99565550  0.49268975  0.00412145  1
  Ni  Ni29  1  0.49565550  0.50731025  0.49587855  1
  Ni  Ni30  1  0.00434450  0.00731025  0.50412145  1
  Ni  Ni31  1  0.50434450  0.99268975  0.99587855  1
  Ni  Ni32  1  0.62931628  0.15602272  0.09804298  1
  Ni  Ni33  1  0.12931628  0.84397728  0.40195702  1
  Ni  Ni34  1  0.37068372  0.34397728  0.59804298  1
  Ni  Ni35  1  0.87068372  0.65602272  0.90195702  1
  Ni  Ni36  1  0.70153835  0.25208265  0.29476358  1
  Ni  Ni37  1  0.20153835  0.74791735  0.20523642  1
  Ni  Ni38  1  0.29846165  0.24791735  0.79476358  1
  Ni  Ni39  1  0.79846165  0.75208265  0.70523642  1
  Ni  Ni40  1  0.87956567  0.37096036  0.41111008  1
  Ni  Ni41  1  0.37956567  0.62903964  0.08888992  1
  Ni  Ni42  1  0.12043433  0.12903964  0.91111008  1
  Ni  Ni43  1  0.62043433  0.87096036  0.58888992  1
  Ni  Ni44  1  0.24925363  0.20847005  0.28975625  1
  Ni  Ni45  1  0.74925363  0.79152995  0.21024375  1
  Ni  Ni46  1  0.75074637  0.29152995  0.78975625  1
  Ni  Ni47  1  0.25074637  0.70847005  0.71024375  1
  Cu  Cu48  1  0.86673371  0.12498632  0.37794984  1
  Cu  Cu49  1  0.36673371  0.87501368  0.12205016  1
  Cu  Cu50  1  0.13326629  0.37501368  0.87794984  1
  Cu  Cu51  1  0.63326629  0.62498632  0.62205016  1
  Cu  Cu52  1  0.61369655  0.37017521  0.12874328  1
  Cu  Cu53  1  0.11369655  0.62982479  0.37125672  1
  Cu  Cu54  1  0.38630345  0.12982479  0.62874328  1
  Cu  Cu55  1  0.88630345  0.87017521  0.87125672  1
  Cu  Cu56  1  0.35909512  0.38712153  0.37930480  1
  Cu  Cu57  1  0.85909512  0.61287847  0.12069520  1
  Cu  Cu58  1  0.64090488  0.11287847  0.87930480  1
  Cu  Cu59  1  0.14090488  0.88712153  0.62069520  1
  Cu  Cu60  1  0.12052970  0.11533561  0.13398737  1
  Cu  Cu61  1  0.62052970  0.88466439  0.36601263  1
  Cu  Cu62  1  0.87947030  0.38466439  0.63398737  1
  Cu  Cu63  1  0.37947030  0.61533561  0.86601263  1
  C  C64  1  0.25577452  0.03233159  0.46723662  1
  C  C65  1  0.75577452  0.96766841  0.03276338  1
  C  C66  1  0.74422548  0.46766841  0.96723662  1
  C  C67  1  0.24422548  0.53233159  0.53276338  1
  C  C68  1  0.52326179  0.25363091  0.47751701  1
  C  C69  1  0.02326179  0.74636909  0.02248299  1
  C  C70  1  0.47673821  0.24636909  0.97751701  1
  C  C71  1  0.97673821  0.75363091  0.52248299  1
  C  C72  1  0.51152445  0.02754109  0.22905852  1
  C  C73  1  0.01152445  0.97245891  0.27094148  1
  C  C74  1  0.48847555  0.47245891  0.72905852  1
  C  C75  1  0.98847555  0.52754109  0.77094148  1
  C  C76  1  0.27700784  0.46839393  0.02202794  1
  C  C77  1  0.77700784  0.53160607  0.47797206  1
  C  C78  1  0.72299216  0.03160607  0.52202794  1
  C  C79  1  0.22299216  0.96839393  0.97797206  1
  C  C80  1  0.22516502  0.22626586  0.49420738  1
  C  C81  1  0.72516502  0.77373414  0.00579262  1
  C  C82  1  0.77483498  0.27373414  0.99420738  1
  C  C83  1  0.27483498  0.72626586  0.50579262  1
  C  C84  1  0.72113578  0.02523157  0.22467334  1
  C  C85  1  0.22113578  0.97476843  0.27532666  1
  C  C86  1  0.27886422  0.47476843  0.72467334  1
  C  C87  1  0.77886422  0.52523157  0.77532666  1
  C  C88  1  0.72226529  0.49698233  0.28378468  1
  C  C89  1  0.22226529  0.50301767  0.21621532  1
  C  C90  1  0.27773471  0.00301767  0.78378468  1
  C  C91  1  0.77773471  0.99698233  0.71621532  1
  C  C92  1  0.49149740  0.22488066  0.27927027  1
  C  C93  1  0.99149740  0.77511934  0.22072973  1
  C  C94  1  0.50850260  0.27511934  0.77927027  1
  C  C95  1  0.00850260  0.72488066  0.72072973  1
  C  C96  1  0.02167827  0.24948369  0.48889181  1
  C  C97  1  0.52167827  0.75051631  0.01110819  1
  C  C98  1  0.97832173  0.25051631  0.98889181  1
  C  C99  1  0.47832173  0.74948369  0.51110819  1
  C  C100  1  0.02191744  0.47241907  0.23007053  1
  C  C101  1  0.52191744  0.52758093  0.26992947  1
  C  C102  1  0.97808256  0.02758093  0.73007053  1
  C  C103  1  0.47808256  0.97241907  0.76992947  1
  C  C104  1  0.27674880  0.25939226  0.01269366  1
  C  C105  1  0.77674880  0.74060774  0.48730634  1
  C  C106  1  0.72325120  0.24060774  0.51269366  1
  C  C107  1  0.22325120  0.75939226  0.98730634  1
  C  C108  1  0.01531371  0.26673042  0.28271279  1
  C  C109  1  0.51531371  0.73326958  0.21728721  1
  C  C110  1  0.98468629  0.23326958  0.78271279  1
  C  C111  1  0.48468629  0.76673042  0.71728721  1
  C  C112  1  0.95859608  0.01478387  0.35225643  1
  C  C113  1  0.45859608  0.98521613  0.14774357  1
  C  C114  1  0.04140392  0.48521613  0.85225643  1
  C  C115  1  0.54140392  0.51478387  0.64774357  1
  C  C116  1  0.22646255  0.20721801  0.09039559  1
  C  C117  1  0.72646255  0.79278199  0.40960441  1
  C  C118  1  0.77353745  0.29278199  0.59039559  1
  C  C119  1  0.27353745  0.70721801  0.90960441  1
  C  C120  1  0.77958712  0.23779349  0.42273746  1
  C  C121  1  0.27958712  0.76220651  0.07726254  1
  C  C122  1  0.22041288  0.26220651  0.92273746  1
  C  C123  1  0.72041288  0.73779349  0.57726254  1
  C  C124  1  0.45874703  0.33867374  0.47606084  1
  C  C125  1  0.95874703  0.66132626  0.02393916  1
  C  C126  1  0.54125297  0.16132626  0.97606084  1
  C  C127  1  0.04125297  0.83867374  0.52393916  1
  C  C128  1  0.03966623  0.28801240  0.38762323  1
  C  C129  1  0.53966623  0.71198760  0.11237677  1
  C  C130  1  0.96033377  0.21198760  0.88762323  1
  C  C131  1  0.46033377  0.78801240  0.61237677  1
  C  C132  1  0.26603338  0.42542189  0.27421248  1
  C  C133  1  0.76603338  0.57457811  0.22578752  1
  C  C134  1  0.73396662  0.07457811  0.77421248  1
  C  C135  1  0.23396662  0.92542189  0.72578752  1
  C  C136  1  0.46375863  0.12545342  0.24328052  1
  C  C137  1  0.96375863  0.87454658  0.25671948  1
  C  C138  1  0.53624137  0.37454658  0.74328052  1
  C  C139  1  0.03624137  0.62545342  0.75671948  1
  C  C140  1  0.40184742  0.28357396  0.28391006  1
  C  C141  1  0.90184742  0.71642604  0.21608994  1
  C  C142  1  0.59815258  0.21642604  0.78391006  1
  C  C143  1  0.09815258  0.78357396  0.71608994  1
  C  C144  1  0.02152488  0.17041026  0.04366977  1
  C  C145  1  0.52152488  0.82958974  0.45633023  1
  C  C146  1  0.97847512  0.32958974  0.54366977  1
  C  C147  1  0.47847512  0.67041026  0.95633023  1
  C  C148  1  0.77800653  0.48549817  0.37752139  1
  C  C149  1  0.27800653  0.51450183  0.12247861  1
  C  C150  1  0.22199347  0.01450183  0.87752139  1
  C  C151  1  0.72199347  0.98549817  0.62247861  1
  C  C152  1  0.71666968  0.28008391  0.08271451  1
  C  C153  1  0.21666968  0.71991609  0.41728549  1
  C  C154  1  0.28333032  0.21991609  0.58271451  1
  C  C155  1  0.78333032  0.78008391  0.91728549  1
  C  C156  1  0.12188118  0.46921057  0.18433297  1
  C  C157  1  0.62188118  0.53078943  0.31566703  1
  C  C158  1  0.87811882  0.03078943  0.68433297  1
  C  C159  1  0.37811882  0.96921057  0.81566703  1
  C  C160  1  0.87882668  0.26855097  0.03215920  1
  C  C161  1  0.37882668  0.73144903  0.46784080  1
  C  C162  1  0.12117332  0.23144903  0.53215920  1
  C  C163  1  0.62117332  0.76855097  0.96784080  1
  C  C164  1  0.61592768  0.04933297  0.20100662  1
  C  C165  1  0.11592768  0.95066703  0.29899338  1
  C  C166  1  0.38407232  0.45066703  0.70100662  1
  C  C167  1  0.88407232  0.54933297  0.79899338  1
  C  C168  1  0.32573971  0.49069045  0.47787546  1
  C  C169  1  0.82573971  0.50930955  0.02212454  1
  C  C170  1  0.67426029  0.00930955  0.97787546  1
  C  C171  1  0.17426029  0.99069045  0.52212454  1
  C  C172  1  0.53270573  0.20754503  0.37899791  1
  C  C173  1  0.03270573  0.79245497  0.12100209  1
  C  C174  1  0.46729427  0.29245497  0.87899791  1
  C  C175  1  0.96729427  0.70754503  0.62100209  1
  C  C176  1  0.81637840  0.02601632  0.47243341  1
  C  C177  1  0.31637840  0.97398368  0.02756659  1
  C  C178  1  0.18362160  0.47398368  0.97243341  1
  C  C179  1  0.68362160  0.52601632  0.52756659  1
  C  C180  1  0.22618794  0.06698918  0.22306536  1
  C  C181  1  0.72618794  0.93301082  0.27693464  1
  C  C182  1  0.77381206  0.43301082  0.72306536  1
  C  C183  1  0.27381206  0.56698918  0.77693464  1
  C  C184  1  0.99424717  0.36686421  0.24255194  1
  C  C185  1  0.49424717  0.63313579  0.25744806  1
  C  C186  1  0.00575283  0.13313579  0.74255194  1
  C  C187  1  0.50575283  0.86686421  0.75744806  1
  C  C188  1  0.37514094  0.21216257  0.00297808  1
  C  C189  1  0.87514094  0.78783743  0.49702192  1
  C  C190  1  0.62485906  0.28783743  0.50297808  1
  C  C191  1  0.12485906  0.71216257  0.99702192  1
  C  C192  1  0.23248545  0.13493690  0.43520809  1
  C  C193  1  0.73248545  0.86506310  0.06479191  1
  C  C194  1  0.76751455  0.36506310  0.93520809  1
  C  C195  1  0.26751455  0.63493690  0.56479191  1
  C  C196  1  0.96228772  0.16143369  0.48737395  1
  C  C197  1  0.46228772  0.83856631  0.01262605  1
  C  C198  1  0.03771228  0.33856631  0.98737395  1
  C  C199  1  0.53771228  0.66143369  0.51262605  1
  C  C200  1  0.01116111  0.03007051  0.18171922  1
  C  C201  1  0.51116111  0.96992949  0.31828078  1
  C  C202  1  0.98883889  0.46992949  0.68171922  1
  C  C203  1  0.48883889  0.53007051  0.81828078  1
  C  C204  1  0.65128268  0.46701370  0.02141732  1
  C  C205  1  0.15128268  0.53298630  0.47858268  1
  C  C206  1  0.34871732  0.03298630  0.52141732  1
  C  C207  1  0.84871732  0.96701370  0.97858268  1
  C  C208  1  0.52736393  0.47945870  0.17561790  1
  C  C209  1  0.02736393  0.52054130  0.32438210  1
  C  C210  1  0.47263607  0.02054130  0.67561790  1
  C  C211  1  0.97263607  0.97945870  0.82438210  1
  C  C212  1  0.29608397  0.36247021  0.04727777  1
  C  C213  1  0.79608397  0.63752979  0.45272223  1
  C  C214  1  0.70391603  0.13752979  0.54727777  1
  C  C215  1  0.20391603  0.86247021  0.95272223  1
  C  C216  1  0.71740754  0.40368339  0.23265129  1
  C  C217  1  0.21740754  0.59631661  0.26734871  1
  C  C218  1  0.28259246  0.09631661  0.73265129  1
  C  C219  1  0.78259246  0.90368339  0.76734871  1
  C  C220  1  0.76986044  0.02263929  0.12611933  1
  C  C221  1  0.26986044  0.97736071  0.37388067  1
  C  C222  1  0.23013956  0.47736071  0.62611933  1
  C  C223  1  0.73013956  0.52263929  0.87388067  1
  C  C224  1  0.14078156  0.01572260  0.02702660  1
  C  C225  1  0.64078156  0.98427740  0.47297340  1
  C  C226  1  0.85921844  0.48427740  0.52702660  1
  C  C227  1  0.35921844  0.51572260  0.97297340  1
  C  C228  1  0.24747563  0.30703280  0.42982266  1
  C  C229  1  0.74747563  0.69296720  0.07017734  1
  C  C230  1  0.75252437  0.19296720  0.92982266  1
  C  C231  1  0.25252437  0.80703280  0.57017734  1
  C  C232  1  0.50579386  0.32443918  0.04405068  1
  C  C233  1  0.00579386  0.67556082  0.45594932  1
  C  C234  1  0.49420614  0.17556082  0.54405068  1
  C  C235  1  0.99420614  0.82443918  0.95594932  1
  C  C236  1  0.56929126  0.26530714  0.21825794  1
  C  C237  1  0.06929126  0.73469286  0.28174206  1
  C  C238  1  0.43070874  0.23469286  0.71825794  1
  C  C239  1  0.93070874  0.76530714  0.78174206  1
  C  C240  1  0.76784263  0.10747661  0.27291723  1
  C  C241  1  0.26784263  0.89252339  0.22708277  1
  C  C242  1  0.23215737  0.39252339  0.77291723  1
  C  C243  1  0.73215737  0.60747661  0.72708277  1
  C  C244  1  0.92307139  0.21443222  0.27887434  1
  C  C245  1  0.42307139  0.78556778  0.22112566  1
  C  C246  1  0.07692861  0.28556778  0.77887434  1
  C  C247  1  0.57692861  0.71443222  0.72112566  1
  C  C248  1  0.45109702  0.49101001  0.33882693  1
  C  C249  1  0.95109702  0.50898999  0.16117307  1
  C  C250  1  0.54890298  0.00898999  0.83882693  1
  C  C251  1  0.04890298  0.99101001  0.66117307  1
  C  C252  1  0.09830380  0.22552593  0.23082542  1
  C  C253  1  0.59830380  0.77447407  0.26917458  1
  C  C254  1  0.90169620  0.27447407  0.73082542  1
  C  C255  1  0.40169620  0.72552593  0.76917458  1
