# generated using pymatgen
data_CuNi2C7
_symmetry_space_group_name_H-M   'P 1'
_cell_length_a   6.09167000
_cell_length_b   6.10594671
_cell_length_c   8.61592079
_cell_angle_alpha   90.05338839
_cell_angle_beta   90.00000000
_cell_angle_gamma   90.00000000
_symmetry_Int_Tables_number   1
_chemical_formula_structural   CuNi2C7
_chemical_formula_sum   'Cu2 Ni4 C14'
_cell_volume   320.47258783
_cell_formula_units_Z   2
loop_
 _symmetry_equiv_pos_site_id
 _symmetry_equiv_pos_as_xyz
  1  'x, y, z'
loop_
 _atom_site_type_symbol
 _atom_site_label
 _atom_site_symmetry_multiplicity
 _atom_site_fract_x
 _atom_site_fract_y
 _atom_site_fract_z
 _atom_site_occupancy
  Ni  Ni0  1  0.48758700  0.50056100  0.74943200  1
  Ni  Ni1  1  0.98758700  0.99943900  0.75056800  1
  Ni  Ni2  1  0.51241300  0.49943900  0.25056800  1
  Ni  Ni3  1  0.01241300  0.00056100  0.24943200  1
  Cu  Cu4  1  0.50000000  0.00000000  0.00000000  1
  Cu  Cu5  1  0.00000000  0.50000000  0.50000000  1
  C  C6  1  0.50000000  0.00000000  0.50000000  1
  C  C7  1  0.00000000  0.50000000  0.00000000  1
  C  C8  1  0.00427300  0.45796000  0.77082500  1
  C  C9  1  0.50427300  0.04204000  0.72917500  1
  C  C10  1  0.99572700  0.54204000  0.22917500  1
  C  C11  1  0.49572700  0.95796000  0.27082500  1
  C  C12  1  0.21142800  0.74842300  0.97875000  1
  C  C13  1  0.71142800  0.75157700  0.52125000  1
  C  C14  1  0.74875800  0.21071900  0.47739200  1
  C  C15  1  0.24875800  0.28928100  0.02260800  1
  C  C16  1  0.78857200  0.25157700  0.02125000  1
  C  C17  1  0.28857200  0.24842300  0.47875000  1
  C  C18  1  0.25124200  0.78928100  0.52260800  1
  C  C19  1  0.75124200  0.71071900  0.97739200  1
