# generated using pymatgen
data_Cu2Ni
_symmetry_space_group_name_H-M   'P 1'
_cell_length_a   5.52000944
_cell_length_b   5.52000944
_cell_length_c   12.13194711
_cell_angle_alpha   70.48150705
_cell_angle_beta   70.48150705
_cell_angle_gamma   40.31486534
_symmetry_Int_Tables_number   1
_chemical_formula_structural   Cu2Ni
_chemical_formula_sum   'Cu8 Ni4'
_cell_volume   223.50882834
_cell_formula_units_Z   4
loop_
 _symmetry_equiv_pos_site_id
 _symmetry_equiv_pos_as_xyz
  1  'x, y, z'
loop_
 _atom_site_type_symbol
 _atom_site_label
 _atom_site_symmetry_multiplicity
 _atom_site_fract_x
 _atom_site_fract_y
 _atom_site_fract_z
 _atom_site_occupancy
  Ni  Ni0  1  0.20740400  0.20740400  0.87611600  1
  Ni  Ni1  1  0.24331300  0.24331300  0.13413400  1
  Ni  Ni2  1  0.32255700  0.32255700  0.41712100  1
  Ni  Ni3  1  0.87534800  0.87534800  0.61888800  1
  Cu  Cu4  1  0.55243000  0.55243000  0.08749400  1
  Cu  Cu5  1  0.46019400  0.46019400  0.93182600  1
  Cu  Cu6  1  0.15973900  0.15973900  0.65277700  1
  Cu  Cu7  1  0.02459300  0.02459300  0.36235000  1
  Cu  Cu8  1  0.94690900  0.94690900  0.82151400  1
  Cu  Cu9  1  0.92876400  0.92876400  0.20827800  1
  Cu  Cu10  1  0.67483400  0.67483400  0.33566800  1
  Cu  Cu11  1  0.60192400  0.60192400  0.55406500  1
