# generated using pymatgen
data_CuNi4
_symmetry_space_group_name_H-M   'P 1'
_cell_length_a   11.48018117
_cell_length_b   11.48018117
_cell_length_c   11.48018091
_cell_angle_alpha   14.23689395
_cell_angle_beta   14.23689395
_cell_angle_gamma   14.23689300
_symmetry_Int_Tables_number   1
_chemical_formula_structural   CuNi4
_chemical_formula_sum   'Cu1 Ni4'
_cell_volume   79.65886028
_cell_formula_units_Z   1
loop_
 _symmetry_equiv_pos_site_id
 _symmetry_equiv_pos_as_xyz
  1  'x, y, z'
loop_
 _atom_site_type_symbol
 _atom_site_label
 _atom_site_symmetry_multiplicity
 _atom_site_fract_x
 _atom_site_fract_y
 _atom_site_fract_z
 _atom_site_occupancy
  Ni  Ni0  1  0.60272300  0.60272300  0.60272300  1
  Ni  Ni1  1  0.20137000  0.20137000  0.20137000  1
  Ni  Ni2  1  0.79863000  0.79863000  0.79863000  1
  Ni  Ni3  1  0.39727700  0.39727700  0.39727700  1
  Cu  Cu4  1  0.00000000  0.00000000  0.00000000  1
