# generated using pymatgen
data_CuNiC8
_symmetry_space_group_name_H-M   'P 1'
_cell_length_a   5.93966121
_cell_length_b   5.93966121
_cell_length_c   8.37539326
_cell_angle_alpha   90.00000000
_cell_angle_beta   90.00000000
_cell_angle_gamma   90.00000000
_symmetry_Int_Tables_number   1
_chemical_formula_structural   CuNiC8
_chemical_formula_sum   'Cu2 Ni2 C16'
_cell_volume   295.48031710
_cell_formula_units_Z   2
loop_
 _symmetry_equiv_pos_site_id
 _symmetry_equiv_pos_as_xyz
  1  'x, y, z'
loop_
 _atom_site_type_symbol
 _atom_site_label
 _atom_site_symmetry_multiplicity
 _atom_site_fract_x
 _atom_site_fract_y
 _atom_site_fract_z
 _atom_site_occupancy
  Ni  Ni0  1  0.00000000  -0.00000000  0.25000000  1
  Ni  Ni1  1  0.00000000  0.00000000  0.75000000  1
  Cu  Cu2  1  0.50000000  -0.00000000  -0.00000000  1
  Cu  Cu3  1  0.00000000  0.50000000  0.50000000  1
  C  C4  1  0.50000000  0.50000000  0.75000000  1
  C  C5  1  0.50000000  0.50000000  0.25000000  1
  C  C6  1  0.50000000  -0.00000000  0.50000000  1
  C  C7  1  0.00000000  0.50000000  -0.00000000  1
  C  C8  1  0.23922503  0.72641735  -0.00000000  1
  C  C9  1  0.76077497  0.27358265  -0.00000000  1
  C  C10  1  0.27358265  0.76077497  0.50000000  1
  C  C11  1  0.72641735  0.23922503  0.50000000  1
  C  C12  1  0.76077497  0.72641735  -0.00000000  1
  C  C13  1  0.72641735  0.76077497  0.50000000  1
  C  C14  1  0.23922503  0.27358265  -0.00000000  1
  C  C15  1  0.27358265  0.23922503  0.50000000  1
  C  C16  1  0.50000000  0.00000000  0.73245154  1
  C  C17  1  0.00000000  0.50000000  0.76754846  1
  C  C18  1  0.50000000  0.00000000  0.26754846  1
  C  C19  1  0.00000000  0.50000000  0.23245154  1
