# generated using pymatgen
data_CuNi
_symmetry_space_group_name_H-M   'P 1'
_cell_length_a   3.09206746
_cell_length_b   3.09206746
_cell_length_c   43.05838988
_cell_angle_alpha   87.94232246
_cell_angle_beta   87.94232246
_cell_angle_gamma   60.00000134
_symmetry_Int_Tables_number   1
_chemical_formula_structural   CuNi
_chemical_formula_sum   'Cu17 Ni17'
_cell_volume   356.21545538
_cell_formula_units_Z   17
loop_
 _symmetry_equiv_pos_site_id
 _symmetry_equiv_pos_as_xyz
  1  'x, y, z'
loop_
 _atom_site_type_symbol
 _atom_site_label
 _atom_site_symmetry_multiplicity
 _atom_site_fract_x
 _atom_site_fract_y
 _atom_site_fract_z
 _atom_site_occupancy
  Ni  Ni0  1  0.99992333  0.99992333  0.00023001  1
  Ni  Ni1  1  0.94104927  0.94104927  0.17685218  1
  Ni  Ni2  1  0.86277489  0.86277489  0.41167532  1
  Ni  Ni3  1  0.78435935  0.78435935  0.64692195  1
  Ni  Ni4  1  0.70577532  0.70577532  0.88267405  1
  Ni  Ni5  1  0.62738289  0.62738289  0.11785132  1
  Ni  Ni6  1  0.58816597  0.58816597  0.23550208  1
  Ni  Ni7  1  0.54907179  0.54907179  0.35278463  1
  Ni  Ni8  1  0.50985600  0.50985600  0.47043199  1
  Ni  Ni9  1  0.47066129  0.47066129  0.58801614  1
  Ni  Ni10  1  0.43138498  0.43138498  0.70584506  1
  Ni  Ni11  1  0.39207786  0.39207786  0.82376643  1
  Ni  Ni12  1  0.35285621  0.35285621  0.94143137  1
  Ni  Ni13  1  0.31365745  0.31365745  0.05902765  1
  Ni  Ni14  1  0.23534018  0.23534018  0.29397947  1
  Ni  Ni15  1  0.15692275  0.15692275  0.52923175  1
  Ni  Ni16  1  0.07840761  0.07840761  0.76477717  1
  Cu  Cu17  1  0.98518825  0.98518825  0.04443524  1
  Cu  Cu18  1  0.92629648  0.92629648  0.22111056  1
  Cu  Cu19  1  0.84804858  0.84804858  0.45585425  1
  Cu  Cu20  1  0.76957777  0.76957777  0.69126670  1
  Cu  Cu21  1  0.69104907  0.69104907  0.92685278  1
  Cu  Cu22  1  0.61264304  0.61264304  0.16207087  1
  Cu  Cu23  1  0.57352756  0.57352756  0.27941731  1
  Cu  Cu24  1  0.53435223  0.53435223  0.39694331  1
  Cu  Cu25  1  0.49516931  0.49516931  0.51449206  1
  Cu  Cu26  1  0.45594706  0.45594706  0.63215882  1
  Cu  Cu27  1  0.41665052  0.41665052  0.75004844  1
  Cu  Cu28  1  0.37735205  0.37735205  0.86794384  1
  Cu  Cu29  1  0.33816884  0.33816884  0.98549349  1
  Cu  Cu30  1  0.29894025  0.29894025  0.10317925  1
  Cu  Cu31  1  0.22060917  0.22060917  0.33817248  1
  Cu  Cu32  1  0.14219009  0.14219009  0.57342972  1
  Cu  Cu33  1  0.06362256  0.06362256  0.80913232  1
