# generated using pymatgen
data_Cu4Ni4C33
_symmetry_space_group_name_H-M   'P 1'
_cell_length_a   9.36880400
_cell_length_b   13.10273000
_cell_length_c   16.16203654
_cell_angle_alpha   87.96984793
_cell_angle_beta   90.00000000
_cell_angle_gamma   90.00000000
_symmetry_Int_Tables_number   1
_chemical_formula_structural   Cu4Ni4C33
_chemical_formula_sum   'Cu16 Ni16 C132'
_cell_volume   1982.75634022
_cell_formula_units_Z   4
loop_
 _symmetry_equiv_pos_site_id
 _symmetry_equiv_pos_as_xyz
  1  'x, y, z'
loop_
 _atom_site_type_symbol
 _atom_site_label
 _atom_site_symmetry_multiplicity
 _atom_site_fract_x
 _atom_site_fract_y
 _atom_site_fract_z
 _atom_site_occupancy
  C  C0  1  0.53801300  0.74570800  0.54683200  1
  C  C1  1  0.03801300  0.25429200  0.95316800  1
  C  C2  1  0.46198700  0.25429200  0.45316800  1
  C  C3  1  0.96198700  0.74570800  0.04683200  1
  C  C4  1  0.16654600  0.71892300  0.72335600  1
  C  C5  1  0.66654600  0.28107700  0.77664400  1
  C  C6  1  0.83345400  0.28107700  0.27664400  1
  C  C7  1  0.33345400  0.71892300  0.22335600  1
  C  C8  1  0.33041000  0.78242600  0.73277500  1
  C  C9  1  0.83041000  0.21757400  0.76722500  1
  C  C10  1  0.66959000  0.21757400  0.26722500  1
  C  C11  1  0.16959000  0.78242600  0.23277500  1
  C  C12  1  0.15530000  0.55033500  0.68721500  1
  C  C13  1  0.65530000  0.44966500  0.81278500  1
  C  C14  1  0.84470000  0.44966500  0.31278500  1
  C  C15  1  0.34470000  0.55033500  0.18721500  1
  C  C16  1  0.31480700  0.48816400  0.65989800  1
  C  C17  1  0.81480700  0.51183600  0.84010200  1
  C  C18  1  0.68519300  0.51183600  0.34010200  1
  C  C19  1  0.18519300  0.48816400  0.15989800  1
  C  C20  1  0.47966900  0.88410300  0.28802400  1
  C  C21  1  0.97966900  0.11589700  0.21197600  1
  C  C22  1  0.52033100  0.11589700  0.71197600  1
  C  C23  1  0.02033100  0.88410300  0.78802400  1
  C  C24  1  0.42014200  0.81191400  0.37682500  1
  C  C25  1  0.92014200  0.18808600  0.12317500  1
  C  C26  1  0.57985800  0.18808600  0.62317500  1
  C  C27  1  0.07985800  0.81191400  0.87682500  1
  C  C28  1  0.69955600  0.84962600  0.22979000  1
  C  C29  1  0.19955600  0.15037400  0.27021000  1
  C  C30  1  0.30044400  0.15037400  0.77021000  1
  C  C31  1  0.80044400  0.84962600  0.72979000  1
  C  C32  1  0.81764600  0.76751700  0.28230100  1
  C  C33  1  0.31764600  0.23248300  0.21769900  1
  C  C34  1  0.18235400  0.23248300  0.71769900  1
  C  C35  1  0.68235400  0.76751700  0.78230100  1
  C  C36  1  0.80495600  0.99650300  0.38738400  1
  C  C37  1  0.30495600  0.00349700  0.11261600  1
  C  C38  1  0.19504400  0.00349700  0.61261600  1
  C  C39  1  0.69504400  0.99650300  0.88738400  1
  C  C40  1  0.63126400  0.00979700  0.42726000  1
  C  C41  1  0.13126400  0.99020300  0.07274000  1
  C  C42  1  0.36873600  0.99020300  0.57274000  1
  C  C43  1  0.86873600  0.00979700  0.92726000  1
  C  C44  1  0.96566600  0.89370200  0.46108600  1
  C  C45  1  0.46566600  0.10629800  0.03891400  1
  C  C46  1  0.03433400  0.10629800  0.53891400  1
  C  C47  1  0.53433400  0.89370200  0.96108600  1
  C  C48  1  0.92377200  0.84801500  0.56259800  1
  C  C49  1  0.42377200  0.15198500  0.93740200  1
  C  C50  1  0.07622800  0.15198500  0.43740200  1
  C  C51  1  0.57622800  0.84801500  0.06259800  1
  C  C52  1  0.05725200  0.56493400  0.41179700  1
  C  C53  1  0.55725200  0.43506600  0.08820300  1
  C  C54  1  0.94274800  0.43506600  0.58820300  1
  C  C55  1  0.44274800  0.56493400  0.91179700  1
  C  C56  1  0.01268100  0.67747500  0.46153900  1
  C  C57  1  0.51268100  0.32252500  0.03846100  1
  C  C58  1  0.98731900  0.32252500  0.53846100  1
  C  C59  1  0.48731900  0.67747500  0.96153900  1
  C  C60  1  0.28850800  0.51046700  0.40919000  1
  C  C61  1  0.78850800  0.48953300  0.09081000  1
  C  C62  1  0.71149200  0.48953300  0.59081000  1
  C  C63  1  0.21149200  0.51046700  0.90919000  1
  C  C64  1  0.42713300  0.59832300  0.42666500  1
  C  C65  1  0.92713300  0.40167700  0.07333500  1
  C  C66  1  0.57286700  0.40167700  0.57333500  1
  C  C67  1  0.07286700  0.59832300  0.92666500  1
  Ni  Ni68  1  0.34105900  0.63424300  0.69553700  1
  Ni  Ni69  1  0.84105900  0.36575700  0.80446300  1
  Ni  Ni70  1  0.65894100  0.36575700  0.30446300  1
  Ni  Ni71  1  0.15894100  0.63424300  0.19553700  1
  Ni  Ni72  1  0.62138900  0.77890700  0.33640800  1
  Ni  Ni73  1  0.12138900  0.22109300  0.16359200  1
  Ni  Ni74  1  0.37861100  0.22109300  0.66359200  1
  Ni  Ni75  1  0.87861100  0.77890700  0.83640800  1
  Ni  Ni76  1  0.76829200  0.93170500  0.50381800  1
  Ni  Ni77  1  0.26829200  0.06829500  0.99618200  1
  Ni  Ni78  1  0.23170800  0.06829500  0.49618200  1
  Ni  Ni79  1  0.73170800  0.93170500  0.00381800  1
  Ni  Ni80  1  0.22629600  0.64862300  0.45352600  1
  Ni  Ni81  1  0.72629600  0.35137700  0.04647400  1
  Ni  Ni82  1  0.77370400  0.35137700  0.54647400  1
  Ni  Ni83  1  0.27370400  0.64862300  0.95352600  1
  Cu  Cu84  1  0.52496700  0.63334100  0.67891200  1
  Cu  Cu85  1  0.02496700  0.36665900  0.82108800  1
  Cu  Cu86  1  0.47503300  0.36665900  0.32108800  1
  Cu  Cu87  1  0.97503300  0.63334100  0.17891200  1
  Cu  Cu88  1  0.66497400  0.68709200  0.41254300  1
  Cu  Cu89  1  0.16497400  0.31290800  0.08745700  1
  Cu  Cu90  1  0.33502600  0.31290800  0.58745700  1
  Cu  Cu91  1  0.83502600  0.68709200  0.91254300  1
  Cu  Cu92  1  0.64510200  0.91841300  0.58454200  1
  Cu  Cu93  1  0.14510200  0.08158700  0.91545800  1
  Cu  Cu94  1  0.35489800  0.08158700  0.41545800  1
  Cu  Cu95  1  0.85489800  0.91841300  0.08454200  1
  Cu  Cu96  1  0.27286500  0.76470500  0.49305300  1
  Cu  Cu97  1  0.77286500  0.23529500  0.00694700  1
  Cu  Cu98  1  0.72713500  0.23529500  0.50694700  1
  Cu  Cu99  1  0.22713500  0.76470500  0.99305300  1
  C  C100  1  0.27564800  0.71591500  0.72408500  1
  C  C101  1  0.77564800  0.28408500  0.77591500  1
  C  C102  1  0.72435200  0.28408500  0.27591500  1
  C  C103  1  0.22435200  0.71591500  0.22408500  1
  C  C104  1  0.26504400  0.55109300  0.68097100  1
  C  C105  1  0.76504400  0.44890700  0.81902900  1
  C  C106  1  0.73495600  0.44890700  0.31902900  1
  C  C107  1  0.23495600  0.55109300  0.18097100  1
  C  C108  1  0.49549200  0.82579600  0.33187200  1
  C  C109  1  0.99549200  0.17420400  0.16812800  1
  C  C110  1  0.50450800  0.17420400  0.66812800  1
  C  C111  1  0.00450800  0.82579600  0.83187200  1
  C  C112  1  0.72044500  0.80190100  0.27946700  1
  C  C113  1  0.22044500  0.19809900  0.22053300  1
  C  C114  1  0.27955500  0.19809900  0.72053300  1
  C  C115  1  0.77955500  0.80190100  0.77946700  1
  C  C116  1  0.73316900  0.98451800  0.43473000  1
  C  C117  1  0.23316900  0.01548200  0.06527000  1
  C  C118  1  0.26683100  0.01548200  0.56527000  1
  C  C119  1  0.76683100  0.98451800  0.93473000  1
  C  C120  1  0.89866800  0.89273300  0.51155300  1
  C  C121  1  0.39866800  0.10726700  0.98844700  1
  C  C122  1  0.10133200  0.10726700  0.48844700  1
  C  C123  1  0.60133200  0.89273300  0.01155300  1
  C  C124  1  0.08761500  0.62577900  0.44592800  1
  C  C125  1  0.58761500  0.37422100  0.05407200  1
  C  C126  1  0.91238500  0.37422100  0.55407200  1
  C  C127  1  0.41238500  0.62577900  0.94592800  1
  C  C128  1  0.32142700  0.57983200  0.42957300  1
  C  C129  1  0.82142700  0.42016800  0.07042700  1
  C  C130  1  0.67857300  0.42016800  0.57042700  1
  C  C131  1  0.17857300  0.57983200  0.92957300  1
  C  C132  1  0.91749700  0.63708600  0.63075600  1
  C  C133  1  0.41749700  0.36291400  0.86924400  1
  C  C134  1  0.08250300  0.36291400  0.36924400  1
  C  C135  1  0.58250300  0.63708600  0.13075600  1
  C  C136  1  0.45979600  0.94087200  0.79403400  1
  C  C137  1  0.95979600  0.05912800  0.70596600  1
  C  C138  1  0.54020400  0.05912800  0.20596600  1
  C  C139  1  0.04020400  0.94087200  0.29403400  1
  C  C140  1  0.81124200  0.63238900  0.58254100  1
  C  C141  1  0.31124200  0.36761100  0.91745900  1
  C  C142  1  0.18875800  0.36761100  0.41745900  1
  C  C143  1  0.68875800  0.63238900  0.08254100  1
  C  C144  1  0.97757800  0.72135700  0.64376600  1
  C  C145  1  0.47757800  0.27864300  0.85623400  1
  C  C146  1  0.02242200  0.27864300  0.35623400  1
  C  C147  1  0.52242200  0.72135700  0.14376600  1
  C  C148  1  0.96413500  0.55464700  0.66597200  1
  C  C149  1  0.46413500  0.44535300  0.83402800  1
  C  C150  1  0.03586500  0.44535300  0.33402800  1
  C  C151  1  0.53586500  0.55464700  0.16597200  1
  C  C152  1  0.52358500  0.02565600  0.80566900  1
  C  C153  1  0.02358500  0.97434400  0.69433100  1
  C  C154  1  0.47641500  0.97434400  0.19433100  1
  C  C155  1  0.97641500  0.02565600  0.30566900  1
  C  C156  1  0.38625200  0.92997000  0.72925500  1
  C  C157  1  0.88625200  0.07003000  0.77074500  1
  C  C158  1  0.61374800  0.07003000  0.27074500  1
  C  C159  1  0.11374800  0.92997000  0.22925500  1
  C  C160  1  0.47121200  0.86826600  0.84728900  1
  C  C161  1  0.97121200  0.13173400  0.65271100  1
  C  C162  1  0.52878800  0.13173400  0.15271100  1
  C  C163  1  0.02878800  0.86826600  0.34728900  1
