# generated using pymatgen
data_CuNiC8
_symmetry_space_group_name_H-M   'P 1'
_cell_length_a   7.95252560
_cell_length_b   8.18268836
_cell_length_c   8.22428847
_cell_angle_alpha   90.00000000
_cell_angle_beta   90.00000000
_cell_angle_gamma   90.00000000
_symmetry_Int_Tables_number   1
_chemical_formula_structural   CuNiC8
_chemical_formula_sum   'Cu4 Ni4 C32'
_cell_volume   535.17944156
_cell_formula_units_Z   4
loop_
 _symmetry_equiv_pos_site_id
 _symmetry_equiv_pos_as_xyz
  1  'x, y, z'
loop_
 _atom_site_type_symbol
 _atom_site_label
 _atom_site_symmetry_multiplicity
 _atom_site_fract_x
 _atom_site_fract_y
 _atom_site_fract_z
 _atom_site_occupancy
  C  C0  1  0.00000000  0.00000000  0.00000000  1
  C  C1  1  0.50000000  0.50000000  0.50000000  1
  C  C2  1  0.00000000  0.50000000  0.50000000  1
  C  C3  1  0.00000000  0.00000000  0.50000000  1
  Ni  Ni4  1  0.74876867  0.74920137  0.75247928  1
  Ni  Ni5  1  0.25123133  0.25079863  0.75247928  1
  Ni  Ni6  1  0.25123133  0.74920137  0.24752072  1
  Ni  Ni7  1  0.74876867  0.25079863  0.24752072  1
  Cu  Cu8  1  0.25173841  0.24928303  0.24956196  1
  Cu  Cu9  1  0.74826159  0.75071697  0.24956196  1
  Cu  Cu10  1  0.74826159  0.24928303  0.75043804  1
  Cu  Cu11  1  0.25173841  0.75071697  0.75043804  1
  C  C12  1  0.50000000  0.00000000  0.50000000  1
  C  C13  1  0.50000000  0.50000000  0.00000000  1
  C  C14  1  0.50000000  0.00000000  0.00000000  1
  C  C15  1  0.00000000  0.50000000  0.00000000  1
  C  C16  1  0.00206622  0.21320619  0.28409303  1
  C  C17  1  0.99793378  0.78679381  0.28409303  1
  C  C18  1  0.99793378  0.21320619  0.71590697  1
  C  C19  1  0.00206622  0.78679381  0.71590697  1
  C  C20  1  0.27471809  0.00571660  0.21501994  1
  C  C21  1  0.27471809  0.99428340  0.78498006  1
  C  C22  1  0.72528191  0.99428340  0.21501994  1
  C  C23  1  0.72528191  0.00571660  0.78498006  1
  C  C24  1  0.21270512  0.27697242  0.00369081  1
  C  C25  1  0.78729488  0.27697242  0.99630919  1
  C  C26  1  0.21270512  0.72302758  0.99630919  1
  C  C27  1  0.78729488  0.72302758  0.00369081  1
  C  C28  1  0.49386286  0.28695209  0.22372135  1
  C  C29  1  0.50613714  0.71304791  0.22372135  1
  C  C30  1  0.50613714  0.28695209  0.77627865  1
  C  C31  1  0.49386286  0.71304791  0.77627865  1
  C  C32  1  0.21925257  0.49645696  0.29101456  1
  C  C33  1  0.21925257  0.50354304  0.70898544  1
  C  C34  1  0.78074743  0.50354304  0.29101456  1
  C  C35  1  0.78074743  0.49645696  0.70898544  1
  C  C36  1  0.28121492  0.22187503  0.49773045  1
  C  C37  1  0.71878508  0.22187503  0.50226955  1
  C  C38  1  0.28121492  0.77812497  0.50226955  1
  C  C39  1  0.71878508  0.77812497  0.49773045  1
