# generated using pymatgen
data_Cu3Ni2C11
_symmetry_space_group_name_H-M   'P 1'
_cell_length_a   11.45046435
_cell_length_b   11.45046435
_cell_length_c   11.45046435
_cell_angle_alpha   114.67610153
_cell_angle_beta   114.67610153
_cell_angle_gamma   99.49861794
_symmetry_Int_Tables_number   1
_chemical_formula_structural   Cu3Ni2C11
_chemical_formula_sum   'Cu12 Ni8 C44'
_cell_volume   1130.12412786
_cell_formula_units_Z   4
loop_
 _symmetry_equiv_pos_site_id
 _symmetry_equiv_pos_as_xyz
  1  'x, y, z'
loop_
 _atom_site_type_symbol
 _atom_site_label
 _atom_site_symmetry_multiplicity
 _atom_site_fract_x
 _atom_site_fract_y
 _atom_site_fract_z
 _atom_site_occupancy
  C  C0  1  0.82784500  0.17215500  0.00000000  1
  C  C1  1  0.17215500  0.82784500  0.00000000  1
  C  C2  1  0.92215500  0.42215500  0.84430900  1
  C  C3  1  0.57784500  0.07784500  0.15569100  1
  C  C4  1  0.82784500  0.82784500  0.65569100  1
  C  C5  1  0.57784500  0.42215500  0.50000000  1
  C  C6  1  0.92215500  0.07784500  0.50000000  1
  C  C7  1  0.17215500  0.17215500  0.34430900  1
  C  C8  1  0.20930600  0.94927800  0.73997300  1
  C  C9  1  0.20930600  0.46933300  0.26002700  1
  C  C10  1  0.05072200  0.79069400  0.26002700  1
  C  C11  1  0.21933300  0.45930600  0.76002700  1
  C  C12  1  0.69927800  0.45930600  0.23997300  1
  C  C13  1  0.54069400  0.78066700  0.23997300  1
  C  C14  1  0.54069400  0.30072200  0.76002700  1
  C  C15  1  0.53066700  0.79069400  0.73997300  1
  Ni  Ni16  1  0.96926800  0.34592000  0.37665200  1
  Ni  Ni17  1  0.96926800  0.59261500  0.62334800  1
  Ni  Ni18  1  0.65408000  0.03073200  0.62334800  1
  Ni  Ni19  1  0.34261500  0.21926800  0.12334800  1
  Ni  Ni20  1  0.09592000  0.21926800  0.87665200  1
  Ni  Ni21  1  0.78073200  0.65738500  0.87665200  1
  Ni  Ni22  1  0.78073200  0.90408000  0.12334800  1
  Ni  Ni23  1  0.40738500  0.03073200  0.37665200  1
  Cu  Cu24  1  0.87500000  0.47840900  0.10340900  1
  Cu  Cu25  1  0.22840900  0.62500000  0.10340900  1
  Cu  Cu26  1  0.52159100  0.12500000  0.89659100  1
  Cu  Cu27  1  0.37500000  0.77159100  0.89659100  1
  Cu  Cu28  1  0.87500000  0.77159100  0.39659100  1
  Cu  Cu29  1  0.52159100  0.62500000  0.39659100  1
  Cu  Cu30  1  0.22840900  0.12500000  0.60340900  1
  Cu  Cu31  1  0.37500000  0.47840900  0.60340900  1
  Cu  Cu32  1  0.25000000  0.75000000  0.50000000  1
  Cu  Cu33  1  0.50000000  0.50000000  0.00000000  1
  Cu  Cu34  1  0.75000000  0.25000000  0.50000000  1
  Cu  Cu35  1  0.00000000  0.00000000  0.00000000  1
  C  C36  1  0.04505600  0.32177200  0.27671600  1
  C  C37  1  0.04505600  0.76833900  0.72328400  1
  C  C38  1  0.67822800  0.95494400  0.72328400  1
  C  C39  1  0.51833900  0.29505600  0.22328400  1
  C  C40  1  0.07177200  0.29505600  0.77671600  1
  C  C41  1  0.70494400  0.48166100  0.77671600  1
  C  C42  1  0.70494400  0.92822800  0.22328400  1
  C  C43  1  0.23166100  0.95494400  0.27671600  1
  C  C44  1  0.26383700  0.26383700  0.00000000  1
  C  C45  1  0.01383700  0.51383700  0.50000000  1
  C  C46  1  0.48616300  0.98616300  0.50000000  1
  C  C47  1  0.73616300  0.73616300  0.00000000  1
  C  C48  1  0.71657500  0.97313200  0.02367900  1
  C  C49  1  0.94945300  0.69289500  0.97632100  1
  C  C50  1  0.02686800  0.28342500  0.97632100  1
  C  C51  1  0.44289500  0.96657500  0.24344200  1
  C  C52  1  0.44289500  0.19945300  0.47632100  1
  C  C53  1  0.30710500  0.05054700  0.02367900  1
  C  C54  1  0.71657500  0.69289500  0.74344200  1
  C  C55  1  0.02686800  0.05054700  0.74344200  1
  C  C56  1  0.30710500  0.28342500  0.25655800  1
  C  C57  1  0.72313200  0.96657500  0.52367900  1
  C  C58  1  0.80054700  0.55710500  0.52367900  1
  C  C59  1  0.03342500  0.27686800  0.47632100  1
  C  C60  1  0.72313200  0.19945300  0.75655800  1
  C  C61  1  0.03342500  0.55710500  0.75655800  1
  C  C62  1  0.80054700  0.27686800  0.24344200  1
  C  C63  1  0.94945300  0.97313200  0.25655800  1
