# generated using pymatgen
data_Cu5Ni4C27
_symmetry_space_group_name_H-M   'P 1'
_cell_length_a   11.08670981
_cell_length_b   11.08670981
_cell_length_c   11.08670981
_cell_angle_alpha   101.23772816
_cell_angle_beta   101.23772816
_cell_angle_gamma   127.60682253
_symmetry_Int_Tables_number   1
_chemical_formula_structural   Cu5Ni4C27
_chemical_formula_sum   'Cu5 Ni4 C27'
_cell_volume   968.68467700
_cell_formula_units_Z   1
loop_
 _symmetry_equiv_pos_site_id
 _symmetry_equiv_pos_as_xyz
  1  'x, y, z'
loop_
 _atom_site_type_symbol
 _atom_site_label
 _atom_site_symmetry_multiplicity
 _atom_site_fract_x
 _atom_site_fract_y
 _atom_site_fract_z
 _atom_site_occupancy
  C  C0  1  0.26004100  0.73995900  0.00000000  1
  C  C1  1  0.73995900  0.26004100  0.00000000  1
  C  C2  1  0.26004100  0.26004100  0.52008300  1
  C  C3  1  0.73995900  0.73995900  0.47991700  1
  C  C4  1  0.00000000  0.00000000  0.00000000  1
  Ni  Ni5  1  0.49832400  0.36208300  0.13624100  1
  Ni  Ni6  1  0.22584300  0.36208300  0.86375900  1
  Ni  Ni7  1  0.63791700  0.77415700  0.13624100  1
  Ni  Ni8  1  0.63791700  0.50167600  0.86375900  1
  Cu  Cu9  1  0.25000000  0.75000000  0.50000000  1
  Cu  Cu10  1  0.94383900  0.72102000  0.22281900  1
  Cu  Cu11  1  0.49820100  0.72102000  0.77718100  1
  Cu  Cu12  1  0.27898000  0.50179900  0.22281900  1
  Cu  Cu13  1  0.27898000  0.05616100  0.77718100  1
  C  C14  1  0.62941200  0.18854300  0.44086900  1
  C  C15  1  0.74767300  0.18854300  0.55913100  1
  C  C16  1  0.81145700  0.25232700  0.44086900  1
  C  C17  1  0.81145700  0.37058800  0.55913100  1
  C  C18  1  0.24644600  0.88995800  0.35648800  1
  C  C19  1  0.53347000  0.88995800  0.64351200  1
  C  C20  1  0.11004200  0.46653000  0.35648800  1
  C  C21  1  0.11004200  0.75355400  0.64351200  1
  C  C22  1  0.76820700  0.48954500  0.27866200  1
  C  C23  1  0.21088400  0.48954500  0.72133800  1
  C  C24  1  0.51045500  0.78911600  0.27866200  1
  C  C25  1  0.51045500  0.23179300  0.72133800  1
  C  C26  1  0.50000000  0.50000000  0.00000000  1
  C  C27  1  0.91467100  0.63774800  0.99442200  1
  C  C28  1  0.64332600  0.92024900  0.00557800  1
  C  C29  1  0.36225200  0.35667400  0.27692300  1
  C  C30  1  0.91467100  0.92024900  0.27692300  1
  C  C31  1  0.07975100  0.08532900  0.72307700  1
  C  C32  1  0.64332600  0.63774800  0.72307700  1
  C  C33  1  0.36225200  0.08532900  0.00557800  1
  C  C34  1  0.07975100  0.35667400  0.99442200  1
  C  C35  1  0.75000000  0.25000000  0.50000000  1
