# generated using pymatgen
data_Cu15Ni2C7
_symmetry_space_group_name_H-M   'P 1'
_cell_length_a   7.44781300
_cell_length_b   15.23596200
_cell_length_c   17.76730299
_cell_angle_alpha   55.57856389
_cell_angle_beta   90.00000000
_cell_angle_gamma   90.00000000
_symmetry_Int_Tables_number   1
_chemical_formula_structural   Cu15Ni2C7
_chemical_formula_sum   'Cu60 Ni8 C28'
_cell_volume   1663.11601705
_cell_formula_units_Z   4
loop_
 _symmetry_equiv_pos_site_id
 _symmetry_equiv_pos_as_xyz
  1  'x, y, z'
loop_
 _atom_site_type_symbol
 _atom_site_label
 _atom_site_symmetry_multiplicity
 _atom_site_fract_x
 _atom_site_fract_y
 _atom_site_fract_z
 _atom_site_occupancy
  C  C0  1  0.86221000  0.37244400  0.00902800  1
  C  C1  1  0.63779000  0.37244400  0.50902800  1
  C  C2  1  0.13779000  0.62755600  0.99097200  1
  C  C3  1  0.36221000  0.62755600  0.49097200  1
  C  C4  1  0.47996100  0.85516100  0.92499800  1
  C  C5  1  0.02003900  0.85516100  0.42499800  1
  C  C6  1  0.52003900  0.14483900  0.07500200  1
  C  C7  1  0.97996100  0.14483900  0.57500200  1
  C  C8  1  0.49369000  0.00018800  0.35400600  1
  C  C9  1  0.00631000  0.00018800  0.85400600  1
  C  C10  1  0.50631000  0.99981200  0.64599400  1
  C  C11  1  0.99369000  0.99981200  0.14599400  1
  C  C12  1  0.41547600  0.62330900  0.20577200  1
  C  C13  1  0.08452400  0.62330900  0.70577200  1
  C  C14  1  0.58452400  0.37669100  0.79422800  1
  C  C15  1  0.91547600  0.37669100  0.29422800  1
  C  C16  1  0.33402700  0.32961900  0.19542500  1
  C  C17  1  0.16597300  0.32961900  0.69542500  1
  C  C18  1  0.66597300  0.67038100  0.80457500  1
  C  C19  1  0.83402700  0.67038100  0.30457500  1
  Ni  Ni20  1  0.35204800  0.21331300  0.41868200  1
  Ni  Ni21  1  0.14795200  0.21331300  0.91868200  1
  Ni  Ni22  1  0.64795200  0.78668700  0.58131800  1
  Ni  Ni23  1  0.85204800  0.78668700  0.08131800  1
  Ni  Ni24  1  0.54123500  0.26398000  0.38449700  1
  Ni  Ni25  1  0.95876500  0.26398000  0.88449700  1
  Ni  Ni26  1  0.45876500  0.73602000  0.61550300  1
  Ni  Ni27  1  0.04123500  0.73602000  0.11550300  1
  C  C28  1  0.94547000  0.14425400  0.24647400  1
  C  C29  1  0.55453000  0.14425400  0.74647400  1
  C  C30  1  0.05453000  0.85574600  0.75352600  1
  C  C31  1  0.44547000  0.85574600  0.25352600  1
  C  C32  1  0.66561700  0.55514700  0.05856900  1
  C  C33  1  0.83438300  0.55514700  0.55856900  1
  C  C34  1  0.33438300  0.44485300  0.94143100  1
  C  C35  1  0.16561700  0.44485300  0.44143100  1
  Cu  Cu36  1  0.42804100  0.21408000  0.20375300  1
  Cu  Cu37  1  0.07195900  0.21408000  0.70375300  1
  Cu  Cu38  1  0.57195900  0.78592000  0.79624700  1
  Cu  Cu39  1  0.92804100  0.78592000  0.29624700  1
  Cu  Cu40  1  0.23770500  0.44680000  0.18445000  1
  Cu  Cu41  1  0.26229500  0.44680000  0.68445000  1
  Cu  Cu42  1  0.76229500  0.55320000  0.81555000  1
  Cu  Cu43  1  0.73770500  0.55320000  0.31555000  1
  Cu  Cu44  1  0.81180300  0.10732300  0.33470400  1
  Cu  Cu45  1  0.68819700  0.10732300  0.83470400  1
  Cu  Cu46  1  0.18819700  0.89267700  0.66529600  1
  Cu  Cu47  1  0.31180300  0.89267700  0.16529600  1
  Cu  Cu48  1  0.82986500  0.16418500  0.15765000  1
  Cu  Cu49  1  0.67013500  0.16418500  0.65765000  1
  Cu  Cu50  1  0.17013500  0.83581500  0.84235000  1
  Cu  Cu51  1  0.32986500  0.83581500  0.34235000  1
  Cu  Cu52  1  0.04037200  0.26603900  0.20864000  1
  Cu  Cu53  1  0.45962800  0.26603900  0.70864000  1
  Cu  Cu54  1  0.95962800  0.73396100  0.79136000  1
  Cu  Cu55  1  0.54037200  0.73396100  0.29136000  1
  Cu  Cu56  1  0.10543900  0.05400100  0.27375400  1
  Cu  Cu57  1  0.39456100  0.05400100  0.77375400  1
  Cu  Cu58  1  0.89456100  0.94599900  0.72624600  1
  Cu  Cu59  1  0.60543900  0.94599900  0.22624600  1
  Cu  Cu60  1  0.50008800  0.63728900  0.04079500  1
  Cu  Cu61  1  0.99991200  0.63728900  0.54079500  1
  Cu  Cu62  1  0.49991200  0.36271100  0.95920500  1
  Cu  Cu63  1  0.00008800  0.36271100  0.45920500  1
  Cu  Cu64  1  0.82553200  0.55146100  0.12470100  1
  Cu  Cu65  1  0.67446800  0.55146100  0.62470100  1
  Cu  Cu66  1  0.17446800  0.44853900  0.87529900  1
  Cu  Cu67  1  0.32553200  0.44853900  0.37529900  1
  Cu  Cu68  1  0.76821900  0.58937600  0.95979200  1
  Cu  Cu69  1  0.73178100  0.58937600  0.45979200  1
  Cu  Cu70  1  0.23178100  0.41062400  0.04020800  1
  Cu  Cu71  1  0.26821900  0.41062400  0.54020800  1
  Cu  Cu72  1  0.58599800  0.43031900  0.10326100  1
  Cu  Cu73  1  0.91400200  0.43031900  0.60326100  1
  Cu  Cu74  1  0.41400200  0.56968100  0.89673900  1
  Cu  Cu75  1  0.08599800  0.56968100  0.39673900  1
  Cu  Cu76  1  0.24883500  0.22933800  0.35347200  1
  Cu  Cu77  1  0.25116500  0.22933800  0.85347200  1
  Cu  Cu78  1  0.75116500  0.77066200  0.64652800  1
  Cu  Cu79  1  0.74883500  0.77066200  0.14652800  1
  Cu  Cu80  1  0.55691300  0.31965000  0.29678000  1
  Cu  Cu81  1  0.94308700  0.31965000  0.79678000  1
  Cu  Cu82  1  0.44308700  0.68035000  0.70322000  1
  Cu  Cu83  1  0.05691300  0.68035000  0.20322000  1
  Cu  Cu84  1  0.31264000  0.16398100  0.50083800  1
  Cu  Cu85  1  0.18736000  0.16398100  0.00083800  1
  Cu  Cu86  1  0.68736000  0.83601900  0.49916200  1
  Cu  Cu87  1  0.81264000  0.83601900  0.99916200  1
  Cu  Cu88  1  0.66203600  0.25082900  0.43876400  1
  Cu  Cu89  1  0.83796400  0.25082900  0.93876400  1
  Cu  Cu90  1  0.33796400  0.74917100  0.56123600  1
  Cu  Cu91  1  0.16203600  0.74917100  0.06123600  1
  Cu  Cu92  1  0.29501500  0.97302400  0.98308400  1
  Cu  Cu93  1  0.20498500  0.97302400  0.48308400  1
  Cu  Cu94  1  0.70498500  0.02697600  0.01691600  1
  Cu  Cu95  1  0.79501500  0.02697600  0.51691600  1
