# generated using pymatgen
data_Cu4NiC3
_symmetry_space_group_name_H-M   'P 1'
_cell_length_a   9.84282200
_cell_length_b   10.42731000
_cell_length_c   11.51458800
_cell_angle_alpha   90.00000000
_cell_angle_beta   90.00000000
_cell_angle_gamma   90.00000000
_symmetry_Int_Tables_number   1
_chemical_formula_structural   Cu4NiC3
_chemical_formula_sum   'Cu16 Ni4 C12'
_cell_volume   1181.79002416
_cell_formula_units_Z   4
loop_
 _symmetry_equiv_pos_site_id
 _symmetry_equiv_pos_as_xyz
  1  'x, y, z'
loop_
 _atom_site_type_symbol
 _atom_site_label
 _atom_site_symmetry_multiplicity
 _atom_site_fract_x
 _atom_site_fract_y
 _atom_site_fract_z
 _atom_site_occupancy
  C  C0  1  0.64847300  0.92109000  0.25000000  1
  C  C1  1  0.14847300  0.57891000  0.25000000  1
  C  C2  1  0.85152700  0.42109000  0.75000000  1
  C  C3  1  0.35152700  0.07891000  0.75000000  1
  C  C4  1  0.06185000  0.80574700  0.95564100  1
  C  C5  1  0.56185000  0.69425300  0.54435900  1
  C  C6  1  0.43815000  0.30574700  0.04435900  1
  C  C7  1  0.93815000  0.19425300  0.45564100  1
  C  C8  1  0.93815000  0.19425300  0.04435900  1
  C  C9  1  0.43815000  0.30574700  0.45564100  1
  C  C10  1  0.56185000  0.69425300  0.95564100  1
  C  C11  1  0.06185000  0.80574700  0.54435900  1
  Ni  Ni12  1  0.76636900  0.97671100  0.75000000  1
  Ni  Ni13  1  0.23363100  0.02328900  0.25000000  1
  Ni  Ni14  1  0.73363100  0.47671100  0.25000000  1
  Ni  Ni15  1  0.26636900  0.52328900  0.75000000  1
  Cu  Cu16  1  0.35704100  0.97292000  0.07928000  1
  Cu  Cu17  1  0.85704100  0.52708000  0.42072000  1
  Cu  Cu18  1  0.14295900  0.47292000  0.92072000  1
  Cu  Cu19  1  0.64295900  0.02708000  0.57928000  1
  Cu  Cu20  1  0.02400400  0.91034000  0.25000000  1
  Cu  Cu21  1  0.52400400  0.58966000  0.25000000  1
  Cu  Cu22  1  0.47599600  0.41034000  0.75000000  1
  Cu  Cu23  1  0.97599600  0.08966000  0.75000000  1
  Cu  Cu24  1  0.64295900  0.02708000  0.92072000  1
  Cu  Cu25  1  0.35704100  0.97292000  0.42072000  1
  Cu  Cu26  1  0.85704100  0.52708000  0.07928000  1
  Cu  Cu27  1  0.14295900  0.47292000  0.57928000  1
  Cu  Cu28  1  0.81335800  0.75528100  0.75000000  1
  Cu  Cu29  1  0.31335800  0.74471900  0.75000000  1
  Cu  Cu30  1  0.68664200  0.25528100  0.25000000  1
  Cu  Cu31  1  0.18664200  0.24471900  0.25000000  1
