# generated using pymatgen
data_Cu3(Ni7C)2
_symmetry_space_group_name_H-M   'P 1'
_cell_length_a   8.31822461
_cell_length_b   8.31822461
_cell_length_c   8.14719800
_cell_angle_alpha   90.00000000
_cell_angle_beta   90.00000000
_cell_angle_gamma   120.00000483
_symmetry_Int_Tables_number   1
_chemical_formula_structural   Cu3(Ni7C)2
_chemical_formula_sum   'Cu6 Ni28 C4'
_cell_volume   488.20268935
_cell_formula_units_Z   2
loop_
 _symmetry_equiv_pos_site_id
 _symmetry_equiv_pos_as_xyz
  1  'x, y, z'
loop_
 _atom_site_type_symbol
 _atom_site_label
 _atom_site_symmetry_multiplicity
 _atom_site_fract_x
 _atom_site_fract_y
 _atom_site_fract_z
 _atom_site_occupancy
  C  C0  1  0.00000000  0.00000000  0.25000000  1
  C  C1  1  0.00000000  0.00000000  0.75000000  1
  C  C2  1  0.33333300  0.66666700  0.75000000  1
  C  C3  1  0.66666700  0.33333300  0.25000000  1
  Ni  Ni4  1  0.33333300  0.66666700  0.38955800  1
  Ni  Ni5  1  0.66666700  0.33333300  0.61044200  1
  Ni  Ni6  1  0.66666700  0.33333300  0.88955800  1
  Ni  Ni7  1  0.33333300  0.66666700  0.11044200  1
  Ni  Ni8  1  0.32725900  0.37413800  0.25000000  1
  Ni  Ni9  1  0.62586200  0.95312100  0.25000000  1
  Ni  Ni10  1  0.04687900  0.67274100  0.25000000  1
  Ni  Ni11  1  0.62586200  0.67274100  0.25000000  1
  Ni  Ni12  1  0.04687900  0.37413800  0.25000000  1
  Ni  Ni13  1  0.32725900  0.95312100  0.25000000  1
  Ni  Ni14  1  0.67274100  0.62586200  0.75000000  1
  Ni  Ni15  1  0.37413800  0.04687900  0.75000000  1
  Ni  Ni16  1  0.95312100  0.32725900  0.75000000  1
  Ni  Ni17  1  0.37413800  0.32725900  0.75000000  1
  Ni  Ni18  1  0.95312100  0.62586200  0.75000000  1
  Ni  Ni19  1  0.67274100  0.04687900  0.75000000  1
  Ni  Ni20  1  0.16146700  0.83853300  0.51415400  1
  Ni  Ni21  1  0.16146700  0.32293400  0.51415400  1
  Ni  Ni22  1  0.67706600  0.83853300  0.51415400  1
  Ni  Ni23  1  0.83853300  0.16146700  0.48584600  1
  Ni  Ni24  1  0.83853300  0.67706600  0.48584600  1
  Ni  Ni25  1  0.32293400  0.16146700  0.48584600  1
  Ni  Ni26  1  0.83853300  0.16146700  0.01415400  1
  Ni  Ni27  1  0.83853300  0.67706600  0.01415400  1
  Ni  Ni28  1  0.32293400  0.16146700  0.01415400  1
  Ni  Ni29  1  0.16146700  0.83853300  0.98584600  1
  Ni  Ni30  1  0.16146700  0.32293400  0.98584600  1
  Ni  Ni31  1  0.67706600  0.83853300  0.98584600  1
  Cu  Cu32  1  0.50000000  0.50000000  0.50000000  1
  Cu  Cu33  1  0.50000000  0.00000000  0.50000000  1
  Cu  Cu34  1  0.00000000  0.50000000  0.50000000  1
  Cu  Cu35  1  0.50000000  0.50000000  0.00000000  1
  Cu  Cu36  1  0.50000000  0.00000000  0.00000000  1
  Cu  Cu37  1  0.00000000  0.50000000  0.00000000  1
