# generated using pymatgen
data_Cu(NiC2)3
_symmetry_space_group_name_H-M   'P 1'
_cell_length_a   7.85393600
_cell_length_b   12.73507200
_cell_length_c   13.27275837
_cell_angle_alpha   71.43193835
_cell_angle_beta   90.00000000
_cell_angle_gamma   90.00000000
_symmetry_Int_Tables_number   1
_chemical_formula_structural   Cu(NiC2)3
_chemical_formula_sum   'Cu4 Ni12 C24'
_cell_volume   1258.44307878
_cell_formula_units_Z   4
loop_
 _symmetry_equiv_pos_site_id
 _symmetry_equiv_pos_as_xyz
  1  'x, y, z'
loop_
 _atom_site_type_symbol
 _atom_site_label
 _atom_site_symmetry_multiplicity
 _atom_site_fract_x
 _atom_site_fract_y
 _atom_site_fract_z
 _atom_site_occupancy
  Ni  Ni0  1  0.43640500  0.73375500  0.31535300  1
  Ni  Ni1  1  0.56359500  0.26624500  0.68464700  1
  Ni  Ni2  1  0.93640500  0.76624500  0.68464700  1
  Ni  Ni3  1  0.06359500  0.23375500  0.31535300  1
  Ni  Ni4  1  0.96737400  0.64089500  0.09873700  1
  Ni  Ni5  1  0.03262600  0.35910500  0.90126300  1
  Ni  Ni6  1  0.46737400  0.85910500  0.90126300  1
  Ni  Ni7  1  0.53262600  0.14089500  0.09873700  1
  Ni  Ni8  1  0.93396700  0.88712900  0.32045300  1
  Ni  Ni9  1  0.06603300  0.11287100  0.67954700  1
  Ni  Ni10  1  0.43396700  0.61287100  0.67954700  1
  Ni  Ni11  1  0.56603300  0.38712900  0.32045300  1
  Cu  Cu12  1  0.00000000  0.50000000  0.50000000  1
  Cu  Cu13  1  0.50000000  0.00000000  0.50000000  1
  Cu  Cu14  1  0.00000000  0.00000000  0.00000000  1
  Cu  Cu15  1  0.50000000  0.50000000  0.00000000  1
  C  C16  1  0.49960800  0.63084400  0.11919800  1
  C  C17  1  0.50039200  0.36915600  0.88080200  1
  C  C18  1  0.99960800  0.86915600  0.88080200  1
  C  C19  1  0.00039200  0.13084400  0.11919800  1
  C  C20  1  0.28959400  0.99587700  0.34301300  1
  C  C21  1  0.71040600  0.00412300  0.65698700  1
  C  C22  1  0.78959400  0.50412300  0.65698700  1
  C  C23  1  0.21040600  0.49587700  0.34301300  1
  C  C24  1  0.78360700  0.60805100  0.34482600  1
  C  C25  1  0.21639300  0.39194900  0.65517400  1
  C  C26  1  0.28360700  0.89194900  0.65517400  1
  C  C27  1  0.71639300  0.10805100  0.34482600  1
  C  C28  1  0.64454000  0.80656000  0.49959900  1
  C  C29  1  0.35546000  0.19344000  0.50040100  1
  C  C30  1  0.14454000  0.69344000  0.50040100  1
  C  C31  1  0.85546000  0.30656000  0.49959900  1
  C  C32  1  0.17965000  0.84248200  0.14061100  1
  C  C33  1  0.82035000  0.15751800  0.85938900  1
  C  C34  1  0.67965000  0.65751800  0.85938900  1
  C  C35  1  0.32035000  0.34248200  0.14061100  1
  C  C36  1  0.71120900  0.90416100  0.10419700  1
  C  C37  1  0.28879100  0.09583900  0.89580300  1
  C  C38  1  0.21120900  0.59583900  0.89580300  1
  C  C39  1  0.78879100  0.40416100  0.10419700  1
