# generated using pymatgen
data_Cu19(Ni5C2)4
_symmetry_space_group_name_H-M   'P 1'
_cell_length_a   9.26001400
_cell_length_b   10.56599298
_cell_length_c   17.92532009
_cell_angle_alpha   104.09902883
_cell_angle_beta   92.39895228
_cell_angle_gamma   110.85919245
_symmetry_Int_Tables_number   1
_chemical_formula_structural   Cu19(Ni5C2)4
_chemical_formula_sum   'Cu38 Ni40 C16'
_cell_volume   1573.43464401
_cell_formula_units_Z   2
loop_
 _symmetry_equiv_pos_site_id
 _symmetry_equiv_pos_as_xyz
  1  'x, y, z'
loop_
 _atom_site_type_symbol
 _atom_site_label
 _atom_site_symmetry_multiplicity
 _atom_site_fract_x
 _atom_site_fract_y
 _atom_site_fract_z
 _atom_site_occupancy
  C  C0  1  0.21136100  0.25906200  0.39373000  1
  C  C1  1  0.74524600  0.52729800  0.75199200  1
  C  C2  1  0.49621400  0.63805900  0.66130000  1
  C  C3  1  0.44661100  0.71193500  0.15718300  1
  C  C4  1  0.50378600  0.36194100  0.33870000  1
  C  C5  1  0.25475400  0.47270200  0.24800800  1
  C  C6  1  0.72850200  0.82179400  0.83374400  1
  C  C7  1  0.27149800  0.17820600  0.16625600  1
  C  C8  1  0.06521000  0.20792600  0.24565200  1
  C  C9  1  0.48353100  0.44000100  0.17409800  1
  C  C10  1  0.30845400  0.09043500  0.33411500  1
  C  C11  1  0.51646900  0.55999900  0.82590200  1
  C  C12  1  0.93479000  0.79207400  0.75434800  1
  C  C13  1  0.78863900  0.74093800  0.60627000  1
  C  C14  1  0.69154600  0.90956500  0.66588500  1
  C  C15  1  0.55338900  0.28806500  0.84281700  1
  Ni  Ni16  1  0.31788700  0.29602600  0.24950900  1
  Ni  Ni17  1  0.05503200  0.41082300  0.17514200  1
  Ni  Ni18  1  0.59761200  0.73776300  0.24842100  1
  Ni  Ni19  1  0.52451200  0.68809000  0.88759800  1
  Ni  Ni20  1  0.14932200  0.84295500  0.74725400  1
  Ni  Ni21  1  0.53495200  0.16513000  0.38461300  1
  Ni  Ni22  1  0.64289500  0.52117600  0.63307700  1
  Ni  Ni23  1  0.35846400  0.03002600  0.25143100  1
  Ni  Ni24  1  0.62684800  0.59146700  0.11038400  1
  Ni  Ni25  1  0.64153600  0.96997400  0.74856900  1
  Ni  Ni26  1  0.46504800  0.83487000  0.61538600  1
  Ni  Ni27  1  0.53601400  0.90281200  0.10616700  1
  Ni  Ni28  1  0.94496800  0.58917700  0.82485800  1
  Ni  Ni29  1  0.66206900  0.44773700  0.41103400  1
  Ni  Ni30  1  0.31411100  0.20772700  0.49824100  1
  Ni  Ni31  1  0.77548300  0.92138700  0.91063100  1
  Ni  Ni32  1  0.46398600  0.09718800  0.89383300  1
  Ni  Ni33  1  0.19294800  0.63301700  0.23837500  1
  Ni  Ni34  1  0.35710500  0.47882400  0.36692300  1
  Ni  Ni35  1  0.33704300  0.56411700  0.73825700  1
  Ni  Ni36  1  0.37315200  0.40853300  0.88961600  1
  Ni  Ni37  1  0.40238800  0.26223700  0.75157900  1
  Ni  Ni38  1  0.71500100  0.31760600  0.93049000  1
  Ni  Ni39  1  0.02395000  0.07546100  0.18164000  1
  Ni  Ni40  1  0.97605000  0.92453900  0.81836000  1
  Ni  Ni41  1  0.27274200  0.89909500  0.39528000  1
  Ni  Ni42  1  0.85067800  0.15704500  0.25274600  1
  Ni  Ni43  1  0.07698900  0.06351000  0.38268900  1
  Ni  Ni44  1  0.22451700  0.07861300  0.08936900  1
  Ni  Ni45  1  0.94946000  0.68892600  0.58468600  1
  Ni  Ni46  1  0.47548800  0.31191000  0.11240200  1
  Ni  Ni47  1  0.68588900  0.79227300  0.50175900  1
  Ni  Ni48  1  0.28499900  0.68239400  0.06951000  1
  Ni  Ni49  1  0.72725800  0.10090500  0.60472000  1
  Ni  Ni50  1  0.92301100  0.93649000  0.61731100  1
  Ni  Ni51  1  0.66295700  0.43588300  0.26174300  1
  Ni  Ni52  1  0.05054000  0.31107400  0.41531400  1
  Ni  Ni53  1  0.80705200  0.36698300  0.76162500  1
  Ni  Ni54  1  0.68211300  0.70397400  0.75049100  1
  Ni  Ni55  1  0.33793100  0.55226300  0.58896600  1
  Cu  Cu56  1  0.27985000  0.86988700  0.74306100  1
  Cu  Cu57  1  0.24872300  0.78106200  0.42798000  1
  Cu  Cu58  1  0.13465900  0.71582700  0.23497400  1
  Cu  Cu59  1  0.62587400  0.82392200  0.43889200  1
  Cu  Cu60  1  0.27553000  0.33077400  0.92612600  1
  Cu  Cu61  1  0.75127700  0.21893800  0.57202000  1
  Cu  Cu62  1  0.79846300  0.45697000  0.26570900  1
  Cu  Cu63  1  0.41666300  0.94892800  0.24927100  1
  Cu  Cu64  1  0.75654900  0.50841500  0.45128000  1
  Cu  Cu65  1  0.72015000  0.13011300  0.25693900  1
  Cu  Cu66  1  0.39826400  0.56728700  0.39966200  1
  Cu  Cu67  1  0.18999800  0.67132800  0.01670800  1
  Cu  Cu68  1  0.04118100  0.65831200  0.56747900  1
  Cu  Cu69  1  0.37412600  0.17607800  0.56110800  1
  Cu  Cu70  1  0.07251200  0.01688800  0.84035400  1
  Cu  Cu71  1  0.80375500  0.98498700  0.95498700  1
  Cu  Cu72  1  0.98407800  0.95886300  0.41062100  1
  Cu  Cu73  1  0.20153700  0.54303000  0.73429100  1
  Cu  Cu74  1  0.92748800  0.98311200  0.15964600  1
  Cu  Cu75  1  0.58333700  0.05107200  0.75072900  1
  Cu  Cu76  1  0.54594700  0.30352000  0.06984700  1
  Cu  Cu77  1  0.24345100  0.49158500  0.54872000  1
  Cu  Cu78  1  0.59330200  0.02089600  0.07769300  1
  Cu  Cu79  1  0.01592200  0.04113700  0.58937900  1
  Cu  Cu80  1  0.30782400  0.23764200  0.70033600  1
  Cu  Cu81  1  0.19624500  0.01501300  0.04501300  1
  Cu  Cu82  1  0.03678800  0.54824900  0.87520400  1
  Cu  Cu83  1  0.69217600  0.76235800  0.29966400  1
  Cu  Cu84  1  0.60173600  0.43271300  0.60033800  1
  Cu  Cu85  1  0.45405300  0.69648000  0.93015300  1
  Cu  Cu86  1  0.96321200  0.45175100  0.12479600  1
  Cu  Cu87  1  0.36584700  0.88342100  0.57649500  1
  Cu  Cu88  1  0.81000200  0.32867200  0.98329200  1
  Cu  Cu89  1  0.95881900  0.34168800  0.43252100  1
  Cu  Cu90  1  0.72447000  0.66922600  0.07387400  1
  Cu  Cu91  1  0.40669800  0.97910400  0.92230700  1
  Cu  Cu92  1  0.63415300  0.11657900  0.42350500  1
  Cu  Cu93  1  0.86534100  0.28417300  0.76502600  1
