# generated using pymatgen
data_CuNiC12
_symmetry_space_group_name_H-M   'P 1'
_cell_length_a   6.21643900
_cell_length_b   7.22547800
_cell_length_c   14.21638900
_cell_angle_alpha   90.00000000
_cell_angle_beta   90.00000000
_cell_angle_gamma   90.00000000
_symmetry_Int_Tables_number   1
_chemical_formula_structural   CuNiC12
_chemical_formula_sum   'Cu4 Ni4 C48'
_cell_volume   638.55389441
_cell_formula_units_Z   4
loop_
 _symmetry_equiv_pos_site_id
 _symmetry_equiv_pos_as_xyz
  1  'x, y, z'
loop_
 _atom_site_type_symbol
 _atom_site_label
 _atom_site_symmetry_multiplicity
 _atom_site_fract_x
 _atom_site_fract_y
 _atom_site_fract_z
 _atom_site_occupancy
  Ni  Ni0  1  0.75000000  0.38157000  0.77895200  1
  Ni  Ni1  1  0.75000000  0.11843000  0.27895200  1
  Ni  Ni2  1  0.25000000  0.61843000  0.22104800  1
  Ni  Ni3  1  0.25000000  0.88157000  0.72104800  1
  Cu  Cu4  1  0.75000000  0.85198700  0.87988400  1
  Cu  Cu5  1  0.25000000  0.14801300  0.12011600  1
  Cu  Cu6  1  0.25000000  0.35198700  0.62011600  1
  Cu  Cu7  1  0.75000000  0.64801300  0.37988400  1
  C  C8  1  0.50000000  0.50000000  0.00000000  1
  C  C9  1  0.50000000  0.00000000  0.50000000  1
  C  C10  1  0.00000000  0.00000000  0.50000000  1
  C  C11  1  0.00000000  0.50000000  0.00000000  1
  C  C12  1  0.25000000  0.86060500  0.93355900  1
  C  C13  1  0.75000000  0.13939500  0.06644100  1
  C  C14  1  0.75000000  0.36060500  0.56644100  1
  C  C15  1  0.25000000  0.63939500  0.43355900  1
  C  C16  1  0.75000000  0.89284800  0.69750000  1
  C  C17  1  0.25000000  0.10715200  0.30250000  1
  C  C18  1  0.25000000  0.39284800  0.80250000  1
  C  C19  1  0.75000000  0.60715200  0.19750000  1
  C  C20  1  0.03739900  0.10992700  0.35851700  1
  C  C21  1  0.53739900  0.89007300  0.64148300  1
  C  C22  1  0.96260100  0.60992700  0.14148300  1
  C  C23  1  0.46260100  0.39007300  0.85851700  1
  C  C24  1  0.96260100  0.89007300  0.64148300  1
  C  C25  1  0.46260100  0.10992700  0.35851700  1
  C  C26  1  0.03739900  0.39007300  0.85851700  1
  C  C27  1  0.53739900  0.60992700  0.14148300  1
  C  C28  1  0.25000000  0.83015000  0.48043100  1
  C  C29  1  0.75000000  0.16985000  0.51956900  1
  C  C30  1  0.75000000  0.33015000  0.01956900  1
  C  C31  1  0.25000000  0.66985000  0.98043100  1
  C  C32  1  0.75000000  0.64276000  0.94574800  1
  C  C33  1  0.25000000  0.35724000  0.05425200  1
  C  C34  1  0.25000000  0.14276000  0.55425200  1
  C  C35  1  0.75000000  0.85724000  0.44574800  1
  C  C36  1  0.75000000  0.71393500  0.76361500  1
  C  C37  1  0.25000000  0.28606500  0.23638500  1
  C  C38  1  0.25000000  0.21393500  0.73638500  1
  C  C39  1  0.75000000  0.78606500  0.26361500  1
  C  C40  1  0.43881500  0.62536700  0.36116900  1
  C  C41  1  0.93881500  0.37463300  0.63883100  1
  C  C42  1  0.56118500  0.12536700  0.13883100  1
  C  C43  1  0.06118500  0.87463300  0.86116900  1
  C  C44  1  0.56118500  0.37463300  0.63883100  1
  C  C45  1  0.06118500  0.62536700  0.36116900  1
  C  C46  1  0.43881500  0.87463300  0.86116900  1
  C  C47  1  0.93881500  0.12536700  0.13883100  1
  C  C48  1  0.75000000  0.44712600  0.27200600  1
  C  C49  1  0.25000000  0.55287400  0.72799400  1
  C  C50  1  0.25000000  0.94712600  0.22799400  1
  C  C51  1  0.75000000  0.05287400  0.77200600  1
  C  C52  1  0.75000000  0.51249100  0.49372300  1
  C  C53  1  0.25000000  0.48750900  0.50627700  1
  C  C54  1  0.25000000  0.01249100  0.00627700  1
  C  C55  1  0.75000000  0.98750900  0.99372300  1
