# generated using pymatgen
data_Cu6NiC23
_symmetry_space_group_name_H-M   'P 1'
_cell_length_a   9.90472125
_cell_length_b   9.90472125
_cell_length_c   11.40648100
_cell_angle_alpha   90.00000000
_cell_angle_beta   90.00000000
_cell_angle_gamma   119.99999497
_symmetry_Int_Tables_number   1
_chemical_formula_structural   Cu6NiC23
_chemical_formula_sum   'Cu12 Ni2 C46'
_cell_volume   969.09610961
_cell_formula_units_Z   2
loop_
 _symmetry_equiv_pos_site_id
 _symmetry_equiv_pos_as_xyz
  1  'x, y, z'
loop_
 _atom_site_type_symbol
 _atom_site_label
 _atom_site_symmetry_multiplicity
 _atom_site_fract_x
 _atom_site_fract_y
 _atom_site_fract_z
 _atom_site_occupancy
  C  C0  1  0.66666700  0.33333300  0.56060100  1
  C  C1  1  0.33333300  0.66666700  0.43939900  1
  C  C2  1  0.33333300  0.66666700  0.87789300  1
  C  C3  1  0.66666700  0.33333300  0.12210700  1
  Ni  Ni4  1  0.00000000  0.00000000  0.75747000  1
  Ni  Ni5  1  0.00000000  0.00000000  0.24253000  1
  Cu  Cu6  1  0.08188900  0.33428100  0.66030300  1
  Cu  Cu7  1  0.25239200  0.91811100  0.66030300  1
  Cu  Cu8  1  0.66571900  0.74760800  0.66030300  1
  Cu  Cu9  1  0.91811100  0.66571900  0.33969700  1
  Cu  Cu10  1  0.74760800  0.08188900  0.33969700  1
  Cu  Cu11  1  0.33428100  0.25239200  0.33969700  1
  Cu  Cu12  1  0.80445100  0.65595800  0.84597900  1
  Cu  Cu13  1  0.85150700  0.19554900  0.84597900  1
  Cu  Cu14  1  0.34404200  0.14849300  0.84597900  1
  Cu  Cu15  1  0.19554900  0.34404200  0.15402100  1
  Cu  Cu16  1  0.14849300  0.80445100  0.15402100  1
  Cu  Cu17  1  0.65595800  0.85150700  0.15402100  1
  C  C18  1  0.65994500  0.67837800  0.79483400  1
  C  C19  1  0.01843200  0.34005500  0.79483400  1
  C  C20  1  0.32162200  0.98156800  0.79483400  1
  C  C21  1  0.34005500  0.32162200  0.20516600  1
  C  C22  1  0.98156800  0.65994500  0.20516600  1
  C  C23  1  0.67837800  0.01843200  0.20516600  1
  C  C24  1  0.93701800  0.82507100  0.85891900  1
  C  C25  1  0.88805400  0.06298200  0.85891900  1
  C  C26  1  0.17492900  0.11194600  0.85891900  1
  C  C27  1  0.06298200  0.17492900  0.14108100  1
  C  C28  1  0.11194600  0.93701800  0.14108100  1
  C  C29  1  0.82507100  0.88805400  0.14108100  1
  C  C30  1  0.06115700  0.17164200  0.65278200  1
  C  C31  1  0.11048400  0.93884300  0.65278200  1
  C  C32  1  0.82835800  0.88951600  0.65278200  1
  C  C33  1  0.93884300  0.82835800  0.34721800  1
  C  C34  1  0.88951600  0.06115700  0.34721800  1
  C  C35  1  0.17164200  0.11048400  0.34721800  1
  C  C36  1  0.83910500  0.57115300  0.76088100  1
  C  C37  1  0.73204800  0.16089500  0.76088100  1
  C  C38  1  0.42884700  0.26795200  0.76088100  1
  C  C39  1  0.16089500  0.42884700  0.23911900  1
  C  C40  1  0.26795200  0.83910500  0.23911900  1
  C  C41  1  0.57115300  0.73204800  0.23911900  1
  C  C42  1  0.74964200  0.59136500  0.96004400  1
  C  C43  1  0.84172300  0.25035800  0.96004400  1
  C  C44  1  0.40863500  0.15827700  0.96004400  1
  C  C45  1  0.25035800  0.40863500  0.03995600  1
  C  C46  1  0.15827700  0.74964200  0.03995600  1
  C  C47  1  0.59136500  0.84172300  0.03995600  1
  C  C48  1  0.24293600  0.45303900  0.66836100  1
  C  C49  1  0.21010200  0.75706400  0.66836100  1
  C  C50  1  0.54696100  0.78989800  0.66836100  1
  C  C51  1  0.75706400  0.54696100  0.33163900  1
  C  C52  1  0.78989800  0.24293600  0.33163900  1
  C  C53  1  0.45303900  0.21010200  0.33163900  1
  C  C54  1  0.98484600  0.35197900  0.57579300  1
  C  C55  1  0.36713300  0.01515400  0.57579300  1
  C  C56  1  0.64802100  0.63286700  0.57579300  1
  C  C57  1  0.01515400  0.64802100  0.42420700  1
  C  C58  1  0.63286700  0.98484600  0.42420700  1
  C  C59  1  0.35197900  0.36713300  0.42420700  1
