# generated using pymatgen
data_Cu(NiC3)2
_symmetry_space_group_name_H-M   'P 1'
_cell_length_a   5.33325125
_cell_length_b   5.83146306
_cell_length_c   14.95508325
_cell_angle_alpha   89.93310264
_cell_angle_beta   90.41822826
_cell_angle_gamma   90.03262785
_symmetry_Int_Tables_number   1
_chemical_formula_structural   Cu(NiC3)2
_chemical_formula_sum   'Cu4 Ni8 C24'
_cell_volume   465.10014275
_cell_formula_units_Z   4
loop_
 _symmetry_equiv_pos_site_id
 _symmetry_equiv_pos_as_xyz
  1  'x, y, z'
loop_
 _atom_site_type_symbol
 _atom_site_label
 _atom_site_symmetry_multiplicity
 _atom_site_fract_x
 _atom_site_fract_y
 _atom_site_fract_z
 _atom_site_occupancy
  Ni  Ni0  1  0.98446500  0.17154600  0.16536600  1
  Ni  Ni1  1  0.51073800  0.66893900  0.66496900  1
  Ni  Ni2  1  0.01056100  0.33178900  0.66481900  1
  Ni  Ni3  1  0.48437600  0.82786400  0.16527600  1
  Ni  Ni4  1  0.01620300  0.82918300  0.83440800  1
  Ni  Ni5  1  0.51622800  0.17118800  0.83448200  1
  Ni  Ni6  1  0.98993100  0.66867500  0.33527300  1
  Ni  Ni7  1  0.48977800  0.33081300  0.33503100  1
  Cu  Cu8  1  0.75038700  0.14293400  0.50012300  1
  Cu  Cu9  1  0.24758100  0.34996100  0.99992000  1
  Cu  Cu10  1  0.24900100  0.85732100  0.49985200  1
  Cu  Cu11  1  0.74789900  0.65006200  0.99989500  1
  C  C12  1  0.79598100  0.90762500  0.10220800  1
  C  C13  1  0.09182000  0.60908400  0.91764800  1
  C  C14  1  0.09105100  0.11401200  0.58166300  1
  C  C15  1  0.40919200  0.11279000  0.41849200  1
  C  C16  1  0.16104900  0.85785300  0.24141300  1
  C  C17  1  0.90875500  0.88645500  0.41845100  1
  C  C18  1  0.20452500  0.09361900  0.89849200  1
  C  C19  1  0.33721100  0.35959100  0.74097500  1
  C  C20  1  0.33959700  0.85868100  0.75880700  1
  C  C21  1  0.40826500  0.60716600  0.08183000  1
  C  C22  1  0.70451200  0.90663800  0.89844900  1
  C  C23  1  0.80625100  0.40161000  0.39849700  1
  C  C24  1  0.16303000  0.35873000  0.25887500  1
  C  C25  1  0.29599600  0.09169800  0.10221500  1
  C  C26  1  0.19385300  0.59879400  0.60146500  1
  C  C27  1  0.59199300  0.39094400  0.91767500  1
  C  C28  1  0.30640000  0.59706100  0.39820200  1
  C  C29  1  0.83720800  0.64133300  0.74103800  1
  C  C30  1  0.83960900  0.14185900  0.75872400  1
  C  C31  1  0.59064300  0.88709400  0.58158600  1
  C  C32  1  0.90813300  0.39228700  0.08182000  1
  C  C33  1  0.66112500  0.14159000  0.24132200  1
  C  C34  1  0.66294200  0.64042000  0.25899500  1
  C  C35  1  0.69370900  0.40279100  0.60174600  1
