# generated using pymatgen
data_Cu11(NiC3)2
_symmetry_space_group_name_H-M   'P 1'
_cell_length_a   7.06230019
_cell_length_b   7.06230019
_cell_length_c   38.19957400
_cell_angle_alpha   90.00000000
_cell_angle_beta   90.00000000
_cell_angle_gamma   146.42995340
_symmetry_Int_Tables_number   1
_chemical_formula_structural   Cu11(NiC3)2
_chemical_formula_sum   'Cu22 Ni4 C12'
_cell_volume   1053.51680841
_cell_formula_units_Z   2
loop_
 _symmetry_equiv_pos_site_id
 _symmetry_equiv_pos_as_xyz
  1  'x, y, z'
loop_
 _atom_site_type_symbol
 _atom_site_label
 _atom_site_symmetry_multiplicity
 _atom_site_fract_x
 _atom_site_fract_y
 _atom_site_fract_z
 _atom_site_occupancy
  C  C0  1  0.75234200  0.24765800  0.31895400  1
  C  C1  1  0.24463000  0.75537000  0.68123400  1
  C  C2  1  0.75537000  0.24463000  0.18123400  1
  C  C3  1  0.24765800  0.75234200  0.81895400  1
  C  C4  1  0.97380700  0.02619300  0.86584800  1
  C  C5  1  0.02589600  0.97410400  0.13273800  1
  C  C6  1  0.97410400  0.02589600  0.63273800  1
  C  C7  1  0.02619300  0.97380700  0.36584800  1
  C  C8  1  0.99881500  0.00118500  0.50088700  1
  C  C9  1  0.00118500  0.99881500  0.00088700  1
  C  C10  1  0.26884000  0.73116000  0.05677100  1
  C  C11  1  0.73116000  0.26884000  0.55677100  1
  Ni  Ni12  1  0.48437800  0.51562200  0.25121300  1
  Ni  Ni13  1  0.51562200  0.48437800  0.75121300  1
  Ni  Ni14  1  0.72654200  0.27345800  0.94243700  1
  Ni  Ni15  1  0.27345800  0.72654200  0.44243700  1
  Cu  Cu16  1  0.87927500  0.12072500  0.79911200  1
  Cu  Cu17  1  0.12197300  0.87802700  0.19817800  1
  Cu  Cu18  1  0.87802700  0.12197300  0.69817800  1
  Cu  Cu19  1  0.12072500  0.87927500  0.29911200  1
  Cu  Cu20  1  0.92826100  0.07173900  0.43202900  1
  Cu  Cu21  1  0.08783700  0.91216300  0.56974500  1
  Cu  Cu22  1  0.91216300  0.08783700  0.06974500  1
  Cu  Cu23  1  0.07173900  0.92826100  0.93202900  1
  Cu  Cu24  1  0.83076700  0.16923300  0.24949500  1
  Cu  Cu25  1  0.16923300  0.83076700  0.74949500  1
  Cu  Cu26  1  0.39571200  0.60428800  0.33672800  1
  Cu  Cu27  1  0.60269800  0.39730200  0.66086200  1
  Cu  Cu28  1  0.39730200  0.60269800  0.16086200  1
  Cu  Cu29  1  0.60428800  0.39571200  0.83672800  1
  Cu  Cu30  1  0.63772300  0.36227700  0.48911600  1
  Cu  Cu31  1  0.35243200  0.64756800  0.51832600  1
  Cu  Cu32  1  0.64756800  0.35243200  0.01832600  1
  Cu  Cu33  1  0.36227700  0.63772300  0.98911600  1
  Cu  Cu34  1  0.65767000  0.34233000  0.38575300  1
  Cu  Cu35  1  0.33678900  0.66321100  0.61057400  1
  Cu  Cu36  1  0.66321100  0.33678900  0.11057400  1
  Cu  Cu37  1  0.34233000  0.65767000  0.88575300  1
