# generated using pymatgen
data_CuNiC14
_symmetry_space_group_name_H-M   'P 1'
_cell_length_a   7.34417400
_cell_length_b   7.34417400
_cell_length_c   14.92063900
_cell_angle_alpha   90.00000000
_cell_angle_beta   90.00000000
_cell_angle_gamma   90.00000000
_symmetry_Int_Tables_number   1
_chemical_formula_structural   CuNiC14
_chemical_formula_sum   'Cu4 Ni4 C56'
_cell_volume   804.77289047
_cell_formula_units_Z   4
loop_
 _symmetry_equiv_pos_site_id
 _symmetry_equiv_pos_as_xyz
  1  'x, y, z'
loop_
 _atom_site_type_symbol
 _atom_site_label
 _atom_site_symmetry_multiplicity
 _atom_site_fract_x
 _atom_site_fract_y
 _atom_site_fract_z
 _atom_site_occupancy
  Ni  Ni0  1  0.25000000  0.75000000  0.50000000  1
  Ni  Ni1  1  0.75000000  0.25000000  0.50000000  1
  Ni  Ni2  1  0.75000000  0.25000000  0.00000000  1
  Ni  Ni3  1  0.25000000  0.75000000  0.00000000  1
  Cu  Cu4  1  0.25000000  0.25000000  0.57058200  1
  Cu  Cu5  1  0.75000000  0.75000000  0.92941800  1
  Cu  Cu6  1  0.75000000  0.75000000  0.42941800  1
  Cu  Cu7  1  0.25000000  0.25000000  0.07058200  1
  C  C8  1  0.91181900  0.49173800  0.64478500  1
  C  C9  1  0.58818100  0.00826200  0.64478500  1
  C  C10  1  0.99173800  0.41181900  0.85521500  1
  C  C11  1  0.49173800  0.58818100  0.64478500  1
  C  C12  1  0.00826200  0.91181900  0.64478500  1
  C  C13  1  0.08818100  0.99173800  0.85521500  1
  C  C14  1  0.41181900  0.50826200  0.85521500  1
  C  C15  1  0.50826200  0.08818100  0.85521500  1
  C  C16  1  0.08818100  0.50826200  0.35521500  1
  C  C17  1  0.41181900  0.99173800  0.35521500  1
  C  C18  1  0.00826200  0.58818100  0.14478500  1
  C  C19  1  0.50826200  0.41181900  0.35521500  1
  C  C20  1  0.99173800  0.08818100  0.35521500  1
  C  C21  1  0.91181900  0.00826200  0.14478500  1
  C  C22  1  0.58818100  0.49173800  0.14478500  1
  C  C23  1  0.49173800  0.91181900  0.14478500  1
  C  C24  1  0.98124900  0.33721200  0.57561400  1
  C  C25  1  0.51875100  0.16278800  0.57561400  1
  C  C26  1  0.83721200  0.48124900  0.92438600  1
  C  C27  1  0.33721200  0.51875100  0.57561400  1
  C  C28  1  0.16278800  0.98124900  0.57561400  1
  C  C29  1  0.01875100  0.83721200  0.92438600  1
  C  C30  1  0.48124900  0.66278800  0.92438600  1
  C  C31  1  0.66278800  0.01875100  0.92438600  1
  C  C32  1  0.01875100  0.66278800  0.42438600  1
  C  C33  1  0.48124900  0.83721200  0.42438600  1
  C  C34  1  0.16278800  0.51875100  0.07561400  1
  C  C35  1  0.66278800  0.48124900  0.42438600  1
  C  C36  1  0.83721200  0.01875100  0.42438600  1
  C  C37  1  0.98124900  0.16278800  0.07561400  1
  C  C38  1  0.51875100  0.33721200  0.07561400  1
  C  C39  1  0.00162600  0.30738400  0.37495200  1
  C  C40  1  0.33721200  0.98124900  0.07561400  1
  C  C41  1  0.50162600  0.80738400  0.62504800  1
  C  C42  1  0.19261600  0.49837400  0.87495200  1
  C  C43  1  0.69261600  0.50162600  0.62504800  1
  C  C44  1  0.80738400  0.99837400  0.62504800  1
  C  C45  1  0.00162600  0.19261600  0.87495200  1
  C  C46  1  0.49837400  0.30738400  0.87495200  1
  C  C47  1  0.30738400  0.00162600  0.87495200  1
  C  C48  1  0.44627300  0.94627300  0.25000000  1
  C  C49  1  0.55372700  0.44627300  0.25000000  1
  C  C50  1  0.94627300  0.05372800  0.25000000  1
  C  C51  1  0.05372800  0.55372700  0.25000000  1
  C  C52  1  0.55372700  0.05372800  0.75000000  1
  C  C53  1  0.44627300  0.55372700  0.75000000  1
  C  C54  1  0.05372800  0.94627300  0.75000000  1
  C  C55  1  0.94627300  0.44627300  0.75000000  1
  C  C56  1  0.69261600  0.99837400  0.12504800  1
  C  C57  1  0.50162600  0.69261600  0.12504800  1
  C  C58  1  0.99837400  0.80738400  0.12504800  1
  C  C59  1  0.19261600  0.00162600  0.37495200  1
  C  C60  1  0.30738400  0.49837400  0.37495200  1
  C  C61  1  0.80738400  0.50162600  0.12504800  1
  C  C62  1  0.49837400  0.19261600  0.37495200  1
  C  C63  1  0.99837400  0.69261600  0.62504800  1
