# generated using pymatgen
data_Cu51Ni40C3
_symmetry_space_group_name_H-M   'P 1'
_cell_length_a   10.54695722
_cell_length_b   8.05399293
_cell_length_c   9.87284131
_cell_angle_alpha   110.54723289
_cell_angle_beta   83.77327511
_cell_angle_gamma   91.20872550
_symmetry_Int_Tables_number   1
_chemical_formula_structural   Cu51Ni40C3
_chemical_formula_sum   'Cu51 Ni40 C3'
_cell_volume   780.53477396
_cell_formula_units_Z   1
loop_
 _symmetry_equiv_pos_site_id
 _symmetry_equiv_pos_as_xyz
  1  'x, y, z'
loop_
 _atom_site_type_symbol
 _atom_site_label
 _atom_site_symmetry_multiplicity
 _atom_site_fract_x
 _atom_site_fract_y
 _atom_site_fract_z
 _atom_site_occupancy
  Ni  Ni0  1  0.30295300  0.69254300  0.96723300  1
  Ni  Ni1  1  0.29949700  0.91238600  0.64369200  1
  Ni  Ni2  1  0.21197200  0.95966200  0.47698100  1
  Ni  Ni3  1  0.27976500  0.52486400  0.03929700  1
  Ni  Ni4  1  0.36165900  0.03212100  0.54093300  1
  Ni  Ni5  1  0.87013900  0.79100600  0.18643100  1
  Ni  Ni6  1  0.60967100  0.25423200  0.20383900  1
  Ni  Ni7  1  0.29535300  0.12144000  0.25910800  1
  Ni  Ni8  1  0.80167000  0.19745000  0.83458400  1
  Ni  Ni9  1  0.74314600  0.42533300  0.53859500  1
  Ni  Ni10  1  0.63869200  0.44815500  0.14335600  1
  Ni  Ni11  1  0.68001100  0.18565600  0.33344500  1
  Ni  Ni12  1  0.77452800  0.57613200  0.15246700  1
  Ni  Ni13  1  0.77694400  0.98686900  0.29938200  1
  Ni  Ni14  1  0.25816200  0.31342000  0.41233900  1
  Ni  Ni15  1  0.32600200  0.74108600  0.15764200  1
  Ni  Ni16  1  0.28679000  0.10961100  0.42715700  1
  Ni  Ni17  1  0.31587300  0.46925600  0.18916100  1
  Ni  Ni18  1  0.39262200  0.46871300  0.87455800  1
  Ni  Ni19  1  0.56316700  0.92561900  0.75657300  1
  Ni  Ni20  1  0.79839800  0.36030300  0.35240800  1
  Ni  Ni21  1  0.22116700  0.31015600  0.24883100  1
  Ni  Ni22  1  0.60648400  0.51059100  0.63882500  1
  Ni  Ni23  1  0.69576600  0.02361100  0.77592600  1
  Ni  Ni24  1  0.48414300  0.38863900  0.15647300  1
  Ni  Ni25  1  0.58735300  0.29470700  0.59130000  1
  Ni  Ni26  1  0.10236200  0.32738100  0.69803100  1
  Ni  Ni27  1  0.36686400  0.33084400  0.01248100  1
  Ni  Ni28  1  0.36592000  0.64245800  0.77927800  1
  Ni  Ni29  1  0.41669500  0.83502500  0.72384800  1
  Ni  Ni30  1  0.19867200  0.51968700  0.36161400  1
  Ni  Ni31  1  0.23685400  0.91271700  0.28270000  1
  Ni  Ni32  1  0.52868800  0.69265900  0.74428200  1
  Ni  Ni33  1  0.47974400  0.45281400  0.72342100  1
  Ni  Ni34  1  0.73044200  0.78418800  0.30256400  1
  Ni  Ni35  1  0.13268700  0.18964800  0.52204800  1
  Ni  Ni36  1  0.77764800  0.35517900  0.01178600  1
  Ni  Ni37  1  0.86321900  0.96442800  0.75696300  1
  Ni  Ni38  1  0.77529900  0.38720400  0.19608700  1
  Ni  Ni39  1  0.84592000  0.96042500  0.11812000  1
  Cu  Cu40  1  0.89784500  0.26881300  0.37574300  1
  Cu  Cu41  1  0.82469000  0.25474600  0.08641200  1
  Cu  Cu42  1  0.31884600  0.19066000  0.96094900  1
  Cu  Cu43  1  0.04436500  0.16787700  0.44927400  1
  Cu  Cu44  1  0.89067000  0.87573000  0.82527900  1
  Cu  Cu45  1  0.20464400  0.73857100  0.91075100  1
  Cu  Cu46  1  0.25833200  0.62616000  0.44816400  1
  Cu  Cu47  1  0.36892700  0.06098500  0.15252000  1
  Cu  Cu48  1  0.61228000  0.12889800  0.09211900  1
  Cu  Cu49  1  0.34466900  0.39821700  0.46936800  1
  Cu  Cu50  1  0.58097300  0.64056100  0.01873100  1
  Cu  Cu51  1  0.09423300  0.57218700  0.35308000  1
  Cu  Cu52  1  0.16378700  0.98579800  0.22682500  1
  Cu  Cu53  1  0.11176100  0.03157800  0.55956900  1
  Cu  Cu54  1  0.97453100  0.77461400  0.21878800  1
  Cu  Cu55  1  0.17080700  0.48317400  0.02304000  1
  Cu  Cu56  1  0.15942300  0.83802700  0.37322000  1
  Cu  Cu57  1  0.65414500  0.36091200  0.00206500  1
  Cu  Cu58  1  0.47368800  0.01040900  0.51948300  1
  Cu  Cu59  1  0.53192700  0.58407400  0.42913200  1
  Cu  Cu60  1  0.43815300  0.74670200  0.16424600  1
  Cu  Cu61  1  0.63205700  0.97219400  0.87920700  1
  Cu  Cu62  1  0.28102000  0.58781500  0.70308300  1
  Cu  Cu63  1  0.58165300  0.21138900  0.44632900  1
  Cu  Cu64  1  0.48638100  0.30870700  0.00092200  1
  Cu  Cu65  1  0.35545300  0.82803900  0.03627600  1
  Cu  Cu66  1  0.51933200  0.76102600  0.31258200  1
  Cu  Cu67  1  0.41826300  0.54036400  0.24808000  1
  Cu  Cu68  1  0.47761100  0.28250200  0.23210400  1
  Cu  Cu69  1  0.44509200  0.98940700  0.82680300  1
  Cu  Cu70  1  0.62379600  0.18703900  0.63560400  1
  Cu  Cu71  1  0.49392600  0.78980100  0.39165000  1
  Cu  Cu72  1  0.55567000  0.57467100  0.95073600  1
  Cu  Cu73  1  0.80923600  0.52503100  0.01075800  1
  Cu  Cu74  1  0.06751400  0.48038100  0.74225700  1
  Cu  Cu75  1  0.82523400  0.26511200  0.74492100  1
  Cu  Cu76  1  0.84421400  0.03928700  0.39947400  1
  Cu  Cu77  1  0.13482300  0.24374000  0.17872500  1
  Cu  Cu78  1  0.90956200  0.12485100  0.83802700  1
  Cu  Cu79  1  0.78892900  0.51755700  0.44427500  1
  Cu  Cu80  1  0.32052100  0.09233100  0.68174100  1
  Cu  Cu81  1  0.75083900  0.87729200  0.69816900  1
  Cu  Cu82  1  0.56207600  0.74601900  0.86520600  1
  Cu  Cu83  1  0.76179800  0.95882500  0.04526700  1
  Cu  Cu84  1  0.50168100  0.50909500  0.44955700  1
  Cu  Cu85  1  0.94342500  0.03389600  0.09753300  1
  Cu  Cu86  1  0.92803800  0.34674800  0.34188100  1
  Cu  Cu87  1  0.92121300  0.93261000  0.63834000  1
  Cu  Cu88  1  0.87748300  0.78574700  0.05162100  1
  Cu  Cu89  1  0.19336200  0.90324900  0.69926100  1
  Cu  Cu90  1  0.17454500  0.73659600  0.99483000  1
  C  C91  1  0.11508600  0.26248600  0.80624500  1
  C  C92  1  0.84505300  0.42932900  0.61463600  1
  C  C93  1  0.71327400  0.74557900  0.42565500  1
