# generated using pymatgen
data_Cu11(Ni2C11)2
_symmetry_space_group_name_H-M   'P 1'
_cell_length_a   19.72955207
_cell_length_b   19.72955207
_cell_length_c   11.40767898
_cell_angle_alpha   88.39376818
_cell_angle_beta   88.39376818
_cell_angle_gamma   11.51634755
_symmetry_Int_Tables_number   1
_chemical_formula_structural   Cu11(Ni2C11)2
_chemical_formula_sum   'Cu11 Ni4 C22'
_cell_volume   886.18264226
_cell_formula_units_Z   1
loop_
 _symmetry_equiv_pos_site_id
 _symmetry_equiv_pos_as_xyz
  1  'x, y, z'
loop_
 _atom_site_type_symbol
 _atom_site_label
 _atom_site_symmetry_multiplicity
 _atom_site_fract_x
 _atom_site_fract_y
 _atom_site_fract_z
 _atom_site_occupancy
  Ni  Ni0  1  0.10441800  0.10441800  0.98855200  1
  Ni  Ni1  1  0.89558200  0.89558200  0.01144800  1
  Ni  Ni2  1  0.36714900  0.36714900  0.65216300  1
  Ni  Ni3  1  0.63285100  0.63285100  0.34783700  1
  Cu  Cu4  1  0.79790700  0.79790700  0.94127100  1
  Cu  Cu5  1  0.20209300  0.20209300  0.05872900  1
  Cu  Cu6  1  0.46182600  0.46182600  0.72956700  1
  Cu  Cu7  1  0.53817400  0.53817400  0.27043300  1
  Cu  Cu8  1  0.65767000  0.65767000  0.69933700  1
  Cu  Cu9  1  0.34233000  0.34233000  0.30066300  1
  Cu  Cu10  1  0.26327400  0.26327400  0.64860800  1
  Cu  Cu11  1  0.73672600  0.73672600  0.35139200  1
  Cu  Cu12  1  0.06960700  0.06960700  0.63922300  1
  Cu  Cu13  1  0.93039300  0.93039300  0.36077700  1
  Cu  Cu14  1  0.00000000  0.00000000  0.00000000  1
  C  C15  1  0.08800700  0.08800700  0.24813300  1
  C  C16  1  0.91199300  0.91199300  0.75186700  1
  C  C17  1  0.18899900  0.18899900  0.30951200  1
  C  C18  1  0.81100100  0.81100100  0.69048800  1
  C  C19  1  0.28015100  0.28015100  0.41115400  1
  C  C20  1  0.71984900  0.71984900  0.58884600  1
  C  C21  1  0.44467100  0.44467100  0.50663900  1
  C  C22  1  0.55532900  0.55532900  0.49336100  1
  C  C23  1  0.13501200  0.13501200  0.54590300  1
  C  C24  1  0.86498800  0.86498800  0.45409700  1
  C  C25  1  0.59285400  0.59285400  0.78889800  1
  C  C26  1  0.40714600  0.40714600  0.21110200  1
  C  C27  1  0.45261400  0.45261400  0.96936600  1
  C  C28  1  0.54738600  0.54738600  0.03063400  1
  C  C29  1  0.35081900  0.35081900  0.90831500  1
  C  C30  1  0.64918100  0.64918100  0.09168500  1
  C  C31  1  0.16856200  0.16856200  0.84933400  1
  C  C32  1  0.83143800  0.83143800  0.15066600  1
  C  C33  1  0.00781600  0.00781600  0.75987700  1
  C  C34  1  0.99218400  0.99218400  0.24012300  1
  C  C35  1  0.25499500  0.25499500  0.88110600  1
  C  C36  1  0.74500500  0.74500500  0.11889400  1
