# generated using pymatgen
data_Cu7Ni2C5
_symmetry_space_group_name_H-M   'P 1'
_cell_length_a   6.82393775
_cell_length_b   14.32045572
_cell_length_c   15.24663438
_cell_angle_alpha   90.00000000
_cell_angle_beta   90.00000000
_cell_angle_gamma   90.00000000
_symmetry_Int_Tables_number   1
_chemical_formula_structural   Cu7Ni2C5
_chemical_formula_sum   'Cu56 Ni16 C40'
_cell_volume   1489.93005559
_cell_formula_units_Z   8
loop_
 _symmetry_equiv_pos_site_id
 _symmetry_equiv_pos_as_xyz
  1  'x, y, z'
loop_
 _atom_site_type_symbol
 _atom_site_label
 _atom_site_symmetry_multiplicity
 _atom_site_fract_x
 _atom_site_fract_y
 _atom_site_fract_z
 _atom_site_occupancy
  C  C0  1  0.80177958  0.15765689  0.26525224  1
  C  C1  1  0.69822042  0.65765689  0.23474776  1
  C  C2  1  0.30177958  0.84234311  0.23474776  1
  C  C3  1  0.19822042  0.34234311  0.26525224  1
  C  C4  1  0.19822042  0.84234311  0.73474776  1
  C  C5  1  0.30177958  0.34234311  0.76525224  1
  C  C6  1  0.69822042  0.15765689  0.76525224  1
  C  C7  1  0.80177958  0.65765689  0.73474776  1
  C  C8  1  0.73773602  0.43308872  0.37312378  1
  C  C9  1  0.76226398  0.93308872  0.12687622  1
  C  C10  1  0.23773602  0.56691128  0.12687622  1
  C  C11  1  0.26226398  0.06691128  0.37312378  1
  C  C12  1  0.26226398  0.56691128  0.62687622  1
  C  C13  1  0.23773602  0.06691128  0.87312378  1
  C  C14  1  0.76226398  0.43308872  0.87312378  1
  C  C15  1  0.73773602  0.93308872  0.62687622  1
  C  C16  1  0.72133456  0.13853751  0.50160833  1
  C  C17  1  0.77866544  0.63853751  0.99839167  1
  C  C18  1  0.22133456  0.86146249  0.99839167  1
  C  C19  1  0.27866544  0.36146249  0.50160833  1
  C  C20  1  0.27866544  0.86146249  0.49839167  1
  C  C21  1  0.22133456  0.36146249  0.00160833  1
  C  C22  1  0.77866544  0.13853751  0.00160833  1
  C  C23  1  0.72133456  0.63853751  0.49839167  1
  C  C24  1  0.74866410  0.39622376  0.13148543  1
  C  C25  1  0.75133590  0.89622376  0.36851457  1
  C  C26  1  0.24866410  0.60377624  0.36851457  1
  C  C27  1  0.25133590  0.10377624  0.13148543  1
  C  C28  1  0.25133590  0.60377624  0.86851457  1
  C  C29  1  0.24866410  0.10377624  0.63148543  1
  C  C30  1  0.75133590  0.39622376  0.63148543  1
  C  C31  1  0.74866410  0.89622376  0.86851457  1
  C  C32  1  0.50000000  0.25000000  0.37781938  1
  C  C33  1  0.00000000  0.75000000  0.12218062  1
  C  C34  1  0.50000000  0.75000000  0.62218062  1
  C  C35  1  0.00000000  0.25000000  0.87781938  1
  C  C36  1  0.00000000  0.25000000  0.40220141  1
  C  C37  1  0.50000000  0.75000000  0.09779859  1
  C  C38  1  0.00000000  0.75000000  0.59779859  1
  C  C39  1  0.50000000  0.25000000  0.90220141  1
  Ni  Ni40  1  0.47294310  0.42505609  0.10010512  1
  Ni  Ni41  1  0.02705690  0.92505609  0.39989488  1
  Ni  Ni42  1  0.97294310  0.57494391  0.39989488  1
  Ni  Ni43  1  0.52705690  0.07494391  0.10010512  1
  Ni  Ni44  1  0.52705690  0.57494391  0.89989488  1
  Ni  Ni45  1  0.97294310  0.07494391  0.60010512  1
  Ni  Ni46  1  0.02705690  0.42505609  0.60010512  1
  Ni  Ni47  1  0.47294310  0.92505609  0.89989488  1
  Ni  Ni48  1  0.48779198  0.35739914  0.17255738  1
  Ni  Ni49  1  0.01220802  0.85739914  0.32744262  1
  Ni  Ni50  1  0.98779198  0.64260086  0.32744262  1
  Ni  Ni51  1  0.51220802  0.14260086  0.17255738  1
  Ni  Ni52  1  0.51220802  0.64260086  0.82744262  1
  Ni  Ni53  1  0.98779198  0.14260086  0.67255738  1
  Ni  Ni54  1  0.01220802  0.35739914  0.67255738  1
  Ni  Ni55  1  0.48779198  0.85739914  0.82744262  1
  Cu  Cu56  1  0.82518729  0.31542650  0.23546419  1
  Cu  Cu57  1  0.67481271  0.81542650  0.26453581  1
  Cu  Cu58  1  0.32518729  0.68457350  0.26453581  1
  Cu  Cu59  1  0.17481271  0.18457350  0.23546419  1
  Cu  Cu60  1  0.17481271  0.68457350  0.76453581  1
  Cu  Cu61  1  0.32518729  0.18457350  0.73546419  1
  Cu  Cu62  1  0.67481271  0.31542650  0.73546419  1
  Cu  Cu63  1  0.82518729  0.81542650  0.76453581  1
  Cu  Cu64  1  0.78893559  0.47997714  0.02624643  1
  Cu  Cu65  1  0.71106441  0.97997714  0.47375357  1
  Cu  Cu66  1  0.28893559  0.52002286  0.47375357  1
  Cu  Cu67  1  0.21106441  0.02002286  0.02624643  1
  Cu  Cu68  1  0.21106441  0.52002286  0.97375357  1
  Cu  Cu69  1  0.28893559  0.02002286  0.52624643  1
  Cu  Cu70  1  0.71106441  0.47997714  0.52624643  1
  Cu  Cu71  1  0.78893559  0.97997714  0.97375357  1
  Cu  Cu72  1  0.78906354  0.28969013  0.05314771  1
  Cu  Cu73  1  0.71093646  0.78969013  0.44685229  1
  Cu  Cu74  1  0.28906354  0.71030987  0.44685229  1
  Cu  Cu75  1  0.21093646  0.21030987  0.05314771  1
  Cu  Cu76  1  0.21093646  0.71030987  0.94685229  1
  Cu  Cu77  1  0.28906354  0.21030987  0.55314771  1
  Cu  Cu78  1  0.71093646  0.28969013  0.55314771  1
  Cu  Cu79  1  0.78906354  0.78969013  0.94685229  1
  Cu  Cu80  1  0.76003371  0.50070659  0.21694837  1
  Cu  Cu81  1  0.73996629  0.00070659  0.28305163  1
  Cu  Cu82  1  0.26003371  0.49929341  0.28305163  1
  Cu  Cu83  1  0.23996629  0.99929341  0.21694837  1
  Cu  Cu84  1  0.23996629  0.49929341  0.78305163  1
  Cu  Cu85  1  0.26003371  0.99929341  0.71694837  1
  Cu  Cu86  1  0.73996629  0.50070659  0.71694837  1
  Cu  Cu87  1  0.76003371  0.00070659  0.78305163  1
  Cu  Cu88  1  0.04897266  0.41025822  0.13162680  1
  Cu  Cu89  1  0.45102734  0.91025822  0.36837320  1
  Cu  Cu90  1  0.54897266  0.58974178  0.36837320  1
  Cu  Cu91  1  0.95102734  0.08974178  0.13162680  1
  Cu  Cu92  1  0.95102734  0.58974178  0.86837320  1
  Cu  Cu93  1  0.54897266  0.08974178  0.63162680  1
  Cu  Cu94  1  0.45102734  0.41025822  0.63162680  1
  Cu  Cu95  1  0.04897266  0.91025822  0.86837320  1
  Cu  Cu96  1  0.53129139  0.17092715  0.37836998  1
  Cu  Cu97  1  0.96870861  0.67092715  0.12163002  1
  Cu  Cu98  1  0.03129139  0.82907285  0.12163002  1
  Cu  Cu99  1  0.46870861  0.32907285  0.37836998  1
  Cu  Cu100  1  0.46870861  0.82907285  0.62163002  1
  Cu  Cu101  1  0.03129139  0.32907285  0.87836998  1
  Cu  Cu102  1  0.96870861  0.17092715  0.87836998  1
  Cu  Cu103  1  0.53129139  0.67092715  0.62163002  1
  Cu  Cu104  1  0.97572089  0.17019665  0.40051156  1
  Cu  Cu105  1  0.52427911  0.67019665  0.09948844  1
  Cu  Cu106  1  0.47572089  0.82980335  0.09948844  1
  Cu  Cu107  1  0.02427911  0.32980335  0.40051156  1
  Cu  Cu108  1  0.02427911  0.82980335  0.59948844  1
  Cu  Cu109  1  0.47572089  0.32980335  0.90051156  1
  Cu  Cu110  1  0.52427911  0.17019665  0.90051156  1
  Cu  Cu111  1  0.97572089  0.67019665  0.59948844  1
