# generated using pymatgen
data_CuNiC2
_symmetry_space_group_name_H-M   'P 1'
_cell_length_a   4.00053300
_cell_length_b   7.96217300
_cell_length_c   10.88753100
_cell_angle_alpha   90.00000000
_cell_angle_beta   90.00000000
_cell_angle_gamma   90.00000000
_symmetry_Int_Tables_number   1
_chemical_formula_structural   CuNiC2
_chemical_formula_sum   'Cu4 Ni4 C8'
_cell_volume   346.79982638
_cell_formula_units_Z   4
loop_
 _symmetry_equiv_pos_site_id
 _symmetry_equiv_pos_as_xyz
  1  'x, y, z'
loop_
 _atom_site_type_symbol
 _atom_site_label
 _atom_site_symmetry_multiplicity
 _atom_site_fract_x
 _atom_site_fract_y
 _atom_site_fract_z
 _atom_site_occupancy
  Ni  Ni0  1  0.25000000  0.49674300  0.38745400  1
  Ni  Ni1  1  0.25000000  0.99674300  0.11254600  1
  Ni  Ni2  1  0.75000000  0.50325700  0.61254600  1
  Ni  Ni3  1  0.75000000  0.00325700  0.88745400  1
  Cu  Cu4  1  0.25000000  0.13608000  0.63412100  1
  Cu  Cu5  1  0.25000000  0.63608000  0.86587900  1
  Cu  Cu6  1  0.75000000  0.86392000  0.36587900  1
  Cu  Cu7  1  0.75000000  0.36392000  0.13412100  1
  C  C8  1  0.25000000  0.22272600  0.93542700  1
  C  C9  1  0.25000000  0.72272600  0.56457300  1
  C  C10  1  0.75000000  0.77727400  0.06457300  1
  C  C11  1  0.75000000  0.27727400  0.43542700  1
  C  C12  1  0.25000000  0.16361300  0.32029700  1
  C  C13  1  0.25000000  0.66361300  0.17970300  1
  C  C14  1  0.75000000  0.83638700  0.67970300  1
  C  C15  1  0.75000000  0.33638700  0.82029700  1
