# generated using pymatgen
data_CuNiC5
_symmetry_space_group_name_H-M   'P 1'
_cell_length_a   6.39444900
_cell_length_b   5.24031200
_cell_length_c   23.52676728
_cell_angle_alpha   86.62973203
_cell_angle_beta   90.00000000
_cell_angle_gamma   90.00000000
_symmetry_Int_Tables_number   1
_chemical_formula_structural   CuNiC5
_chemical_formula_sum   'Cu8 Ni8 C40'
_cell_volume   786.99278944
_cell_formula_units_Z   8
loop_
 _symmetry_equiv_pos_site_id
 _symmetry_equiv_pos_as_xyz
  1  'x, y, z'
loop_
 _atom_site_type_symbol
 _atom_site_label
 _atom_site_symmetry_multiplicity
 _atom_site_fract_x
 _atom_site_fract_y
 _atom_site_fract_z
 _atom_site_occupancy
  C  C0  1  0.21604500  0.27226300  0.93248800  1
  C  C1  1  0.71604500  0.72773700  0.06751200  1
  C  C2  1  0.21084100  0.75800000  0.43288400  1
  C  C3  1  0.71084100  0.24200000  0.56711600  1
  Ni  Ni4  1  0.71751300  0.24997100  0.97185200  1
  Ni  Ni5  1  0.21751300  0.75002900  0.02814800  1
  Ni  Ni6  1  0.81914000  0.20444000  0.15620300  1
  Ni  Ni7  1  0.31914000  0.79556000  0.84379700  1
  Ni  Ni8  1  0.21270500  0.23176600  0.52825500  1
  Ni  Ni9  1  0.71270500  0.76823400  0.47174500  1
  Ni  Ni10  1  0.82029400  0.71377200  0.65390500  1
  Ni  Ni11  1  0.32029400  0.28622800  0.34609500  1
  Cu  Cu12  1  0.23040800  0.32722600  0.70234700  1
  Cu  Cu13  1  0.73040800  0.67277400  0.29765300  1
  Cu  Cu14  1  0.26647600  0.04274400  0.68803400  1
  Cu  Cu15  1  0.76647600  0.95725600  0.31196600  1
  Cu  Cu16  1  0.26268600  0.84191900  0.20256200  1
  Cu  Cu17  1  0.76268600  0.15808100  0.79743800  1
  Cu  Cu18  1  0.26439600  0.54237300  0.20523000  1
  Cu  Cu19  1  0.76439600  0.45762700  0.79477000  1
  C  C20  1  0.52381200  0.26987000  0.93381900  1
  C  C21  1  0.02381200  0.73013000  0.06618100  1
  C  C22  1  0.71800300  0.46748800  0.01320200  1
  C  C23  1  0.21800300  0.53251200  0.98679800  1
  C  C24  1  0.91242900  0.27115400  0.93339700  1
  C  C25  1  0.41242900  0.72884600  0.06660300  1
  C  C26  1  0.71878100  0.99352900  0.00724500  1
  C  C27  1  0.21878100  0.00647100  0.99275500  1
  C  C28  1  0.72985400  0.45415100  0.12897000  1
  C  C29  1  0.22985400  0.54584900  0.87103000  1
  C  C30  1  0.72575200  0.98126100  0.12557200  1
  C  C31  1  0.22575200  0.01873900  0.87442800  1
  C  C32  1  0.26494200  0.80767900  0.77901100  1
  C  C33  1  0.76494200  0.19232100  0.22098900  1
  C  C34  1  0.55919400  0.80244700  0.83843000  1
  C  C35  1  0.05919400  0.19755300  0.16157000  1
  C  C36  1  0.01813700  0.23512400  0.56626400  1
  C  C37  1  0.51813700  0.76487600  0.43373600  1
  C  C38  1  0.71320300  0.01091100  0.50582800  1
  C  C39  1  0.21320300  0.98908900  0.49417200  1
  C  C40  1  0.90779500  0.76402600  0.43325100  1
  C  C41  1  0.40779500  0.23597400  0.56674900  1
  C  C42  1  0.71375500  0.53283800  0.51417900  1
  C  C43  1  0.21375500  0.46716200  0.48582100  1
  C  C44  1  0.71739300  0.94598000  0.62239200  1
  C  C45  1  0.21739300  0.05402000  0.37760800  1
  C  C46  1  0.72841500  0.47151200  0.62999900  1
  C  C47  1  0.22841500  0.52848800  0.37000100  1
  C  C48  1  0.56104600  0.27948700  0.34466700  1
  C  C49  1  0.06104600  0.72051300  0.65533300  1
  C  C50  1  0.77863200  0.72336300  0.71891200  1
  C  C51  1  0.27863200  0.27663700  0.28108800  1
  C  C52  1  0.33729200  0.19222700  0.70273500  1
  C  C53  1  0.83729200  0.80777300  0.29726500  1
  C  C54  1  0.35465000  0.69247100  0.20797600  1
  C  C55  1  0.85465000  0.30752900  0.79202400  1
