# generated using pymatgen
data_Cu4NiC17
_symmetry_space_group_name_H-M   'P 1'
_cell_length_a   8.11883000
_cell_length_b   8.11882997
_cell_length_c   13.27265700
_cell_angle_alpha   90.00000000
_cell_angle_beta   90.00000000
_cell_angle_gamma   120.00000010
_symmetry_Int_Tables_number   1
_chemical_formula_structural   Cu4NiC17
_chemical_formula_sum   'Cu8 Ni2 C34'
_cell_volume   757.66180934
_cell_formula_units_Z   2
loop_
 _symmetry_equiv_pos_site_id
 _symmetry_equiv_pos_as_xyz
  1  'x, y, z'
loop_
 _atom_site_type_symbol
 _atom_site_label
 _atom_site_symmetry_multiplicity
 _atom_site_fract_x
 _atom_site_fract_y
 _atom_site_fract_z
 _atom_site_occupancy
  C  C0  1  0.00000000  0.00000000  0.03913900  1
  C  C1  1  0.00000000  0.00000000  0.53913900  1
  Ni  Ni2  1  0.66666700  0.33333300  0.29576800  1
  Ni  Ni3  1  0.33333300  0.66666700  0.79576800  1
  C  C4  1  0.74059000  0.25941000  0.45756000  1
  C  C5  1  0.51882100  0.25941000  0.45756000  1
  C  C6  1  0.74059000  0.48117900  0.45756000  1
  C  C7  1  0.25941000  0.74059000  0.95756000  1
  C  C8  1  0.48117900  0.74059000  0.95756000  1
  C  C9  1  0.25941000  0.51882100  0.95756000  1
  C  C10  1  0.54717900  0.09435800  0.16802700  1
  C  C11  1  0.54717900  0.45282100  0.16802700  1
  C  C12  1  0.90564200  0.45282100  0.16802700  1
  C  C13  1  0.45282100  0.90564200  0.66802700  1
  C  C14  1  0.45282100  0.54717900  0.66802700  1
  C  C15  1  0.09435800  0.54717900  0.66802700  1
  C  C16  1  0.39944400  0.02084000  0.27876400  1
  C  C17  1  0.62139600  0.60055600  0.27876400  1
  C  C18  1  0.97916000  0.37860400  0.27876400  1
  C  C19  1  0.62139600  0.02084000  0.27876400  1
  C  C20  1  0.97916000  0.60055600  0.27876400  1
  C  C21  1  0.39944400  0.37860400  0.27876400  1
  C  C22  1  0.60055600  0.97916000  0.77876400  1
  C  C23  1  0.37860400  0.39944400  0.77876400  1
  C  C24  1  0.02084000  0.62139600  0.77876400  1
  C  C25  1  0.37860400  0.97916000  0.77876400  1
  C  C26  1  0.02084000  0.39944400  0.77876400  1
  C  C27  1  0.60055600  0.62139600  0.77876400  1
  Cu  Cu28  1  0.66666700  0.33333300  0.43086200  1
  Cu  Cu29  1  0.33333300  0.66666700  0.93086200  1
  Cu  Cu30  1  0.54650700  0.09301300  0.25082000  1
  Cu  Cu31  1  0.54650700  0.45349300  0.25082000  1
  Cu  Cu32  1  0.90698700  0.45349300  0.25082000  1
  Cu  Cu33  1  0.45349300  0.90698700  0.75082000  1
  Cu  Cu34  1  0.45349300  0.54650700  0.75082000  1
  Cu  Cu35  1  0.09301300  0.54650700  0.75082000  1
  C  C36  1  0.00000000  0.00000000  0.20565700  1
  C  C37  1  0.00000000  0.00000000  0.70565700  1
  C  C38  1  0.29779600  0.14889800  0.98498300  1
  C  C39  1  0.85110200  0.70220400  0.98498300  1
  C  C40  1  0.85110200  0.14889800  0.98498300  1
  C  C41  1  0.70220400  0.85110200  0.48498300  1
  C  C42  1  0.14889800  0.29779600  0.48498300  1
  C  C43  1  0.14889800  0.85110200  0.48498300  1
