# generated using pymatgen
data_Cu2Ni2C11
_symmetry_space_group_name_H-M   'P 1'
_cell_length_a   9.48092758
_cell_length_b   14.25724592
_cell_length_c   14.57909929
_cell_angle_alpha   90.00000000
_cell_angle_beta   90.00000000
_cell_angle_gamma   90.00000000
_symmetry_Int_Tables_number   1
_chemical_formula_structural   Cu2Ni2C11
_chemical_formula_sum   'Cu16 Ni16 C88'
_cell_volume   1970.68478543
_cell_formula_units_Z   8
loop_
 _symmetry_equiv_pos_site_id
 _symmetry_equiv_pos_as_xyz
  1  'x, y, z'
loop_
 _atom_site_type_symbol
 _atom_site_label
 _atom_site_symmetry_multiplicity
 _atom_site_fract_x
 _atom_site_fract_y
 _atom_site_fract_z
 _atom_site_occupancy
  C  C0  1  0.36575341  0.13839728  0.59652467  1
  C  C1  1  0.13424659  0.86160272  0.09652467  1
  C  C2  1  0.63424659  0.63839728  0.90347533  1
  C  C3  1  0.86575341  0.36160272  0.40347533  1
  C  C4  1  0.60962220  0.33572190  0.11904727  1
  C  C5  1  0.89037780  0.66427810  0.61904727  1
  C  C6  1  0.39037780  0.83572190  0.38095273  1
  C  C7  1  0.10962220  0.16427810  0.88095273  1
  Ni  Ni8  1  0.07369346  0.03244593  0.64377814  1
  Ni  Ni9  1  0.42630654  0.96755407  0.14377814  1
  Ni  Ni10  1  0.92630654  0.53244593  0.85622186  1
  Ni  Ni11  1  0.57369346  0.46755407  0.35622186  1
  Ni  Ni12  1  0.24054912  0.24800102  0.07432832  1
  Ni  Ni13  1  0.25945088  0.75199898  0.57432832  1
  Ni  Ni14  1  0.75945088  0.74800102  0.42567168  1
  Ni  Ni15  1  0.74054912  0.25199898  0.92567168  1
  Ni  Ni16  1  0.08089594  0.51855643  0.14885869  1
  Ni  Ni17  1  0.41910406  0.48144357  0.64885869  1
  Ni  Ni18  1  0.91910406  0.01855643  0.35114131  1
  Ni  Ni19  1  0.58089594  0.98144357  0.85114131  1
  Ni  Ni20  1  0.24206194  0.24990789  0.37164294  1
  Ni  Ni21  1  0.25793806  0.75009211  0.87164294  1
  Ni  Ni22  1  0.75793806  0.74990789  0.12835706  1
  Ni  Ni23  1  0.74206194  0.25009211  0.62835706  1
  Cu  Cu24  1  0.17263526  0.09423001  0.22393651  1
  Cu  Cu25  1  0.32736474  0.90576999  0.72393651  1
  Cu  Cu26  1  0.82736474  0.59423001  0.27606349  1
  Cu  Cu27  1  0.67263526  0.40576999  0.77606349  1
  Cu  Cu28  1  0.99530277  0.17790303  0.49645245  1
  Cu  Cu29  1  0.50469723  0.82209697  0.99645245  1
  Cu  Cu30  1  0.00469723  0.67790303  0.00354755  1
  Cu  Cu31  1  0.49530277  0.32209697  0.50354755  1
  Cu  Cu32  1  0.33165297  0.39957883  0.22095179  1
  Cu  Cu33  1  0.16834703  0.60042117  0.72095179  1
  Cu  Cu34  1  0.66834703  0.89957883  0.27904821  1
  Cu  Cu35  1  0.83165297  0.10042117  0.77904821  1
  Cu  Cu36  1  0.49732186  0.12901861  0.00238956  1
  Cu  Cu37  1  0.00267814  0.87098139  0.50238956  1
  Cu  Cu38  1  0.50267814  0.62901861  0.49761044  1
  Cu  Cu39  1  0.99732186  0.37098139  0.99761044  1
  C  C40  1  0.67901475  0.17235545  0.27326287  1
  C  C41  1  0.82098525  0.82764455  0.77326287  1
  C  C42  1  0.32098525  0.67235545  0.22673713  1
  C  C43  1  0.17901475  0.32764455  0.72673713  1
  C  C44  1  0.43155743  0.06220680  0.39178931  1
  C  C45  1  0.06844257  0.93779320  0.89178931  1
  C  C46  1  0.56844257  0.56220680  0.10821069  1
  C  C47  1  0.93155743  0.43779320  0.60821069  1
  C  C48  1  0.12127200  0.52390656  0.45878229  1
  C  C49  1  0.37872800  0.47609344  0.95878229  1
  C  C50  1  0.87872800  0.02390656  0.04121771  1
  C  C51  1  0.62127200  0.97609344  0.54121771  1
  C  C52  1  0.07536586  0.79230641  0.30577227  1
  C  C53  1  0.42463414  0.20769359  0.80577227  1
  C  C54  1  0.92463414  0.29230641  0.19422773  1
  C  C55  1  0.57536586  0.70769359  0.69422773  1
  C  C56  1  0.01758886  0.40928688  0.10416924  1
  C  C57  1  0.48241114  0.59071312  0.60416924  1
  C  C58  1  0.98241114  0.90928688  0.39583076  1
  C  C59  1  0.51758886  0.09071312  0.89583076  1
  C  C60  1  0.24389573  0.34690338  0.30036917  1
  C  C61  1  0.25610427  0.65309662  0.80036917  1
  C  C62  1  0.75610427  0.84690338  0.19963083  1
  C  C63  1  0.74389573  0.15309662  0.69963083  1
  C  C64  1  0.08911492  0.59793663  0.05889703  1
  C  C65  1  0.41088508  0.40206337  0.55889703  1
  C  C66  1  0.91088508  0.09793663  0.44110297  1
  C  C67  1  0.58911492  0.90206337  0.94110297  1
  C  C68  1  0.61558129  0.21409938  0.01029728  1
  C  C69  1  0.88441871  0.78590062  0.51029728  1
  C  C70  1  0.38441871  0.71409938  0.48970272  1
  C  C71  1  0.11558129  0.28590062  0.98970272  1
  C  C72  1  0.52031075  0.05372197  0.08363865  1
  C  C73  1  0.97968925  0.94627803  0.58363865  1
  C  C74  1  0.47968925  0.55372197  0.41636135  1
  C  C75  1  0.02031075  0.44627803  0.91636135  1
  C  C76  1  0.25538490  0.00698087  0.17257548  1
  C  C77  1  0.24461510  0.99301913  0.67257548  1
  C  C78  1  0.74461510  0.50698087  0.32742452  1
  C  C79  1  0.75538490  0.49301913  0.82742452  1
  C  C80  1  0.25210059  0.49555969  0.18969983  1
  C  C81  1  0.24789941  0.50444031  0.68969983  1
  C  C82  1  0.74789941  0.99555969  0.31030017  1
  C  C83  1  0.75210059  0.00444031  0.81030017  1
  C  C84  1  0.10938391  0.13066175  0.56976246  1
  C  C85  1  0.39061609  0.86933825  0.06976246  1
  C  C86  1  0.89061609  0.63066175  0.93023754  1
  C  C87  1  0.60938391  0.36933825  0.43023754  1
  C  C88  1  0.14279843  0.18327101  0.15483673  1
  C  C89  1  0.35720157  0.81672899  0.65483673  1
  C  C90  1  0.85720157  0.68327101  0.34516327  1
  C  C91  1  0.64279843  0.31672899  0.84516327  1
  C  C92  1  0.37692062  0.25174865  0.45588618  1
  C  C93  1  0.12307938  0.74825135  0.95588618  1
  C  C94  1  0.62307938  0.75174865  0.04411382  1
  C  C95  1  0.87692062  0.24825135  0.54411382  1
  C  C96  1  0.97407986  0.55399025  0.23856076  1
  C  C97  1  0.52592014  0.44600975  0.73856076  1
  C  C98  1  0.02592014  0.05399025  0.26143924  1
  C  C99  1  0.47407986  0.94600975  0.76143924  1
  C  C100  1  0.35603266  0.32795897  0.13098863  1
  C  C101  1  0.14396734  0.67204103  0.63098863  1
  C  C102  1  0.64396734  0.82795897  0.36901137  1
  C  C103  1  0.85603266  0.17204103  0.86901137  1
  C  C104  1  0.83833791  0.32601578  0.99809577  1
  C  C105  1  0.66166209  0.67398422  0.49809577  1
  C  C106  1  0.16166209  0.82601578  0.50190423  1
  C  C107  1  0.33833791  0.17398422  0.00190423  1
  C  C108  1  0.49387929  0.42484027  0.25412882  1
  C  C109  1  0.00612071  0.57515973  0.75412882  1
  C  C110  1  0.50612071  0.92484027  0.24587118  1
  C  C111  1  0.99387929  0.07515973  0.74587118  1
  C  C112  1  0.27023542  0.14001236  0.31002340  1
  C  C113  1  0.22976458  0.85998764  0.81002340  1
  C  C114  1  0.72976458  0.64001236  0.18997660  1
  C  C115  1  0.77023542  0.35998764  0.68997660  1
  C  C116  1  0.07528040  0.24987318  0.42514837  1
  C  C117  1  0.42471960  0.75012682  0.92514837  1
  C  C118  1  0.92471960  0.74987318  0.07485163  1
  C  C119  1  0.57528040  0.25012682  0.57485163  1
