# generated using pymatgen
data_Cu6Ni3C2
_symmetry_space_group_name_H-M   'P 1'
_cell_length_a   10.64477438
_cell_length_b   10.64477438
_cell_length_c   10.64477366
_cell_angle_alpha   35.64622887
_cell_angle_beta   35.64622887
_cell_angle_gamma   35.64622820
_symmetry_Int_Tables_number   1
_chemical_formula_structural   Cu6Ni3C2
_chemical_formula_sum   'Cu12 Ni6 C4'
_cell_volume   366.17932214
_cell_formula_units_Z   2
loop_
 _symmetry_equiv_pos_site_id
 _symmetry_equiv_pos_as_xyz
  1  'x, y, z'
loop_
 _atom_site_type_symbol
 _atom_site_label
 _atom_site_symmetry_multiplicity
 _atom_site_fract_x
 _atom_site_fract_y
 _atom_site_fract_z
 _atom_site_occupancy
  C  C0  1  0.66347500  0.66347500  0.66347500  1
  C  C1  1  0.16347500  0.16347500  0.16347500  1
  C  C2  1  0.33652500  0.33652500  0.33652500  1
  C  C3  1  0.83652500  0.83652500  0.83652500  1
  Ni  Ni4  1  0.75000000  0.45732500  0.04267500  1
  Ni  Ni5  1  0.45732500  0.04267500  0.75000000  1
  Ni  Ni6  1  0.04267500  0.75000000  0.45732500  1
  Ni  Ni7  1  0.54267500  0.95732500  0.25000000  1
  Ni  Ni8  1  0.95732500  0.25000000  0.54267500  1
  Ni  Ni9  1  0.25000000  0.54267500  0.95732500  1
  Cu  Cu10  1  0.53853100  0.95912000  0.13621000  1
  Cu  Cu11  1  0.95912000  0.13621000  0.53853100  1
  Cu  Cu12  1  0.13621000  0.53853100  0.95912000  1
  Cu  Cu13  1  0.63621000  0.45912000  0.03853100  1
  Cu  Cu14  1  0.45912000  0.03853100  0.63621000  1
  Cu  Cu15  1  0.03853100  0.63621000  0.45912000  1
  Cu  Cu16  1  0.46146900  0.04088000  0.86379000  1
  Cu  Cu17  1  0.04088000  0.86379000  0.46146900  1
  Cu  Cu18  1  0.86379000  0.46146900  0.04088000  1
  Cu  Cu19  1  0.36379000  0.54088000  0.96146900  1
  Cu  Cu20  1  0.54088000  0.96146900  0.36379000  1
  Cu  Cu21  1  0.96146900  0.36379000  0.54088000  1
