# generated using pymatgen
data_CuNiC6
_symmetry_space_group_name_H-M   'P 1'
_cell_length_a   8.79581100
_cell_length_b   10.04351100
_cell_length_c   10.15125400
_cell_angle_alpha   90.00000000
_cell_angle_beta   90.00000000
_cell_angle_gamma   90.00000000
_symmetry_Int_Tables_number   1
_chemical_formula_structural   CuNiC6
_chemical_formula_sum   'Cu8 Ni8 C48'
_cell_volume   896.77014840
_cell_formula_units_Z   8
loop_
 _symmetry_equiv_pos_site_id
 _symmetry_equiv_pos_as_xyz
  1  'x, y, z'
loop_
 _atom_site_type_symbol
 _atom_site_label
 _atom_site_symmetry_multiplicity
 _atom_site_fract_x
 _atom_site_fract_y
 _atom_site_fract_z
 _atom_site_occupancy
  Ni  Ni0  1  0.35716800  0.18357800  0.12775200  1
  Ni  Ni1  1  0.64283200  0.81642200  0.87224800  1
  Ni  Ni2  1  0.14283200  0.81642200  0.62775200  1
  Ni  Ni3  1  0.64283200  0.68357800  0.37224800  1
  Ni  Ni4  1  0.85716800  0.18357800  0.37224800  1
  Ni  Ni5  1  0.35716800  0.31642200  0.62775200  1
  Ni  Ni6  1  0.85716800  0.31642200  0.87224800  1
  Ni  Ni7  1  0.14283200  0.68357800  0.12775200  1
  Cu  Cu8  1  0.04039000  0.36593700  0.15918000  1
  Cu  Cu9  1  0.95961000  0.63406300  0.84082000  1
  Cu  Cu10  1  0.45961000  0.63406300  0.65918000  1
  Cu  Cu11  1  0.95961000  0.86593700  0.34082000  1
  Cu  Cu12  1  0.54039000  0.36593700  0.34082000  1
  Cu  Cu13  1  0.04039000  0.13406300  0.65918000  1
  Cu  Cu14  1  0.54039000  0.13406300  0.84082000  1
  Cu  Cu15  1  0.45961000  0.86593700  0.15918000  1
  C  C16  1  0.49320100  0.03376300  0.16701300  1
  C  C17  1  0.50679900  0.96623700  0.83298700  1
  C  C18  1  0.00679900  0.96623700  0.66701300  1
  C  C19  1  0.50679900  0.53376300  0.33298700  1
  C  C20  1  0.99320100  0.03376300  0.33298700  1
  C  C21  1  0.49320100  0.46623700  0.66701300  1
  C  C22  1  0.99320100  0.46623700  0.83298700  1
  C  C23  1  0.00679900  0.53376300  0.16701300  1
  C  C24  1  0.22372900  0.34299200  0.10265700  1
  C  C25  1  0.77627100  0.65700800  0.89734300  1
  C  C26  1  0.27627100  0.65700800  0.60265700  1
  C  C27  1  0.77627100  0.84299200  0.39734300  1
  C  C28  1  0.72372900  0.34299200  0.39734300  1
  C  C29  1  0.22372900  0.15700800  0.60265700  1
  C  C30  1  0.72372900  0.15700800  0.89734300  1
  C  C31  1  0.27627100  0.84299200  0.10265700  1
  C  C32  1  0.40296300  0.29372700  0.44014200  1
  C  C33  1  0.59703700  0.70627300  0.55985800  1
  C  C34  1  0.09703700  0.70627300  0.94014200  1
  C  C35  1  0.59703700  0.79372700  0.05985800  1
  C  C36  1  0.90296300  0.29372700  0.05985800  1
  C  C37  1  0.40296300  0.20627300  0.94014200  1
  C  C38  1  0.90296300  0.20627300  0.55985800  1
  C  C39  1  0.09703700  0.79372700  0.44014200  1
  C  C40  1  0.19210100  0.05194700  0.05764000  1
  C  C41  1  0.80789900  0.94805300  0.94236000  1
  C  C42  1  0.30789900  0.94805300  0.55764000  1
  C  C43  1  0.80789900  0.55194700  0.44236000  1
  C  C44  1  0.69210100  0.05194700  0.44236000  1
  C  C45  1  0.19210100  0.44805300  0.55764000  1
  C  C46  1  0.69210100  0.44805300  0.94236000  1
  C  C47  1  0.30789900  0.55194700  0.05764000  1
  C  C48  1  0.25943400  0.14733200  0.30577400  1
  C  C49  1  0.74056600  0.85266900  0.69422600  1
  C  C50  1  0.24056600  0.85266900  0.80577400  1
  C  C51  1  0.74056600  0.64733100  0.19422600  1
  C  C52  1  0.75943400  0.14733200  0.19422600  1
  C  C53  1  0.25943400  0.35266800  0.80577400  1
  C  C54  1  0.75943400  0.35266800  0.69422600  1
  C  C55  1  0.24056600  0.64733100  0.30577400  1
  C  C56  1  0.02709500  0.29258600  0.31101300  1
  C  C57  1  0.97290500  0.70741400  0.68898700  1
  C  C58  1  0.47290500  0.70741400  0.81101300  1
  C  C59  1  0.97290500  0.79258600  0.18898700  1
  C  C60  1  0.52709500  0.29258600  0.18898700  1
  C  C61  1  0.02709500  0.20741400  0.81101300  1
  C  C62  1  0.52709500  0.20741400  0.68898700  1
  C  C63  1  0.47290500  0.79258600  0.31101300  1
