# generated using pymatgen
data_Cu11Ni3C17
_symmetry_space_group_name_H-M   'P 1'
_cell_length_a   7.47389200
_cell_length_b   13.31018991
_cell_length_c   22.96699117
_cell_angle_alpha   100.46736821
_cell_angle_beta   99.30225104
_cell_angle_gamma   92.47206952
_symmetry_Int_Tables_number   1
_chemical_formula_structural   Cu11Ni3C17
_chemical_formula_sum   'Cu44 Ni12 C68'
_cell_volume   2210.96857325
_cell_formula_units_Z   4
loop_
 _symmetry_equiv_pos_site_id
 _symmetry_equiv_pos_as_xyz
  1  'x, y, z'
loop_
 _atom_site_type_symbol
 _atom_site_label
 _atom_site_symmetry_multiplicity
 _atom_site_fract_x
 _atom_site_fract_y
 _atom_site_fract_z
 _atom_site_occupancy
  Ni  Ni0  1  0.10460200  0.11545800  0.14910700  1
  Ni  Ni1  1  0.89539800  0.88454200  0.85089300  1
  Ni  Ni2  1  0.31166400  0.90208300  0.14450300  1
  Ni  Ni3  1  0.68833600  0.09791700  0.85549700  1
  Ni  Ni4  1  0.20344800  0.88632000  0.41367200  1
  Ni  Ni5  1  0.79655200  0.11368000  0.58632800  1
  Ni  Ni6  1  0.26286700  0.60383600  0.58139300  1
  Ni  Ni7  1  0.73713300  0.39616400  0.41860700  1
  Ni  Ni8  1  0.40275800  0.38744300  0.85268700  1
  Ni  Ni9  1  0.59724200  0.61255700  0.14731300  1
  Ni  Ni10  1  0.18101300  0.59842500  0.84750300  1
  Ni  Ni11  1  0.81898700  0.40157500  0.15249700  1
  Cu  Cu12  1  0.25889100  0.00301000  0.00513200  1
  Cu  Cu13  1  0.74110900  0.99698900  0.99486800  1
  Cu  Cu14  1  0.00612500  0.25433900  0.01230600  1
  Cu  Cu15  1  0.99387500  0.74566100  0.98769400  1
  Cu  Cu16  1  0.24552600  0.49505500  0.99582700  1
  Cu  Cu17  1  0.75447400  0.50494500  0.00417300  1
  Cu  Cu18  1  0.50036200  0.75159400  0.00503400  1
  Cu  Cu19  1  0.49963800  0.24840600  0.99496600  1
  Cu  Cu20  1  0.29635300  0.37346700  0.14063400  1
  Cu  Cu21  1  0.70364700  0.62653300  0.85936600  1
  Cu  Cu22  1  0.11214900  0.63995400  0.13581500  1
  Cu  Cu23  1  0.88785100  0.36004600  0.86418500  1
  Cu  Cu24  1  0.16139700  0.01662400  0.28700500  1
  Cu  Cu25  1  0.83860300  0.98337600  0.71299500  1
  Cu  Cu26  1  0.42626800  0.26139900  0.28383300  1
  Cu  Cu27  1  0.57373200  0.73860100  0.71616700  1
  Cu  Cu28  1  0.14382800  0.51255300  0.28078900  1
  Cu  Cu29  1  0.85617200  0.48744700  0.71921100  1
  Cu  Cu30  1  0.39408800  0.76652200  0.27791300  1
  Cu  Cu31  1  0.60591200  0.23347800  0.72208700  1
  Cu  Cu32  1  0.01335400  0.13119700  0.44308800  1
  Cu  Cu33  1  0.98664600  0.86880300  0.55691200  1
  Cu  Cu34  1  0.22998600  0.41383400  0.42370900  1
  Cu  Cu35  1  0.77001400  0.58616600  0.57629100  1
  Cu  Cu36  1  0.03158000  0.66238900  0.43150500  1
  Cu  Cu37  1  0.96842000  0.33761100  0.56849500  1
  Cu  Cu38  1  0.29015900  0.11373300  0.59167500  1
  Cu  Cu39  1  0.70984100  0.88626700  0.40832500  1
  Cu  Cu40  1  0.49824200  0.34821200  0.56396100  1
  Cu  Cu41  1  0.50175800  0.65178800  0.43603900  1
  Cu  Cu42  1  0.49718200  0.85952100  0.58111700  1
  Cu  Cu43  1  0.50281800  0.14047900  0.41888300  1
  Cu  Cu44  1  0.10641600  0.24262300  0.72652800  1
  Cu  Cu45  1  0.89358400  0.75737700  0.27347200  1
  Cu  Cu46  1  0.36116600  0.46846400  0.70409500  1
  Cu  Cu47  1  0.63883400  0.53153600  0.29590500  1
  Cu  Cu48  1  0.06254900  0.74222900  0.70418800  1
  Cu  Cu49  1  0.93745100  0.25777100  0.29581200  1
  Cu  Cu50  1  0.33982900  0.98696200  0.72294800  1
  Cu  Cu51  1  0.66017100  0.01303800  0.27705200  1
  Cu  Cu52  1  0.20733400  0.13476900  0.86511200  1
  Cu  Cu53  1  0.79266600  0.86523100  0.13488800  1
  Cu  Cu54  1  0.38033300  0.85347500  0.85995400  1
  Cu  Cu55  1  0.61966700  0.14652500  0.14004600  1
  C  C56  1  0.27849600  0.35139100  0.04196000  1
  C  C57  1  0.72150400  0.64860900  0.95804000  1
  C  C58  1  0.03343300  0.60036200  0.03692900  1
  C  C59  1  0.96656700  0.39963800  0.96307100  1
  C  C60  1  0.20936600  0.00809800  0.13351900  1
  C  C61  1  0.79063400  0.99190200  0.86648100  1
  C  C62  1  0.20048700  0.19863500  0.11622300  1
  C  C63  1  0.79951300  0.80136500  0.88377700  1
  C  C64  1  0.38708800  0.57778400  0.11164500  1
  C  C65  1  0.61291200  0.42221600  0.88835500  1
  C  C66  1  0.14911200  0.80809100  0.12425800  1
  C  C67  1  0.85088800  0.19190900  0.87574200  1
  C  C68  1  0.47163100  0.89132300  0.10234800  1
  C  C69  1  0.52836900  0.10867700  0.89765200  1
  C  C70  1  0.13533800  0.15200500  0.22333100  1
  C  C71  1  0.86466200  0.84799500  0.77666900  1
  C  C72  1  0.39934900  0.91709800  0.21640000  1
  C  C73  1  0.60065100  0.08290200  0.78360000  1
  C  C74  1  0.43543500  0.10359900  0.31365900  1
  C  C75  1  0.56456500  0.89640100  0.68634100  1
  C  C76  1  0.20397800  0.35542100  0.31781200  1
  C  C77  1  0.79602200  0.64457900  0.68218800  1
  C  C78  1  0.09799700  0.15092500  0.35629000  1
  C  C79  1  0.90200300  0.84907500  0.64371000  1
  C  C80  1  0.23275700  0.56172600  0.38780700  1
  C  C81  1  0.76724300  0.43827400  0.61219300  1
  C  C82  1  0.00083800  0.83823900  0.37360400  1
  C  C83  1  0.99916200  0.16176100  0.62639600  1
  C  C84  1  0.34912100  0.91158200  0.36965100  1
  C  C85  1  0.65087900  0.08841800  0.63034900  1
  C  C86  1  0.27339500  0.79593700  0.45176100  1
  C  C87  1  0.72660500  0.20406300  0.54823900  1
  C  C88  1  0.16759800  0.99225800  0.45863100  1
  C  C89  1  0.83240200  0.00774200  0.54136900  1
  C  C90  1  0.21307600  0.58961200  0.50846000  1
  C  C91  1  0.78692400  0.41038800  0.49154000  1
  C  C92  1  0.36190500  0.50380900  0.60179900  1
  C  C93  1  0.63809500  0.49619100  0.39820100  1
  C  C94  1  0.07751200  0.61655300  0.61348500  1
  C  C95  1  0.92248800  0.38344700  0.38651500  1
  C  C96  1  0.40407000  0.70813500  0.61222900  1
  C  C97  1  0.59593000  0.29186500  0.38777100  1
  C  C98  1  0.25528700  0.94923300  0.60779900  1
  C  C99  1  0.74471300  0.05076700  0.39220100  1
  C  C100  1  0.33625200  0.14149200  0.69476100  1
  C  C101  1  0.66374800  0.85850800  0.30523900  1
  C  C102  1  0.45305800  0.32046700  0.65375800  1
  C  C103  1  0.54694200  0.67953300  0.34624200  1
  C  C104  1  0.08254500  0.38885500  0.68695600  1
  C  C105  1  0.91745500  0.61114500  0.31304400  1
  C  C106  1  0.40431700  0.33543600  0.78155300  1
  C  C107  1  0.59568300  0.66456400  0.21844700  1
  C  C108  1  0.10208100  0.60048300  0.77655700  1
  C  C109  1  0.89791900  0.39951700  0.22344300  1
  C  C110  1  0.28908200  0.49172800  0.85148500  1
  C  C111  1  0.71091800  0.50827200  0.14851500  1
  C  C112  1  0.29113600  0.31249400  0.88698900  1
  C  C113  1  0.70886400  0.68750600  0.11301100  1
  C  C114  1  0.01548300  0.59519300  0.88742200  1
  C  C115  1  0.98451700  0.40480700  0.11257800  1
  C  C116  1  0.33799000  0.69331800  0.87787600  1
  C  C117  1  0.66201000  0.30668200  0.12212400  1
  C  C118  1  0.11139000  0.91458200  0.88081900  1
  C  C119  1  0.88861000  0.08541800  0.11918100  1
  C  C120  1  0.22088000  0.15272600  0.96307100  1
  C  C121  1  0.77912000  0.84727400  0.03692900  1
  C  C122  1  0.46763200  0.90004600  0.95909200  1
  C  C123  1  0.53236800  0.09995400  0.04090800  1
