# generated using pymatgen
data_Cu4NiC8
_symmetry_space_group_name_H-M   'P 1'
_cell_length_a   19.48382880
_cell_length_b   19.48382880
_cell_length_c   19.48382880
_cell_angle_alpha   60.00000000
_cell_angle_beta   60.00000000
_cell_angle_gamma   60.00000000
_symmetry_Int_Tables_number   1
_chemical_formula_structural   Cu4NiC8
_chemical_formula_sum   'Cu96 Ni24 C192'
_cell_volume   5230.07500257
_cell_formula_units_Z   24
loop_
 _symmetry_equiv_pos_site_id
 _symmetry_equiv_pos_as_xyz
  1  'x, y, z'
loop_
 _atom_site_type_symbol
 _atom_site_label
 _atom_site_symmetry_multiplicity
 _atom_site_fract_x
 _atom_site_fract_y
 _atom_site_fract_z
 _atom_site_occupancy
  Ni  Ni0  1  0.25000000  0.75000000  0.97152563  1
  Ni  Ni1  1  0.52847437  0.97152563  0.75000000  1
  Ni  Ni2  1  0.97152563  0.52847437  0.25000000  1
  Ni  Ni3  1  0.75000000  0.25000000  0.52847437  1
  Ni  Ni4  1  0.97152563  0.25000000  0.75000000  1
  Ni  Ni5  1  0.75000000  0.52847437  0.97152563  1
  Ni  Ni6  1  0.25000000  0.97152563  0.52847437  1
  Ni  Ni7  1  0.52847437  0.75000000  0.25000000  1
  Ni  Ni8  1  0.75000000  0.97152563  0.25000000  1
  Ni  Ni9  1  0.97152563  0.75000000  0.52847437  1
  Ni  Ni10  1  0.52847437  0.25000000  0.97152563  1
  Ni  Ni11  1  0.25000000  0.52847437  0.75000000  1
  Ni  Ni12  1  0.75000000  0.25000000  0.02847437  1
  Ni  Ni13  1  0.47152563  0.02847437  0.25000000  1
  Ni  Ni14  1  0.02847437  0.47152563  0.75000000  1
  Ni  Ni15  1  0.25000000  0.75000000  0.47152563  1
  Ni  Ni16  1  0.02847437  0.75000000  0.25000000  1
  Ni  Ni17  1  0.25000000  0.47152563  0.02847437  1
  Ni  Ni18  1  0.75000000  0.02847437  0.47152563  1
  Ni  Ni19  1  0.47152563  0.25000000  0.75000000  1
  Ni  Ni20  1  0.25000000  0.02847437  0.75000000  1
  Ni  Ni21  1  0.02847437  0.25000000  0.47152563  1
  Ni  Ni22  1  0.47152563  0.75000000  0.02847437  1
  Ni  Ni23  1  0.75000000  0.47152563  0.25000000  1
  Cu  Cu24  1  0.15573185  0.76694016  0.93280076  1
  Cu  Cu25  1  0.64452723  0.93280076  0.76694016  1
  Cu  Cu26  1  0.93280076  0.64452723  0.15573185  1
  Cu  Cu27  1  0.76694016  0.15573185  0.64452723  1
  Cu  Cu28  1  0.93280076  0.15573185  0.76694016  1
  Cu  Cu29  1  0.76694016  0.64452723  0.93280076  1
  Cu  Cu30  1  0.15573185  0.93280076  0.64452723  1
  Cu  Cu31  1  0.64452723  0.76694016  0.15573185  1
  Cu  Cu32  1  0.76694016  0.93280076  0.15573185  1
  Cu  Cu33  1  0.93280076  0.76694016  0.64452723  1
  Cu  Cu34  1  0.64452723  0.15573185  0.93280076  1
  Cu  Cu35  1  0.15573185  0.64452723  0.76694016  1
  Cu  Cu36  1  0.84426815  0.23305984  0.06719924  1
  Cu  Cu37  1  0.35547277  0.06719924  0.23305984  1
  Cu  Cu38  1  0.06719924  0.35547277  0.84426815  1
  Cu  Cu39  1  0.23305984  0.84426815  0.35547277  1
  Cu  Cu40  1  0.06719924  0.84426815  0.23305984  1
  Cu  Cu41  1  0.23305984  0.35547277  0.06719924  1
  Cu  Cu42  1  0.84426815  0.06719924  0.35547277  1
  Cu  Cu43  1  0.35547277  0.23305984  0.84426815  1
  Cu  Cu44  1  0.23305984  0.06719924  0.84426815  1
  Cu  Cu45  1  0.06719924  0.23305984  0.35547277  1
  Cu  Cu46  1  0.35547277  0.84426815  0.06719924  1
  Cu  Cu47  1  0.84426815  0.35547277  0.23305984  1
  Cu  Cu48  1  0.26694016  0.65573185  0.43280076  1
  Cu  Cu49  1  0.43280076  0.14452723  0.26694016  1
  Cu  Cu50  1  0.14452723  0.43280076  0.65573185  1
  Cu  Cu51  1  0.65573185  0.26694016  0.14452723  1
  Cu  Cu52  1  0.65573185  0.43280076  0.26694016  1
  Cu  Cu53  1  0.14452723  0.26694016  0.43280076  1
  Cu  Cu54  1  0.43280076  0.65573185  0.14452723  1
  Cu  Cu55  1  0.26694016  0.14452723  0.65573185  1
  Cu  Cu56  1  0.43280076  0.26694016  0.65573185  1
  Cu  Cu57  1  0.26694016  0.43280076  0.14452723  1
  Cu  Cu58  1  0.65573185  0.14452723  0.43280076  1
  Cu  Cu59  1  0.14452723  0.65573185  0.26694016  1
  Cu  Cu60  1  0.73305984  0.34426815  0.56719924  1
  Cu  Cu61  1  0.56719924  0.85547277  0.73305984  1
  Cu  Cu62  1  0.85547277  0.56719924  0.34426815  1
  Cu  Cu63  1  0.34426815  0.73305984  0.85547277  1
  Cu  Cu64  1  0.34426815  0.56719924  0.73305984  1
  Cu  Cu65  1  0.85547277  0.73305984  0.56719924  1
  Cu  Cu66  1  0.56719924  0.34426815  0.85547277  1
  Cu  Cu67  1  0.73305984  0.85547277  0.34426815  1
  Cu  Cu68  1  0.56719924  0.73305984  0.34426815  1
  Cu  Cu69  1  0.73305984  0.56719924  0.85547277  1
  Cu  Cu70  1  0.34426815  0.85547277  0.56719924  1
  Cu  Cu71  1  0.85547277  0.34426815  0.73305984  1
  Cu  Cu72  1  0.08424541  0.83202664  0.93330764  1
  Cu  Cu73  1  0.65042031  0.93330764  0.83202664  1
  Cu  Cu74  1  0.93330764  0.65042031  0.08424541  1
  Cu  Cu75  1  0.83202664  0.08424541  0.65042031  1
  Cu  Cu76  1  0.93330764  0.08424541  0.83202664  1
  Cu  Cu77  1  0.83202664  0.65042031  0.93330764  1
  Cu  Cu78  1  0.08424541  0.93330764  0.65042031  1
  Cu  Cu79  1  0.65042031  0.83202664  0.08424541  1
  Cu  Cu80  1  0.83202664  0.93330764  0.08424541  1
  Cu  Cu81  1  0.93330764  0.83202664  0.65042031  1
  Cu  Cu82  1  0.65042031  0.08424541  0.93330764  1
  Cu  Cu83  1  0.08424541  0.65042031  0.83202664  1
  Cu  Cu84  1  0.91575459  0.16797336  0.06669236  1
  Cu  Cu85  1  0.34957969  0.06669236  0.16797336  1
  Cu  Cu86  1  0.06669236  0.34957969  0.91575459  1
  Cu  Cu87  1  0.16797336  0.91575459  0.34957969  1
  Cu  Cu88  1  0.06669236  0.91575459  0.16797336  1
  Cu  Cu89  1  0.16797336  0.34957969  0.06669236  1
  Cu  Cu90  1  0.91575459  0.06669236  0.34957969  1
  Cu  Cu91  1  0.34957969  0.16797336  0.91575459  1
  Cu  Cu92  1  0.16797336  0.06669236  0.91575459  1
  Cu  Cu93  1  0.06669236  0.16797336  0.34957969  1
  Cu  Cu94  1  0.34957969  0.91575459  0.06669236  1
  Cu  Cu95  1  0.91575459  0.34957969  0.16797336  1
  Cu  Cu96  1  0.33202664  0.58424541  0.43330764  1
  Cu  Cu97  1  0.43330764  0.15042031  0.33202664  1
  Cu  Cu98  1  0.15042031  0.43330764  0.58424541  1
  Cu  Cu99  1  0.58424541  0.33202664  0.15042031  1
  Cu  Cu100  1  0.58424541  0.43330764  0.33202664  1
  Cu  Cu101  1  0.15042031  0.33202664  0.43330764  1
  Cu  Cu102  1  0.43330764  0.58424541  0.15042031  1
  Cu  Cu103  1  0.33202664  0.15042031  0.58424541  1
  Cu  Cu104  1  0.43330764  0.33202664  0.58424541  1
  Cu  Cu105  1  0.33202664  0.43330764  0.15042031  1
  Cu  Cu106  1  0.58424541  0.15042031  0.43330764  1
  Cu  Cu107  1  0.15042031  0.58424541  0.33202664  1
  Cu  Cu108  1  0.66797336  0.41575459  0.56669236  1
  Cu  Cu109  1  0.56669236  0.84957969  0.66797336  1
  Cu  Cu110  1  0.84957969  0.56669236  0.41575459  1
  Cu  Cu111  1  0.41575459  0.66797336  0.84957969  1
  Cu  Cu112  1  0.41575459  0.56669236  0.66797336  1
  Cu  Cu113  1  0.84957969  0.66797336  0.56669236  1
  Cu  Cu114  1  0.56669236  0.41575459  0.84957969  1
  Cu  Cu115  1  0.66797336  0.84957969  0.41575459  1
  Cu  Cu116  1  0.56669236  0.66797336  0.41575459  1
  Cu  Cu117  1  0.66797336  0.56669236  0.84957969  1
  Cu  Cu118  1  0.41575459  0.84957969  0.56669236  1
  Cu  Cu119  1  0.84957969  0.41575459  0.66797336  1
  C  C120  1  0.23858273  0.87279258  0.90491754  1
  C  C121  1  0.48370715  0.90491754  0.87279258  1
  C  C122  1  0.90491754  0.48370715  0.23858273  1
  C  C123  1  0.87279258  0.23858273  0.48370715  1
  C  C124  1  0.90491754  0.23858273  0.87279258  1
  C  C125  1  0.87279258  0.48370715  0.90491754  1
  C  C126  1  0.23858273  0.90491754  0.48370715  1
  C  C127  1  0.48370715  0.87279258  0.23858273  1
  C  C128  1  0.87279258  0.90491754  0.23858273  1
  C  C129  1  0.90491754  0.87279258  0.48370715  1
  C  C130  1  0.48370715  0.23858273  0.90491754  1
  C  C131  1  0.23858273  0.48370715  0.87279258  1
  C  C132  1  0.76141727  0.12720742  0.09508246  1
  C  C133  1  0.51629285  0.09508246  0.12720742  1
  C  C134  1  0.09508246  0.51629285  0.76141727  1
  C  C135  1  0.12720742  0.76141727  0.51629285  1
  C  C136  1  0.09508246  0.76141727  0.12720742  1
  C  C137  1  0.12720742  0.51629285  0.09508246  1
  C  C138  1  0.76141727  0.09508246  0.51629285  1
  C  C139  1  0.51629285  0.12720742  0.76141727  1
  C  C140  1  0.12720742  0.09508246  0.76141727  1
  C  C141  1  0.09508246  0.12720742  0.51629285  1
  C  C142  1  0.51629285  0.76141727  0.09508246  1
  C  C143  1  0.76141727  0.51629285  0.12720742  1
  C  C144  1  0.37279258  0.73858273  0.40491754  1
  C  C145  1  0.40491754  0.98370715  0.37279258  1
  C  C146  1  0.98370715  0.40491754  0.73858273  1
  C  C147  1  0.73858273  0.37279258  0.98370715  1
  C  C148  1  0.73858273  0.40491754  0.37279258  1
  C  C149  1  0.98370715  0.37279258  0.40491754  1
  C  C150  1  0.40491754  0.73858273  0.98370715  1
  C  C151  1  0.37279258  0.98370715  0.73858273  1
  C  C152  1  0.40491754  0.37279258  0.73858273  1
  C  C153  1  0.37279258  0.40491754  0.98370715  1
  C  C154  1  0.73858273  0.98370715  0.40491754  1
  C  C155  1  0.98370715  0.73858273  0.37279258  1
  C  C156  1  0.62720742  0.26141727  0.59508246  1
  C  C157  1  0.59508246  0.01629285  0.62720742  1
  C  C158  1  0.01629285  0.59508246  0.26141727  1
  C  C159  1  0.26141727  0.62720742  0.01629285  1
  C  C160  1  0.26141727  0.59508246  0.62720742  1
  C  C161  1  0.01629285  0.62720742  0.59508246  1
  C  C162  1  0.59508246  0.26141727  0.01629285  1
  C  C163  1  0.62720742  0.01629285  0.26141727  1
  C  C164  1  0.59508246  0.62720742  0.26141727  1
  C  C165  1  0.62720742  0.59508246  0.01629285  1
  C  C166  1  0.26141727  0.01629285  0.59508246  1
  C  C167  1  0.01629285  0.26141727  0.62720742  1
  C  C168  1  0.02588093  0.84170128  0.90953287  1
  C  C169  1  0.72288493  0.90953287  0.84170128  1
  C  C170  1  0.90953287  0.72288493  0.02588093  1
  C  C171  1  0.84170128  0.02588093  0.72288493  1
  C  C172  1  0.90953287  0.02588093  0.84170128  1
  C  C173  1  0.84170128  0.72288493  0.90953287  1
  C  C174  1  0.02588093  0.90953287  0.72288493  1
  C  C175  1  0.72288493  0.84170128  0.02588093  1
  C  C176  1  0.84170128  0.90953287  0.02588093  1
  C  C177  1  0.90953287  0.84170128  0.72288493  1
  C  C178  1  0.72288493  0.02588093  0.90953287  1
  C  C179  1  0.02588093  0.72288493  0.84170128  1
  C  C180  1  0.97411907  0.15829872  0.09046713  1
  C  C181  1  0.27711507  0.09046713  0.15829872  1
  C  C182  1  0.09046713  0.27711507  0.97411907  1
  C  C183  1  0.15829872  0.97411907  0.27711507  1
  C  C184  1  0.09046713  0.97411907  0.15829872  1
  C  C185  1  0.15829872  0.27711507  0.09046713  1
  C  C186  1  0.97411907  0.09046713  0.27711507  1
  C  C187  1  0.27711507  0.15829872  0.97411907  1
  C  C188  1  0.15829872  0.09046713  0.97411907  1
  C  C189  1  0.09046713  0.15829872  0.27711507  1
  C  C190  1  0.27711507  0.97411907  0.09046713  1
  C  C191  1  0.97411907  0.27711507  0.15829872  1
  C  C192  1  0.34170128  0.52588093  0.40953287  1
  C  C193  1  0.40953287  0.22288493  0.34170128  1
  C  C194  1  0.22288493  0.40953287  0.52588093  1
  C  C195  1  0.52588093  0.34170128  0.22288493  1
  C  C196  1  0.52588093  0.40953287  0.34170128  1
  C  C197  1  0.22288493  0.34170128  0.40953287  1
  C  C198  1  0.40953287  0.52588093  0.22288493  1
  C  C199  1  0.34170128  0.22288493  0.52588093  1
  C  C200  1  0.40953287  0.34170128  0.52588093  1
  C  C201  1  0.34170128  0.40953287  0.22288493  1
  C  C202  1  0.52588093  0.22288493  0.40953287  1
  C  C203  1  0.22288493  0.52588093  0.34170128  1
  C  C204  1  0.65829872  0.47411907  0.59046713  1
  C  C205  1  0.59046713  0.77711507  0.65829872  1
  C  C206  1  0.77711507  0.59046713  0.47411907  1
  C  C207  1  0.47411907  0.65829872  0.77711507  1
  C  C208  1  0.47411907  0.59046713  0.65829872  1
  C  C209  1  0.77711507  0.65829872  0.59046713  1
  C  C210  1  0.59046713  0.47411907  0.77711507  1
  C  C211  1  0.65829872  0.77711507  0.47411907  1
  C  C212  1  0.59046713  0.65829872  0.47411907  1
  C  C213  1  0.65829872  0.59046713  0.77711507  1
  C  C214  1  0.47411907  0.77711507  0.59046713  1
  C  C215  1  0.77711507  0.47411907  0.65829872  1
  C  C216  1  0.16940278  0.70501061  0.90928049  1
  C  C217  1  0.71630612  0.90928049  0.70501061  1
  C  C218  1  0.90928049  0.71630612  0.16940278  1
  C  C219  1  0.70501061  0.16940278  0.71630612  1
  C  C220  1  0.90928049  0.16940278  0.70501061  1
  C  C221  1  0.70501061  0.71630612  0.90928049  1
  C  C222  1  0.16940278  0.90928049  0.71630612  1
  C  C223  1  0.71630612  0.70501061  0.16940278  1
  C  C224  1  0.70501061  0.90928049  0.16940278  1
  C  C225  1  0.90928049  0.70501061  0.71630612  1
  C  C226  1  0.71630612  0.16940278  0.90928049  1
  C  C227  1  0.16940278  0.71630612  0.70501061  1
  C  C228  1  0.83059722  0.29498939  0.09071951  1
  C  C229  1  0.28369388  0.09071951  0.29498939  1
  C  C230  1  0.09071951  0.28369388  0.83059722  1
  C  C231  1  0.29498939  0.83059722  0.28369388  1
  C  C232  1  0.09071951  0.83059722  0.29498939  1
  C  C233  1  0.29498939  0.28369388  0.09071951  1
  C  C234  1  0.83059722  0.09071951  0.28369388  1
  C  C235  1  0.28369388  0.29498939  0.83059722  1
  C  C236  1  0.29498939  0.09071951  0.83059722  1
  C  C237  1  0.09071951  0.29498939  0.28369388  1
  C  C238  1  0.28369388  0.83059722  0.09071951  1
  C  C239  1  0.83059722  0.28369388  0.29498939  1
  C  C240  1  0.20501061  0.66940278  0.40928049  1
  C  C241  1  0.40928049  0.21630612  0.20501061  1
  C  C242  1  0.21630612  0.40928049  0.66940278  1
  C  C243  1  0.66940278  0.20501061  0.21630612  1
  C  C244  1  0.66940278  0.40928049  0.20501061  1
  C  C245  1  0.21630612  0.20501061  0.40928049  1
  C  C246  1  0.40928049  0.66940278  0.21630612  1
  C  C247  1  0.20501061  0.21630612  0.66940278  1
  C  C248  1  0.40928049  0.20501061  0.66940278  1
  C  C249  1  0.20501061  0.40928049  0.21630612  1
  C  C250  1  0.66940278  0.21630612  0.40928049  1
  C  C251  1  0.21630612  0.66940278  0.20501061  1
  C  C252  1  0.79498939  0.33059722  0.59071951  1
  C  C253  1  0.59071951  0.78369388  0.79498939  1
  C  C254  1  0.78369388  0.59071951  0.33059722  1
  C  C255  1  0.33059722  0.79498939  0.78369388  1
  C  C256  1  0.33059722  0.59071951  0.79498939  1
  C  C257  1  0.78369388  0.79498939  0.59071951  1
  C  C258  1  0.59071951  0.33059722  0.78369388  1
  C  C259  1  0.79498939  0.78369388  0.33059722  1
  C  C260  1  0.59071951  0.79498939  0.33059722  1
  C  C261  1  0.79498939  0.59071951  0.78369388  1
  C  C262  1  0.33059722  0.78369388  0.59071951  1
  C  C263  1  0.78369388  0.33059722  0.79498939  1
  C  C264  1  0.06317599  0.89517156  0.95663670  1
  C  C265  1  0.58501576  0.95663670  0.89517156  1
  C  C266  1  0.95663670  0.58501576  0.06317599  1
  C  C267  1  0.89517156  0.06317599  0.58501576  1
  C  C268  1  0.95663670  0.06317599  0.89517156  1
  C  C269  1  0.89517156  0.58501576  0.95663670  1
  C  C270  1  0.06317599  0.95663670  0.58501576  1
  C  C271  1  0.58501576  0.89517156  0.06317599  1
  C  C272  1  0.89517156  0.95663670  0.06317599  1
  C  C273  1  0.95663670  0.89517156  0.58501576  1
  C  C274  1  0.58501576  0.06317599  0.95663670  1
  C  C275  1  0.06317599  0.58501576  0.89517156  1
  C  C276  1  0.93682401  0.10482844  0.04336330  1
  C  C277  1  0.41498424  0.04336330  0.10482844  1
  C  C278  1  0.04336330  0.41498424  0.93682401  1
  C  C279  1  0.10482844  0.93682401  0.41498424  1
  C  C280  1  0.04336330  0.93682401  0.10482844  1
  C  C281  1  0.10482844  0.41498424  0.04336330  1
  C  C282  1  0.93682401  0.04336330  0.41498424  1
  C  C283  1  0.41498424  0.10482844  0.93682401  1
  C  C284  1  0.10482844  0.04336330  0.93682401  1
  C  C285  1  0.04336330  0.10482844  0.41498424  1
  C  C286  1  0.41498424  0.93682401  0.04336330  1
  C  C287  1  0.93682401  0.41498424  0.10482844  1
  C  C288  1  0.39517156  0.56317599  0.45663670  1
  C  C289  1  0.45663670  0.08501576  0.39517156  1
  C  C290  1  0.08501576  0.45663670  0.56317599  1
  C  C291  1  0.56317599  0.39517156  0.08501576  1
  C  C292  1  0.56317599  0.45663670  0.39517156  1
  C  C293  1  0.08501576  0.39517156  0.45663670  1
  C  C294  1  0.45663670  0.56317599  0.08501576  1
  C  C295  1  0.39517156  0.08501576  0.56317599  1
  C  C296  1  0.45663670  0.39517156  0.56317599  1
  C  C297  1  0.39517156  0.45663670  0.08501576  1
  C  C298  1  0.56317599  0.08501576  0.45663670  1
  C  C299  1  0.08501576  0.56317599  0.39517156  1
  C  C300  1  0.60482844  0.43682401  0.54336330  1
  C  C301  1  0.54336330  0.91498424  0.60482844  1
  C  C302  1  0.91498424  0.54336330  0.43682401  1
  C  C303  1  0.43682401  0.60482844  0.91498424  1
  C  C304  1  0.43682401  0.54336330  0.60482844  1
  C  C305  1  0.91498424  0.60482844  0.54336330  1
  C  C306  1  0.54336330  0.43682401  0.91498424  1
  C  C307  1  0.60482844  0.91498424  0.43682401  1
  C  C308  1  0.54336330  0.60482844  0.43682401  1
  C  C309  1  0.60482844  0.54336330  0.91498424  1
  C  C310  1  0.43682401  0.91498424  0.54336330  1
  C  C311  1  0.91498424  0.43682401  0.60482844  1
