# generated using pymatgen
data_CuNi6C
_symmetry_space_group_name_H-M   'P 1'
_cell_length_a   4.57242700
_cell_length_b   6.40752600
_cell_length_c   10.74132400
_cell_angle_alpha   90.00000000
_cell_angle_beta   90.00000000
_cell_angle_gamma   90.00000000
_symmetry_Int_Tables_number   1
_chemical_formula_structural   CuNi6C
_chemical_formula_sum   'Cu2 Ni12 C2'
_cell_volume   314.69871855
_cell_formula_units_Z   2
loop_
 _symmetry_equiv_pos_site_id
 _symmetry_equiv_pos_as_xyz
  1  'x, y, z'
loop_
 _atom_site_type_symbol
 _atom_site_label
 _atom_site_symmetry_multiplicity
 _atom_site_fract_x
 _atom_site_fract_y
 _atom_site_fract_z
 _atom_site_occupancy
  Ni  Ni0  1  0.00000000  0.26444600  0.08224800  1
  Ni  Ni1  1  0.00000000  0.73555400  0.08224800  1
  Ni  Ni2  1  0.00000000  0.50000000  0.82911900  1
  Ni  Ni3  1  0.50000000  0.24416900  0.90104100  1
  Ni  Ni4  1  0.50000000  0.75583100  0.90104100  1
  Ni  Ni5  1  0.50000000  0.50000000  0.65982000  1
  Ni  Ni6  1  0.00000000  0.76444600  0.58224800  1
  Ni  Ni7  1  0.00000000  0.23555400  0.58224800  1
  Ni  Ni8  1  0.00000000  0.00000000  0.32911900  1
  Ni  Ni9  1  0.50000000  0.74416900  0.40104100  1
  Ni  Ni10  1  0.50000000  0.25583100  0.40104100  1
  Ni  Ni11  1  0.50000000  0.00000000  0.15982000  1
  Cu  Cu12  1  0.00000000  0.50000000  0.31377200  1
  Cu  Cu13  1  0.00000000  0.00000000  0.81377200  1
  C  C14  1  0.50000000  0.50000000  0.23071100  1
  C  C15  1  0.50000000  0.00000000  0.73071100  1
