# generated using pymatgen
data_Cu4NiC14
_symmetry_space_group_name_H-M   'P 1'
_cell_length_a   5.27201864
_cell_length_b   6.72134465
_cell_length_c   6.72134465
_cell_angle_alpha   84.83387950
_cell_angle_beta   78.26033134
_cell_angle_gamma   78.26033134
_symmetry_Int_Tables_number   1
_chemical_formula_structural   Cu4NiC14
_chemical_formula_sum   'Cu4 Ni1 C14'
_cell_volume   228.01721558
_cell_formula_units_Z   1
loop_
 _symmetry_equiv_pos_site_id
 _symmetry_equiv_pos_as_xyz
  1  'x, y, z'
loop_
 _atom_site_type_symbol
 _atom_site_label
 _atom_site_symmetry_multiplicity
 _atom_site_fract_x
 _atom_site_fract_y
 _atom_site_fract_z
 _atom_site_occupancy
  C  C0  1  0.25000000  0.29779700  0.70220300  1
  C  C1  1  0.75000000  0.71404800  0.28595200  1
  Ni  Ni2  1  0.75000000  0.08599600  0.91400400  1
  Cu  Cu3  1  0.73355100  0.61814600  0.80432500  1
  Cu  Cu4  1  0.76644900  0.19567500  0.38185400  1
  Cu  Cu5  1  0.27866400  0.37153600  0.19943800  1
  Cu  Cu6  1  0.22133600  0.80056200  0.62846400  1
  C  C7  1  0.80984600  0.38625600  0.89557700  1
  C  C8  1  0.69015400  0.10442300  0.61374400  1
  C  C9  1  0.19248900  0.60151800  0.10747500  1
  C  C10  1  0.30751100  0.89252500  0.39848200  1
  C  C11  1  0.67548100  0.79802200  0.96199900  1
  C  C12  1  0.82451900  0.03800100  0.20197800  1
  C  C13  1  0.38601900  0.21226800  0.01787900  1
  C  C14  1  0.11398100  0.98212100  0.78773200  1
  C  C15  1  0.49661500  0.64204700  0.67055600  1
  C  C16  1  0.00338500  0.32944400  0.35795300  1
  C  C17  1  0.49898500  0.37054200  0.34462800  1
  C  C18  1  0.00101500  0.65537200  0.62945800  1
