# generated using pymatgen
data_Cu5Ni3C17
_symmetry_space_group_name_H-M   'P 1'
_cell_length_a   7.73696481
_cell_length_b   8.85355948
_cell_length_c   11.64363060
_cell_angle_alpha   77.17685844
_cell_angle_beta   79.27015595
_cell_angle_gamma   75.99379944
_symmetry_Int_Tables_number   1
_chemical_formula_structural   Cu5Ni3C17
_chemical_formula_sum   'Cu10 Ni6 C34'
_cell_volume   747.13903718
_cell_formula_units_Z   2
loop_
 _symmetry_equiv_pos_site_id
 _symmetry_equiv_pos_as_xyz
  1  'x, y, z'
loop_
 _atom_site_type_symbol
 _atom_site_label
 _atom_site_symmetry_multiplicity
 _atom_site_fract_x
 _atom_site_fract_y
 _atom_site_fract_z
 _atom_site_occupancy
  C  C0  1  0.38336370  0.21067636  0.76759781  1
  Ni  Ni1  1  0.32623315  0.02437432  0.25798778  1
  Ni  Ni2  1  0.70504284  0.90889349  0.74201795  1
  Ni  Ni3  1  0.20512609  0.43669214  0.19293118  1
  Ni  Ni4  1  0.96746425  0.41083263  0.72693620  1
  Ni  Ni5  1  0.51757148  0.57939767  0.25437673  1
  Ni  Ni6  1  0.35082162  0.55278948  0.83129707  1
  Cu  Cu7  1  0.44829699  0.21182490  0.47719550  1
  Cu  Cu8  1  0.56270039  0.77613670  0.52541651  1
  Cu  Cu9  1  0.94608283  0.21546799  0.47825198  1
  Cu  Cu10  1  0.06112480  0.78438122  0.51451875  1
  Cu  Cu11  1  0.87029896  0.80345351  0.04670237  1
  Cu  Cu12  1  0.11473290  0.18689784  0.97773389  1
  Cu  Cu13  1  0.65405840  0.21264571  0.98094281  1
  Cu  Cu14  1  0.29442511  0.82509009  0.00696682  1
  Cu  Cu15  1  0.80036521  0.01188713  0.31536131  1
  Cu  Cu16  1  0.20622837  0.97473355  0.67686070  1
  C  C17  1  0.03716583  0.97609479  0.00612935  1
  C  C18  1  0.11609381  0.68116478  0.05817758  1
  C  C19  1  0.85679430  0.29864558  0.95169636  1
  C  C20  1  0.67402559  0.00369934  0.05619076  1
  C  C21  1  0.34768524  0.03104614  0.92904883  1
  C  C22  1  0.47370233  0.33282659  0.05414260  1
  C  C23  1  0.47352814  0.69177710  0.94291663  1
  C  C24  1  0.75324041  0.65861912  0.12769003  1
  C  C25  1  0.20694799  0.35665264  0.86551064  1
  C  C26  1  0.14869244  0.20717506  0.11744119  1
  C  C27  1  0.84542561  0.80683622  0.89935453  1
  C  C28  1  0.34745756  0.82014602  0.14997929  1
  C  C29  1  0.60536158  0.21855652  0.83507550  1
  C  C30  1  0.76711451  0.17937786  0.20533774  1
  C  C31  1  0.21510478  0.82814467  0.80856543  1
  C  C32  1  0.86366971  0.85633259  0.23362092  1
  C  C33  1  0.14679763  0.15267252  0.75286631  1
  C  C34  1  0.41725978  0.35767447  0.34745278  1
  C  C35  1  0.58415249  0.64797069  0.66213156  1
  C  C36  1  0.99536489  0.34556488  0.34505802  1
  C  C37  1  0.02688065  0.65011207  0.64832427  1
  C  C38  1  0.02255612  0.00605934  0.37210164  1
  C  C39  1  0.97837533  0.99491059  0.60666242  1
  C  C40  1  0.54046204  0.00793197  0.38239398  1
  C  C41  1  0.47315893  0.99280851  0.62390299  1
  C  C42  1  0.16301096  0.66942296  0.40867236  1
  C  C43  1  0.85608307  0.33836168  0.58179665  1
  C  C44  1  0.58749967  0.65474386  0.42242565  1
  C  C45  1  0.42152158  0.31866903  0.59347922  1
  C  C46  1  0.71743714  0.17195421  0.45416532  1
  C  C47  1  0.29269270  0.83045771  0.54121118  1
  C  C48  1  0.80253413  0.82857793  0.48989376  1
  C  C49  1  0.21159898  0.16196281  0.50348914  1
