# generated using pymatgen
data_Cu7NiC28
_symmetry_space_group_name_H-M   'P 1'
_cell_length_a   11.42797247
_cell_length_b   11.72108896
_cell_length_c   17.17419700
_cell_angle_alpha   110.12577079
_cell_angle_beta   108.99746279
_cell_angle_gamma   89.89680258
_symmetry_Int_Tables_number   1
_chemical_formula_structural   Cu7NiC28
_chemical_formula_sum   'Cu28 Ni4 C112'
_cell_volume   2026.54269888
_cell_formula_units_Z   4
loop_
 _symmetry_equiv_pos_site_id
 _symmetry_equiv_pos_as_xyz
  1  'x, y, z'
loop_
 _atom_site_type_symbol
 _atom_site_label
 _atom_site_symmetry_multiplicity
 _atom_site_fract_x
 _atom_site_fract_y
 _atom_site_fract_z
 _atom_site_occupancy
  C  C0  1  0.30517400  0.06598400  0.10961500  1
  C  C1  1  0.30546100  0.56392400  0.11047300  1
  C  C2  1  0.80284400  0.06525200  0.10982600  1
  C  C3  1  0.80210700  0.56504100  0.10949400  1
  C  C4  1  0.20072600  0.93385200  0.39545500  1
  C  C5  1  0.19120300  0.92235800  0.87867500  1
  C  C6  1  0.68911100  0.42733800  0.87923600  1
  C  C7  1  0.05575700  0.29549100  0.11095600  1
  C  C8  1  0.05145300  0.79305700  0.10799000  1
  C  C9  1  0.55559200  0.29450500  0.11008600  1
  C  C10  1  0.55470500  0.79479600  0.10849300  1
  C  C11  1  0.94274700  0.70254000  0.87947800  1
  C  C12  1  0.29798700  0.07145300  0.60796200  1
  C  C13  1  0.30795100  0.56961200  0.60970100  1
  C  C14  1  0.80250600  0.06809700  0.60418000  1
  C  C15  1  0.80892100  0.56767600  0.60361100  1
  C  C16  1  0.20003000  0.43711700  0.40525000  1
  C  C17  1  0.19883800  0.43048800  0.88847800  1
  C  C18  1  0.69846100  0.43630700  0.40374900  1
  C  C19  1  0.69978800  0.93520600  0.40257500  1
  C  C20  1  0.69807000  0.92963200  0.89273600  1
  C  C21  1  0.05722800  0.28954200  0.60799800  1
  C  C22  1  0.05718700  0.78447800  0.60569000  1
  C  C23  1  0.55349000  0.28905400  0.60436600  1
  C  C24  1  0.55074000  0.78300500  0.60376800  1
  C  C25  1  0.44913000  0.21786000  0.40428300  1
  C  C26  1  0.44264700  0.21099300  0.89120000  1
  C  C27  1  0.44820400  0.71784500  0.40387700  1
  C  C28  1  0.44914700  0.70867200  0.88869000  1
  C  C29  1  0.95026300  0.21824600  0.40421900  1
  C  C30  1  0.94608000  0.21233400  0.89301700  1
  C  C31  1  0.94993000  0.71688700  0.40368100  1
  Ni  Ni32  1  0.10621100  0.57966300  0.74274300  1
  Ni  Ni33  1  0.59501700  0.58833800  0.74443500  1
  Ni  Ni34  1  0.35105800  0.41214200  0.74783400  1
  Ni  Ni35  1  0.34859600  0.90961000  0.74432100  1
  Cu  Cu36  1  0.00380600  0.99796300  0.99396700  1
  Cu  Cu37  1  0.01176800  0.00167100  0.50348100  1
  Cu  Cu38  1  0.00330800  0.49481600  0.99330800  1
  Cu  Cu39  1  0.01329900  0.50075700  0.50347000  1
  Cu  Cu40  1  0.50009500  0.99462600  0.98943800  1
  Cu  Cu41  1  0.51326400  0.00270800  0.50383600  1
  Cu  Cu42  1  0.50059100  0.49547900  0.99172300  1
  Cu  Cu43  1  0.51268500  0.50149200  0.50449400  1
  Cu  Cu44  1  0.25355300  0.24796900  0.99311500  1
  Cu  Cu45  1  0.26269500  0.25489600  0.50604600  1
  Cu  Cu46  1  0.25217000  0.74373300  0.99140500  1
  Cu  Cu47  1  0.26321200  0.75178000  0.50535900  1
  Cu  Cu48  1  0.75254000  0.24504300  0.99184100  1
  Cu  Cu49  1  0.76285500  0.24982100  0.50101200  1
  Cu  Cu50  1  0.75099200  0.74674500  0.99206700  1
  Cu  Cu51  1  0.76311100  0.75124100  0.50250400  1
  Cu  Cu52  1  0.09700900  0.10406600  0.25812100  1
  Cu  Cu53  1  0.09499800  0.08971000  0.74622300  1
  Cu  Cu54  1  0.09653000  0.59218200  0.25726500  1
  Cu  Cu55  1  0.59895200  0.10082900  0.25756600  1
  Cu  Cu56  1  0.58850600  0.08331400  0.74394800  1
  Cu  Cu57  1  0.59748700  0.59843800  0.25810600  1
  Cu  Cu58  1  0.34956500  0.41031700  0.26028900  1
  Cu  Cu59  1  0.35253800  0.90962800  0.25362500  1
  Cu  Cu60  1  0.84737400  0.40961800  0.25939500  1
  Cu  Cu61  1  0.84992800  0.40737500  0.74169500  1
  Cu  Cu62  1  0.84556700  0.91103000  0.25871200  1
  Cu  Cu63  1  0.83694500  0.90992700  0.74377200  1
  C  C64  1  0.12685200  0.12505000  0.48961000  1
  C  C65  1  0.12070400  0.11940500  0.98115600  1
  C  C66  1  0.12866600  0.61855600  0.48791100  1
  C  C67  1  0.12326200  0.61179000  0.98073100  1
  C  C68  1  0.62666600  0.11747400  0.48221200  1
  C  C69  1  0.61838200  0.11057700  0.97337300  1
  C  C70  1  0.62811800  0.62012700  0.48690200  1
  C  C71  1  0.61819200  0.61856700  0.98114200  1
  C  C72  1  0.13268500  0.37633100  0.00339400  1
  C  C73  1  0.14731800  0.38766700  0.52275500  1
  C  C74  1  0.13345200  0.87633800  0.00632300  1
  C  C75  1  0.14453500  0.88330400  0.52164600  1
  C  C76  1  0.62938500  0.37281200  0.00172700  1
  C  C77  1  0.64759600  0.38648200  0.52296100  1
  C  C78  1  0.62887200  0.87470900  0.99825900  1
  C  C79  1  0.64694700  0.88657700  0.52222500  1
  C  C80  1  0.38209400  0.12282700  0.49189700  1
  C  C81  1  0.37281100  0.11698700  0.98012000  1
  C  C82  1  0.37940600  0.61763600  0.48919400  1
  C  C83  1  0.36885900  0.61167200  0.97526300  1
  C  C84  1  0.87523400  0.11322800  0.48079800  1
  C  C85  1  0.87094000  0.11446200  0.97887000  1
  C  C86  1  0.87711300  0.61571200  0.48356300  1
  C  C87  1  0.87091700  0.61503000  0.98262300  1
  C  C88  1  0.38221300  0.37827100  0.00329700  1
  C  C89  1  0.39640600  0.38756700  0.52264800  1
  C  C90  1  0.38169500  0.87346600  0.00050600  1
  C  C91  1  0.39949400  0.88868600  0.52635600  1
  C  C92  1  0.88427600  0.37654800  0.00545800  1
  C  C93  1  0.89589800  0.38446100  0.51976500  1
  C  C94  1  0.87875900  0.87907700  0.00221400  1
  C  C95  1  0.89616900  0.88699500  0.52272300  1
  C  C96  1  0.07389000  0.09045100  0.13852500  1
  C  C97  1  0.08812900  0.11346900  0.63973700  1
  C  C98  1  0.07686500  0.58802900  0.14120200  1
  C  C99  1  0.09008400  0.60491300  0.64286100  1
  C  C100  1  0.57633700  0.08476400  0.13763200  1
  C  C101  1  0.59029300  0.11429500  0.64229000  1
  C  C102  1  0.57440500  0.58638400  0.13900000  1
  C  C103  1  0.57681800  0.61041900  0.64359300  1
  C  C104  1  0.45938200  0.38909300  0.36509300  1
  C  C105  1  0.43199200  0.39629000  0.85097400  1
  C  C106  1  0.45107500  0.89025000  0.36295300  1
  C  C107  1  0.42801900  0.89649400  0.84844500  1
  C  C108  1  0.95920400  0.38836100  0.36351700  1
  C  C109  1  0.93967700  0.39183100  0.85249100  1
  C  C110  1  0.95101400  0.88707400  0.36321900  1
  C  C111  1  0.94257800  0.90385400  0.85403200  1
  C  C112  1  0.32846200  0.30468500  0.14100800  1
  C  C113  1  0.33366500  0.29181200  0.64569100  1
  C  C114  1  0.33231200  0.79755800  0.13726800  1
  C  C115  1  0.33744900  0.78725500  0.64381200  1
  C  C116  1  0.82548900  0.30235300  0.14052800  1
  C  C117  1  0.84040700  0.27218300  0.63752800  1
  C  C118  1  0.82406900  0.80497500  0.13940300  1
  C  C119  1  0.83947500  0.77869400  0.64119700  1
  C  C120  1  0.20722900  0.22450600  0.36594700  1
  C  C121  1  0.19631500  0.21348400  0.85432400  1
  C  C122  1  0.21227000  0.70830700  0.36534700  1
  C  C123  1  0.18186400  0.69082800  0.84997000  1
  C  C124  1  0.70889500  0.22675800  0.36194400  1
  C  C125  1  0.69858100  0.19977000  0.85254400  1
  C  C126  1  0.70729000  0.72493900  0.36289700  1
  C  C127  1  0.68001100  0.70024200  0.85015800  1
  C  C128  1  0.44007300  0.07013900  0.26991000  1
  C  C129  1  0.41880500  0.05763600  0.74694700  1
  C  C130  1  0.43812600  0.56724600  0.27023900  1
  C  C131  1  0.43457600  0.55184100  0.74777600  1
  C  C132  1  0.93980700  0.06631400  0.26995000  1
  C  C133  1  0.92448000  0.06168700  0.74717400  1
  C  C134  1  0.93607200  0.56611600  0.26887700  1
  C  C135  1  0.93972900  0.54379400  0.73225100  1
  C  C136  1  0.18828200  0.44802800  0.27070000  1
  C  C137  1  0.18636800  0.43986300  0.74471600  1
  C  C138  1  0.18996100  0.95668800  0.25330200  1
  C  C139  1  0.18300300  0.93948300  0.73375000  1
  C  C140  1  0.68701100  0.45265500  0.27013200  1
  C  C141  1  0.67800300  0.44732100  0.73316100  1
  C  C142  1  0.68492300  0.95295100  0.26837900  1
  C  C143  1  0.66561300  0.92996200  0.74606100  1
