# generated using pymatgen
data_CuNi3C4
_symmetry_space_group_name_H-M   'P 1'
_cell_length_a   5.84299200
_cell_length_b   10.32223200
_cell_length_c   5.43964100
_cell_angle_alpha   90.00000000
_cell_angle_beta   90.00000000
_cell_angle_gamma   90.00000000
_symmetry_Int_Tables_number   1
_chemical_formula_structural   CuNi3C4
_chemical_formula_sum   'Cu4 Ni12 C16'
_cell_volume   328.07953908
_cell_formula_units_Z   4
loop_
 _symmetry_equiv_pos_site_id
 _symmetry_equiv_pos_as_xyz
  1  'x, y, z'
loop_
 _atom_site_type_symbol
 _atom_site_label
 _atom_site_symmetry_multiplicity
 _atom_site_fract_x
 _atom_site_fract_y
 _atom_site_fract_z
 _atom_site_occupancy
  Ni  Ni0  1  0.02719500  0.84011400  0.35822300  1
  Ni  Ni1  1  0.47280500  0.34011400  0.14177700  1
  Ni  Ni2  1  0.52719500  0.15988600  0.64177700  1
  Ni  Ni3  1  0.97280500  0.65988600  0.85822300  1
  Ni  Ni4  1  0.97280500  0.15988600  0.64177700  1
  Ni  Ni5  1  0.52719500  0.65988600  0.85822300  1
  Ni  Ni6  1  0.47280500  0.84011400  0.35822300  1
  Ni  Ni7  1  0.02719500  0.34011400  0.14177700  1
  Ni  Ni8  1  0.25000000  0.06212700  0.35406400  1
  Ni  Ni9  1  0.25000000  0.56212700  0.14593600  1
  Ni  Ni10  1  0.75000000  0.93787300  0.64593600  1
  Ni  Ni11  1  0.75000000  0.43787300  0.85406400  1
  Cu  Cu12  1  0.25000000  0.90983300  0.82653100  1
  Cu  Cu13  1  0.25000000  0.40983300  0.67346900  1
  Cu  Cu14  1  0.75000000  0.09016700  0.17346900  1
  Cu  Cu15  1  0.75000000  0.59016700  0.32653100  1
  C  C16  1  0.25000000  0.91478600  0.14730200  1
  C  C17  1  0.25000000  0.41478600  0.35269800  1
  C  C18  1  0.75000000  0.08521400  0.85269800  1
  C  C19  1  0.75000000  0.58521400  0.64730200  1
  C  C20  1  0.25000000  0.06785300  0.70730000  1
  C  C21  1  0.25000000  0.56785300  0.79270000  1
  C  C22  1  0.75000000  0.93214700  0.29270000  1
  C  C23  1  0.75000000  0.43214700  0.20730000  1
  C  C24  1  0.00733400  0.83051800  0.71736800  1
  C  C25  1  0.49266600  0.33051800  0.78263200  1
  C  C26  1  0.50733400  0.16948200  0.28263200  1
  C  C27  1  0.99266600  0.66948200  0.21736800  1
  C  C28  1  0.99266600  0.16948200  0.28263200  1
  C  C29  1  0.50733400  0.66948200  0.21736800  1
  C  C30  1  0.49266600  0.83051800  0.71736800  1
  C  C31  1  0.00733400  0.33051800  0.78263200  1
