# generated using pymatgen
data_Cu3Ni3C14
_symmetry_space_group_name_H-M   'P 1'
_cell_length_a   10.76212021
_cell_length_b   10.76212021
_cell_length_c   10.76212021
_cell_angle_alpha   109.47122063
_cell_angle_beta   109.47122063
_cell_angle_gamma   109.47122063
_symmetry_Int_Tables_number   1
_chemical_formula_structural   Cu3Ni3C14
_chemical_formula_sum   'Cu12 Ni12 C56'
_cell_volume   959.55887204
_cell_formula_units_Z   4
loop_
 _symmetry_equiv_pos_site_id
 _symmetry_equiv_pos_as_xyz
  1  'x, y, z'
loop_
 _atom_site_type_symbol
 _atom_site_label
 _atom_site_symmetry_multiplicity
 _atom_site_fract_x
 _atom_site_fract_y
 _atom_site_fract_z
 _atom_site_occupancy
  Ni  Ni0  1  0.25000000  0.87500000  0.62500000  1
  Ni  Ni1  1  0.75000000  0.62500000  0.87500000  1
  Ni  Ni2  1  0.62500000  0.87500000  0.75000000  1
  Ni  Ni3  1  0.87500000  0.62500000  0.25000000  1
  Ni  Ni4  1  0.62500000  0.25000000  0.87500000  1
  Ni  Ni5  1  0.87500000  0.75000000  0.62500000  1
  Ni  Ni6  1  0.75000000  0.12500000  0.37500000  1
  Ni  Ni7  1  0.25000000  0.37500000  0.12500000  1
  Ni  Ni8  1  0.37500000  0.12500000  0.25000000  1
  Ni  Ni9  1  0.12500000  0.37500000  0.75000000  1
  Ni  Ni10  1  0.37500000  0.75000000  0.12500000  1
  Ni  Ni11  1  0.12500000  0.25000000  0.37500000  1
  Cu  Cu12  1  0.12500000  0.75000000  0.87500000  1
  Cu  Cu13  1  0.87500000  0.25000000  0.12500000  1
  Cu  Cu14  1  0.62500000  0.37500000  0.25000000  1
  Cu  Cu15  1  0.75000000  0.87500000  0.12500000  1
  Cu  Cu16  1  0.87500000  0.12500000  0.75000000  1
  Cu  Cu17  1  0.25000000  0.62500000  0.37500000  1
  Cu  Cu18  1  0.75000000  0.37500000  0.62500000  1
  Cu  Cu19  1  0.25000000  0.12500000  0.87500000  1
  Cu  Cu20  1  0.12500000  0.87500000  0.25000000  1
  Cu  Cu21  1  0.37500000  0.62500000  0.75000000  1
  Cu  Cu22  1  0.62500000  0.75000000  0.37500000  1
  Cu  Cu23  1  0.37500000  0.25000000  0.62500000  1
  C  C24  1  0.50000000  0.50000000  0.50000000  1
  C  C25  1  0.50000000  0.00000000  0.50000000  1
  C  C26  1  0.00000000  0.50000000  0.50000000  1
  C  C27  1  0.50000000  0.50000000  0.00000000  1
  C  C28  1  0.00000000  0.00000000  0.50000000  1
  C  C29  1  0.00000000  0.50000000  0.00000000  1
  C  C30  1  0.50000000  0.00000000  0.00000000  1
  C  C31  1  0.00000000  0.00000000  0.00000000  1
  C  C32  1  0.41460600  0.81149500  0.78306100  1
  C  C33  1  0.86845400  0.39688800  0.08539400  1
  C  C34  1  0.10311200  0.97156600  0.68850500  1
  C  C35  1  0.52843400  0.63154600  0.71693900  1
  C  C36  1  0.68850500  0.08539400  0.71693900  1
  C  C37  1  0.63154600  0.71693900  0.52843400  1
  C  C38  1  0.63154600  0.41460600  0.10311200  1
  C  C39  1  0.71693900  0.52843400  0.63154600  1
  C  C40  1  0.81149500  0.52843400  0.39688800  1
  C  C41  1  0.97156600  0.78306100  0.86845400  1
  C  C42  1  0.78306100  0.86845400  0.97156600  1
  C  C43  1  0.71693900  0.68850500  0.08539400  1
  C  C44  1  0.41460600  0.10311200  0.63154600  1
  C  C45  1  0.39688800  0.81149500  0.52843400  1
  C  C46  1  0.08539400  0.71693900  0.68850500  1
  C  C47  1  0.10311200  0.63154600  0.41460600  1
  C  C48  1  0.52843400  0.39688800  0.81149500  1
  C  C49  1  0.08539400  0.86845400  0.39688800  1
  C  C50  1  0.97156600  0.68850500  0.10311200  1
  C  C51  1  0.18850500  0.47156600  0.60311200  1
  C  C52  1  0.68850500  0.10311200  0.97156600  1
  C  C53  1  0.78306100  0.41460600  0.81149500  1
  C  C54  1  0.39688800  0.08539400  0.86845400  1
  C  C55  1  0.86845400  0.97156600  0.78306100  1
  C  C56  1  0.58539400  0.18850500  0.21693900  1
  C  C57  1  0.13154600  0.60311200  0.91460600  1
  C  C58  1  0.89688800  0.02843400  0.31149500  1
  C  C59  1  0.47156600  0.36845400  0.28306100  1
  C  C60  1  0.31149500  0.91460600  0.28306100  1
  C  C61  1  0.36845400  0.28306100  0.47156600  1
  C  C62  1  0.36845400  0.58539400  0.89688800  1
  C  C63  1  0.28306100  0.47156600  0.36845400  1
  C  C64  1  0.13154600  0.02843400  0.21693900  1
  C  C65  1  0.60311200  0.91460600  0.13154600  1
  C  C66  1  0.21693900  0.58539400  0.18850500  1
  C  C67  1  0.18850500  0.21693900  0.58539400  1
  C  C68  1  0.31149500  0.89688800  0.02843400  1
  C  C69  1  0.02843400  0.31149500  0.89688800  1
  C  C70  1  0.91460600  0.13154600  0.60311200  1
  C  C71  1  0.47156600  0.60311200  0.18850500  1
  C  C72  1  0.89688800  0.36845400  0.58539400  1
  C  C73  1  0.91460600  0.28306100  0.31149500  1
  C  C74  1  0.60311200  0.18850500  0.47156600  1
  C  C75  1  0.58539400  0.89688800  0.36845400  1
  C  C76  1  0.28306100  0.31149500  0.91460600  1
  C  C77  1  0.21693900  0.13154600  0.02843400  1
  C  C78  1  0.02843400  0.21693900  0.13154600  1
  C  C79  1  0.81149500  0.78306100  0.41460600  1
