# generated using pymatgen
data_CuNi2C7
_symmetry_space_group_name_H-M   'P 1'
_cell_length_a   7.98418200
_cell_length_b   5.58399000
_cell_length_c   5.61309750
_cell_angle_alpha   86.64513904
_cell_angle_beta   90.00000000
_cell_angle_gamma   90.00000000
_symmetry_Int_Tables_number   1
_chemical_formula_structural   CuNi2C7
_chemical_formula_sum   'Cu2 Ni4 C14'
_cell_volume   249.82317943
_cell_formula_units_Z   2
loop_
 _symmetry_equiv_pos_site_id
 _symmetry_equiv_pos_as_xyz
  1  'x, y, z'
loop_
 _atom_site_type_symbol
 _atom_site_label
 _atom_site_symmetry_multiplicity
 _atom_site_fract_x
 _atom_site_fract_y
 _atom_site_fract_z
 _atom_site_occupancy
  Ni  Ni0  1  0.25000000  0.97036000  0.98216800  1
  Ni  Ni1  1  0.25000000  0.47392500  0.52079100  1
  Ni  Ni2  1  0.75000000  0.52607500  0.47920900  1
  Ni  Ni3  1  0.75000000  0.02964000  0.01783200  1
  C  C4  1  0.00000000  0.50000000  0.00000000  1
  C  C5  1  0.50000000  0.50000000  0.00000000  1
  Cu  Cu6  1  0.00000000  0.00000000  0.50000000  1
  Cu  Cu7  1  0.50000000  0.00000000  0.50000000  1
  C  C8  1  0.57132200  0.81861900  0.87435500  1
  C  C9  1  0.42699100  0.63507200  0.30440500  1
  C  C10  1  0.42867800  0.18138100  0.12564500  1
  C  C11  1  0.92699100  0.36492800  0.69559500  1
  C  C12  1  0.75000000  0.40677100  0.13199100  1
  C  C13  1  0.57300900  0.36492800  0.69559500  1
  C  C14  1  0.07300900  0.63507200  0.30440500  1
  C  C15  1  0.92867800  0.81861900  0.87435500  1
  C  C16  1  0.25000000  0.12505800  0.64785200  1
  C  C17  1  0.07132200  0.18138100  0.12564500  1
  C  C18  1  0.75000000  0.87494200  0.35214800  1
  C  C19  1  0.25000000  0.59322900  0.86800900  1
