# generated using pymatgen
data_CuNiC5
_symmetry_space_group_name_H-M   'P 1'
_cell_length_a   5.37953100
_cell_length_b   6.66867900
_cell_length_c   11.76342200
_cell_angle_alpha   90.00000000
_cell_angle_beta   90.00000000
_cell_angle_gamma   90.00000000
_symmetry_Int_Tables_number   1
_chemical_formula_structural   CuNiC5
_chemical_formula_sum   'Cu4 Ni4 C20'
_cell_volume   422.00529929
_cell_formula_units_Z   4
loop_
 _symmetry_equiv_pos_site_id
 _symmetry_equiv_pos_as_xyz
  1  'x, y, z'
loop_
 _atom_site_type_symbol
 _atom_site_label
 _atom_site_symmetry_multiplicity
 _atom_site_fract_x
 _atom_site_fract_y
 _atom_site_fract_z
 _atom_site_occupancy
  Ni  Ni0  1  0.50000000  0.00000000  0.50000000  1
  Ni  Ni1  1  0.00000000  0.50000000  0.00000000  1
  Ni  Ni2  1  0.50000000  0.50000000  0.50000000  1
  Ni  Ni3  1  0.00000000  0.00000000  0.00000000  1
  Cu  Cu4  1  0.49859800  0.75000000  0.77758700  1
  Cu  Cu5  1  0.00140200  0.75000000  0.27758700  1
  Cu  Cu6  1  0.50140200  0.25000000  0.22241300  1
  Cu  Cu7  1  0.99859800  0.25000000  0.72241300  1
  C  C8  1  0.94211900  0.75000000  0.59505800  1
  C  C9  1  0.55788100  0.75000000  0.09505800  1
  C  C10  1  0.05788100  0.25000000  0.40494200  1
  C  C11  1  0.44211900  0.25000000  0.90494200  1
  C  C12  1  0.82004000  0.75000000  0.45540900  1
  C  C13  1  0.67996000  0.75000000  0.95540900  1
  C  C14  1  0.17996000  0.25000000  0.54459100  1
  C  C15  1  0.32004000  0.25000000  0.04459100  1
  C  C16  1  0.26656500  0.75000000  0.60648500  1
  C  C17  1  0.23343500  0.75000000  0.10648500  1
  C  C18  1  0.73343500  0.25000000  0.39351500  1
  C  C19  1  0.76656500  0.25000000  0.89351500  1
  C  C20  1  0.79091000  0.54599200  0.66903800  1
  C  C21  1  0.70909000  0.95400800  0.16903800  1
  C  C22  1  0.20909000  0.04599200  0.33096200  1
  C  C23  1  0.29091000  0.45400800  0.83096200  1
  C  C24  1  0.20909000  0.45400800  0.33096200  1
  C  C25  1  0.29091000  0.04599200  0.83096200  1
  C  C26  1  0.79091000  0.95400800  0.66903800  1
  C  C27  1  0.70909000  0.54599200  0.16903800  1
