# generated using pymatgen
data_Cu5NiC5
_symmetry_space_group_name_H-M   'P 1'
_cell_length_a   4.99464388
_cell_length_b   4.53359088
_cell_length_c   19.20816100
_cell_angle_alpha   90.00000000
_cell_angle_beta   90.00000000
_cell_angle_gamma   115.26560648
_symmetry_Int_Tables_number   1
_chemical_formula_structural   Cu5NiC5
_chemical_formula_sum   'Cu5 Ni1 C5'
_cell_volume   393.33615141
_cell_formula_units_Z   1
loop_
 _symmetry_equiv_pos_site_id
 _symmetry_equiv_pos_as_xyz
  1  'x, y, z'
loop_
 _atom_site_type_symbol
 _atom_site_label
 _atom_site_symmetry_multiplicity
 _atom_site_fract_x
 _atom_site_fract_y
 _atom_site_fract_z
 _atom_site_occupancy
  C  C0  1  0.22479100  0.19484500  0.95576100  1
  C  C1  1  0.96589300  0.93808300  0.20000000  1
  C  C2  1  0.22479100  0.19484500  0.44423900  1
  C  C3  1  0.71909600  0.78846400  0.81060400  1
  C  C4  1  0.71909600  0.78846400  0.58939600  1
  Ni  Ni5  1  0.17647400  0.89277200  0.70000000  1
  Cu  Cu6  1  0.41122400  0.21288800  0.70000000  1
  Cu  Cu7  1  0.69287900  0.22955000  0.70000000  1
  Cu  Cu8  1  0.26376600  0.67939400  0.70000000  1
  Cu  Cu9  1  0.85149500  0.48784800  0.48131000  1
  Cu  Cu10  1  0.85149500  0.48784800  0.91869000  1
