# generated using pymatgen
data_Cu3NiC
_symmetry_space_group_name_H-M   'P 1'
_cell_length_a   6.82738500
_cell_length_b   7.42991800
_cell_length_c   8.00371200
_cell_angle_alpha   90.00000000
_cell_angle_beta   90.00000000
_cell_angle_gamma   90.00000000
_symmetry_Int_Tables_number   1
_chemical_formula_structural   Cu3NiC
_chemical_formula_sum   'Cu12 Ni4 C4'
_cell_volume   406.00358393
_cell_formula_units_Z   4
loop_
 _symmetry_equiv_pos_site_id
 _symmetry_equiv_pos_as_xyz
  1  'x, y, z'
loop_
 _atom_site_type_symbol
 _atom_site_label
 _atom_site_symmetry_multiplicity
 _atom_site_fract_x
 _atom_site_fract_y
 _atom_site_fract_z
 _atom_site_occupancy
  C  C0  1  0.53807900  0.48177900  0.00005300  1
  C  C1  1  0.46192100  0.51822100  0.50005300  1
  C  C2  1  0.03807900  0.01822100  0.50005300  1
  C  C3  1  0.96192100  0.98177900  0.00005300  1
  Ni  Ni4  1  0.44801800  0.95030900  0.22676400  1
  Ni  Ni5  1  0.55198200  0.04969100  0.72676400  1
  Ni  Ni6  1  0.94801800  0.54969100  0.72676400  1
  Ni  Ni7  1  0.05198200  0.45030900  0.22676400  1
  Cu  Cu8  1  0.62908200  0.24964300  0.96882100  1
  Cu  Cu9  1  0.37091800  0.75035700  0.46882100  1
  Cu  Cu10  1  0.12908200  0.25035700  0.46882100  1
  Cu  Cu11  1  0.87091800  0.74964300  0.96882100  1
  Cu  Cu12  1  0.12600100  0.38565700  0.11173900  1
  Cu  Cu13  1  0.87399900  0.61434300  0.61173900  1
  Cu  Cu14  1  0.62600100  0.11434300  0.61173900  1
  Cu  Cu15  1  0.37399900  0.88565700  0.11173900  1
  Cu  Cu16  1  0.56573300  0.45731000  0.28762200  1
  Cu  Cu17  1  0.43426700  0.54269000  0.78762200  1
  Cu  Cu18  1  0.06573300  0.04269000  0.78762200  1
  Cu  Cu19  1  0.93426700  0.95731000  0.28762200  1
