# generated using pymatgen
data_CuNi2C3
_symmetry_space_group_name_H-M   'P 1'
_cell_length_a   5.77178834
_cell_length_b   5.77178834
_cell_length_c   4.96584300
_cell_angle_alpha   90.00000000
_cell_angle_beta   90.00000000
_cell_angle_gamma   119.51975924
_symmetry_Int_Tables_number   1
_chemical_formula_structural   CuNi2C3
_chemical_formula_sum   'Cu2 Ni4 C6'
_cell_volume   143.95467804
_cell_formula_units_Z   2
loop_
 _symmetry_equiv_pos_site_id
 _symmetry_equiv_pos_as_xyz
  1  'x, y, z'
loop_
 _atom_site_type_symbol
 _atom_site_label
 _atom_site_symmetry_multiplicity
 _atom_site_fract_x
 _atom_site_fract_y
 _atom_site_fract_z
 _atom_site_occupancy
  Ni  Ni0  1  0.66420000  0.99076900  0.52931700  1
  Ni  Ni1  1  0.99076900  0.66420000  0.52931700  1
  Ni  Ni2  1  0.33580000  0.00923100  0.02931700  1
  Ni  Ni3  1  0.00923100  0.33580000  0.02931700  1
  Cu  Cu4  1  0.33197900  0.33197900  0.51971900  1
  Cu  Cu5  1  0.66802100  0.66802100  0.01971900  1
  C  C6  1  0.67003300  0.96606000  0.09818500  1
  C  C7  1  0.96606000  0.67003300  0.09818500  1
  C  C8  1  0.32996700  0.03394000  0.59818500  1
  C  C9  1  0.03394000  0.32996700  0.59818500  1
  C  C10  1  0.37552100  0.37552100  0.15327800  1
  C  C11  1  0.62447900  0.62447900  0.65327800  1
