# generated using pymatgen
data_Cu5(Ni6C)2
_symmetry_space_group_name_H-M   'P 1'
_cell_length_a   8.68467956
_cell_length_b   8.68467956
_cell_length_c   8.01751600
_cell_angle_alpha   90.00000000
_cell_angle_beta   90.00000000
_cell_angle_gamma   119.99999668
_symmetry_Int_Tables_number   1
_chemical_formula_structural   Cu5(Ni6C)2
_chemical_formula_sum   'Cu10 Ni24 C4'
_cell_volume   523.69458051
_cell_formula_units_Z   2
loop_
 _symmetry_equiv_pos_site_id
 _symmetry_equiv_pos_as_xyz
  1  'x, y, z'
loop_
 _atom_site_type_symbol
 _atom_site_label
 _atom_site_symmetry_multiplicity
 _atom_site_fract_x
 _atom_site_fract_y
 _atom_site_fract_z
 _atom_site_occupancy
  C  C0  1  0.00000000  0.00000000  0.25000000  1
  C  C1  1  0.00000000  0.00000000  0.75000000  1
  C  C2  1  0.33333300  0.66666700  0.75000000  1
  C  C3  1  0.66666700  0.33333300  0.25000000  1
  Ni  Ni4  1  0.32700100  0.39237000  0.25000000  1
  Ni  Ni5  1  0.60763000  0.93463100  0.25000000  1
  Ni  Ni6  1  0.06536900  0.67299900  0.25000000  1
  Ni  Ni7  1  0.60763000  0.67299900  0.25000000  1
  Ni  Ni8  1  0.06536900  0.39237000  0.25000000  1
  Ni  Ni9  1  0.32700100  0.93463100  0.25000000  1
  Ni  Ni10  1  0.67299900  0.60763000  0.75000000  1
  Ni  Ni11  1  0.39237000  0.06536900  0.75000000  1
  Ni  Ni12  1  0.93463100  0.32700100  0.75000000  1
  Ni  Ni13  1  0.39237000  0.32700100  0.75000000  1
  Ni  Ni14  1  0.93463100  0.60763000  0.75000000  1
  Ni  Ni15  1  0.67299900  0.06536900  0.75000000  1
  Ni  Ni16  1  0.17244400  0.82755600  0.53335600  1
  Ni  Ni17  1  0.17244400  0.34488800  0.53335600  1
  Ni  Ni18  1  0.65511200  0.82755600  0.53335600  1
  Ni  Ni19  1  0.82755600  0.17244400  0.46664400  1
  Ni  Ni20  1  0.82755600  0.65511200  0.46664400  1
  Ni  Ni21  1  0.34488800  0.17244400  0.46664400  1
  Ni  Ni22  1  0.82755600  0.17244400  0.03335600  1
  Ni  Ni23  1  0.82755600  0.65511200  0.03335600  1
  Ni  Ni24  1  0.34488800  0.17244400  0.03335600  1
  Ni  Ni25  1  0.17244400  0.82755600  0.96664400  1
  Ni  Ni26  1  0.17244400  0.34488800  0.96664400  1
  Ni  Ni27  1  0.65511200  0.82755600  0.96664400  1
  Cu  Cu28  1  0.33333300  0.66666700  0.39571600  1
  Cu  Cu29  1  0.66666700  0.33333300  0.60428400  1
  Cu  Cu30  1  0.66666700  0.33333300  0.89571600  1
  Cu  Cu31  1  0.33333300  0.66666700  0.10428400  1
  Cu  Cu32  1  0.50000000  0.50000000  0.50000000  1
  Cu  Cu33  1  0.50000000  0.00000000  0.50000000  1
  Cu  Cu34  1  0.00000000  0.50000000  0.50000000  1
  Cu  Cu35  1  0.50000000  0.50000000  0.00000000  1
  Cu  Cu36  1  0.50000000  0.00000000  0.00000000  1
  Cu  Cu37  1  0.00000000  0.50000000  0.00000000  1
