# generated using pymatgen
data_CuNiC2
_symmetry_space_group_name_H-M   'P 1'
_cell_length_a   12.04905064
_cell_length_b   12.86175875
_cell_length_c   12.86175888
_cell_angle_alpha   61.33206828
_cell_angle_beta   62.06739955
_cell_angle_gamma   62.06740429
_symmetry_Int_Tables_number   1
_chemical_formula_structural   CuNiC2
_chemical_formula_sum   'Cu1 Ni1 C2'
_cell_volume   1466.78366657
_cell_formula_units_Z   1
loop_
 _symmetry_equiv_pos_site_id
 _symmetry_equiv_pos_as_xyz
  1  'x, y, z'
loop_
 _atom_site_type_symbol
 _atom_site_label
 _atom_site_symmetry_multiplicity
 _atom_site_fract_x
 _atom_site_fract_y
 _atom_site_fract_z
 _atom_site_occupancy
  C  C0  1  0.73344661  0.00000123  0.00000123  1
  C  C1  1  0.26655339  0.99999877  -0.00000123  1
  Ni  Ni2  1  0.00000000  -0.00000000  0.00000000  1
  Cu  Cu3  1  0.50000000  -0.00000000  0.00000000  1
