# generated using pymatgen
data_Cu3Ni17C3
_symmetry_space_group_name_H-M   'P 1'
_cell_length_a   8.46228300
_cell_length_b   9.70614600
_cell_length_c   12.03806200
_cell_angle_alpha   90.00000000
_cell_angle_beta   90.00000000
_cell_angle_gamma   90.00000000
_symmetry_Int_Tables_number   1
_chemical_formula_structural   Cu3Ni17C3
_chemical_formula_sum   'Cu12 Ni68 C12'
_cell_volume   988.76011780
_cell_formula_units_Z   4
loop_
 _symmetry_equiv_pos_site_id
 _symmetry_equiv_pos_as_xyz
  1  'x, y, z'
loop_
 _atom_site_type_symbol
 _atom_site_label
 _atom_site_symmetry_multiplicity
 _atom_site_fract_x
 _atom_site_fract_y
 _atom_site_fract_z
 _atom_site_occupancy
  C  C0  1  0.25000000  0.96602600  0.30842300  1
  C  C1  1  0.25000000  0.53397400  0.80842300  1
  C  C2  1  0.75000000  0.03397400  0.69157700  1
  C  C3  1  0.75000000  0.46602600  0.19157700  1
  C  C4  1  0.25000000  0.31145600  0.90998400  1
  C  C5  1  0.25000000  0.18854400  0.40998400  1
  C  C6  1  0.75000000  0.68854400  0.09001600  1
  C  C7  1  0.75000000  0.81145600  0.59001600  1
  C  C8  1  0.75000000  0.20548000  0.13985000  1
  C  C9  1  0.75000000  0.29452000  0.63985000  1
  C  C10  1  0.25000000  0.79452000  0.86015000  1
  C  C11  1  0.25000000  0.70548000  0.36015000  1
  Ni  Ni12  1  0.25000000  0.59988100  0.58084900  1
  Ni  Ni13  1  0.25000000  0.90011900  0.08084900  1
  Ni  Ni14  1  0.75000000  0.40011900  0.41915100  1
  Ni  Ni15  1  0.75000000  0.09988100  0.91915100  1
  Ni  Ni16  1  0.15477700  0.45541300  0.59083200  1
  Ni  Ni17  1  0.34522300  0.04458700  0.09083200  1
  Ni  Ni18  1  0.65477700  0.54458700  0.40916800  1
  Ni  Ni19  1  0.84522300  0.95541300  0.90916800  1
  Ni  Ni20  1  0.84522300  0.54458700  0.40916800  1
  Ni  Ni21  1  0.65477700  0.95541300  0.90916800  1
  Ni  Ni22  1  0.34522300  0.45541300  0.59083200  1
  Ni  Ni23  1  0.15477700  0.04458700  0.09083200  1
  Ni  Ni24  1  0.06253600  0.97828600  0.63638700  1
  Ni  Ni25  1  0.43746400  0.52171400  0.13638700  1
  Ni  Ni26  1  0.56253600  0.02171400  0.36361300  1
  Ni  Ni27  1  0.93746400  0.47828600  0.86361300  1
  Ni  Ni28  1  0.93746400  0.02171400  0.36361300  1
  Ni  Ni29  1  0.56253600  0.47828600  0.86361300  1
  Ni  Ni30  1  0.43746400  0.97828600  0.63638700  1
  Ni  Ni31  1  0.06253600  0.52171400  0.13638700  1
  Ni  Ni32  1  0.05141300  0.14348600  0.66736700  1
  Ni  Ni33  1  0.44858700  0.35651400  0.16736700  1
  Ni  Ni34  1  0.55141300  0.85651400  0.33263300  1
  Ni  Ni35  1  0.94858700  0.64348600  0.83263300  1
  Ni  Ni36  1  0.94858700  0.85651400  0.33263300  1
  Ni  Ni37  1  0.55141300  0.64348600  0.83263300  1
  Ni  Ni38  1  0.44858700  0.14348600  0.66736700  1
  Ni  Ni39  1  0.05141300  0.35651400  0.16736700  1
  Ni  Ni40  1  0.06629400  0.02686600  0.76628100  1
  Ni  Ni41  1  0.43370600  0.47313400  0.26628100  1
  Ni  Ni42  1  0.56629400  0.97313400  0.23371900  1
  Ni  Ni43  1  0.93370600  0.52686600  0.73371900  1
  Ni  Ni44  1  0.93370600  0.97313400  0.23371900  1
  Ni  Ni45  1  0.56629400  0.52686600  0.73371900  1
  Ni  Ni46  1  0.43370600  0.02686600  0.76628100  1
  Ni  Ni47  1  0.06629400  0.47313400  0.26628100  1
  Ni  Ni48  1  0.25000000  0.42712600  0.95621900  1
  Ni  Ni49  1  0.25000000  0.07287400  0.45621900  1
  Ni  Ni50  1  0.75000000  0.57287400  0.04378100  1
  Ni  Ni51  1  0.75000000  0.92712600  0.54378100  1
  Ni  Ni52  1  0.25000000  0.32558800  0.80674700  1
  Ni  Ni53  1  0.25000000  0.17441200  0.30674700  1
  Ni  Ni54  1  0.75000000  0.67441200  0.19325300  1
  Ni  Ni55  1  0.75000000  0.82558800  0.69325300  1
  Ni  Ni56  1  0.12890400  0.25106500  0.93602800  1
  Ni  Ni57  1  0.37109600  0.24893500  0.43602800  1
  Ni  Ni58  1  0.62890400  0.74893500  0.06397200  1
  Ni  Ni59  1  0.87109600  0.75106500  0.56397200  1
  Ni  Ni60  1  0.87109600  0.74893500  0.06397200  1
  Ni  Ni61  1  0.62890400  0.75106500  0.56397200  1
  Ni  Ni62  1  0.37109600  0.25106500  0.93602800  1
  Ni  Ni63  1  0.12890400  0.24893500  0.43602800  1
  Ni  Ni64  1  0.63037400  0.19695600  0.19654000  1
  Ni  Ni65  1  0.86962600  0.30304400  0.69654000  1
  Ni  Ni66  1  0.13037400  0.80304400  0.80346000  1
  Ni  Ni67  1  0.36962600  0.69695600  0.30346000  1
  Ni  Ni68  1  0.36962600  0.80304400  0.80346000  1
  Ni  Ni69  1  0.13037400  0.69695600  0.30346000  1
  Ni  Ni70  1  0.86962600  0.19695600  0.19654000  1
  Ni  Ni71  1  0.63037400  0.30304400  0.69654000  1
  Ni  Ni72  1  0.75000000  0.31490100  0.08405100  1
  Ni  Ni73  1  0.75000000  0.18509900  0.58405100  1
  Ni  Ni74  1  0.25000000  0.68509900  0.91594900  1
  Ni  Ni75  1  0.25000000  0.81490100  0.41594900  1
  Ni  Ni76  1  0.75000000  0.11560600  0.06964700  1
  Ni  Ni77  1  0.75000000  0.38439400  0.56964700  1
  Ni  Ni78  1  0.25000000  0.88439400  0.93035300  1
  Ni  Ni79  1  0.25000000  0.61560600  0.43035300  1
  Cu  Cu80  1  0.25000000  0.50715300  0.62269100  1
  Cu  Cu81  1  0.25000000  0.99284700  0.12269100  1
  Cu  Cu82  1  0.75000000  0.49284700  0.37730900  1
  Cu  Cu83  1  0.75000000  0.00715300  0.87730900  1
  Cu  Cu84  1  0.01540800  0.04756600  0.69099100  1
  Cu  Cu85  1  0.48459200  0.45243400  0.19099100  1
  Cu  Cu86  1  0.51540800  0.95243400  0.30900900  1
  Cu  Cu87  1  0.98459200  0.54756600  0.80900900  1
  Cu  Cu88  1  0.98459200  0.95243400  0.30900900  1
  Cu  Cu89  1  0.51540800  0.54756600  0.80900900  1
  Cu  Cu90  1  0.48459200  0.04756600  0.69099100  1
  Cu  Cu91  1  0.01540800  0.45243400  0.19099100  1
