# generated using pymatgen
data_Cu6NiC36
_symmetry_space_group_name_H-M   'P 1'
_cell_length_a   11.51235711
_cell_length_b   11.51235711
_cell_length_c   11.50657580
_cell_angle_alpha   90.00000000
_cell_angle_beta   90.00000000
_cell_angle_gamma   120.00000190
_symmetry_Int_Tables_number   1
_chemical_formula_structural   Cu6NiC36
_chemical_formula_sum   'Cu12 Ni2 C72'
_cell_volume   1320.70320510
_cell_formula_units_Z   2
loop_
 _symmetry_equiv_pos_site_id
 _symmetry_equiv_pos_as_xyz
  1  'x, y, z'
loop_
 _atom_site_type_symbol
 _atom_site_label
 _atom_site_symmetry_multiplicity
 _atom_site_fract_x
 _atom_site_fract_y
 _atom_site_fract_z
 _atom_site_occupancy
  C  C0  1  0.56209861  0.44010666  0.75000000  1
  C  C1  1  0.55989334  0.12199195  0.75000000  1
  C  C2  1  0.87800805  0.43790139  0.75000000  1
  C  C3  1  0.43790139  0.55989334  0.25000000  1
  C  C4  1  0.44010666  0.87800805  0.25000000  1
  C  C5  1  0.12199195  0.56209861  0.25000000  1
  C  C6  1  0.27540296  0.14498981  0.75000000  1
  C  C7  1  0.85501019  0.13041315  0.75000000  1
  C  C8  1  0.86958685  0.72459704  0.75000000  1
  C  C9  1  0.72459704  0.85501019  0.25000000  1
  C  C10  1  0.14498981  0.86958685  0.25000000  1
  C  C11  1  0.13041315  0.27540296  0.25000000  1
  Ni  Ni12  1  0.00000000  0.00000000  0.50000000  1
  Ni  Ni13  1  0.00000000  0.00000000  0.00000000  1
  Cu  Cu14  1  0.75125277  0.24842174  0.00526554  1
  Cu  Cu15  1  0.75157826  0.50283102  0.00526554  1
  Cu  Cu16  1  0.49716898  0.24874723  0.00526554  1
  Cu  Cu17  1  0.24874723  0.75157826  0.50526554  1
  Cu  Cu18  1  0.24842174  0.49716898  0.50526554  1
  Cu  Cu19  1  0.50283102  0.75125277  0.50526554  1
  Cu  Cu20  1  0.24874723  0.75157826  0.99473446  1
  Cu  Cu21  1  0.24842174  0.49716898  0.99473446  1
  Cu  Cu22  1  0.50283102  0.75125277  0.99473446  1
  Cu  Cu23  1  0.75125277  0.24842174  0.49473446  1
  Cu  Cu24  1  0.75157826  0.50283102  0.49473446  1
  Cu  Cu25  1  0.49716898  0.24874723  0.49473446  1
  C  C26  1  0.76624043  0.53166086  0.62387181  1
  C  C27  1  0.46833914  0.23457957  0.62387181  1
  C  C28  1  0.76542043  0.23375957  0.62387181  1
  C  C29  1  0.23375957  0.46833914  0.12387181  1
  C  C30  1  0.53166086  0.76542043  0.12387181  1
  C  C31  1  0.23457957  0.76624043  0.12387181  1
  C  C32  1  0.23375957  0.46833914  0.37612819  1
  C  C33  1  0.53166086  0.76542043  0.37612819  1
  C  C34  1  0.23457957  0.76624043  0.37612819  1
  C  C35  1  0.76624043  0.53166086  0.87612819  1
  C  C36  1  0.46833914  0.23457957  0.87612819  1
  C  C37  1  0.76542043  0.23375957  0.87612819  1
  C  C38  1  0.81343514  0.40652363  0.03540813  1
  C  C39  1  0.59347637  0.40691151  0.03540813  1
  C  C40  1  0.59308849  0.18656486  0.03540813  1
  C  C41  1  0.18656486  0.59347637  0.53540813  1
  C  C42  1  0.40652363  0.59308849  0.53540813  1
  C  C43  1  0.40691151  0.81343514  0.53540813  1
  C  C44  1  0.18656486  0.59347637  0.96459187  1
  C  C45  1  0.40652363  0.59308849  0.96459187  1
  C  C46  1  0.40691151  0.81343514  0.96459187  1
  C  C47  1  0.81343514  0.40652363  0.46459187  1
  C  C48  1  0.59347637  0.40691151  0.46459187  1
  C  C49  1  0.59308849  0.18656486  0.46459187  1
  C  C50  1  0.80900943  0.18950709  0.08822864  1
  C  C51  1  0.81049291  0.61950233  0.08822864  1
  C  C52  1  0.38049767  0.19099057  0.08822864  1
  C  C53  1  0.19099057  0.81049291  0.58822864  1
  C  C54  1  0.18950709  0.38049767  0.58822864  1
  C  C55  1  0.61950233  0.80900943  0.58822864  1
  C  C56  1  0.19099057  0.81049291  0.91177136  1
  C  C57  1  0.18950709  0.38049767  0.91177136  1
  C  C58  1  0.61950233  0.80900943  0.91177136  1
  C  C59  1  0.80900943  0.18950709  0.41177136  1
  C  C60  1  0.81049291  0.61950233  0.41177136  1
  C  C61  1  0.38049767  0.19099057  0.41177136  1
  C  C62  1  0.87676133  0.99778406  0.88576071  1
  C  C63  1  0.00221594  0.87897727  0.88576071  1
  C  C64  1  0.12102273  0.12323867  0.88576071  1
  C  C65  1  0.12323867  0.00221594  0.38576071  1
  C  C66  1  0.99778406  0.12102273  0.38576071  1
  C  C67  1  0.87897727  0.87676133  0.38576071  1
  C  C68  1  0.12323867  0.00221594  0.11423929  1
  C  C69  1  0.99778406  0.12102273  0.11423929  1
  C  C70  1  0.87897727  0.87676133  0.11423929  1
  C  C71  1  0.87676133  0.99778406  0.61423929  1
  C  C72  1  0.00221594  0.87897727  0.61423929  1
  C  C73  1  0.12102273  0.12323867  0.61423929  1
  C  C74  1  0.30915457  0.95225543  0.75000000  1
  C  C75  1  0.04774457  0.35689914  0.75000000  1
  C  C76  1  0.64310086  0.69084543  0.75000000  1
  C  C77  1  0.69084543  0.04774457  0.25000000  1
  C  C78  1  0.95225543  0.64310086  0.25000000  1
  C  C79  1  0.35689914  0.30915457  0.25000000  1
  C  C80  1  0.07525001  0.68961027  0.75000000  1
  C  C81  1  0.31038973  0.38563974  0.75000000  1
  C  C82  1  0.61436026  0.92474999  0.75000000  1
  C  C83  1  0.92474999  0.31038973  0.25000000  1
  C  C84  1  0.68961027  0.61436026  0.25000000  1
  C  C85  1  0.38563974  0.07525001  0.25000000  1
