# generated using pymatgen
data_Cu3Ni2C11
_symmetry_space_group_name_H-M   'P 1'
_cell_length_a   10.63188918
_cell_length_b   10.63188918
_cell_length_c   10.63188918
_cell_angle_alpha   113.72229180
_cell_angle_beta   113.72229180
_cell_angle_gamma   101.26762418
_symmetry_Int_Tables_number   1
_chemical_formula_structural   Cu3Ni2C11
_chemical_formula_sum   'Cu12 Ni8 C44'
_cell_volume   911.21077000
_cell_formula_units_Z   4
loop_
 _symmetry_equiv_pos_site_id
 _symmetry_equiv_pos_as_xyz
  1  'x, y, z'
loop_
 _atom_site_type_symbol
 _atom_site_label
 _atom_site_symmetry_multiplicity
 _atom_site_fract_x
 _atom_site_fract_y
 _atom_site_fract_z
 _atom_site_occupancy
  C  C0  1  0.92258100  0.42258100  0.84516100  1
  C  C1  1  0.17258100  0.82741900  0.00000000  1
  C  C2  1  0.82741900  0.17258100  0.00000000  1
  C  C3  1  0.57741900  0.07741900  0.15483900  1
  C  C4  1  0.82741900  0.82741900  0.65483900  1
  C  C5  1  0.57741900  0.42258100  0.50000000  1
  C  C6  1  0.92258100  0.07741900  0.50000000  1
  C  C7  1  0.17258100  0.17258100  0.34516100  1
  C  C8  1  0.53423200  0.29884700  0.76461400  1
  C  C9  1  0.53423200  0.76961800  0.23538600  1
  C  C10  1  0.70115300  0.46576800  0.23538600  1
  C  C11  1  0.51961800  0.78423200  0.73538600  1
  C  C12  1  0.04884700  0.78423200  0.26461400  1
  C  C13  1  0.21576800  0.48038200  0.26461400  1
  C  C14  1  0.21576800  0.95115300  0.73538600  1
  C  C15  1  0.23038200  0.46576800  0.76461400  1
  Ni  Ni16  1  0.77984300  0.90509900  0.12525700  1
  Ni  Ni17  1  0.77984300  0.65458600  0.87474300  1
  Ni  Ni18  1  0.09490100  0.22015700  0.87474300  1
  Ni  Ni19  1  0.40458600  0.02984300  0.37474300  1
  Ni  Ni20  1  0.65509900  0.02984300  0.62525700  1
  Ni  Ni21  1  0.97015700  0.59541400  0.62525700  1
  Ni  Ni22  1  0.97015700  0.34490100  0.37474300  1
  Ni  Ni23  1  0.34541400  0.22015700  0.12525700  1
  Cu  Cu24  1  0.00000000  0.00000000  0.00000000  1
  Cu  Cu25  1  0.75000000  0.25000000  0.50000000  1
  Cu  Cu26  1  0.25000000  0.75000000  0.50000000  1
  Cu  Cu27  1  0.50000000  0.50000000  0.00000000  1
  Cu  Cu28  1  0.37500000  0.47969000  0.60469000  1
  Cu  Cu29  1  0.22969000  0.12500000  0.60469000  1
  Cu  Cu30  1  0.52031000  0.62500000  0.39531000  1
  Cu  Cu31  1  0.87500000  0.77031000  0.39531000  1
  Cu  Cu32  1  0.37500000  0.77031000  0.89531000  1
  Cu  Cu33  1  0.52031000  0.12500000  0.89531000  1
  Cu  Cu34  1  0.22969000  0.62500000  0.10469000  1
  Cu  Cu35  1  0.87500000  0.47969000  0.10469000  1
  C  C36  1  0.72483300  0.72483300  0.00000000  1
  C  C37  1  0.47483300  0.97483300  0.50000000  1
  C  C38  1  0.02516700  0.52516700  0.50000000  1
  C  C39  1  0.27516700  0.27516700  0.00000000  1
  C  C40  1  0.70127000  0.46685400  0.76558400  1
  C  C41  1  0.70127000  0.93568600  0.23441600  1
  C  C42  1  0.53314600  0.29873000  0.23441600  1
  C  C43  1  0.68568600  0.95127000  0.73441600  1
  C  C44  1  0.21685400  0.95127000  0.26558400  1
  C  C45  1  0.04873000  0.31431400  0.26558400  1
  C  C46  1  0.04873000  0.78314600  0.73441600  1
  C  C47  1  0.06431400  0.29873000  0.76558400  1
  C  C48  1  0.79076500  0.55726200  0.51644900  1
  C  C49  1  0.04081200  0.27431600  0.48355100  1
  C  C50  1  0.44273800  0.20923500  0.48355100  1
  C  C51  1  0.02431600  0.04076500  0.73350400  1
  C  C52  1  0.30726200  0.29081200  0.26649600  1
  C  C53  1  0.95923500  0.97568400  0.26649600  1
  C  C54  1  0.70918800  0.69273800  0.73350400  1
  C  C55  1  0.72568400  0.95918800  0.51644900  1
  C  C56  1  0.95923500  0.69273800  0.98355100  1
  C  C57  1  0.70918800  0.97568400  0.01644900  1
  C  C58  1  0.30726200  0.04076500  0.01644900  1
  C  C59  1  0.72568400  0.20923500  0.76649600  1
  C  C60  1  0.44273800  0.95918800  0.23350400  1
  C  C61  1  0.79076500  0.27431600  0.23350400  1
  C  C62  1  0.04081200  0.55726200  0.76649600  1
  C  C63  1  0.02431600  0.29081200  0.98355100  1
