# generated using pymatgen
data_Cu3(NiC9)2
_symmetry_space_group_name_H-M   'P 1'
_cell_length_a   8.31446756
_cell_length_b   8.31446756
_cell_length_c   5.18256900
_cell_angle_alpha   90.00000000
_cell_angle_beta   90.00000000
_cell_angle_gamma   119.99999651
_symmetry_Int_Tables_number   1
_chemical_formula_structural   Cu3(NiC9)2
_chemical_formula_sum   'Cu3 Ni2 C18'
_cell_volume   310.27345834
_cell_formula_units_Z   1
loop_
 _symmetry_equiv_pos_site_id
 _symmetry_equiv_pos_as_xyz
  1  'x, y, z'
loop_
 _atom_site_type_symbol
 _atom_site_label
 _atom_site_symmetry_multiplicity
 _atom_site_fract_x
 _atom_site_fract_y
 _atom_site_fract_z
 _atom_site_occupancy
  C  C0  1  0.56990500  0.56990500  0.00000000  1
  C  C1  1  0.00000000  0.43009500  0.00000000  1
  C  C2  1  0.43009500  0.00000000  0.00000000  1
  Ni  Ni3  1  0.33333300  0.66666700  0.46374000  1
  Ni  Ni4  1  0.66666700  0.33333300  0.53626000  1
  Cu  Cu5  1  0.24747500  0.24747500  0.50000000  1
  Cu  Cu6  1  0.00000000  0.75252500  0.50000000  1
  Cu  Cu7  1  0.75252500  0.00000000  0.50000000  1
  C  C8  1  0.00000000  0.00000000  0.00000000  1
  C  C9  1  0.66666700  0.33333300  0.19778000  1
  C  C10  1  0.33333300  0.66666700  0.80222000  1
  C  C11  1  0.46602500  0.31465300  0.68932100  1
  C  C12  1  0.84862800  0.53397500  0.68932100  1
  C  C13  1  0.68534700  0.15137200  0.68932100  1
  C  C14  1  0.15137200  0.68534700  0.31067900  1
  C  C15  1  0.53397500  0.84862800  0.31067900  1
  C  C16  1  0.31465300  0.46602500  0.31067900  1
  C  C17  1  0.85441300  0.76997600  0.24021800  1
  C  C18  1  0.91556400  0.14558700  0.24021800  1
  C  C19  1  0.23002400  0.08443600  0.24021800  1
  C  C20  1  0.08443600  0.23002400  0.75978200  1
  C  C21  1  0.14558700  0.91556400  0.75978200  1
  C  C22  1  0.76997600  0.85441300  0.75978200  1
