# generated using pymatgen
data_CuNiC5
_symmetry_space_group_name_H-M   'P 1'
_cell_length_a   8.58166057
_cell_length_b   8.58166057
_cell_length_c   8.58166015
_cell_angle_alpha   107.89095500
_cell_angle_beta   107.89095500
_cell_angle_gamma   107.89095332
_symmetry_Int_Tables_number   1
_chemical_formula_structural   CuNiC5
_chemical_formula_sum   'Cu6 Ni6 C30'
_cell_volume   513.00247688
_cell_formula_units_Z   6
loop_
 _symmetry_equiv_pos_site_id
 _symmetry_equiv_pos_as_xyz
  1  'x, y, z'
loop_
 _atom_site_type_symbol
 _atom_site_label
 _atom_site_symmetry_multiplicity
 _atom_site_fract_x
 _atom_site_fract_y
 _atom_site_fract_z
 _atom_site_occupancy
  C  C0  1  0.38790900  0.78954400  0.57070800  1
  C  C1  1  0.87306300  0.10607100  0.27815600  1
  C  C2  1  0.10607100  0.27815600  0.87306300  1
  C  C3  1  0.27815600  0.87306300  0.10607100  1
  C  C4  1  0.78954400  0.57070800  0.38790900  1
  C  C5  1  0.57070800  0.38790900  0.78954400  1
  Ni  Ni6  1  0.94701100  0.54460700  0.76372200  1
  Ni  Ni7  1  0.54460700  0.76372200  0.94701100  1
  Ni  Ni8  1  0.76372200  0.94701100  0.54460700  1
  Ni  Ni9  1  0.05750300  0.46264400  0.23043600  1
  Ni  Ni10  1  0.46264400  0.23043600  0.05750300  1
  Ni  Ni11  1  0.23043600  0.05750300  0.46264400  1
  Cu  Cu12  1  0.90583200  0.71796900  0.12419100  1
  Cu  Cu13  1  0.71796900  0.12419100  0.90583200  1
  Cu  Cu14  1  0.12419100  0.90583200  0.71796900  1
  Cu  Cu15  1  0.20855900  0.43147100  0.61459600  1
  Cu  Cu16  1  0.43147100  0.61459600  0.20855900  1
  Cu  Cu17  1  0.61459600  0.20855900  0.43147100  1
  C  C18  1  0.31144500  0.63205000  0.31088000  1
  C  C19  1  0.69109200  0.35327700  0.63165000  1
  C  C20  1  0.63165000  0.69109200  0.35327700  1
  C  C21  1  0.92359100  0.25612000  0.97979900  1
  C  C22  1  0.25612000  0.97979900  0.92359100  1
  C  C23  1  0.97979900  0.92359100  0.25612000  1
  C  C24  1  0.69856900  0.02344000  0.02728600  1
  C  C25  1  0.02344000  0.02728600  0.69856900  1
  C  C26  1  0.02728600  0.69856900  0.02344000  1
  C  C27  1  0.35327700  0.63165000  0.69109200  1
  C  C28  1  0.31088000  0.31144500  0.63205000  1
  C  C29  1  0.63205000  0.31088000  0.31144500  1
  C  C30  1  0.41069500  0.07526400  0.35962100  1
  C  C31  1  0.35962100  0.41069500  0.07526400  1
  C  C32  1  0.07526400  0.35962100  0.41069500  1
  C  C33  1  0.64334500  0.98001200  0.70676400  1
  C  C34  1  0.70676400  0.64334500  0.98001200  1
  C  C35  1  0.98001200  0.70676400  0.64334500  1
  C  C36  1  0.23535000  0.91442700  0.60529900  1
  C  C37  1  0.60529900  0.23535000  0.91442700  1
  C  C38  1  0.91442700  0.60529900  0.23535000  1
  C  C39  1  0.72900800  0.09975000  0.41840000  1
  C  C40  1  0.41840000  0.72900800  0.09975000  1
  C  C41  1  0.09975000  0.41840000  0.72900800  1
