# generated using pymatgen
data_Cu2Ni4C33
_symmetry_space_group_name_H-M   'P 1'
_cell_length_a   5.90080566
_cell_length_b   9.51444333
_cell_length_c   12.11802092
_cell_angle_alpha   103.86498600
_cell_angle_beta   89.67521642
_cell_angle_gamma   110.94029950
_symmetry_Int_Tables_number   1
_chemical_formula_structural   Cu2Ni4C33
_chemical_formula_sum   'Cu2 Ni4 C33'
_cell_volume   614.48836994
_cell_formula_units_Z   1
loop_
 _symmetry_equiv_pos_site_id
 _symmetry_equiv_pos_as_xyz
  1  'x, y, z'
loop_
 _atom_site_type_symbol
 _atom_site_label
 _atom_site_symmetry_multiplicity
 _atom_site_fract_x
 _atom_site_fract_y
 _atom_site_fract_z
 _atom_site_occupancy
  C  C0  1  0.76852185  0.59032756  0.24612421  1
  Ni  Ni1  1  0.89802217  0.43153382  0.41558200  1
  Ni  Ni2  1  0.20450528  0.47539274  0.23009908  1
  Ni  Ni3  1  0.04387829  0.58012224  0.74231820  1
  Ni  Ni4  1  0.52235988  0.45197220  0.77279096  1
  C  C5  1  0.98486691  0.68540386  0.04220998  1
  C  C6  1  0.33885174  0.30787592  0.43557103  1
  C  C7  1  0.01011884  0.30041352  0.90918812  1
  C  C8  1  0.68578732  0.68975240  0.56094667  1
  C  C9  1  0.57921854  0.84590030  0.87998107  1
  C  C10  1  0.83641349  0.17511831  0.59320344  1
  C  C11  1  0.41117158  0.20601240  0.09639420  1
  C  C12  1  0.28085263  0.85246301  0.39229718  1
  Cu  Cu13  1  0.17005557  0.99802752  0.73620649  1
  Cu  Cu14  1  0.86825006  0.99965151  0.24086253  1
  C  C15  1  0.88240768  0.98473964  0.84843600  1
  C  C16  1  0.90387511  0.00973176  0.62469449  1
  C  C17  1  0.16986846  0.04303874  0.14299959  1
  C  C18  1  0.14577119  0.99478043  0.36377263  1
  C  C19  1  0.79394064  0.77317400  0.17034500  1
  C  C20  1  0.01539755  0.22408636  0.35051549  1
  C  C21  1  0.25280582  0.23425007  0.82893984  1
  C  C22  1  0.99867388  0.77192357  0.66273012  1
  C  C23  1  0.80458772  0.49494856  0.07875365  1
  C  C24  1  0.33532130  0.50940548  0.43865578  1
  C  C25  1  0.16907332  0.51626715  0.92196927  1
  C  C26  1  0.67042642  0.48684500  0.57290369  1
  C  C27  1  0.37721932  0.96675644  0.85346792  1
  C  C28  1  0.39889937  0.04623403  0.64172764  1
  C  C29  1  0.69546053  0.05011013  0.15216366  1
  C  C30  1  0.61583932  0.94828357  0.35740812  1
  C  C31  1  0.78758879  0.67642170  0.91580212  1
  C  C32  1  0.18371344  0.29812739  0.58120288  1
  C  C33  1  0.19149840  0.30415033  0.06211822  1
  C  C34  1  0.84970022  0.67111850  0.41910161  1
  C  C35  1  0.48322412  0.69433962  0.73843773  1
  C  C36  1  0.85537629  0.30257806  0.74309317  1
  C  C37  1  0.52193460  0.35960391  0.24094453  1
  C  C38  1  0.15910638  0.69911828  0.25159867  1
