# generated using pymatgen
data_Cu4NiC19
_symmetry_space_group_name_H-M   'P 1'
_cell_length_a   8.47431100
_cell_length_b   9.06066847
_cell_length_c   12.07408767
_cell_angle_alpha   85.95903675
_cell_angle_beta   83.30550759
_cell_angle_gamma   79.48783619
_symmetry_Int_Tables_number   1
_chemical_formula_structural   Cu4NiC19
_chemical_formula_sum   'Cu16 Ni4 C76'
_cell_volume   904.15900972
_cell_formula_units_Z   4
loop_
 _symmetry_equiv_pos_site_id
 _symmetry_equiv_pos_as_xyz
  1  'x, y, z'
loop_
 _atom_site_type_symbol
 _atom_site_label
 _atom_site_symmetry_multiplicity
 _atom_site_fract_x
 _atom_site_fract_y
 _atom_site_fract_z
 _atom_site_occupancy
  C  C0  1  0.83061400  0.62350100  0.39613700  1
  C  C1  1  0.16938600  0.37649900  0.60386300  1
  C  C2  1  0.31362800  0.09627800  0.88799700  1
  C  C3  1  0.68637200  0.90372200  0.11200300  1
  C  C4  1  0.89813200  0.69166400  0.21749700  1
  C  C5  1  0.10186800  0.30833600  0.78250300  1
  C  C6  1  0.00492600  0.64154200  0.51484000  1
  C  C7  1  0.99507400  0.35845800  0.48516000  1
  C  C8  1  0.35376500  0.13485500  0.70558900  1
  C  C9  1  0.64623500  0.86514500  0.29441100  1
  C  C10  1  0.53730800  0.12209500  0.96300300  1
  C  C11  1  0.46269200  0.87790500  0.03699700  1
  C  C12  1  0.69449200  0.54347700  0.01396300  1
  C  C13  1  0.30550800  0.45652300  0.98603700  1
  C  C14  1  0.82845800  0.42163200  0.92118900  1
  C  C15  1  0.17154200  0.57836800  0.07881100  1
  C  C16  1  0.65629500  0.35966700  0.99540900  1
  C  C17  1  0.34370500  0.64033300  0.00459100  1
  C  C18  1  0.77361500  0.36681600  0.17689600  1
  C  C19  1  0.22638500  0.63318400  0.82310400  1
  C  C20  1  0.94258600  0.43290400  0.10445200  1
  C  C21  1  0.05741400  0.56709600  0.89554800  1
  C  C22  1  0.84164900  0.14562200  0.06183000  1
  C  C23  1  0.15835100  0.85437800  0.93817000  1
  C  C24  1  0.01718600  0.20480700  0.00893300  1
  C  C25  1  0.98281400  0.79519300  0.99106700  1
  C  C26  1  0.05188000  0.01450600  0.15879600  1
  C  C27  1  0.94812000  0.98549400  0.84120400  1
  C  C28  1  0.91066000  0.13403400  0.24809300  1
  C  C29  1  0.08934000  0.86596600  0.75190700  1
  C  C30  1  0.19689900  0.14629800  0.27923600  1
  C  C31  1  0.80310100  0.85370200  0.72076400  1
  C  C32  1  0.23743600  0.20701200  0.13741800  1
  C  C33  1  0.76256400  0.79298800  0.86258200  1
  C  C34  1  0.09754200  0.32363700  0.23154300  1
  C  C35  1  0.90245800  0.67636300  0.76845700  1
  C  C36  1  0.79202200  0.98513500  0.53162200  1
  C  C37  1  0.20797800  0.01486500  0.46837800  1
  C  C38  1  0.60528700  0.09616200  0.50138800  1
  C  C39  1  0.39471300  0.90383800  0.49861200  1
  C  C40  1  0.79071900  0.15362100  0.44705900  1
  C  C41  1  0.20928100  0.84637900  0.55294100  1
  C  C42  1  0.66226600  0.13646900  0.69695100  1
  C  C43  1  0.33773400  0.86353100  0.30304900  1
  C  C44  1  0.84755700  0.19486200  0.64135800  1
  C  C45  1  0.15244300  0.80513800  0.35864200  1
  C  C46  1  0.51725500  0.33790600  0.59615700  1
  C  C47  1  0.48274500  0.66209400  0.40384300  1
  C  C48  1  0.69579800  0.39704300  0.53806700  1
  C  C49  1  0.30420200  0.60295700  0.46193300  1
  C  C50  1  0.56906400  0.38141400  0.77791900  1
  C  C51  1  0.43093600  0.61858600  0.22208100  1
  C  C52  1  0.75612900  0.43555100  0.72289200  1
  C  C53  1  0.24387100  0.56444900  0.27710800  1
  C  C54  1  0.53866800  0.66359300  0.75813600  1
  C  C55  1  0.46133200  0.33640700  0.24186400  1
  C  C56  1  0.60685900  0.65489600  0.61413100  1
  C  C57  1  0.39314100  0.34510400  0.38586900  1
  C  C58  1  0.41946900  0.59930800  0.66605900  1
  C  C59  1  0.58053100  0.40069200  0.33394100  1
  C  C60  1  0.75094500  0.42618700  0.00088000  1
  C  C61  1  0.24905500  0.57381300  0.99912000  1
  C  C62  1  0.84928800  0.36627500  0.09650100  1
  C  C63  1  0.15071200  0.63372500  0.90349900  1
  C  C64  1  0.00760500  0.13200800  0.17891700  1
  C  C65  1  0.99239500  0.86799200  0.82108300  1
  C  C66  1  0.14236100  0.20765700  0.20761300  1
  C  C67  1  0.85763900  0.79234300  0.79238700  1
  C  C68  1  0.72811400  0.10090900  0.51988700  1
  C  C69  1  0.27188600  0.89909100  0.48011300  1
  C  C70  1  0.72523400  0.18753200  0.62346900  1
  C  C71  1  0.27476600  0.81246800  0.37653100  1
  C  C72  1  0.63079800  0.43818400  0.70671600  1
  C  C73  1  0.36920200  0.56181600  0.29328400  1
  C  C74  1  0.54382900  0.59776200  0.68440900  1
  C  C75  1  0.45617100  0.40223800  0.31559100  1
  Ni  Ni76  1  0.92978100  0.20719900  0.07959300  1
  Ni  Ni77  1  0.07021900  0.79280100  0.92040700  1
  Ni  Ni78  1  0.63688900  0.34525400  0.60828900  1
  Ni  Ni79  1  0.36311100  0.65474600  0.39171100  1
  Cu  Cu80  1  0.66560100  0.71750200  0.38094000  1
  Cu  Cu81  1  0.33439900  0.28249800  0.61906000  1
  Cu  Cu82  1  0.83237600  0.46041200  0.43924300  1
  Cu  Cu83  1  0.16762400  0.53958800  0.56075700  1
  Cu  Cu84  1  0.94322600  0.62074000  0.28041500  1
  Cu  Cu85  1  0.05677400  0.37926000  0.71958500  1
  Cu  Cu86  1  0.91114100  0.70770100  0.48058100  1
  Cu  Cu87  1  0.08885900  0.29229900  0.51941900  1
  Cu  Cu88  1  0.15460900  0.20818200  0.89054600  1
  Cu  Cu89  1  0.84539100  0.79181800  0.10945400  1
  Cu  Cu90  1  0.30876700  0.95326300  0.96223800  1
  Cu  Cu91  1  0.69123300  0.04673700  0.03776200  1
  Cu  Cu92  1  0.36927300  0.04737300  0.76320000  1
  Cu  Cu93  1  0.63072700  0.95262700  0.23680000  1
  Cu  Cu94  1  0.44631700  0.18360900  0.92368400  1
  Cu  Cu95  1  0.55368300  0.81639100  0.07631600  1
