# generated using pymatgen
data_Cu5Ni2C3
_symmetry_space_group_name_H-M   'P 1'
_cell_length_a   5.27470400
_cell_length_b   5.53347400
_cell_length_c   17.01402300
_cell_angle_alpha   90.00000000
_cell_angle_beta   90.00000000
_cell_angle_gamma   90.00000000
_symmetry_Int_Tables_number   1
_chemical_formula_structural   Cu5Ni2C3
_chemical_formula_sum   'Cu20 Ni8 C12'
_cell_volume   496.59573194
_cell_formula_units_Z   4
loop_
 _symmetry_equiv_pos_site_id
 _symmetry_equiv_pos_as_xyz
  1  'x, y, z'
loop_
 _atom_site_type_symbol
 _atom_site_label
 _atom_site_symmetry_multiplicity
 _atom_site_fract_x
 _atom_site_fract_y
 _atom_site_fract_z
 _atom_site_occupancy
  C  C0  1  0.95989500  0.67051500  0.59769400  1
  C  C1  1  0.45989500  0.82948500  0.40230600  1
  C  C2  1  0.45655100  0.26565800  0.25000000  1
  C  C3  1  0.54010500  0.17051500  0.59769400  1
  C  C4  1  0.54010500  0.17051500  0.90230600  1
  C  C5  1  0.95655100  0.23434200  0.75000000  1
  C  C6  1  0.04010500  0.32948500  0.40230600  1
  C  C7  1  0.54344900  0.73434200  0.75000000  1
  C  C8  1  0.04010500  0.32948500  0.09769400  1
  C  C9  1  0.95989500  0.67051500  0.90230600  1
  C  C10  1  0.45989500  0.82948500  0.09769400  1
  C  C11  1  0.04344900  0.76565800  0.25000000  1
  Ni  Ni12  1  0.29541000  0.54081100  0.33113800  1
  Ni  Ni13  1  0.79541000  0.95918900  0.66886200  1
  Ni  Ni14  1  0.70459000  0.45918900  0.83113800  1
  Ni  Ni15  1  0.20459000  0.04081100  0.33113800  1
  Ni  Ni16  1  0.70459000  0.45918900  0.66886200  1
  Ni  Ni17  1  0.20459000  0.04081100  0.16886200  1
  Ni  Ni18  1  0.79541000  0.95918900  0.83113800  1
  Ni  Ni19  1  0.29541000  0.54081100  0.16886200  1
  Cu  Cu20  1  0.71119600  0.87880300  0.51574600  1
  Cu  Cu21  1  0.82038800  0.66210300  0.37454400  1
  Cu  Cu22  1  0.17961200  0.33789700  0.62545600  1
  Cu  Cu23  1  0.85277800  0.39637200  0.25000000  1
  Cu  Cu24  1  0.64722200  0.89637200  0.25000000  1
  Cu  Cu25  1  0.21119600  0.62119700  0.48425400  1
  Cu  Cu26  1  0.28880400  0.12119700  0.48425400  1
  Cu  Cu27  1  0.28880400  0.12119700  0.01574600  1
  Cu  Cu28  1  0.32038800  0.83789700  0.62545600  1
  Cu  Cu29  1  0.78880400  0.37880300  0.51574600  1
  Cu  Cu30  1  0.21119600  0.62119700  0.01574600  1
  Cu  Cu31  1  0.78880400  0.37880300  0.98425400  1
  Cu  Cu32  1  0.32038800  0.83789700  0.87454400  1
  Cu  Cu33  1  0.14722200  0.60362800  0.75000000  1
  Cu  Cu34  1  0.67961200  0.16210300  0.37454400  1
  Cu  Cu35  1  0.17961200  0.33789700  0.87454400  1
  Cu  Cu36  1  0.71119600  0.87880300  0.98425400  1
  Cu  Cu37  1  0.82038800  0.66210300  0.12545600  1
  Cu  Cu38  1  0.67961200  0.16210300  0.12545600  1
  Cu  Cu39  1  0.35277800  0.10362800  0.75000000  1
