# generated using pymatgen
data_CuNi3C
_symmetry_space_group_name_H-M   'P 1'
_cell_length_a   7.91122800
_cell_length_b   7.91122800
_cell_length_c   7.91122800
_cell_angle_alpha   90.00000000
_cell_angle_beta   90.00000000
_cell_angle_gamma   90.00000000
_symmetry_Int_Tables_number   1
_chemical_formula_structural   CuNi3C
_chemical_formula_sum   'Cu8 Ni24 C8'
_cell_volume   495.14420767
_cell_formula_units_Z   8
loop_
 _symmetry_equiv_pos_site_id
 _symmetry_equiv_pos_as_xyz
  1  'x, y, z'
loop_
 _atom_site_type_symbol
 _atom_site_label
 _atom_site_symmetry_multiplicity
 _atom_site_fract_x
 _atom_site_fract_y
 _atom_site_fract_z
 _atom_site_occupancy
  Ni  Ni0  1  0.35848500  0.61587400  0.97382400  1
  Ni  Ni1  1  0.64151500  0.11587400  0.52617600  1
  Ni  Ni2  1  0.14151500  0.38412600  0.47382400  1
  Ni  Ni3  1  0.85848500  0.88412600  0.02617600  1
  Ni  Ni4  1  0.97382400  0.35848500  0.61587400  1
  Ni  Ni5  1  0.52617600  0.64151500  0.11587400  1
  Ni  Ni6  1  0.47382400  0.14151500  0.38412600  1
  Ni  Ni7  1  0.02617600  0.85848500  0.88412600  1
  Ni  Ni8  1  0.61587400  0.97382400  0.35848500  1
  Ni  Ni9  1  0.11587400  0.52617600  0.64151500  1
  Ni  Ni10  1  0.38412600  0.47382400  0.14151500  1
  Ni  Ni11  1  0.88412600  0.02617600  0.85848500  1
  Ni  Ni12  1  0.64151500  0.38412600  0.02617600  1
  Ni  Ni13  1  0.35848500  0.88412600  0.47382400  1
  Ni  Ni14  1  0.85848500  0.61587400  0.52617600  1
  Ni  Ni15  1  0.14151500  0.11587400  0.97382400  1
  Ni  Ni16  1  0.02617600  0.64151500  0.38412600  1
  Ni  Ni17  1  0.47382400  0.35848500  0.88412600  1
  Ni  Ni18  1  0.52617600  0.85848500  0.61587400  1
  Ni  Ni19  1  0.97382400  0.14151500  0.11587400  1
  Ni  Ni20  1  0.38412600  0.02617600  0.64151500  1
  Ni  Ni21  1  0.88412600  0.47382400  0.35848500  1
  Ni  Ni22  1  0.61587400  0.52617600  0.85848500  1
  Ni  Ni23  1  0.11587400  0.97382400  0.14151500  1
  Cu  Cu24  1  0.55268800  0.44731200  0.94731200  1
  Cu  Cu25  1  0.44731200  0.94731200  0.55268800  1
  Cu  Cu26  1  0.94731200  0.55268800  0.44731200  1
  Cu  Cu27  1  0.05268800  0.05268800  0.05268800  1
  Cu  Cu28  1  0.44731200  0.55268800  0.05268800  1
  Cu  Cu29  1  0.55268800  0.05268800  0.44731200  1
  Cu  Cu30  1  0.05268800  0.44731200  0.55268800  1
  Cu  Cu31  1  0.94731200  0.94731200  0.94731200  1
  C  C32  1  0.21806300  0.78193700  0.28193700  1
  C  C33  1  0.78193700  0.28193700  0.21806300  1
  C  C34  1  0.28193700  0.21806300  0.78193700  1
  C  C35  1  0.71806300  0.71806300  0.71806300  1
  C  C36  1  0.78193700  0.21806300  0.71806300  1
  C  C37  1  0.21806300  0.71806300  0.78193700  1
  C  C38  1  0.71806300  0.78193700  0.21806300  1
  C  C39  1  0.28193700  0.28193700  0.28193700  1
