# generated using pymatgen
data_Cu19Ni8C5
_symmetry_space_group_name_H-M   'P 1'
_cell_length_a   10.21993425
_cell_length_b   10.21993425
_cell_length_c   12.26281700
_cell_angle_alpha   90.00000000
_cell_angle_beta   90.00000000
_cell_angle_gamma   136.72864441
_symmetry_Int_Tables_number   1
_chemical_formula_structural   Cu19Ni8C5
_chemical_formula_sum   'Cu38 Ni16 C10'
_cell_volume   877.94040145
_cell_formula_units_Z   2
loop_
 _symmetry_equiv_pos_site_id
 _symmetry_equiv_pos_as_xyz
  1  'x, y, z'
loop_
 _atom_site_type_symbol
 _atom_site_label
 _atom_site_symmetry_multiplicity
 _atom_site_fract_x
 _atom_site_fract_y
 _atom_site_fract_z
 _atom_site_occupancy
  C  C0  1  0.02098800  0.55779800  0.33185100  1
  C  C1  1  0.97901200  0.44220200  0.83185100  1
  C  C2  1  0.44220200  0.97901200  0.16814900  1
  C  C3  1  0.55779800  0.02098800  0.66814900  1
  C  C4  1  0.14003100  0.14003100  0.00000000  1
  C  C5  1  0.85996900  0.85996900  0.50000000  1
  C  C6  1  0.58647600  0.41352400  0.25000000  1
  C  C7  1  0.41352400  0.58647600  0.75000000  1
  C  C8  1  0.39143300  0.60856700  0.25000000  1
  C  C9  1  0.60856700  0.39143300  0.75000000  1
  Ni  Ni10  1  0.03822700  0.22852700  0.35863000  1
  Ni  Ni11  1  0.96177300  0.77147300  0.85863000  1
  Ni  Ni12  1  0.77147300  0.96177300  0.14137000  1
  Ni  Ni13  1  0.22852700  0.03822700  0.64137000  1
  Ni  Ni14  1  0.18050500  0.21514400  0.34115500  1
  Ni  Ni15  1  0.81949500  0.78485600  0.84115500  1
  Ni  Ni16  1  0.78485600  0.81949500  0.15884500  1
  Ni  Ni17  1  0.21514400  0.18050500  0.65884500  1
  Ni  Ni18  1  0.14516600  0.55161900  0.06693700  1
  Ni  Ni19  1  0.85483400  0.44838100  0.56693700  1
  Ni  Ni20  1  0.44838100  0.85483400  0.43306300  1
  Ni  Ni21  1  0.55161900  0.14516600  0.93306300  1
  Ni  Ni22  1  0.22717200  0.48270500  0.01687900  1
  Ni  Ni23  1  0.77282800  0.51729500  0.51687900  1
  Ni  Ni24  1  0.51729500  0.77282800  0.48312100  1
  Ni  Ni25  1  0.48270500  0.22717200  0.98312100  1
  Cu  Cu26  1  0.21574800  0.62843700  0.16185800  1
  Cu  Cu27  1  0.78425200  0.37156300  0.66185800  1
  Cu  Cu28  1  0.37156300  0.78425200  0.33814200  1
  Cu  Cu29  1  0.62843700  0.21574800  0.83814200  1
  Cu  Cu30  1  0.32945200  0.35752800  0.28634600  1
  Cu  Cu31  1  0.67054800  0.64247200  0.78634600  1
  Cu  Cu32  1  0.64247200  0.67054800  0.21365400  1
  Cu  Cu33  1  0.35752800  0.32945200  0.71365400  1
  Cu  Cu34  1  0.89583200  0.57845200  0.17284300  1
  Cu  Cu35  1  0.10416800  0.42154800  0.67284300  1
  Cu  Cu36  1  0.42154800  0.10416800  0.32715700  1
  Cu  Cu37  1  0.57845200  0.89583200  0.82715700  1
  Cu  Cu38  1  0.10924400  0.38994700  0.32401100  1
  Cu  Cu39  1  0.89075600  0.61005300  0.82401100  1
  Cu  Cu40  1  0.61005300  0.89075600  0.17598900  1
  Cu  Cu41  1  0.38994700  0.10924400  0.67598900  1
  Cu  Cu42  1  0.32384300  0.48540100  0.08678600  1
  Cu  Cu43  1  0.67615700  0.51459900  0.58678600  1
  Cu  Cu44  1  0.51459900  0.67615700  0.41321400  1
  Cu  Cu45  1  0.48540100  0.32384300  0.91321400  1
  Cu  Cu46  1  0.80596100  0.57300100  0.42090500  1
  Cu  Cu47  1  0.19403900  0.42699900  0.92090500  1
  Cu  Cu48  1  0.42699900  0.19403900  0.07909500  1
  Cu  Cu49  1  0.57300100  0.80596100  0.57909500  1
  Cu  Cu50  1  0.90648900  0.12009400  0.10087300  1
  Cu  Cu51  1  0.09351100  0.87990600  0.60087300  1
  Cu  Cu52  1  0.87990600  0.09351100  0.39912700  1
  Cu  Cu53  1  0.12009400  0.90648900  0.89912700  1
  Cu  Cu54  1  0.07861400  0.14425800  0.62238800  1
  Cu  Cu55  1  0.92138600  0.85574200  0.12238800  1
  Cu  Cu56  1  0.85574200  0.92138600  0.87761200  1
  Cu  Cu57  1  0.14425800  0.07861400  0.37761200  1
  Cu  Cu58  1  0.02370800  0.52879300  0.01800000  1
  Cu  Cu59  1  0.97629200  0.47120700  0.51800000  1
  Cu  Cu60  1  0.47120700  0.97629200  0.48200000  1
  Cu  Cu61  1  0.52879300  0.02370800  0.98200000  1
  Cu  Cu62  1  0.70869600  0.29130400  0.25000000  1
  Cu  Cu63  1  0.29130400  0.70869600  0.75000000  1
