# generated using pymatgen
data_Cu21Ni3C2
_symmetry_space_group_name_H-M   'P 1'
_cell_length_a   10.92791029
_cell_length_b   10.92791029
_cell_length_c   17.28370500
_cell_angle_alpha   90.00000000
_cell_angle_beta   90.00000000
_cell_angle_gamma   120.00000173
_symmetry_Int_Tables_number   1
_chemical_formula_structural   Cu21Ni3C2
_chemical_formula_sum   'Cu84 Ni12 C8'
_cell_volume   1787.48213993
_cell_formula_units_Z   4
loop_
 _symmetry_equiv_pos_site_id
 _symmetry_equiv_pos_as_xyz
  1  'x, y, z'
loop_
 _atom_site_type_symbol
 _atom_site_label
 _atom_site_symmetry_multiplicity
 _atom_site_fract_x
 _atom_site_fract_y
 _atom_site_fract_z
 _atom_site_occupancy
  C  C0  1  0.00000000  0.00000000  0.50000000  1
  C  C1  1  0.00000000  0.00000000  0.00000000  1
  C  C2  1  0.66666700  0.33333300  0.49975600  1
  C  C3  1  0.33333300  0.66666700  0.50024400  1
  C  C4  1  0.66666700  0.33333300  0.00024400  1
  C  C5  1  0.33333300  0.66666700  0.99975600  1
  C  C6  1  0.33333300  0.66666700  0.75000000  1
  C  C7  1  0.66666700  0.33333300  0.25000000  1
  Ni  Ni8  1  0.24319900  0.41463700  0.62303300  1
  Ni  Ni9  1  0.75680100  0.58536300  0.37696700  1
  Ni  Ni10  1  0.58536300  0.82856300  0.62303300  1
  Ni  Ni11  1  0.24319900  0.82856300  0.87696700  1
  Ni  Ni12  1  0.41463700  0.17143700  0.37696700  1
  Ni  Ni13  1  0.75680100  0.17143700  0.12303300  1
  Ni  Ni14  1  0.17143700  0.75680100  0.62303300  1
  Ni  Ni15  1  0.58536300  0.75680100  0.87696700  1
  Ni  Ni16  1  0.82856300  0.24319900  0.37696700  1
  Ni  Ni17  1  0.41463700  0.24319900  0.12303300  1
  Ni  Ni18  1  0.17143700  0.41463700  0.87696700  1
  Ni  Ni19  1  0.82856300  0.58536300  0.12303300  1
  Cu  Cu20  1  0.33935000  0.51766600  0.68448200  1
  Cu  Cu21  1  0.66065000  0.48233400  0.31551800  1
  Cu  Cu22  1  0.48233400  0.82168300  0.68448200  1
  Cu  Cu23  1  0.33935000  0.82168300  0.81551800  1
  Cu  Cu24  1  0.51766600  0.17831700  0.31551800  1
  Cu  Cu25  1  0.66065000  0.17831700  0.18448200  1
  Cu  Cu26  1  0.17831700  0.66065000  0.68448200  1
  Cu  Cu27  1  0.48233400  0.66065000  0.81551800  1
  Cu  Cu28  1  0.82168300  0.33935000  0.31551800  1
  Cu  Cu29  1  0.51766600  0.33935000  0.18448200  1
  Cu  Cu30  1  0.17831700  0.51766600  0.81551800  1
  Cu  Cu31  1  0.82168300  0.48233400  0.18448200  1
  Cu  Cu32  1  0.21603000  0.49840700  0.56137400  1
  Cu  Cu33  1  0.78397000  0.50159300  0.43862600  1
  Cu  Cu34  1  0.50159300  0.71762300  0.56137400  1
  Cu  Cu35  1  0.21603000  0.71762300  0.93862600  1
  Cu  Cu36  1  0.49840700  0.28237700  0.43862600  1
  Cu  Cu37  1  0.78397000  0.28237700  0.06137400  1
  Cu  Cu38  1  0.28237700  0.78397000  0.56137400  1
  Cu  Cu39  1  0.50159300  0.78397000  0.93862600  1
  Cu  Cu40  1  0.71762300  0.21603000  0.43862600  1
  Cu  Cu41  1  0.49840700  0.21603000  0.06137400  1
  Cu  Cu42  1  0.28237700  0.49840700  0.93862600  1
  Cu  Cu43  1  0.71762300  0.50159300  0.06137400  1
  Cu  Cu44  1  0.10573500  0.31484400  0.65511900  1
  Cu  Cu45  1  0.89426500  0.68515600  0.34488100  1
  Cu  Cu46  1  0.68515600  0.79089000  0.65511900  1
  Cu  Cu47  1  0.10573500  0.79089000  0.84488100  1
  Cu  Cu48  1  0.31484400  0.20911000  0.34488100  1
  Cu  Cu49  1  0.89426500  0.20911000  0.15511900  1
  Cu  Cu50  1  0.20911000  0.89426500  0.65511900  1
  Cu  Cu51  1  0.68515600  0.89426500  0.84488100  1
  Cu  Cu52  1  0.79089000  0.10573500  0.34488100  1
  Cu  Cu53  1  0.31484400  0.10573500  0.15511900  1
  Cu  Cu54  1  0.20911000  0.31484400  0.84488100  1
  Cu  Cu55  1  0.79089000  0.68515600  0.15511900  1
  Cu  Cu56  1  0.61949000  0.13469100  0.76140400  1
  Cu  Cu57  1  0.38051000  0.86530900  0.23859600  1
  Cu  Cu58  1  0.86530900  0.48479900  0.76140400  1
  Cu  Cu59  1  0.61949000  0.48479900  0.73859600  1
  Cu  Cu60  1  0.13469100  0.51520100  0.23859600  1
  Cu  Cu61  1  0.38051000  0.51520100  0.26140400  1
  Cu  Cu62  1  0.51520100  0.38051000  0.76140400  1
  Cu  Cu63  1  0.86530900  0.38051000  0.73859600  1
  Cu  Cu64  1  0.48479900  0.61949000  0.23859600  1
  Cu  Cu65  1  0.13469100  0.61949000  0.26140400  1
  Cu  Cu66  1  0.51520100  0.13469100  0.73859600  1
  Cu  Cu67  1  0.48479900  0.86530900  0.26140400  1
  Cu  Cu68  1  0.93347000  0.09232200  0.56087500  1
  Cu  Cu69  1  0.06653000  0.90767800  0.43912500  1
  Cu  Cu70  1  0.90767800  0.84114800  0.56087500  1
  Cu  Cu71  1  0.93347000  0.84114800  0.93912500  1
  Cu  Cu72  1  0.09232200  0.15885200  0.43912500  1
  Cu  Cu73  1  0.06653000  0.15885200  0.06087500  1
  Cu  Cu74  1  0.15885200  0.06653000  0.56087500  1
  Cu  Cu75  1  0.90767800  0.06653000  0.93912500  1
  Cu  Cu76  1  0.84114800  0.93347000  0.43912500  1
  Cu  Cu77  1  0.09232200  0.93347000  0.06087500  1
  Cu  Cu78  1  0.15885200  0.09232200  0.93912500  1
  Cu  Cu79  1  0.84114800  0.90767800  0.06087500  1
  Cu  Cu80  1  0.32048700  0.34937600  0.59032100  1
  Cu  Cu81  1  0.67951300  0.65062400  0.40967900  1
  Cu  Cu82  1  0.65062400  0.97111200  0.59032100  1
  Cu  Cu83  1  0.32048700  0.97111200  0.90967900  1
  Cu  Cu84  1  0.34937600  0.02888800  0.40967900  1
  Cu  Cu85  1  0.67951300  0.02888800  0.09032100  1
  Cu  Cu86  1  0.02888800  0.67951300  0.59032100  1
  Cu  Cu87  1  0.65062400  0.67951300  0.90967900  1
  Cu  Cu88  1  0.97111200  0.32048700  0.40967900  1
  Cu  Cu89  1  0.34937600  0.32048700  0.09032100  1
  Cu  Cu90  1  0.02888800  0.34937600  0.90967900  1
  Cu  Cu91  1  0.97111200  0.65062400  0.09032100  1
  Cu  Cu92  1  0.58449300  0.20489700  0.57454700  1
  Cu  Cu93  1  0.41550700  0.79510300  0.42545300  1
  Cu  Cu94  1  0.79510300  0.37959700  0.57454700  1
  Cu  Cu95  1  0.58449300  0.37959700  0.92545300  1
  Cu  Cu96  1  0.20489700  0.62040300  0.42545300  1
  Cu  Cu97  1  0.41550700  0.62040300  0.07454700  1
  Cu  Cu98  1  0.62040300  0.41550700  0.57454700  1
  Cu  Cu99  1  0.79510300  0.41550700  0.92545300  1
  Cu  Cu100  1  0.37959700  0.58449300  0.42545300  1
  Cu  Cu101  1  0.20489700  0.58449300  0.07454700  1
  Cu  Cu102  1  0.62040300  0.20489700  0.92545300  1
  Cu  Cu103  1  0.37959700  0.79510300  0.07454700  1
