# generated using pymatgen
data_Cu(NiC)2
_symmetry_space_group_name_H-M   'P 1'
_cell_length_a   7.08536959
_cell_length_b   13.45748237
_cell_length_c   18.67841400
_cell_angle_alpha   90.00000000
_cell_angle_beta   90.00000000
_cell_angle_gamma   18.25588629
_symmetry_Int_Tables_number   1
_chemical_formula_structural   Cu(NiC)2
_chemical_formula_sum   'Cu4 Ni8 C8'
_cell_volume   557.92159525
_cell_formula_units_Z   4
loop_
 _symmetry_equiv_pos_site_id
 _symmetry_equiv_pos_as_xyz
  1  'x, y, z'
loop_
 _atom_site_type_symbol
 _atom_site_label
 _atom_site_symmetry_multiplicity
 _atom_site_fract_x
 _atom_site_fract_y
 _atom_site_fract_z
 _atom_site_occupancy
  Ni  Ni0  1  0.00000000  0.52840900  0.85824500  1
  Ni  Ni1  1  0.00000000  0.47159100  0.14175500  1
  Ni  Ni2  1  0.00000000  0.97159100  0.35824500  1
  Ni  Ni3  1  0.00000000  0.02840900  0.64175500  1
  Ni  Ni4  1  0.00000000  0.14257800  0.98375600  1
  Ni  Ni5  1  0.00000000  0.85742200  0.01624400  1
  Ni  Ni6  1  0.00000000  0.35742200  0.48375600  1
  Ni  Ni7  1  0.00000000  0.64257800  0.51624400  1
  Cu  Cu8  1  0.00000000  0.30508900  0.65840900  1
  Cu  Cu9  1  0.00000000  0.69491100  0.34159100  1
  Cu  Cu10  1  0.00000000  0.19491100  0.15840900  1
  Cu  Cu11  1  0.00000000  0.80508900  0.84159100  1
  C  C12  1  0.00000000  0.45492000  0.60767100  1
  C  C13  1  0.00000000  0.54508000  0.39232900  1
  C  C14  1  0.00000000  0.04508000  0.10767100  1
  C  C15  1  0.00000000  0.95492000  0.89232900  1
  C  C16  1  0.00000000  0.18944300  0.57586200  1
  C  C17  1  0.00000000  0.81055700  0.42413800  1
  C  C18  1  0.00000000  0.31055700  0.07586200  1
  C  C19  1  0.00000000  0.68944300  0.92413800  1
