# generated using pymatgen
data_Cu3NiC12
_symmetry_space_group_name_H-M   'P 1'
_cell_length_a   5.05459700
_cell_length_b   8.96048900
_cell_length_c   11.94249999
_cell_angle_alpha   63.27596629
_cell_angle_beta   90.00000000
_cell_angle_gamma   90.00000000
_symmetry_Int_Tables_number   1
_chemical_formula_structural   Cu3NiC12
_chemical_formula_sum   'Cu6 Ni2 C24'
_cell_volume   483.11871811
_cell_formula_units_Z   2
loop_
 _symmetry_equiv_pos_site_id
 _symmetry_equiv_pos_as_xyz
  1  'x, y, z'
loop_
 _atom_site_type_symbol
 _atom_site_label
 _atom_site_symmetry_multiplicity
 _atom_site_fract_x
 _atom_site_fract_y
 _atom_site_fract_z
 _atom_site_occupancy
  C  C0  1  0.49076200  0.50000000  0.75000000  1
  C  C1  1  0.50923800  0.50000000  0.25000000  1
  Ni  Ni2  1  0.50000000  0.00000000  0.50000000  1
  Ni  Ni3  1  0.50000000  0.00000000  0.00000000  1
  Cu  Cu4  1  0.99855000  0.77855900  0.49327400  1
  Cu  Cu5  1  0.00145000  0.22144100  0.50672600  1
  Cu  Cu6  1  0.99855000  0.22144100  0.00672600  1
  Cu  Cu7  1  0.00145000  0.77855900  0.99327400  1
  Cu  Cu8  1  0.25945200  0.00000000  0.75000000  1
  Cu  Cu9  1  0.74054800  0.00000000  0.25000000  1
  C  C10  1  0.00000000  0.50000000  0.50000000  1
  C  C11  1  0.00000000  0.50000000  0.00000000  1
  C  C12  1  0.81302100  0.85473200  0.55416400  1
  C  C13  1  0.18697900  0.14526800  0.44583600  1
  C  C14  1  0.81302100  0.14526800  0.94583600  1
  C  C15  1  0.18697900  0.85473200  0.05416400  1
  C  C16  1  0.29190300  0.80973500  0.50409100  1
  C  C17  1  0.70809700  0.19026500  0.49590900  1
  C  C18  1  0.29190300  0.19026500  0.99590900  1
  C  C19  1  0.70809700  0.80973500  0.00409100  1
  C  C20  1  0.41347600  0.92441600  0.67991400  1
  C  C21  1  0.58652400  0.07558400  0.32008600  1
  C  C22  1  0.41347600  0.07558400  0.82008600  1
  C  C23  1  0.58652400  0.92441600  0.17991400  1
  C  C24  1  0.06594100  0.85739300  0.84328900  1
  C  C25  1  0.93405900  0.14260700  0.15671100  1
  C  C26  1  0.06594100  0.14260700  0.65671100  1
  C  C27  1  0.93405900  0.85739300  0.34328900  1
  C  C28  1  0.94561700  0.59003500  0.54690900  1
  C  C29  1  0.05438300  0.40996500  0.45309100  1
  C  C30  1  0.94561700  0.40996500  0.95309100  1
  C  C31  1  0.05438300  0.59003500  0.04690900  1
