# generated using pymatgen
data_Cu3NiC16
_symmetry_space_group_name_H-M   'P 1'
_cell_length_a   8.08516000
_cell_length_b   5.64676900
_cell_length_c   5.79170158
_cell_angle_alpha   89.97439760
_cell_angle_beta   90.00000000
_cell_angle_gamma   90.00000000
_symmetry_Int_Tables_number   1
_chemical_formula_structural   Cu3NiC16
_chemical_formula_sum   'Cu3 Ni1 C16'
_cell_volume   264.42028782
_cell_formula_units_Z   1
loop_
 _symmetry_equiv_pos_site_id
 _symmetry_equiv_pos_as_xyz
  1  'x, y, z'
loop_
 _atom_site_type_symbol
 _atom_site_label
 _atom_site_symmetry_multiplicity
 _atom_site_fract_x
 _atom_site_fract_y
 _atom_site_fract_z
 _atom_site_occupancy
  Ni  Ni0  1  0.50000000  0.48865000  0.54133300  1
  Cu  Cu1  1  0.50000000  0.01237700  0.04538300  1
  Cu  Cu2  1  0.00000000  0.51170100  0.45479800  1
  Cu  Cu3  1  0.00000000  0.98952300  0.95632500  1
  C  C4  1  0.24757800  0.00034400  0.50000200  1
  C  C5  1  0.75199100  0.49934900  0.00016200  1
  C  C6  1  0.75242200  0.00034400  0.50000200  1
  C  C7  1  0.24800900  0.49934900  0.00016200  1
  C  C8  1  0.50000000  0.59929400  0.97939700  1
  C  C9  1  0.50000000  0.92073400  0.46633400  1
  C  C10  1  0.00000000  0.40185300  0.03102100  1
  C  C11  1  0.00000000  0.10131500  0.53404000  1
  C  C12  1  0.30029400  0.20147700  0.79655300  1
  C  C13  1  0.70542600  0.28981300  0.28802700  1
  C  C14  1  0.80390800  0.79355200  0.20684800  1
  C  C15  1  0.19623000  0.70274100  0.70409400  1
  C  C16  1  0.19609200  0.79355200  0.20684800  1
  C  C17  1  0.80377000  0.70274100  0.70409400  1
  C  C18  1  0.69970600  0.20147700  0.79655300  1
  C  C19  1  0.29457400  0.28981300  0.28802700  1
