# generated using pymatgen
data_Cu(Ni4C)2
_symmetry_space_group_name_H-M   'P 1'
_cell_length_a   14.56456800
_cell_length_b   13.00017300
_cell_length_c   16.43414952
_cell_angle_alpha   53.73031062
_cell_angle_beta   90.00000000
_cell_angle_gamma   90.00000000
_symmetry_Int_Tables_number   1
_chemical_formula_structural   Cu(Ni4C)2
_chemical_formula_sum   'Cu8 Ni64 C16'
_cell_volume   2508.75958536
_cell_formula_units_Z   8
loop_
 _symmetry_equiv_pos_site_id
 _symmetry_equiv_pos_as_xyz
  1  'x, y, z'
loop_
 _atom_site_type_symbol
 _atom_site_label
 _atom_site_symmetry_multiplicity
 _atom_site_fract_x
 _atom_site_fract_y
 _atom_site_fract_z
 _atom_site_occupancy
  C  C0  1  0.88266700  0.21966000  0.80405600  1
  C  C1  1  0.38266700  0.78034000  0.69594400  1
  C  C2  1  0.11733300  0.78034000  0.19594400  1
  C  C3  1  0.61733300  0.21966000  0.30405600  1
  C  C4  1  0.85785600  0.00983300  0.72588500  1
  C  C5  1  0.35785600  0.99016700  0.77411500  1
  C  C6  1  0.14214400  0.99016700  0.27411500  1
  C  C7  1  0.64214400  0.00983300  0.22588500  1
  C  C8  1  0.88891000  0.48930600  0.77078400  1
  C  C9  1  0.38891000  0.51069400  0.72921600  1
  C  C10  1  0.11109000  0.51069400  0.22921600  1
  C  C11  1  0.61109000  0.48930600  0.27078400  1
  C  C12  1  0.87912100  0.74766700  0.74593900  1
  C  C13  1  0.37912100  0.25233300  0.75406100  1
  C  C14  1  0.12087900  0.25233300  0.25406100  1
  C  C15  1  0.62087900  0.74766700  0.24593900  1
  Ni  Ni16  1  0.93065100  0.71207400  0.60389900  1
  Ni  Ni17  1  0.43065100  0.28792600  0.89610100  1
  Ni  Ni18  1  0.06934900  0.28792600  0.39610100  1
  Ni  Ni19  1  0.56934900  0.71207400  0.10389900  1
  Ni  Ni20  1  0.86324800  0.78082300  0.89483500  1
  Ni  Ni21  1  0.36324800  0.21917700  0.60516500  1
  Ni  Ni22  1  0.13675200  0.21917700  0.10516500  1
  Ni  Ni23  1  0.63675200  0.78082300  0.39483500  1
  Ni  Ni24  1  0.00497200  0.92614400  0.67834800  1
  Ni  Ni25  1  0.50497200  0.07385600  0.82165200  1
  Ni  Ni26  1  0.99502800  0.07385600  0.32165200  1
  Ni  Ni27  1  0.49502800  0.92614400  0.17834800  1
  Ni  Ni28  1  0.32010500  0.98977900  0.52142800  1
  Ni  Ni29  1  0.82010500  0.01022100  0.97857200  1
  Ni  Ni30  1  0.67989500  0.01022100  0.47857200  1
  Ni  Ni31  1  0.17989500  0.98977900  0.02142800  1
  Ni  Ni32  1  0.74279100  0.34557500  0.82135200  1
  Ni  Ni33  1  0.24279100  0.65442500  0.67864800  1
  Ni  Ni34  1  0.25720900  0.65442500  0.17864800  1
  Ni  Ni35  1  0.75720900  0.34557500  0.32135200  1
  Ni  Ni36  1  0.96648300  0.25937900  0.92045200  1
  Ni  Ni37  1  0.46648300  0.74062100  0.57954800  1
  Ni  Ni38  1  0.03351700  0.74062100  0.07954800  1
  Ni  Ni39  1  0.53351700  0.25937900  0.42045200  1
  Ni  Ni40  1  0.77402500  0.68772600  0.65219500  1
  Ni  Ni41  1  0.27402500  0.31227400  0.84780500  1
  Ni  Ni42  1  0.22597500  0.31227400  0.34780500  1
  Ni  Ni43  1  0.72597500  0.68772600  0.15219500  1
  Ni  Ni44  1  0.80085500  0.42375900  0.65799600  1
  Ni  Ni45  1  0.30085500  0.57624100  0.84200400  1
  Ni  Ni46  1  0.19914500  0.57624100  0.34200400  1
  Ni  Ni47  1  0.69914500  0.42375900  0.15799600  1
  Ni  Ni48  1  0.86740600  0.99367100  0.57449100  1
  Ni  Ni49  1  0.36740600  0.00632900  0.92550900  1
  Ni  Ni50  1  0.13259400  0.00632900  0.42550900  1
  Ni  Ni51  1  0.63259400  0.99367100  0.07449100  1
  Ni  Ni52  1  0.84290600  0.50872900  0.91360000  1
  Ni  Ni53  1  0.34290600  0.49127100  0.58640000  1
  Ni  Ni54  1  0.15709400  0.49127100  0.08640000  1
  Ni  Ni55  1  0.65709400  0.50872900  0.41360000  1
  Ni  Ni56  1  0.95125200  0.22853900  0.64640900  1
  Ni  Ni57  1  0.45125200  0.77146100  0.85359100  1
  Ni  Ni58  1  0.04874800  0.77146100  0.35359100  1
  Ni  Ni59  1  0.54874800  0.22853900  0.14640900  1
  Ni  Ni60  1  0.00013500  0.56779100  0.85629700  1
  Ni  Ni61  1  0.50013500  0.43220900  0.64370300  1
  Ni  Ni62  1  0.99986500  0.43220900  0.14370300  1
  Ni  Ni63  1  0.49986500  0.56779100  0.35629700  1
  Ni  Ni64  1  0.03432400  0.37818200  0.75521900  1
  Ni  Ni65  1  0.53432400  0.62181800  0.74478100  1
  Ni  Ni66  1  0.96567600  0.62181800  0.24478100  1
  Ni  Ni67  1  0.46567600  0.37818200  0.25521900  1
  Ni  Ni68  1  0.99664700  0.05295900  0.81405000  1
  Ni  Ni69  1  0.49664700  0.94704100  0.68595000  1
  Ni  Ni70  1  0.00335300  0.94704100  0.18595000  1
  Ni  Ni71  1  0.50335300  0.05295900  0.31405000  1
  Ni  Ni72  1  0.73220900  0.81738900  0.79685300  1
  Ni  Ni73  1  0.23220900  0.18261100  0.70314700  1
  Ni  Ni74  1  0.26779100  0.18261100  0.20314700  1
  Ni  Ni75  1  0.76779100  0.81738900  0.29685300  1
  Ni  Ni76  1  0.74845800  0.06901300  0.82538600  1
  Ni  Ni77  1  0.24845800  0.93098700  0.67461400  1
  Ni  Ni78  1  0.25154200  0.93098700  0.17461400  1
  Ni  Ni79  1  0.75154200  0.06901300  0.32538600  1
  Cu  Cu80  1  0.21841100  0.83843100  0.88579000  1
  Cu  Cu81  1  0.71841100  0.16156900  0.61421000  1
  Cu  Cu82  1  0.78158900  0.16156900  0.11421000  1
  Cu  Cu83  1  0.28158900  0.83843100  0.38579000  1
  Cu  Cu84  1  0.13237000  0.52873900  0.54471600  1
  Cu  Cu85  1  0.63237000  0.47126100  0.95528400  1
  Cu  Cu86  1  0.86763000  0.47126100  0.45528400  1
  Cu  Cu87  1  0.36763000  0.52873900  0.04471600  1
