# generated using pymatgen
data_Cu(NiC)4
_symmetry_space_group_name_H-M   'P 1'
_cell_length_a   6.35230357
_cell_length_b   11.02338087
_cell_length_c   11.45747780
_cell_angle_alpha   90.00000000
_cell_angle_beta   90.00000000
_cell_angle_gamma   90.00000000
_symmetry_Int_Tables_number   1
_chemical_formula_structural   Cu(NiC)4
_chemical_formula_sum   'Cu8 Ni32 C32'
_cell_volume   802.29684037
_cell_formula_units_Z   8
loop_
 _symmetry_equiv_pos_site_id
 _symmetry_equiv_pos_as_xyz
  1  'x, y, z'
loop_
 _atom_site_type_symbol
 _atom_site_label
 _atom_site_symmetry_multiplicity
 _atom_site_fract_x
 _atom_site_fract_y
 _atom_site_fract_z
 _atom_site_occupancy
  C  C0  1  0.99200361  0.27670989  0.84661608  1
  C  C1  1  0.50799639  0.77670989  0.65338392  1
  C  C2  1  0.49200361  0.72329011  0.15338392  1
  C  C3  1  0.00799639  0.22329011  0.34661608  1
  C  C4  1  0.00799639  0.72329011  0.15338392  1
  C  C5  1  0.49200361  0.22329011  0.34661608  1
  C  C6  1  0.50799639  0.27670989  0.84661608  1
  C  C7  1  0.99200361  0.77670989  0.65338392  1
  C  C8  1  0.75000000  0.22621137  0.09034536  1
  C  C9  1  0.75000000  0.72621137  0.40965464  1
  C  C10  1  0.25000000  0.77378863  0.90965464  1
  C  C11  1  0.25000000  0.27378863  0.59034536  1
  C  C12  1  0.75000000  0.55069997  0.76819319  1
  C  C13  1  0.75000000  0.05069997  0.73180681  1
  C  C14  1  0.25000000  0.44930003  0.23180681  1
  C  C15  1  0.25000000  0.94930003  0.26819319  1
  C  C16  1  -0.00000000  0.50000000  0.50000000  1
  C  C17  1  0.50000000  -0.00000000  -0.00000000  1
  C  C18  1  0.50000000  0.50000000  0.50000000  1
  C  C19  1  -0.00000000  -0.00000000  -0.00000000  1
  C  C20  1  -0.00000000  0.50000000  -0.00000000  1
  C  C21  1  0.50000000  -0.00000000  0.50000000  1
  C  C22  1  0.50000000  0.50000000  -0.00000000  1
  C  C23  1  -0.00000000  -0.00000000  0.50000000  1
  C  C24  1  0.75000000  0.45812619  0.24257162  1
  C  C25  1  0.75000000  0.95812619  0.25742838  1
  C  C26  1  0.25000000  0.54187381  0.75742838  1
  C  C27  1  0.25000000  0.04187381  0.74257162  1
  C  C28  1  0.75000000  0.25328217  0.57844978  1
  C  C29  1  0.75000000  0.75328217  0.92155022  1
  C  C30  1  0.25000000  0.74671783  0.42155022  1
  C  C31  1  0.25000000  0.24671783  0.07844978  1
  Ni  Ni32  1  0.95187215  0.31966103  0.53549828  1
  Ni  Ni33  1  0.54812785  0.81966103  0.96450172  1
  Ni  Ni34  1  0.45187215  0.68033897  0.46450172  1
  Ni  Ni35  1  0.04812785  0.18033897  0.03549828  1
  Ni  Ni36  1  0.04812785  0.68033897  0.46450172  1
  Ni  Ni37  1  0.45187215  0.18033897  0.03549828  1
  Ni  Ni38  1  0.54812785  0.31966103  0.53549828  1
  Ni  Ni39  1  0.95187215  0.81966103  0.96450172  1
  Ni  Ni40  1  0.75000000  0.23390472  0.70997367  1
  Ni  Ni41  1  0.75000000  0.73390472  0.79002633  1
  Ni  Ni42  1  0.25000000  0.76609528  0.29002633  1
  Ni  Ni43  1  0.25000000  0.26609528  0.20997367  1
  Ni  Ni44  1  0.75000000  0.31841159  0.24171446  1
  Ni  Ni45  1  0.75000000  0.81841159  0.25828554  1
  Ni  Ni46  1  0.25000000  0.68158841  0.75828554  1
  Ni  Ni47  1  0.25000000  0.18158841  0.74171446  1
  Ni  Ni48  1  0.75000000  0.12462951  0.51610780  1
  Ni  Ni49  1  0.75000000  0.62462951  0.98389220  1
  Ni  Ni50  1  0.25000000  0.87537049  0.48389220  1
  Ni  Ni51  1  0.25000000  0.37537049  0.01610780  1
  Ni  Ni52  1  0.75000000  0.00808481  0.12880808  1
  Ni  Ni53  1  0.75000000  0.50808481  0.37119192  1
  Ni  Ni54  1  0.25000000  0.99191519  0.87119192  1
  Ni  Ni55  1  0.25000000  0.49191519  0.62880808  1
  Ni  Ni56  1  0.45258753  0.49257283  0.81993534  1
  Ni  Ni57  1  0.04741247  0.99257283  0.68006466  1
  Ni  Ni58  1  0.95258753  0.50742717  0.18006466  1
  Ni  Ni59  1  0.54741247  0.00742717  0.31993534  1
  Ni  Ni60  1  0.54741247  0.50742717  0.18006466  1
  Ni  Ni61  1  0.95258753  0.00742717  0.31993534  1
  Ni  Ni62  1  0.04741247  0.49257283  0.81993534  1
  Ni  Ni63  1  0.45258753  0.99257283  0.68006466  1
  Cu  Cu64  1  0.75000000  0.37219718  0.97318137  1
  Cu  Cu65  1  0.75000000  0.87219718  0.52681863  1
  Cu  Cu66  1  0.25000000  0.62780282  0.02681863  1
  Cu  Cu67  1  0.25000000  0.12780282  0.47318137  1
  Cu  Cu68  1  0.75000000  0.05895227  0.89395736  1
  Cu  Cu69  1  0.75000000  0.55895227  0.60604264  1
  Cu  Cu70  1  0.25000000  0.94104773  0.10604264  1
  Cu  Cu71  1  0.25000000  0.44104773  0.39395736  1
