# generated using pymatgen
data_CuNi3C14
_symmetry_space_group_name_H-M   'P 1'
_cell_length_a   12.86496100
_cell_length_b   12.86496071
_cell_length_c   8.18927200
_cell_angle_alpha   90.00000000
_cell_angle_beta   90.00000000
_cell_angle_gamma   119.99999817
_symmetry_Int_Tables_number   1
_chemical_formula_structural   CuNi3C14
_chemical_formula_sum   'Cu6 Ni18 C84'
_cell_volume   1173.79667247
_cell_formula_units_Z   6
loop_
 _symmetry_equiv_pos_site_id
 _symmetry_equiv_pos_as_xyz
  1  'x, y, z'
loop_
 _atom_site_type_symbol
 _atom_site_label
 _atom_site_symmetry_multiplicity
 _atom_site_fract_x
 _atom_site_fract_y
 _atom_site_fract_z
 _atom_site_occupancy
  C  C0  1  0.00449400  0.33581700  0.08648000  1
  C  C1  1  0.33132300  0.99550600  0.08648000  1
  C  C2  1  0.66418300  0.66867700  0.08648000  1
  C  C3  1  0.99550600  0.66418300  0.58648000  1
  C  C4  1  0.66867700  0.00449400  0.58648000  1
  C  C5  1  0.33581700  0.33132300  0.58648000  1
  C  C6  1  0.27309300  0.57882000  0.99429900  1
  C  C7  1  0.30572700  0.72690700  0.99429900  1
  C  C8  1  0.42118000  0.69427300  0.99429900  1
  C  C9  1  0.72690700  0.42118000  0.49429900  1
  C  C10  1  0.69427300  0.27309300  0.49429900  1
  C  C11  1  0.57882000  0.30572700  0.49429900  1
  C  C12  1  0.33333300  0.66666700  0.15858500  1
  C  C13  1  0.66666700  0.33333300  0.65858500  1
  C  C14  1  0.75384300  0.35780600  0.99036500  1
  C  C15  1  0.60396300  0.24615700  0.99036500  1
  C  C16  1  0.64219400  0.39603700  0.99036500  1
  C  C17  1  0.24615700  0.64219400  0.49036500  1
  C  C18  1  0.39603700  0.75384300  0.49036500  1
  C  C19  1  0.35780600  0.60396300  0.49036500  1
  C  C20  1  0.66666700  0.33333300  0.15486400  1
  C  C21  1  0.33333300  0.66666700  0.65486400  1
  C  C22  1  0.93939500  0.02722900  0.68353300  1
  C  C23  1  0.08783400  0.06060500  0.68353300  1
  C  C24  1  0.97277100  0.91216600  0.68353300  1
  C  C25  1  0.06060500  0.97277100  0.18353300  1
  C  C26  1  0.91216600  0.93939500  0.18353300  1
  C  C27  1  0.02722900  0.08783400  0.18353300  1
  C  C28  1  0.00000000  0.00000000  0.51916900  1
  C  C29  1  0.00000000  0.00000000  0.01916900  1
  C  C30  1  0.12241200  0.27668000  0.80747500  1
  C  C31  1  0.15426800  0.87758800  0.80747500  1
  C  C32  1  0.72332000  0.84573200  0.80747500  1
  C  C33  1  0.87758800  0.72332000  0.30747500  1
  C  C34  1  0.84573200  0.12241200  0.30747500  1
  C  C35  1  0.27668000  0.15426800  0.30747500  1
  C  C36  1  0.05531200  0.50358500  0.79701600  1
  C  C37  1  0.44827300  0.94468800  0.79701600  1
  C  C38  1  0.49641500  0.55172700  0.79701600  1
  C  C39  1  0.94468800  0.49641500  0.29701600  1
  C  C40  1  0.55172700  0.05531200  0.29701600  1
  C  C41  1  0.50358500  0.44827300  0.29701600  1
  C  C42  1  0.77808100  0.16253800  0.89201500  1
  C  C43  1  0.38445700  0.22191900  0.89201500  1
  C  C44  1  0.83746200  0.61554300  0.89201500  1
  C  C45  1  0.22191900  0.83746200  0.39201500  1
  C  C46  1  0.61554300  0.77808100  0.39201500  1
  C  C47  1  0.16253800  0.38445700  0.39201500  1
  Ni  Ni48  1  0.18591200  0.37346400  0.82619900  1
  Ni  Ni49  1  0.18755200  0.81408800  0.82619900  1
  Ni  Ni50  1  0.62653600  0.81244800  0.82619900  1
  Ni  Ni51  1  0.81408800  0.62653600  0.32619900  1
  Ni  Ni52  1  0.81244800  0.18591200  0.32619900  1
  Ni  Ni53  1  0.37346400  0.18755200  0.32619900  1
  Ni  Ni54  1  0.95914000  0.47113400  0.82003500  1
  Ni  Ni55  1  0.51199400  0.04086000  0.82003500  1
  Ni  Ni56  1  0.52886600  0.48800600  0.82003500  1
  Ni  Ni57  1  0.04086000  0.52886600  0.32003500  1
  Ni  Ni58  1  0.48800600  0.95914000  0.32003500  1
  Ni  Ni59  1  0.47113400  0.51199400  0.32003500  1
  Ni  Ni60  1  0.84668900  0.13811300  0.85949600  1
  Ni  Ni61  1  0.29142300  0.15331100  0.85949600  1
  Ni  Ni62  1  0.86188700  0.70857700  0.85949600  1
  Ni  Ni63  1  0.15331100  0.86188700  0.35949600  1
  Ni  Ni64  1  0.70857700  0.84668900  0.35949600  1
  Ni  Ni65  1  0.13811300  0.29142300  0.35949600  1
  Cu  Cu66  1  0.33333300  0.66666700  0.03363900  1
  Cu  Cu67  1  0.66666700  0.33333300  0.53363900  1
  Cu  Cu68  1  0.66666700  0.33333300  0.02978800  1
  Cu  Cu69  1  0.33333300  0.66666700  0.52978800  1
  Cu  Cu70  1  0.00000000  0.00000000  0.64423600  1
  Cu  Cu71  1  0.00000000  0.00000000  0.14423600  1
  C  C72  1  0.16150200  0.42462500  0.94147600  1
  C  C73  1  0.26312300  0.83849800  0.94147600  1
  C  C74  1  0.57537500  0.73687700  0.94147600  1
  C  C75  1  0.83849800  0.57537500  0.44147600  1
  C  C76  1  0.73687700  0.16150200  0.44147600  1
  C  C77  1  0.42462500  0.26312300  0.44147600  1
  C  C78  1  0.27623900  0.42567400  0.73335200  1
  C  C79  1  0.14943600  0.72376100  0.73335200  1
  C  C80  1  0.57432600  0.85056400  0.73335200  1
  C  C81  1  0.72376100  0.57432600  0.23335200  1
  C  C82  1  0.85056400  0.27623900  0.23335200  1
  C  C83  1  0.42567400  0.14943600  0.23335200  1
  C  C84  1  0.90970100  0.39753400  0.93762700  1
  C  C85  1  0.48783300  0.09029900  0.93762700  1
  C  C86  1  0.60246600  0.51216700  0.93762700  1
  C  C87  1  0.09029900  0.60246600  0.43762700  1
  C  C88  1  0.51216700  0.90970100  0.43762700  1
  C  C89  1  0.39753400  0.48783300  0.43762700  1
  C  C90  1  0.90601000  0.50984300  0.72974600  1
  C  C91  1  0.60383200  0.09399000  0.72974600  1
  C  C92  1  0.49015700  0.39616800  0.72974600  1
  C  C93  1  0.09399000  0.49015700  0.22974600  1
  C  C94  1  0.39616800  0.90601000  0.22974600  1
  C  C95  1  0.50984300  0.60383200  0.22974600  1
  C  C96  1  0.94068000  0.18024400  0.94556200  1
  C  C97  1  0.23956400  0.05932000  0.94556200  1
  C  C98  1  0.81975600  0.76043600  0.94556200  1
  C  C99  1  0.05932000  0.81975600  0.44556200  1
  C  C100  1  0.76043600  0.94068000  0.44556200  1
  C  C101  1  0.18024400  0.23956400  0.44556200  1
  C  C102  1  0.82491300  0.06899300  0.73690300  1
  C  C103  1  0.24408000  0.17508700  0.73690300  1
  C  C104  1  0.93100700  0.75592000  0.73690300  1
  C  C105  1  0.17508700  0.93100700  0.23690300  1
  C  C106  1  0.75592000  0.82491300  0.23690300  1
  C  C107  1  0.06899300  0.24408000  0.23690300  1
