# generated using pymatgen
data_Cu4Ni
_symmetry_space_group_name_H-M   'P 1'
_cell_length_a   13.18383300
_cell_length_b   5.50416800
_cell_length_c   6.94709218
_cell_angle_alpha   83.63871372
_cell_angle_beta   90.00000000
_cell_angle_gamma   90.00000000
_symmetry_Int_Tables_number   1
_chemical_formula_structural   Cu4Ni
_chemical_formula_sum   'Cu16 Ni4'
_cell_volume   501.01903153
_cell_formula_units_Z   4
loop_
 _symmetry_equiv_pos_site_id
 _symmetry_equiv_pos_as_xyz
  1  'x, y, z'
loop_
 _atom_site_type_symbol
 _atom_site_label
 _atom_site_symmetry_multiplicity
 _atom_site_fract_x
 _atom_site_fract_y
 _atom_site_fract_z
 _atom_site_occupancy
  Ni  Ni0  1  0.51630900  0.18513300  0.77095400  1
  Ni  Ni1  1  0.01630900  0.81486700  0.22904600  1
  Ni  Ni2  1  0.48199100  0.40188500  0.08002900  1
  Ni  Ni3  1  0.98199100  0.59811500  0.91997100  1
  Cu  Cu4  1  0.25943000  0.17673900  0.00774700  1
  Cu  Cu5  1  0.75943000  0.82326100  0.99225300  1
  Cu  Cu6  1  0.24614100  0.94356700  0.01648200  1
  Cu  Cu7  1  0.74614100  0.05643300  0.98351800  1
  Cu  Cu8  1  0.25432900  0.84169100  0.85878500  1
  Cu  Cu9  1  0.75432900  0.15830900  0.14121500  1
  Cu  Cu10  1  0.24124900  0.29352600  0.48301100  1
  Cu  Cu11  1  0.74124900  0.70647400  0.51698900  1
  Cu  Cu12  1  0.21411600  0.50532800  0.49477700  1
  Cu  Cu13  1  0.71411600  0.49467200  0.50522300  1
  Cu  Cu14  1  0.42800400  0.78578300  0.43182900  1
  Cu  Cu15  1  0.92800400  0.21421700  0.56817100  1
  Cu  Cu16  1  0.54289200  0.92017100  0.66372500  1
  Cu  Cu17  1  0.04289200  0.07982900  0.33627500  1
  Cu  Cu18  1  0.47163900  0.80254500  0.27453000  1
  Cu  Cu19  1  0.97163900  0.19745500  0.72547000  1
