# generated using pymatgen
data_CuNi3C8
_symmetry_space_group_name_H-M   'P 1'
_cell_length_a   3.55749744
_cell_length_b   3.55749744
_cell_length_c   40.07722500
_cell_angle_alpha   90.00000000
_cell_angle_beta   90.00000000
_cell_angle_gamma   119.99998966
_symmetry_Int_Tables_number   1
_chemical_formula_structural   CuNi3C8
_chemical_formula_sum   'Cu1 Ni3 C8'
_cell_volume   439.25580859
_cell_formula_units_Z   1
loop_
 _symmetry_equiv_pos_site_id
 _symmetry_equiv_pos_as_xyz
  1  'x, y, z'
loop_
 _atom_site_type_symbol
 _atom_site_label
 _atom_site_symmetry_multiplicity
 _atom_site_fract_x
 _atom_site_fract_y
 _atom_site_fract_z
 _atom_site_occupancy
  C  C0  1  0.33333300  0.66666700  0.32699700  1
  C  C1  1  0.33333300  0.66666700  0.70282700  1
  C  C2  1  0.66666700  0.33333300  0.04874600  1
  C  C3  1  0.66666700  0.33333300  0.42446600  1
  C  C4  1  0.66666700  0.33333300  0.13912600  1
  C  C5  1  0.66666700  0.33333300  0.51484300  1
  C  C6  1  0.33333300  0.66666700  0.23660000  1
  C  C7  1  0.33333300  0.66666700  0.61220600  1
  Ni  Ni8  1  0.33333300  0.66666700  0.09391600  1
  Ni  Ni9  1  0.33333300  0.66666700  0.46966900  1
  Ni  Ni10  1  0.66666700  0.33333300  0.28180400  1
  Cu  Cu11  1  0.66666700  0.33333300  0.65754800  1
