# generated using pymatgen
data_Cu6Ni2C
_symmetry_space_group_name_H-M   'P 1'
_cell_length_a   5.99159045
_cell_length_b   5.99159045
_cell_length_c   5.75611462
_cell_angle_alpha   64.40000059
_cell_angle_beta   64.40000059
_cell_angle_gamma   61.60694391
_symmetry_Int_Tables_number   1
_chemical_formula_structural   Cu6Ni2C
_chemical_formula_sum   'Cu6 Ni2 C1'
_cell_volume   157.10639260
_cell_formula_units_Z   1
loop_
 _symmetry_equiv_pos_site_id
 _symmetry_equiv_pos_as_xyz
  1  'x, y, z'
loop_
 _atom_site_type_symbol
 _atom_site_label
 _atom_site_symmetry_multiplicity
 _atom_site_fract_x
 _atom_site_fract_y
 _atom_site_fract_z
 _atom_site_occupancy
  C  C0  1  0.00000000  0.00000000  0.00000000  1
  Ni  Ni1  1  0.31651300  0.31651300  0.08989800  1
  Ni  Ni2  1  0.68348700  0.68348700  0.91010200  1
  Cu  Cu3  1  0.28901100  0.90618100  0.74256000  1
  Cu  Cu4  1  0.09381900  0.71098900  0.25744000  1
  Cu  Cu5  1  0.71098900  0.09381900  0.25744000  1
  Cu  Cu6  1  0.90618100  0.28901100  0.74256000  1
  Cu  Cu7  1  0.56725800  0.56725800  0.42974700  1
  Cu  Cu8  1  0.43274200  0.43274200  0.57025300  1
