# generated using pymatgen
data_Cu4NiC15
_symmetry_space_group_name_H-M   'P 1'
_cell_length_a   10.92554300
_cell_length_b   10.94159374
_cell_length_c   10.95890183
_cell_angle_alpha   109.62262878
_cell_angle_beta   109.35204811
_cell_angle_gamma   109.33630554
_symmetry_Int_Tables_number   1
_chemical_formula_structural   Cu4NiC15
_chemical_formula_sum   'Cu16 Ni4 C60'
_cell_volume   1009.75336515
_cell_formula_units_Z   4
loop_
 _symmetry_equiv_pos_site_id
 _symmetry_equiv_pos_as_xyz
  1  'x, y, z'
loop_
 _atom_site_type_symbol
 _atom_site_label
 _atom_site_symmetry_multiplicity
 _atom_site_fract_x
 _atom_site_fract_y
 _atom_site_fract_z
 _atom_site_occupancy
  C  C0  1  0.37523000  0.74872300  0.87576200  1
  C  C1  1  0.24760000  0.87152300  0.37406000  1
  C  C2  1  0.62824900  0.87710500  0.24739600  1
  C  C3  1  0.87745000  0.75179100  0.37264400  1
  C  C4  1  0.12255000  0.24820900  0.62735600  1
  C  C5  1  0.37175100  0.12289500  0.75260400  1
  C  C6  1  0.75240000  0.12847700  0.62594000  1
  C  C7  1  0.62477000  0.25127700  0.12423800  1
  Ni  Ni8  1  0.50000000  0.00000000  0.00000000  1
  Ni  Ni9  1  0.50000000  0.00000000  0.50000000  1
  Ni  Ni10  1  0.00000000  0.00000000  0.50000000  1
  Ni  Ni11  1  0.50000000  0.50000000  0.50000000  1
  Cu  Cu12  1  0.12703100  0.88044800  0.74780700  1
  Cu  Cu13  1  0.75096400  0.87829500  0.87195100  1
  Cu  Cu14  1  0.62384000  0.74917400  0.62499400  1
  Cu  Cu15  1  0.25198200  0.62813400  0.62304300  1
  Cu  Cu16  1  0.12522300  0.74834700  0.12861500  1
  Cu  Cu17  1  0.50000000  0.50000000  0.00000000  1
  Cu  Cu18  1  0.00000000  0.00000000  0.00000000  1
  Cu  Cu19  1  0.37844700  0.62855900  0.24919900  1
  Cu  Cu20  1  0.62155300  0.37144100  0.75080100  1
  Cu  Cu21  1  0.00000000  0.50000000  0.50000000  1
  Cu  Cu22  1  0.37616000  0.25082600  0.37500600  1
  Cu  Cu23  1  0.74801800  0.37186600  0.37695700  1
  Cu  Cu24  1  0.87477700  0.25165300  0.87138500  1
  Cu  Cu25  1  0.00000000  0.50000000  0.00000000  1
  Cu  Cu26  1  0.24903600  0.12170500  0.12804900  1
  Cu  Cu27  1  0.87296900  0.11955200  0.25219300  1
  C  C28  1  0.24060700  0.36912600  0.88183400  1
  C  C29  1  0.87493500  0.61283500  0.75246100  1
  C  C30  1  0.12506500  0.38716500  0.24753900  1
  C  C31  1  0.75939300  0.63087400  0.11816600  1
  C  C32  1  0.32912100  0.90491700  0.98412000  1
  C  C33  1  0.07861700  0.89057000  0.59352300  1
  C  C34  1  0.09544900  0.98221000  0.33017800  1
  C  C35  1  0.32910200  0.92292700  0.68913900  1
  C  C36  1  0.59494600  0.92411000  0.88561200  1
  C  C37  1  0.57782400  0.90586600  0.61019200  1
  C  C38  1  0.40634000  0.83000700  0.48054000  1
  C  C39  1  0.20044300  0.58045900  0.82104800  1
  C  C40  1  0.08134400  0.70388600  0.32350600  1
  C  C41  1  0.09640800  0.62356900  0.58284000  1
  C  C42  1  0.87498500  0.97191100  0.20514700  1
  C  C43  1  0.70214800  0.67920400  0.92031800  1
  C  C44  1  0.42599800  0.83021900  0.18937800  1
  C  C45  1  0.82735600  0.81157700  0.57644400  1
  C  C46  1  0.47762200  0.59970700  0.82096200  1
  C  C47  1  0.61071600  0.68630200  0.48527500  1
  C  C48  1  0.97628000  0.68136700  0.90542400  1
  C  C49  1  0.79680400  0.87940100  0.02276600  1
  C  C50  1  0.12317100  0.59280100  0.08466700  1
  C  C51  1  0.31153400  0.48466800  0.60917400  1
  C  C52  1  0.18082300  0.47774800  0.40139600  1
  C  C53  1  0.51954300  0.61511000  0.31076600  1
  C  C54  1  0.97343400  0.79341800  0.12066600  1
  C  C55  1  0.62256900  0.41949300  0.90072100  1
  C  C56  1  0.37743100  0.58050700  0.09927900  1
  C  C57  1  0.02656600  0.20658200  0.87933400  1
  C  C58  1  0.48045700  0.38489000  0.68923400  1
  C  C59  1  0.81917700  0.52225200  0.59860400  1
  C  C60  1  0.68846600  0.51533200  0.39082600  1
  C  C61  1  0.87682900  0.40719900  0.91533300  1
  C  C62  1  0.20319600  0.12059900  0.97723400  1
  C  C63  1  0.02372000  0.31863300  0.09457600  1
  C  C64  1  0.38928400  0.31369800  0.51472500  1
  C  C65  1  0.52237800  0.40029300  0.17903800  1
  C  C66  1  0.17264400  0.18842300  0.42355600  1
  C  C67  1  0.57400200  0.16978100  0.81062200  1
  C  C68  1  0.29785200  0.32079600  0.07968200  1
  C  C69  1  0.12501500  0.02808900  0.79485300  1
  C  C70  1  0.90359200  0.37643100  0.41716000  1
  C  C71  1  0.91865600  0.29611400  0.67649400  1
  C  C72  1  0.79955700  0.41954100  0.17895200  1
  C  C73  1  0.59366000  0.16999300  0.51946000  1
  C  C74  1  0.42217600  0.09413400  0.38980800  1
  C  C75  1  0.40505400  0.07589000  0.11438800  1
  C  C76  1  0.67089800  0.07707300  0.31086100  1
  C  C77  1  0.90455100  0.01779000  0.66982200  1
  C  C78  1  0.92138300  0.10943000  0.40647700  1
  C  C79  1  0.67087900  0.09508300  0.01588000  1
