# generated using pymatgen
data_Cu2NiC
_symmetry_space_group_name_H-M   'P 1'
_cell_length_a   9.51688131
_cell_length_b   9.51688131
_cell_length_c   9.51688131
_cell_angle_alpha   88.67892914
_cell_angle_beta   109.33095996
_cell_angle_gamma   133.79106917
_symmetry_Int_Tables_number   1
_chemical_formula_structural   Cu2NiC
_chemical_formula_sum   'Cu16 Ni8 C8'
_cell_volume   559.63819431
_cell_formula_units_Z   8
loop_
 _symmetry_equiv_pos_site_id
 _symmetry_equiv_pos_as_xyz
  1  'x, y, z'
loop_
 _atom_site_type_symbol
 _atom_site_label
 _atom_site_symmetry_multiplicity
 _atom_site_fract_x
 _atom_site_fract_y
 _atom_site_fract_z
 _atom_site_occupancy
  C  C0  1  0.85381800  0.79590300  0.26328300  1
  C  C1  1  0.53262000  0.09053500  0.23671700  1
  C  C2  1  0.96738000  0.70409700  0.05791500  1
  C  C3  1  0.64618200  0.40946500  0.44208500  1
  C  C4  1  0.14618200  0.20409700  0.73671700  1
  C  C5  1  0.46738000  0.90946500  0.76328300  1
  C  C6  1  0.03262000  0.29590300  0.94208500  1
  C  C7  1  0.35381800  0.59053500  0.55791500  1
  Ni  Ni8  1  0.30297800  0.04483300  0.55970700  1
  Ni  Ni9  1  0.48512500  0.24327100  0.94029300  1
  Ni  Ni10  1  0.01487500  0.45516700  0.25814600  1
  Ni  Ni11  1  0.19702200  0.25672900  0.24185400  1
  Ni  Ni12  1  0.69702200  0.95516700  0.44029300  1
  Ni  Ni13  1  0.51487500  0.75672900  0.05970700  1
  Ni  Ni14  1  0.98512500  0.54483300  0.74185400  1
  Ni  Ni15  1  0.80297800  0.74327100  0.75814600  1
  Cu  Cu16  1  0.50000000  0.00000000  0.50000000  1
  Cu  Cu17  1  0.50000000  0.50000000  0.00000000  1
  Cu  Cu18  1  0.00000000  0.50000000  0.50000000  1
  Cu  Cu19  1  0.00000000  0.00000000  0.00000000  1
  Cu  Cu20  1  0.15975600  0.90975600  0.75000000  1
  Cu  Cu21  1  0.34024400  0.59024400  0.25000000  1
  Cu  Cu22  1  0.84024400  0.09024400  0.25000000  1
  Cu  Cu23  1  0.65975600  0.40975600  0.75000000  1
  Cu  Cu24  1  0.09750500  0.75000000  0.34750500  1
  Cu  Cu25  1  0.40249500  0.25000000  0.15249500  1
  Cu  Cu26  1  0.90249500  0.25000000  0.65249500  1
  Cu  Cu27  1  0.59750500  0.75000000  0.84750500  1
  Cu  Cu28  1  0.25000000  0.25032700  0.50032700  1
  Cu  Cu29  1  0.75000000  0.24967300  0.99967300  1
  Cu  Cu30  1  0.75000000  0.74967300  0.49967300  1
  Cu  Cu31  1  0.25000000  0.75032700  0.00032700  1
