# generated using pymatgen
data_Cu11Ni3C2
_symmetry_space_group_name_H-M   'P 1'
_cell_length_a   8.07967743
_cell_length_b   8.07967743
_cell_length_c   10.23725666
_cell_angle_alpha   70.18623180
_cell_angle_beta   70.18623180
_cell_angle_gamma   64.85025434
_symmetry_Int_Tables_number   1
_chemical_formula_structural   Cu11Ni3C2
_chemical_formula_sum   'Cu22 Ni6 C4'
_cell_volume   554.02572308
_cell_formula_units_Z   2
loop_
 _symmetry_equiv_pos_site_id
 _symmetry_equiv_pos_as_xyz
  1  'x, y, z'
loop_
 _atom_site_type_symbol
 _atom_site_label
 _atom_site_symmetry_multiplicity
 _atom_site_fract_x
 _atom_site_fract_y
 _atom_site_fract_z
 _atom_site_occupancy
  C  C0  1  0.99738800  0.00261200  0.00000000  1
  C  C1  1  0.61207300  0.38792700  0.50000000  1
  C  C2  1  0.70681700  0.69506500  0.78031600  1
  C  C3  1  0.30493500  0.29318300  0.21968400  1
  Ni  Ni4  1  0.06937400  0.68635300  0.71851500  1
  Ni  Ni5  1  0.31364700  0.93062600  0.28148500  1
  Ni  Ni6  1  0.78859300  0.86341100  0.45728500  1
  Ni  Ni7  1  0.13658900  0.21140700  0.54271500  1
  Ni  Ni8  1  0.78427900  0.52256000  0.07716200  1
  Ni  Ni9  1  0.47744000  0.21572100  0.92283800  1
  Cu  Cu10  1  0.49638700  0.82862400  0.87015800  1
  Cu  Cu11  1  0.17137600  0.50361300  0.12984200  1
  Cu  Cu12  1  0.65655500  0.54552400  0.72698900  1
  Cu  Cu13  1  0.45447600  0.34344500  0.27301100  1
  Cu  Cu14  1  0.92653600  0.78918700  0.79891400  1
  Cu  Cu15  1  0.21081300  0.07346400  0.20108600  1
  Cu  Cu16  1  0.02813600  0.58185800  0.67268800  1
  Cu  Cu17  1  0.41814200  0.97186400  0.32731200  1
  Cu  Cu18  1  0.22709600  0.69120900  0.68988100  1
  Cu  Cu19  1  0.30879100  0.77290400  0.31011900  1
  Cu  Cu20  1  0.72625100  0.89744500  0.59332400  1
  Cu  Cu21  1  0.10255500  0.27374900  0.40667600  1
  Cu  Cu22  1  0.81276700  0.70919100  0.44417100  1
  Cu  Cu23  1  0.29080900  0.18723300  0.55582900  1
  Cu  Cu24  1  0.81229600  0.99848900  0.36153900  1
  Cu  Cu25  1  0.00151100  0.18770400  0.63846100  1
  Cu  Cu26  1  0.80204400  0.48458700  0.95034000  1
  Cu  Cu27  1  0.51541300  0.19795600  0.04966000  1
  Cu  Cu28  1  0.71944000  0.68725200  0.08602800  1
  Cu  Cu29  1  0.31274800  0.28056000  0.91397200  1
  Cu  Cu30  1  0.83631000  0.38186300  0.17031400  1
  Cu  Cu31  1  0.61813700  0.16369000  0.82968600  1
