# generated using pymatgen
data_Cu(NiC10)2
_symmetry_space_group_name_H-M   'P 1'
_cell_length_a   9.89667840
_cell_length_b   9.89667840
_cell_length_c   11.96038000
_cell_angle_alpha   90.00000000
_cell_angle_beta   90.00000000
_cell_angle_gamma   110.37753097
_symmetry_Int_Tables_number   1
_chemical_formula_structural   Cu(NiC10)2
_chemical_formula_sum   'Cu2 Ni4 C40'
_cell_volume   1098.13938144
_cell_formula_units_Z   2
loop_
 _symmetry_equiv_pos_site_id
 _symmetry_equiv_pos_as_xyz
  1  'x, y, z'
loop_
 _atom_site_type_symbol
 _atom_site_label
 _atom_site_symmetry_multiplicity
 _atom_site_fract_x
 _atom_site_fract_y
 _atom_site_fract_z
 _atom_site_occupancy
  C  C0  1  0.92982100  0.92982100  0.00000000  1
  C  C1  1  0.42982100  0.42982100  0.00000000  1
  C  C2  1  0.30834700  0.06014300  0.82277900  1
  C  C3  1  0.06014300  0.30834700  0.17722100  1
  C  C4  1  0.80834700  0.56014300  0.17722100  1
  C  C5  1  0.56014300  0.80834700  0.82277900  1
  C  C6  1  0.92361500  0.89651200  0.66356000  1
  C  C7  1  0.89651200  0.92361500  0.33644000  1
  C  C8  1  0.42361500  0.39651200  0.33644000  1
  C  C9  1  0.39651200  0.42361500  0.66356000  1
  C  C10  1  0.19380800  0.69380800  0.01632700  1
  C  C11  1  0.69380800  0.19380800  0.98367300  1
  C  C12  1  0.93168100  0.53955000  0.63803200  1
  C  C13  1  0.53955000  0.93168100  0.36196800  1
  C  C14  1  0.43168100  0.03955000  0.36196800  1
  C  C15  1  0.03955000  0.43168100  0.63803200  1
  C  C16  1  0.72484000  0.22484000  0.47507900  1
  C  C17  1  0.22484000  0.72484000  0.52492100  1
  C  C18  1  0.93399500  0.43399500  0.76076900  1
  C  C19  1  0.43399500  0.93399500  0.23923100  1
  C  C20  1  0.91905100  0.31107100  0.47170200  1
  C  C21  1  0.31107100  0.91905100  0.52829800  1
  C  C22  1  0.41905100  0.81107100  0.52829800  1
  C  C23  1  0.81107100  0.41905100  0.47170200  1
  Ni  Ni24  1  0.93409900  0.43409900  0.66927100  1
  Ni  Ni25  1  0.43409900  0.93409900  0.33072900  1
  Ni  Ni26  1  0.81587700  0.31587700  0.50636400  1
  Ni  Ni27  1  0.31587700  0.81587700  0.49363600  1
  C  C28  1  0.06384000  0.06384000  0.50000000  1
  C  C29  1  0.56384000  0.56384000  0.50000000  1
  C  C30  1  0.04549500  0.09443900  0.81706300  1
  C  C31  1  0.09443900  0.04549500  0.18293700  1
  C  C32  1  0.54549500  0.59443900  0.18293700  1
  C  C33  1  0.59443900  0.54549500  0.81706300  1
  C  C34  1  0.46005000  0.19332800  0.64382300  1
  C  C35  1  0.19332800  0.46005000  0.35617700  1
  C  C36  1  0.96005000  0.69332800  0.35617700  1
  C  C37  1  0.69332800  0.96005000  0.64382300  1
  C  C38  1  0.27366800  0.77366800  0.81096800  1
  C  C39  1  0.77366800  0.27366800  0.18903200  1
  C  C40  1  0.42340400  0.15530600  0.02896000  1
  C  C41  1  0.15530600  0.42340400  0.97104000  1
  C  C42  1  0.92340400  0.65530600  0.97104000  1
  C  C43  1  0.65530600  0.92340400  0.02896000  1
  Cu  Cu44  1  0.81756100  0.31756100  0.62451100  1
  Cu  Cu45  1  0.31756100  0.81756100  0.37548900  1
