# generated using pymatgen
data_CuNi3C2
_symmetry_space_group_name_H-M   'P 1'
_cell_length_a   3.49688950
_cell_length_b   3.49688950
_cell_length_c   39.61647900
_cell_angle_alpha   90.00000000
_cell_angle_beta   90.00000000
_cell_angle_gamma   119.99999059
_symmetry_Int_Tables_number   1
_chemical_formula_structural   CuNi3C2
_chemical_formula_sum   'Cu2 Ni6 C4'
_cell_volume   419.53709401
_cell_formula_units_Z   2
loop_
 _symmetry_equiv_pos_site_id
 _symmetry_equiv_pos_as_xyz
  1  'x, y, z'
loop_
 _atom_site_type_symbol
 _atom_site_label
 _atom_site_symmetry_multiplicity
 _atom_site_fract_x
 _atom_site_fract_y
 _atom_site_fract_z
 _atom_site_occupancy
  Ni  Ni0  1  0.00000000  0.00000000  0.32806000  1
  Ni  Ni1  1  0.00000000  0.00000000  0.70407400  1
  Ni  Ni2  1  0.33333300  0.66666700  0.04766400  1
  Ni  Ni3  1  0.33333300  0.66666700  0.14018800  1
  Ni  Ni4  1  0.00000000  0.00000000  0.23554000  1
  Ni  Ni5  1  0.00000000  0.00000000  0.61098300  1
  C  C6  1  0.00000000  0.00000000  0.09390300  1
  C  C7  1  0.33333300  0.66666700  0.28182300  1
  C  C8  1  0.00000000  0.00000000  0.46966200  1
  C  C9  1  0.33333300  0.66666700  0.65753300  1
  Cu  Cu10  1  0.33333300  0.66666700  0.42867800  1
  Cu  Cu11  1  0.33333300  0.66666700  0.51063900  1
