# generated using pymatgen
data_Cu(NiC6)2
_symmetry_space_group_name_H-M   'P 1'
_cell_length_a   5.40849500
_cell_length_b   9.19545800
_cell_length_c   9.81518400
_cell_angle_alpha   90.00000000
_cell_angle_beta   90.00000000
_cell_angle_gamma   90.00000000
_symmetry_Int_Tables_number   1
_chemical_formula_structural   Cu(NiC6)2
_chemical_formula_sum   'Cu2 Ni4 C24'
_cell_volume   488.14432324
_cell_formula_units_Z   2
loop_
 _symmetry_equiv_pos_site_id
 _symmetry_equiv_pos_as_xyz
  1  'x, y, z'
loop_
 _atom_site_type_symbol
 _atom_site_label
 _atom_site_symmetry_multiplicity
 _atom_site_fract_x
 _atom_site_fract_y
 _atom_site_fract_z
 _atom_site_occupancy
  Ni  Ni0  1  0.50000000  0.91885000  0.83282700  1
  Ni  Ni1  1  0.50000000  0.08115000  0.33282700  1
  Ni  Ni2  1  0.50000000  0.62155800  0.16009500  1
  Ni  Ni3  1  0.50000000  0.37844200  0.66009500  1
  Cu  Cu4  1  0.00000000  0.30006100  0.11662600  1
  Cu  Cu5  1  0.00000000  0.69993900  0.61662600  1
  C  C6  1  0.00000000  0.94787600  0.12782000  1
  C  C7  1  0.00000000  0.05212400  0.62782000  1
  C  C8  1  0.00000000  0.58727200  0.91512400  1
  C  C9  1  0.00000000  0.41272800  0.41512400  1
  C  C10  1  0.50000000  0.74850300  0.48314100  1
  C  C11  1  0.50000000  0.25149700  0.98314100  1
  C  C12  1  0.00000000  0.06059800  0.20473300  1
  C  C13  1  0.00000000  0.93940200  0.70473300  1
  C  C14  1  0.79643500  0.89352100  0.09107000  1
  C  C15  1  0.20356500  0.89352100  0.09107000  1
  C  C16  1  0.20356500  0.10647900  0.59107000  1
  C  C17  1  0.79643500  0.10647900  0.59107000  1
  C  C18  1  0.00000000  0.54272900  0.03802800  1
  C  C19  1  0.00000000  0.45727100  0.53802800  1
  C  C20  1  0.20290400  0.60978300  0.85419000  1
  C  C21  1  0.79709600  0.60978300  0.85419000  1
  C  C22  1  0.79709600  0.39021700  0.35419100  1
  C  C23  1  0.20290400  0.39021700  0.35419100  1
  C  C24  1  0.50000000  0.70170000  0.60532900  1
  C  C25  1  0.50000000  0.29830000  0.10532900  1
  C  C26  1  0.70376900  0.77170300  0.42296900  1
  C  C27  1  0.29623100  0.77170300  0.42296900  1
  C  C28  1  0.29623100  0.22829700  0.92296900  1
  C  C29  1  0.70376900  0.22829700  0.92296900  1
