# generated using pymatgen
data_Cu2Ni4C11
_symmetry_space_group_name_H-M   'P 1'
_cell_length_a   7.34845705
_cell_length_b   7.34845705
_cell_length_c   5.20012663
_cell_angle_alpha   69.43215335
_cell_angle_beta   69.43215335
_cell_angle_gamma   97.03260078
_symmetry_Int_Tables_number   1
_chemical_formula_structural   Cu2Ni4C11
_chemical_formula_sum   'Cu2 Ni4 C11'
_cell_volume   236.26796573
_cell_formula_units_Z   1
loop_
 _symmetry_equiv_pos_site_id
 _symmetry_equiv_pos_as_xyz
  1  'x, y, z'
loop_
 _atom_site_type_symbol
 _atom_site_label
 _atom_site_symmetry_multiplicity
 _atom_site_fract_x
 _atom_site_fract_y
 _atom_site_fract_z
 _atom_site_occupancy
  Ni  Ni0  1  0.36837100  0.05526200  0.78872600  1
  Ni  Ni1  1  0.63243100  0.95412900  0.20002500  1
  Ni  Ni2  1  0.95412900  0.63243100  0.20002500  1
  Ni  Ni3  1  0.05526200  0.36837100  0.78872600  1
  Cu  Cu4  1  0.14463200  0.85824000  0.50554700  1
  Cu  Cu5  1  0.85824000  0.14463200  0.50554700  1
  C  C6  1  0.43390700  0.43390700  0.59375200  1
  C  C7  1  0.67233100  0.67233100  0.58049300  1
  C  C8  1  0.16258400  0.84226400  0.19176700  1
  C  C9  1  0.84226400  0.16258400  0.19176700  1
  C  C10  1  0.36753800  0.95775700  0.47558700  1
  C  C11  1  0.63380500  0.03527000  0.79488000  1
  C  C12  1  0.03527000  0.63380500  0.79488000  1
  C  C13  1  0.95775700  0.36753800  0.47558700  1
  C  C14  1  0.31576000  0.31576000  0.73224100  1
  C  C15  1  0.68713600  0.68713600  0.37895000  1
  C  C16  1  0.99958300  0.99958300  0.59620200  1
