# generated using pymatgen
data_Cu4(Ni3C)3
_symmetry_space_group_name_H-M   'P 1'
_cell_length_a   8.45699208
_cell_length_b   8.45699208
_cell_length_c   8.54563400
_cell_angle_alpha   90.00000000
_cell_angle_beta   90.00000000
_cell_angle_gamma   120.00000060
_symmetry_Int_Tables_number   1
_chemical_formula_structural   Cu4(Ni3C)3
_chemical_formula_sum   'Cu8 Ni18 C6'
_cell_volume   529.30593661
_cell_formula_units_Z   2
loop_
 _symmetry_equiv_pos_site_id
 _symmetry_equiv_pos_as_xyz
  1  'x, y, z'
loop_
 _atom_site_type_symbol
 _atom_site_label
 _atom_site_symmetry_multiplicity
 _atom_site_fract_x
 _atom_site_fract_y
 _atom_site_fract_z
 _atom_site_occupancy
  Ni  Ni0  1  0.45233700  0.90467400  0.25000000  1
  Ni  Ni1  1  0.54766300  0.09532600  0.75000000  1
  Ni  Ni2  1  0.09532600  0.54766300  0.25000000  1
  Ni  Ni3  1  0.90467400  0.45233700  0.75000000  1
  Ni  Ni4  1  0.45233700  0.54766300  0.25000000  1
  Ni  Ni5  1  0.54766300  0.45233700  0.75000000  1
  Ni  Ni6  1  0.20171300  0.40342600  0.56258100  1
  Ni  Ni7  1  0.79828700  0.59657400  0.43741900  1
  Ni  Ni8  1  0.59657400  0.79828700  0.56258100  1
  Ni  Ni9  1  0.79828700  0.59657400  0.06258100  1
  Ni  Ni10  1  0.40342600  0.20171300  0.43741900  1
  Ni  Ni11  1  0.20171300  0.40342600  0.93741900  1
  Ni  Ni12  1  0.20171300  0.79828700  0.56258100  1
  Ni  Ni13  1  0.40342600  0.20171300  0.06258100  1
  Ni  Ni14  1  0.79828700  0.20171300  0.43741900  1
  Ni  Ni15  1  0.59657400  0.79828700  0.93741900  1
  Ni  Ni16  1  0.79828700  0.20171300  0.06258100  1
  Ni  Ni17  1  0.20171300  0.79828700  0.93741900  1
  Cu  Cu18  1  0.11018400  0.22036900  0.25000000  1
  Cu  Cu19  1  0.88981600  0.77963100  0.75000000  1
  Cu  Cu20  1  0.77963100  0.88981600  0.25000000  1
  Cu  Cu21  1  0.22036900  0.11018400  0.75000000  1
  Cu  Cu22  1  0.11018400  0.88981600  0.25000000  1
  Cu  Cu23  1  0.88981600  0.11018400  0.75000000  1
  Cu  Cu24  1  0.00000000  0.00000000  0.00000000  1
  Cu  Cu25  1  0.00000000  0.00000000  0.50000000  1
  C  C26  1  0.50000000  0.00000000  0.00000000  1
  C  C27  1  0.00000000  0.50000000  0.00000000  1
  C  C28  1  0.50000000  0.00000000  0.50000000  1
  C  C29  1  0.50000000  0.50000000  0.00000000  1
  C  C30  1  0.00000000  0.50000000  0.50000000  1
  C  C31  1  0.50000000  0.50000000  0.50000000  1
