# generated using pymatgen
data_Cu4Ni4C17
_symmetry_space_group_name_H-M   'P 1'
_cell_length_a   8.10044778
_cell_length_b   8.09462559
_cell_length_c   26.74887849
_cell_angle_alpha   87.68957926
_cell_angle_beta   83.86106431
_cell_angle_gamma   120.90210759
_symmetry_Int_Tables_number   1
_chemical_formula_structural   Cu4Ni4C17
_chemical_formula_sum   'Cu16 Ni16 C68'
_cell_volume   1486.96711606
_cell_formula_units_Z   4
loop_
 _symmetry_equiv_pos_site_id
 _symmetry_equiv_pos_as_xyz
  1  'x, y, z'
loop_
 _atom_site_type_symbol
 _atom_site_label
 _atom_site_symmetry_multiplicity
 _atom_site_fract_x
 _atom_site_fract_y
 _atom_site_fract_z
 _atom_site_occupancy
  C  C0  1  0.34629700  0.34553400  0.99969000  1
  C  C1  1  0.84588800  0.59543800  0.25047200  1
  C  C2  1  0.34560200  0.84566900  0.50008100  1
  C  C3  1  0.84599700  0.09594800  0.74940400  1
  C  C4  1  0.87020000  0.86984200  0.99980600  1
  C  C5  1  0.36930000  0.11960900  0.25042000  1
  C  C6  1  0.86961700  0.36961400  0.50008000  1
  C  C7  1  0.37037200  0.62013900  0.74961700  1
  C  C8  1  0.67107500  0.79599800  0.37518100  1
  C  C9  1  0.17057000  0.04700800  0.62474100  1
  C  C10  1  0.17101300  0.54124000  0.12553500  1
  C  C11  1  0.67306100  0.29365200  0.87462300  1
  Ni  Ni12  1  0.83068600  0.20253800  0.15695900  1
  Ni  Ni13  1  0.33940200  0.45923000  0.40688500  1
  Ni  Ni14  1  0.83912400  0.70959600  0.65600900  1
  Ni  Ni15  1  0.33094100  0.95280600  0.90619500  1
  Ni  Ni16  1  0.85933100  0.23742700  0.09390000  1
  Ni  Ni17  1  0.36658700  0.49506700  0.34388200  1
  Ni  Ni18  1  0.86586300  0.74548000  0.59306600  1
  Ni  Ni19  1  0.35727500  0.98875000  0.84334700  1
  Ni  Ni20  1  0.55899700  0.81723700  0.11689100  1
  Ni  Ni21  1  0.05243100  0.05808600  0.36672300  1
  Ni  Ni22  1  0.55302500  0.30895900  0.61659500  1
  Ni  Ni23  1  0.05993900  0.56726600  0.86689800  1
  Ni  Ni24  1  0.43167800  0.92523500  0.13379800  1
  Ni  Ni25  1  0.92514900  0.16919700  0.38327500  1
  Ni  Ni26  1  0.42637800  0.42050300  0.63303700  1
  Ni  Ni27  1  0.93182800  0.67567700  0.88285700  1
  Cu  Cu28  1  0.10728100  0.96210200  0.12752400  1
  Cu  Cu29  1  0.60868900  0.21485700  0.37772500  1
  Cu  Cu30  1  0.10968500  0.46574100  0.62737600  1
  Cu  Cu31  1  0.60718600  0.71171100  0.87734000  1
  Cu  Cu32  1  0.59026500  0.48605200  0.12241400  1
  Cu  Cu33  1  0.09228700  0.73602200  0.37273900  1
  Cu  Cu34  1  0.59253400  0.98627000  0.62242400  1
  Cu  Cu35  1  0.09101100  0.23605800  0.87234500  1
  Cu  Cu36  1  0.33460200  0.61100300  0.24097300  1
  Cu  Cu37  1  0.83527600  0.86214300  0.48936300  1
  Cu  Cu38  1  0.33448700  0.11183900  0.73910600  1
  Cu  Cu39  1  0.83375900  0.35972000  0.99068700  1
  Cu  Cu40  1  0.34976700  0.82232600  0.00957400  1
  Cu  Cu41  1  0.85066800  0.07401300  0.26092300  1
  Cu  Cu42  1  0.35151200  0.32448300  0.51064400  1
  Cu  Cu43  1  0.85197000  0.57515800  0.75907400  1
  C  C44  1  0.42926200  0.80418000  0.12576800  1
  C  C45  1  0.92304700  0.04817600  0.37470800  1
  C  C46  1  0.42375600  0.29909300  0.62462500  1
  C  C47  1  0.93012000  0.55491600  0.87473500  1
  C  C48  1  0.91322000  0.28953200  0.12552900  1
  C  C49  1  0.42128400  0.54636900  0.37546300  1
  C  C50  1  0.92189800  0.79602600  0.62445400  1
  C  C51  1  0.41120100  0.04162000  0.87476000  1
  C  C52  1  0.71339900  0.47196700  0.02423700  1
  C  C53  1  0.21384800  0.72330800  0.27422100  1
  C  C54  1  0.71287200  0.97233300  0.52292900  1
  C  C55  1  0.21242200  0.22184800  0.77299500  1
  C  C56  1  0.99444000  0.98573100  0.22705200  1
  C  C57  1  0.49519800  0.23555000  0.47711300  1
  C  C58  1  0.99750400  0.48760700  0.72580700  1
  C  C59  1  0.49696800  0.73747800  0.97583600  1
  C  C60  1  0.17352500  0.98862800  0.05860400  1
  C  C61  1  0.67337600  0.23761200  0.30870900  1
  C  C62  1  0.17408900  0.48702900  0.55840300  1
  C  C63  1  0.67367600  0.73740400  0.80839500  1
  C  C64  1  0.54574800  0.48245700  0.19132400  1
  C  C65  1  0.04563200  0.73203900  0.44172200  1
  C  C66  1  0.54622800  0.98217100  0.69142400  1
  C  C67  1  0.04715500  0.23246700  0.94125700  1
  C  C68  1  0.35194200  0.07395300  0.14641700  1
  C  C69  1  0.85301400  0.31951800  0.39656800  1
  C  C70  1  0.35409500  0.57119100  0.64623700  1
  C  C71  1  0.85176000  0.82244300  0.89625500  1
  C  C72  1  0.72041600  0.74949100  0.10353600  1
  C  C73  1  0.21578300  0.99933000  0.35376500  1
  C  C74  1  0.71699100  0.24979900  0.60367000  1
  C  C75  1  0.22055900  0.49954400  0.85349500  1
  C  C76  1  0.02585600  0.70647000  0.14511600  1
  C  C77  1  0.52058800  0.95801200  0.39572800  1
  C  C78  1  0.02236300  0.20929600  0.64586100  1
  C  C79  1  0.52364200  0.45575400  0.89554700  1
  C  C80  1  0.35315300  0.42324400  0.10386300  1
  C  C81  1  0.85395200  0.66596300  0.35449000  1
  C  C82  1  0.35429300  0.91698900  0.60435300  1
  C  C83  1  0.85258900  0.17185300  0.85465000  1
  C  C84  1  0.78754500  0.16753800  0.03855000  1
  C  C85  1  0.28897200  0.41990300  0.28911100  1
  C  C86  1  0.78560700  0.66914200  0.53740100  1
  C  C87  1  0.28467200  0.91782900  0.78680700  1
  C  C88  1  0.70509700  0.07240900  0.21306800  1
  C  C89  1  0.20716800  0.32348500  0.46253400  1
  C  C90  1  0.70871400  0.57680300  0.71094800  1
  C  C91  1  0.20625000  0.82470000  0.96163500  1
  C  C92  1  0.13799100  0.46137900  0.20376700  1
  C  C93  1  0.64106400  0.71451700  0.45093500  1
  C  C94  1  0.13979800  0.96496500  0.70070000  1
  C  C95  1  0.63693200  0.21128100  0.95339200  1
  C  C96  1  0.16318100  0.58813500  0.04655600  1
  C  C97  1  0.66482500  0.84061200  0.29919300  1
  C  C98  1  0.16516800  0.09139800  0.54893100  1
  C  C99  1  0.66483600  0.34255900  0.79665200  1
