# generated using pymatgen
data_Cu(Ni3C)2
_symmetry_space_group_name_H-M   'P 1'
_cell_length_a   3.47035300
_cell_length_b   8.92722700
_cell_length_c   11.21558200
_cell_angle_alpha   90.00000000
_cell_angle_beta   90.00000000
_cell_angle_gamma   90.00000000
_symmetry_Int_Tables_number   1
_chemical_formula_structural   Cu(Ni3C)2
_chemical_formula_sum   'Cu4 Ni24 C8'
_cell_volume   347.46578497
_cell_formula_units_Z   4
loop_
 _symmetry_equiv_pos_site_id
 _symmetry_equiv_pos_as_xyz
  1  'x, y, z'
loop_
 _atom_site_type_symbol
 _atom_site_label
 _atom_site_symmetry_multiplicity
 _atom_site_fract_x
 _atom_site_fract_y
 _atom_site_fract_z
 _atom_site_occupancy
  C  C0  1  0.50000000  0.31767300  0.41372300  1
  C  C1  1  0.50000000  0.68232700  0.58627700  1
  C  C2  1  0.50000000  0.18232700  0.91372300  1
  C  C3  1  0.50000000  0.81767300  0.08627700  1
  C  C4  1  0.50000000  0.44505900  0.12454600  1
  C  C5  1  0.50000000  0.55494100  0.87545400  1
  C  C6  1  0.50000000  0.05494100  0.62454600  1
  C  C7  1  0.50000000  0.94505900  0.37545400  1
  Ni  Ni8  1  0.00000000  0.10380800  0.47151500  1
  Ni  Ni9  1  0.00000000  0.89619200  0.52848500  1
  Ni  Ni10  1  0.00000000  0.39619200  0.97151500  1
  Ni  Ni11  1  0.00000000  0.60380800  0.02848500  1
  Ni  Ni12  1  0.00000000  0.13205600  0.31853700  1
  Ni  Ni13  1  0.00000000  0.86794400  0.68146300  1
  Ni  Ni14  1  0.00000000  0.36794400  0.81853700  1
  Ni  Ni15  1  0.00000000  0.63205600  0.18146300  1
  Ni  Ni16  1  0.00000000  0.05425600  0.06350000  1
  Ni  Ni17  1  0.00000000  0.94574400  0.93650000  1
  Ni  Ni18  1  0.00000000  0.44574400  0.56350000  1
  Ni  Ni19  1  0.00000000  0.55425600  0.43650000  1
  Ni  Ni20  1  0.00000000  0.48054500  0.28664700  1
  Ni  Ni21  1  0.00000000  0.51945500  0.71335300  1
  Ni  Ni22  1  0.00000000  0.01945500  0.78664700  1
  Ni  Ni23  1  0.00000000  0.98054500  0.21335300  1
  Ni  Ni24  1  0.00000000  0.25332200  0.07719200  1
  Ni  Ni25  1  0.00000000  0.74667800  0.92280800  1
  Ni  Ni26  1  0.00000000  0.24667800  0.57719200  1
  Ni  Ni27  1  0.00000000  0.75332200  0.42280800  1
  Ni  Ni28  1  0.00000000  0.29680100  0.23619900  1
  Ni  Ni29  1  0.00000000  0.70319900  0.76380100  1
  Ni  Ni30  1  0.00000000  0.20319900  0.73619900  1
  Ni  Ni31  1  0.00000000  0.79680100  0.26380100  1
  Cu  Cu32  1  0.50000000  0.14072200  0.17949500  1
  Cu  Cu33  1  0.50000000  0.85927800  0.82050500  1
  Cu  Cu34  1  0.50000000  0.35927800  0.67949500  1
  Cu  Cu35  1  0.50000000  0.64072200  0.32050500  1
