# generated using pymatgen
data_CuNiC8
_symmetry_space_group_name_H-M   'P 1'
_cell_length_a   7.76811900
_cell_length_b   7.79372560
_cell_length_c   8.61684427
_cell_angle_alpha   92.76872075
_cell_angle_beta   90.00000000
_cell_angle_gamma   90.00000000
_symmetry_Int_Tables_number   1
_chemical_formula_structural   CuNiC8
_chemical_formula_sum   'Cu4 Ni4 C32'
_cell_volume   521.07706484
_cell_formula_units_Z   4
loop_
 _symmetry_equiv_pos_site_id
 _symmetry_equiv_pos_as_xyz
  1  'x, y, z'
loop_
 _atom_site_type_symbol
 _atom_site_label
 _atom_site_symmetry_multiplicity
 _atom_site_fract_x
 _atom_site_fract_y
 _atom_site_fract_z
 _atom_site_occupancy
  C  C0  1  0.75000000  0.77277300  0.68916000  1
  C  C1  1  0.25000000  0.22722700  0.31084000  1
  C  C2  1  0.75000000  0.29150700  0.27144100  1
  C  C3  1  0.25000000  0.70849300  0.72855900  1
  C  C4  1  0.75000000  0.80510200  0.25152900  1
  C  C5  1  0.25000000  0.19489800  0.74847100  1
  C  C6  1  0.75000000  0.29095400  0.70868900  1
  C  C7  1  0.25000000  0.70904600  0.29131100  1
  Ni  Ni8  1  0.00000000  0.50000000  0.50000000  1
  Ni  Ni9  1  0.50000000  0.50000000  0.50000000  1
  Ni  Ni10  1  0.00000000  0.00000000  0.50000000  1
  Ni  Ni11  1  0.50000000  0.00000000  0.50000000  1
  Cu  Cu12  1  0.00000000  0.00000000  0.00000000  1
  Cu  Cu13  1  0.50000000  0.00000000  0.00000000  1
  Cu  Cu14  1  0.00000000  0.50000000  0.00000000  1
  Cu  Cu15  1  0.50000000  0.50000000  0.00000000  1
  C  C16  1  0.75000000  0.46626300  0.49393500  1
  C  C17  1  0.25000000  0.53373700  0.50606500  1
  C  C18  1  0.75000000  0.91263200  0.95502800  1
  C  C19  1  0.25000000  0.08736800  0.04497200  1
  C  C20  1  0.75000000  0.52453900  0.09502200  1
  C  C21  1  0.25000000  0.47546100  0.90497800  1
  C  C22  1  0.44096800  0.93877000  0.77144900  1
  C  C23  1  0.55903200  0.06123000  0.22855100  1
  C  C24  1  0.94096800  0.06123000  0.22855100  1
  C  C25  1  0.05903200  0.93877000  0.77144900  1
  C  C26  1  0.75000000  0.03839600  0.53730500  1
  C  C27  1  0.25000000  0.96160400  0.46269500  1
  C  C28  1  0.95615600  0.24638900  0.91299300  1
  C  C29  1  0.04384400  0.75361100  0.08700700  1
  C  C30  1  0.45615600  0.75361100  0.08700700  1
  C  C31  1  0.54384400  0.24638900  0.91299300  1
  C  C32  1  0.94351800  0.56458800  0.77617200  1
  C  C33  1  0.05648200  0.43541200  0.22382800  1
  C  C34  1  0.44351800  0.43541200  0.22382800  1
  C  C35  1  0.55648200  0.56458800  0.77617200  1
  C  C36  1  0.95797100  0.75044100  0.45702900  1
  C  C37  1  0.04202900  0.24955900  0.54297100  1
  C  C38  1  0.45797100  0.24955900  0.54297100  1
  C  C39  1  0.54202900  0.75044100  0.45702900  1
