# generated using pymatgen
data_Cu3(NiC6)2
_symmetry_space_group_name_H-M   'P 1'
_cell_length_a   8.80026587
_cell_length_b   8.80026587
_cell_length_c   11.72473151
_cell_angle_alpha   50.27070754
_cell_angle_beta   50.27070754
_cell_angle_gamma   43.33027530
_symmetry_Int_Tables_number   1
_chemical_formula_structural   Cu3(NiC6)2
_chemical_formula_sum   'Cu6 Ni4 C24'
_cell_volume   452.32957124
_cell_formula_units_Z   2
loop_
 _symmetry_equiv_pos_site_id
 _symmetry_equiv_pos_as_xyz
  1  'x, y, z'
loop_
 _atom_site_type_symbol
 _atom_site_label
 _atom_site_symmetry_multiplicity
 _atom_site_fract_x
 _atom_site_fract_y
 _atom_site_fract_z
 _atom_site_occupancy
  C  C0  1  0.38937100  0.09852900  0.63723400  1
  C  C1  1  0.90147100  0.61062900  0.36276600  1
  C  C2  1  0.76316000  0.96740500  0.85521500  1
  C  C3  1  0.03259500  0.23684000  0.14478500  1
  Ni  Ni4  1  0.74636800  0.51602500  0.78681500  1
  Ni  Ni5  1  0.48397500  0.25363200  0.21318500  1
  Ni  Ni6  1  0.28084300  0.53643300  0.71683300  1
  Ni  Ni7  1  0.46356700  0.71915700  0.28316700  1
  Cu  Cu8  1  0.99575900  0.00424100  0.00000000  1
  Cu  Cu9  1  0.75360300  0.24639700  0.50000000  1
  Cu  Cu10  1  0.99835000  0.74557800  0.53007100  1
  Cu  Cu11  1  0.25442200  0.00165000  0.46992900  1
  Cu  Cu12  1  0.46020700  0.71997000  0.04003600  1
  Cu  Cu13  1  0.28003000  0.53979300  0.95996400  1
  C  C14  1  0.98150000  0.24390600  0.85555900  1
  C  C15  1  0.75609400  0.01850000  0.14444100  1
  C  C16  1  0.52578300  0.28339500  0.65948800  1
  C  C17  1  0.71660500  0.47421700  0.34051200  1
  C  C18  1  0.85752800  0.64380800  0.57956000  1
  C  C19  1  0.35619200  0.14247200  0.42044000  1
  C  C20  1  0.52685100  0.81228000  0.07868500  1
  C  C21  1  0.18772000  0.47314900  0.92131500  1
  C  C22  1  0.57122800  0.74995900  0.85537400  1
  C  C23  1  0.25004100  0.42877200  0.14462600  1
  C  C24  1  0.24730100  0.65474600  0.39321500  1
  C  C25  1  0.34525400  0.75269900  0.60678500  1
  C  C26  1  0.55350700  0.44560000  0.14961000  1
  C  C27  1  0.55440000  0.44649300  0.85039000  1
  C  C28  1  0.03332300  0.66732500  0.68449200  1
  C  C29  1  0.33267500  0.96667700  0.31550800  1
  C  C30  1  0.16967400  0.89466600  0.08212700  1
  C  C31  1  0.10533400  0.83032600  0.91787300  1
  C  C32  1  0.82921000  0.03994300  0.46556900  1
  C  C33  1  0.96005700  0.17079000  0.53443100  1
