# generated using pymatgen
data_CuNiC4
_symmetry_space_group_name_H-M   'P 1'
_cell_length_a   4.94716300
_cell_length_b   8.88913100
_cell_length_c   11.02123897
_cell_angle_alpha   89.83272737
_cell_angle_beta   90.00000000
_cell_angle_gamma   90.00000000
_symmetry_Int_Tables_number   1
_chemical_formula_structural   CuNiC4
_chemical_formula_sum   'Cu6 Ni6 C24'
_cell_volume   484.66771881
_cell_formula_units_Z   6
loop_
 _symmetry_equiv_pos_site_id
 _symmetry_equiv_pos_as_xyz
  1  'x, y, z'
loop_
 _atom_site_type_symbol
 _atom_site_label
 _atom_site_symmetry_multiplicity
 _atom_site_fract_x
 _atom_site_fract_y
 _atom_site_fract_z
 _atom_site_occupancy
  Ni  Ni0  1  0.46510400  0.75000000  0.50000000  1
  Ni  Ni1  1  0.53489600  0.25000000  0.50000000  1
  Ni  Ni2  1  0.75013600  0.51311600  0.83404700  1
  Ni  Ni3  1  0.75013600  0.98688400  0.16595300  1
  Ni  Ni4  1  0.24986400  0.48688400  0.16595300  1
  Ni  Ni5  1  0.24986400  0.01311600  0.83404700  1
  Cu  Cu6  1  0.03282200  0.75000000  0.00000000  1
  Cu  Cu7  1  0.96717800  0.25000000  0.00000000  1
  Cu  Cu8  1  0.75500000  0.51316600  0.33319900  1
  Cu  Cu9  1  0.75500000  0.98683400  0.66680100  1
  Cu  Cu10  1  0.24500000  0.48683400  0.66680100  1
  Cu  Cu11  1  0.24500000  0.01316600  0.33319900  1
  C  C12  1  0.05208800  0.52783100  0.29418800  1
  C  C13  1  0.05208800  0.97216900  0.70581200  1
  C  C14  1  0.94791200  0.47216900  0.70581200  1
  C  C15  1  0.94791200  0.02783100  0.29418800  1
  C  C16  1  0.58337300  0.47624900  0.21973900  1
  C  C17  1  0.58337300  0.02375100  0.78026100  1
  C  C18  1  0.41662700  0.52375100  0.78026100  1
  C  C19  1  0.41662700  0.97624900  0.21973900  1
  C  C20  1  0.85071500  0.68309300  0.90030300  1
  C  C21  1  0.85071500  0.81690700  0.09969700  1
  C  C22  1  0.14928500  0.31690700  0.09969700  1
  C  C23  1  0.14928500  0.18309300  0.90030300  1
  C  C24  1  0.66573800  0.66364300  0.38884200  1
  C  C25  1  0.66573800  0.83635700  0.61115800  1
  C  C26  1  0.33426200  0.33635700  0.61115800  1
  C  C27  1  0.33426200  0.16364300  0.38884200  1
  C  C28  1  0.78364900  0.37159200  0.94420400  1
  C  C29  1  0.78364900  0.12840800  0.05579600  1
  C  C30  1  0.21635100  0.62840800  0.05579600  1
  C  C31  1  0.21635100  0.87159200  0.94420400  1
  C  C32  1  0.73343300  0.38617700  0.42770000  1
  C  C33  1  0.73343300  0.11382300  0.57230000  1
  C  C34  1  0.26656700  0.61382300  0.57230000  1
  C  C35  1  0.26656700  0.88617700  0.42770000  1
