# generated using pymatgen
data_CuNi2C
_symmetry_space_group_name_H-M   'P 1'
_cell_length_a   4.12743000
_cell_length_b   9.23635000
_cell_length_c   10.72988900
_cell_angle_alpha   90.00000000
_cell_angle_beta   90.00000000
_cell_angle_gamma   90.00000000
_symmetry_Int_Tables_number   1
_chemical_formula_structural   CuNi2C
_chemical_formula_sum   'Cu4 Ni8 C4'
_cell_volume   409.04899252
_cell_formula_units_Z   4
loop_
 _symmetry_equiv_pos_site_id
 _symmetry_equiv_pos_as_xyz
  1  'x, y, z'
loop_
 _atom_site_type_symbol
 _atom_site_label
 _atom_site_symmetry_multiplicity
 _atom_site_fract_x
 _atom_site_fract_y
 _atom_site_fract_z
 _atom_site_occupancy
  C  C0  1  0.25000000  0.60691400  0.27930800  1
  C  C1  1  0.75000000  0.39308600  0.72069200  1
  C  C2  1  0.75000000  0.10691400  0.22069200  1
  C  C3  1  0.25000000  0.89308600  0.77930800  1
  Ni  Ni4  1  0.25000000  0.33193900  0.11555400  1
  Ni  Ni5  1  0.75000000  0.66806100  0.88444600  1
  Ni  Ni6  1  0.75000000  0.83193900  0.38444600  1
  Ni  Ni7  1  0.25000000  0.16806100  0.61555400  1
  Ni  Ni8  1  0.25000000  0.61511200  0.59651200  1
  Ni  Ni9  1  0.75000000  0.38488800  0.40348800  1
  Ni  Ni10  1  0.75000000  0.11511200  0.90348800  1
  Ni  Ni11  1  0.25000000  0.88488800  0.09651200  1
  Cu  Cu12  1  0.25000000  0.10805600  0.30342300  1
  Cu  Cu13  1  0.75000000  0.89194400  0.69657700  1
  Cu  Cu14  1  0.75000000  0.60805600  0.19657700  1
  Cu  Cu15  1  0.25000000  0.39194400  0.80342300  1
