# generated using pymatgen
data_Cu8NiC3
_symmetry_space_group_name_H-M   'P 1'
_cell_length_a   7.42185737
_cell_length_b   15.40343178
_cell_length_c   38.99210140
_cell_angle_alpha   90.00000000
_cell_angle_beta   90.00000000
_cell_angle_gamma   90.00000000
_symmetry_Int_Tables_number   1
_chemical_formula_structural   Cu8NiC3
_chemical_formula_sum   'Cu96 Ni12 C36'
_cell_volume   4457.65788918
_cell_formula_units_Z   12
loop_
 _symmetry_equiv_pos_site_id
 _symmetry_equiv_pos_as_xyz
  1  'x, y, z'
loop_
 _atom_site_type_symbol
 _atom_site_label
 _atom_site_symmetry_multiplicity
 _atom_site_fract_x
 _atom_site_fract_y
 _atom_site_fract_z
 _atom_site_occupancy
  C  C0  1  0.84438058  0.44224034  0.73813309  1
  C  C1  1  0.34438058  0.55775966  0.26186691  1
  C  C2  1  0.34438058  0.05775966  0.23813309  1
  C  C3  1  0.84438058  0.94224034  0.76186691  1
  C  C4  1  0.22299140  0.98293887  0.58986097  1
  C  C5  1  0.72299140  0.01706113  0.41013903  1
  C  C6  1  0.72299140  0.51706113  0.08986097  1
  C  C7  1  0.22299140  0.48293887  0.91013903  1
  C  C8  1  0.34634881  0.49247897  0.58050268  1
  C  C9  1  0.84634881  0.50752103  0.41949732  1
  C  C10  1  0.84634881  0.00752103  0.08050268  1
  C  C11  1  0.34634881  0.99247897  0.91949732  1
  C  C12  1  0.38623022  0.63465939  0.69586366  1
  C  C13  1  0.88623022  0.36534061  0.30413634  1
  C  C14  1  0.88623022  0.86534061  0.19586366  1
  C  C15  1  0.38623022  0.13465939  0.80413634  1
  C  C16  1  0.26412185  0.72391742  0.76343236  1
  C  C17  1  0.76412185  0.27608258  0.23656764  1
  C  C18  1  0.76412185  0.77608258  0.26343236  1
  C  C19  1  0.26412185  0.22391742  0.73656764  1
  C  C20  1  0.84673971  0.67479257  0.53245957  1
  C  C21  1  0.34673971  0.32520743  0.46754043  1
  C  C22  1  0.34673971  0.82520743  0.03245957  1
  C  C23  1  0.84673971  0.17479257  0.96754043  1
  C  C24  1  0.71615020  0.79555240  0.59362519  1
  C  C25  1  0.21615020  0.20444760  0.40637481  1
  C  C26  1  0.21615020  0.70444760  0.09362519  1
  C  C27  1  0.71615020  0.29555240  0.90637481  1
  C  C28  1  0.69461429  0.17195603  0.56668237  1
  C  C29  1  0.19461429  0.82804397  0.43331763  1
  C  C30  1  0.19461429  0.32804397  0.06668237  1
  C  C31  1  0.69461429  0.67195603  0.93331763  1
  C  C32  1  0.84554154  0.30723507  0.61880274  1
  C  C33  1  0.34554154  0.69276493  0.38119726  1
  C  C34  1  0.34554154  0.19276493  0.11880274  1
  C  C35  1  0.84554154  0.80723507  0.88119726  1
  Ni  Ni36  1  0.36379679  0.63947834  0.73978215  1
  Ni  Ni37  1  0.86379679  0.36052166  0.26021785  1
  Ni  Ni38  1  0.86379679  0.86052166  0.23978215  1
  Ni  Ni39  1  0.36379679  0.13947834  0.76021785  1
  Ni  Ni40  1  0.82421179  0.70779504  0.57439515  1
  Ni  Ni41  1  0.32421179  0.29220496  0.42560485  1
  Ni  Ni42  1  0.32421179  0.79220496  0.07439515  1
  Ni  Ni43  1  0.82421179  0.20779504  0.92560485  1
  Ni  Ni44  1  0.80206060  0.26926098  0.57804193  1
  Ni  Ni45  1  0.30206060  0.73073902  0.42195807  1
  Ni  Ni46  1  0.30206060  0.23073902  0.07804193  1
  Ni  Ni47  1  0.80206060  0.76926098  0.92195807  1
  Cu  Cu48  1  0.27580548  0.75827104  0.67798457  1
  Cu  Cu49  1  0.77580548  0.24172896  0.32201543  1
  Cu  Cu50  1  0.77580548  0.74172896  0.17798457  1
  Cu  Cu51  1  0.27580548  0.25827104  0.82201543  1
  Cu  Cu52  1  0.28120502  0.66925435  0.81404975  1
  Cu  Cu53  1  0.78120502  0.33074565  0.18595025  1
  Cu  Cu54  1  0.78120502  0.83074565  0.31404975  1
  Cu  Cu55  1  0.28120502  0.16925435  0.68595025  1
  Cu  Cu56  1  0.71455090  0.77206582  0.50074653  1
  Cu  Cu57  1  0.21455090  0.22793418  0.49925347  1
  Cu  Cu58  1  0.21455090  0.72793418  0.00074653  1
  Cu  Cu59  1  0.71455090  0.27206582  0.99925347  1
  Cu  Cu60  1  0.76966121  0.76701992  0.64665257  1
  Cu  Cu61  1  0.26966121  0.23298008  0.35334743  1
  Cu  Cu62  1  0.26966121  0.73298008  0.14665257  1
  Cu  Cu63  1  0.76966121  0.26701992  0.85334743  1
  Cu  Cu64  1  0.71870595  0.18081200  0.51181602  1
  Cu  Cu65  1  0.21870595  0.81918800  0.48818398  1
  Cu  Cu66  1  0.21870595  0.31918800  0.01181602  1
  Cu  Cu67  1  0.71870595  0.68081200  0.98818398  1
  Cu  Cu68  1  0.74367902  0.20624514  0.65266118  1
  Cu  Cu69  1  0.24367902  0.79375486  0.34733882  1
  Cu  Cu70  1  0.24367902  0.29375486  0.15266118  1
  Cu  Cu71  1  0.74367902  0.70624514  0.84733882  1
  Cu  Cu72  1  0.89243319  0.58404899  0.71314057  1
  Cu  Cu73  1  0.39243319  0.41595101  0.28685943  1
  Cu  Cu74  1  0.39243319  0.91595101  0.21314057  1
  Cu  Cu75  1  0.89243319  0.08404899  0.78685943  1
  Cu  Cu76  1  0.02432910  0.38064892  0.69110340  1
  Cu  Cu77  1  0.52432910  0.61935108  0.30889660  1
  Cu  Cu78  1  0.52432910  0.11935108  0.19110340  1
  Cu  Cu79  1  0.02432910  0.88064892  0.80889660  1
  Cu  Cu80  1  0.79131744  0.29680545  0.75916148  1
  Cu  Cu81  1  0.29131744  0.70319455  0.24083852  1
  Cu  Cu82  1  0.29131744  0.20319455  0.25916148  1
  Cu  Cu83  1  0.79131744  0.79680545  0.74083852  1
  Cu  Cu84  1  0.67789615  0.50306141  0.78462388  1
  Cu  Cu85  1  0.17789615  0.49693859  0.21537612  1
  Cu  Cu86  1  0.17789615  0.99693859  0.28462388  1
  Cu  Cu87  1  0.67789615  0.00306141  0.71537612  1
  Cu  Cu88  1  0.12154798  0.45156999  0.76942698  1
  Cu  Cu89  1  0.62154798  0.54843001  0.23057302  1
  Cu  Cu90  1  0.62154798  0.04843001  0.26942698  1
  Cu  Cu91  1  0.12154798  0.95156999  0.73057302  1
  Cu  Cu92  1  0.57292068  0.42958666  0.70377040  1
  Cu  Cu93  1  0.07292068  0.57041334  0.29622960  1
  Cu  Cu94  1  0.07292068  0.07041334  0.20377040  1
  Cu  Cu95  1  0.57292068  0.92958666  0.79622960  1
  Cu  Cu96  1  0.21523267  0.14008257  0.59214599  1
  Cu  Cu97  1  0.71523267  0.85991743  0.40785401  1
  Cu  Cu98  1  0.71523267  0.35991743  0.09214599  1
  Cu  Cu99  1  0.21523267  0.64008257  0.90785401  1
  Cu  Cu100  1  0.43966022  0.99245277  0.54352871  1
  Cu  Cu101  1  0.93966022  0.00754723  0.45647129  1
  Cu  Cu102  1  0.93966022  0.50754723  0.04352871  1
  Cu  Cu103  1  0.43966022  0.49245277  0.95647129  1
  Cu  Cu104  1  0.23646692  0.82626081  0.58582325  1
  Cu  Cu105  1  0.73646692  0.17373919  0.41417675  1
  Cu  Cu106  1  0.73646692  0.67373919  0.08582325  1
  Cu  Cu107  1  0.23646692  0.32626081  0.91417675  1
  Cu  Cu108  1  0.01182531  0.97643006  0.63593306  1
  Cu  Cu109  1  0.51182531  0.02356994  0.36406694  1
  Cu  Cu110  1  0.51182531  0.52356994  0.13593306  1
  Cu  Cu111  1  0.01182531  0.47643006  0.86406694  1
  Cu  Cu112  1  0.47371455  0.98032315  0.62938743  1
  Cu  Cu113  1  0.97371455  0.01967685  0.37061257  1
  Cu  Cu114  1  0.97371455  0.51967685  0.12938743  1
  Cu  Cu115  1  0.47371455  0.48032315  0.87061257  1
  Cu  Cu116  1  0.97860542  0.98253899  0.54885894  1
  Cu  Cu117  1  0.47860542  0.01746101  0.45114106  1
  Cu  Cu118  1  0.47860542  0.51746101  0.04885894  1
  Cu  Cu119  1  0.97860542  0.48253899  0.95114106  1
  Cu  Cu120  1  0.34250222  0.35961203  0.61343682  1
  Cu  Cu121  1  0.84250222  0.64038797  0.38656318  1
  Cu  Cu122  1  0.84250222  0.14038797  0.11343682  1
  Cu  Cu123  1  0.34250222  0.85961203  0.88656318  1
  Cu  Cu124  1  0.15345038  0.56192101  0.62187841  1
  Cu  Cu125  1  0.65345038  0.43807899  0.37812159  1
  Cu  Cu126  1  0.65345038  0.93807899  0.12187841  1
  Cu  Cu127  1  0.15345038  0.06192101  0.87812159  1
  Cu  Cu128  1  0.35600980  0.62347187  0.54633735  1
  Cu  Cu129  1  0.85600980  0.37652813  0.45366265  1
  Cu  Cu130  1  0.85600980  0.87652813  0.04633735  1
  Cu  Cu131  1  0.35600980  0.12347187  0.95366265  1
  Cu  Cu132  1  0.54048494  0.42297313  0.53874893  1
  Cu  Cu133  1  0.04048494  0.57702687  0.46125107  1
  Cu  Cu134  1  0.04048494  0.07702687  0.03874893  1
  Cu  Cu135  1  0.54048494  0.92297313  0.96125107  1
  Cu  Cu136  1  0.60795321  0.53934885  0.61209180  1
  Cu  Cu137  1  0.10795321  0.46065115  0.38790820  1
  Cu  Cu138  1  0.10795321  0.96065115  0.11209180  1
  Cu  Cu139  1  0.60795321  0.03934885  0.88790820  1
  Cu  Cu140  1  0.08204445  0.44662795  0.54961098  1
  Cu  Cu141  1  0.58204445  0.55337205  0.45038902  1
  Cu  Cu142  1  0.58204445  0.05337205  0.04961098  1
  Cu  Cu143  1  0.08204445  0.94662795  0.95038902  1
