# generated using pymatgen
data_Cu2Ni5C6
_symmetry_space_group_name_H-M   'P 1'
_cell_length_a   5.93513581
_cell_length_b   7.34594092
_cell_length_c   11.82739912
_cell_angle_alpha   90.00000026
_cell_angle_beta   95.82295328
_cell_angle_gamma   128.23234237
_symmetry_Int_Tables_number   1
_chemical_formula_structural   Cu2Ni5C6
_chemical_formula_sum   'Cu4 Ni10 C12'
_cell_volume   401.66575587
_cell_formula_units_Z   2
loop_
 _symmetry_equiv_pos_site_id
 _symmetry_equiv_pos_as_xyz
  1  'x, y, z'
loop_
 _atom_site_type_symbol
 _atom_site_label
 _atom_site_symmetry_multiplicity
 _atom_site_fract_x
 _atom_site_fract_y
 _atom_site_fract_z
 _atom_site_occupancy
  Ni  Ni0  1  -0.00000000  0.45619070  0.75000000  1
  Ni  Ni1  1  0.00000000  0.54380930  0.25000000  1
  Ni  Ni2  1  0.16892640  0.83281353  0.00643024  1
  Ni  Ni3  1  0.83107360  0.66388713  0.49356976  1
  Ni  Ni4  1  0.83107360  0.16718647  0.99356976  1
  Ni  Ni5  1  0.16892640  0.33611287  0.50643024  1
  Ni  Ni6  1  0.30620055  0.09727703  0.70504605  1
  Ni  Ni7  1  0.69379945  0.79107548  0.79495395  1
  Ni  Ni8  1  0.69379945  0.90272297  0.29495395  1
  Ni  Ni9  1  0.30620055  0.20892452  0.20504605  1
  Cu  Cu10  1  0.55447406  0.91661716  0.58264326  1
  Cu  Cu11  1  0.44552594  0.36214309  0.91735674  1
  Cu  Cu12  1  0.44552594  0.08338284  0.41735674  1
  Cu  Cu13  1  0.55447406  0.63785691  0.08264326  1
  C  C14  1  0.34027683  0.80590449  0.69560654  1
  C  C15  1  0.65972317  0.46562766  0.80439346  1
  C  C16  1  0.65972317  0.19409551  0.30439346  1
  C  C17  1  0.34027683  0.53437234  0.19560654  1
  C  C18  1  0.59259599  0.17866374  0.56476079  1
  C  C19  1  0.40740401  0.58606875  0.93523921  1
  C  C20  1  0.40740401  0.82133626  0.43523921  1
  C  C21  1  0.59259599  0.41393125  0.06476079  1
  C  C22  1  0.84803816  0.91788316  0.62340096  1
  C  C23  1  0.15196184  0.06984500  0.87659904  1
  C  C24  1  0.15196184  0.08211684  0.37659904  1
  C  C25  1  0.84803816  0.93015500  0.12340096  1
