# generated using pymatgen
data_Cu6Ni7C27
_symmetry_space_group_name_H-M   'P 1'
_cell_length_a   10.42419710
_cell_length_b   10.42419710
_cell_length_c   10.42419710
_cell_angle_alpha   109.47122063
_cell_angle_beta   109.47122063
_cell_angle_gamma   109.47122063
_symmetry_Int_Tables_number   1
_chemical_formula_structural   Cu6Ni7C27
_chemical_formula_sum   'Cu12 Ni14 C54'
_cell_volume   871.97885175
_cell_formula_units_Z   2
loop_
 _symmetry_equiv_pos_site_id
 _symmetry_equiv_pos_as_xyz
  1  'x, y, z'
loop_
 _atom_site_type_symbol
 _atom_site_label
 _atom_site_symmetry_multiplicity
 _atom_site_fract_x
 _atom_site_fract_y
 _atom_site_fract_z
 _atom_site_occupancy
  C  C0  1  0.12500000  0.37500000  0.75000000  1
  C  C1  1  0.37500000  0.12500000  0.25000000  1
  C  C2  1  0.37500000  0.75000000  0.12500000  1
  C  C3  1  0.12500000  0.25000000  0.37500000  1
  C  C4  1  0.75000000  0.12500000  0.37500000  1
  C  C5  1  0.25000000  0.37500000  0.12500000  1
  Ni  Ni6  1  0.99486500  0.50000000  0.00000000  1
  Ni  Ni7  1  0.00000000  0.99486500  0.50000000  1
  Ni  Ni8  1  0.50000000  0.00000000  0.99486500  1
  Ni  Ni9  1  0.50513500  0.50513500  0.50513500  1
  Ni  Ni10  1  0.50513500  0.50000000  0.00000000  1
  Ni  Ni11  1  0.50000000  0.00000000  0.50513500  1
  Ni  Ni12  1  0.00000000  0.50513500  0.50000000  1
  Ni  Ni13  1  0.99486500  0.99486500  0.99486500  1
  Ni  Ni14  1  0.87500000  0.62500000  0.25000000  1
  Ni  Ni15  1  0.62500000  0.87500000  0.75000000  1
  Ni  Ni16  1  0.62500000  0.25000000  0.87500000  1
  Ni  Ni17  1  0.87500000  0.75000000  0.62500000  1
  Ni  Ni18  1  0.25000000  0.87500000  0.62500000  1
  Ni  Ni19  1  0.75000000  0.62500000  0.87500000  1
  Cu  Cu20  1  0.37814100  0.62814100  0.75000000  1
  Cu  Cu21  1  0.12185900  0.87185900  0.25000000  1
  Cu  Cu22  1  0.62814100  0.75000000  0.37814100  1
  Cu  Cu23  1  0.87185900  0.25000000  0.12185900  1
  Cu  Cu24  1  0.75000000  0.37814100  0.62814100  1
  Cu  Cu25  1  0.25000000  0.12185900  0.87185900  1
  Cu  Cu26  1  0.62814100  0.37814100  0.25000000  1
  Cu  Cu27  1  0.87185900  0.12185900  0.75000000  1
  Cu  Cu28  1  0.37814100  0.25000000  0.62814100  1
  Cu  Cu29  1  0.12185900  0.75000000  0.87185900  1
  Cu  Cu30  1  0.25000000  0.62814100  0.37814100  1
  Cu  Cu31  1  0.75000000  0.87185900  0.12185900  1
  C  C32  1  0.08544300  0.87497700  0.39398300  1
  C  C33  1  0.98099400  0.69146000  0.10601700  1
  C  C34  1  0.51900600  0.62502300  0.71046700  1
  C  C35  1  0.41455700  0.80854000  0.78953300  1
  C  C36  1  0.87497700  0.39398300  0.08544300  1
  C  C37  1  0.69146000  0.10601700  0.98099400  1
  C  C38  1  0.62502300  0.71046700  0.51900600  1
  C  C39  1  0.80854000  0.78953300  0.41455700  1
  C  C40  1  0.39398300  0.08544300  0.87497700  1
  C  C41  1  0.10601700  0.98099400  0.69146000  1
  C  C42  1  0.71046700  0.51900600  0.62502300  1
  C  C43  1  0.78953300  0.41455700  0.80854000  1
  C  C44  1  0.91030300  0.11376500  0.60619300  1
  C  C45  1  0.00757200  0.30410900  0.89380700  1
  C  C46  1  0.49242800  0.38623500  0.29653800  1
  C  C47  1  0.58969700  0.19589100  0.20346200  1
  C  C48  1  0.11376500  0.60619300  0.91030300  1
  C  C49  1  0.30410900  0.89380700  0.00757200  1
  C  C50  1  0.38623500  0.29653800  0.49242800  1
  C  C51  1  0.19589100  0.20346200  0.58969700  1
  C  C52  1  0.60619300  0.91030300  0.11376500  1
  C  C53  1  0.89380700  0.00757200  0.30410900  1
  C  C54  1  0.29653800  0.49242800  0.38623500  1
  C  C55  1  0.20346200  0.58969700  0.19589100  1
  C  C56  1  0.58969700  0.89380700  0.38623500  1
  C  C57  1  0.49242800  0.60619300  0.19589100  1
  C  C58  1  0.00757200  0.20346200  0.11376500  1
  C  C59  1  0.91030300  0.29653800  0.30410900  1
  C  C60  1  0.38623500  0.58969700  0.89380700  1
  C  C61  1  0.19589100  0.49242800  0.60619300  1
  C  C62  1  0.11376500  0.00757200  0.20346200  1
  C  C63  1  0.30410900  0.91030300  0.29653800  1
  C  C64  1  0.89380700  0.38623500  0.58969700  1
  C  C65  1  0.60619300  0.19589100  0.49242800  1
  C  C66  1  0.20346200  0.11376500  0.00757200  1
  C  C67  1  0.29653800  0.30410900  0.91030300  1
  C  C68  1  0.41455700  0.10601700  0.62502300  1
  C  C69  1  0.51900600  0.39398300  0.80854000  1
  C  C70  1  0.98099400  0.78953300  0.87497700  1
  C  C71  1  0.08544300  0.71046700  0.69146000  1
  C  C72  1  0.62502300  0.41455700  0.10601700  1
  C  C73  1  0.80854000  0.51900600  0.39398300  1
  C  C74  1  0.87497700  0.98099400  0.78953300  1
  C  C75  1  0.69146000  0.08544300  0.71046700  1
  C  C76  1  0.10601700  0.62502300  0.41455700  1
  C  C77  1  0.39398300  0.80854000  0.51900600  1
  C  C78  1  0.78953300  0.87497700  0.98099400  1
  C  C79  1  0.71046700  0.69146000  0.08544300  1
