# generated using pymatgen
data_Cu11(NiC5)4
_symmetry_space_group_name_H-M   'P 1'
_cell_length_a   3.10222374
_cell_length_b   3.20556237
_cell_length_c   35.07391058
_cell_angle_alpha   92.61917236
_cell_angle_beta   92.53468053
_cell_angle_gamma   90.00000000
_symmetry_Int_Tables_number   1
_chemical_formula_structural   Cu11(NiC5)4
_chemical_formula_sum   'Cu11 Ni4 C20'
_cell_volume   348.08203766
_cell_formula_units_Z   1
loop_
 _symmetry_equiv_pos_site_id
 _symmetry_equiv_pos_as_xyz
  1  'x, y, z'
loop_
 _atom_site_type_symbol
 _atom_site_label
 _atom_site_symmetry_multiplicity
 _atom_site_fract_x
 _atom_site_fract_y
 _atom_site_fract_z
 _atom_site_occupancy
  Ni  Ni0  1  0.09967838  0.59967838  0.19935677  1
  Ni  Ni1  1  0.69989882  0.19989882  0.39979863  1
  Ni  Ni2  1  0.30010118  0.80010118  0.60020137  1
  Ni  Ni3  1  0.90032162  0.40032162  0.80064323  1
  C  C4  1  0.07265092  0.07265092  0.14530184  1
  C  C5  1  0.67292792  0.67292792  0.34585585  1
  C  C6  1  0.27316197  0.27316197  0.54632394  1
  C  C7  1  0.87335710  0.87335710  0.74671319  1
  C  C8  1  0.47320052  0.47320052  0.94640205  1
  C  C9  1  0.52679948  0.52679948  0.05359795  1
  C  C10  1  0.12664290  0.12664290  0.25328681  1
  C  C11  1  0.72683803  0.72683803  0.45367706  1
  C  C12  1  0.32707208  0.32707208  0.65414415  1
  C  C13  1  0.92734908  0.92734908  0.85469816  1
  C  C14  1  0.58645571  0.08645571  0.17291142  1
  C  C15  1  0.18666799  0.68666799  0.37333597  1
  C  C16  1  0.78688585  0.28688585  0.57377070  1
  C  C17  1  0.38708306  0.88708306  0.77416712  1
  C  C18  1  0.98715258  0.48715258  0.97430515  1
  C  C19  1  0.01284742  0.51284742  0.02569485  1
  C  C20  1  0.61291694  0.11291694  0.22583288  1
  C  C21  1  0.21311415  0.71311415  0.42622930  1
  C  C22  1  0.81333201  0.31333201  0.62666403  1
  C  C23  1  0.41354429  0.91354429  0.82708858  1
  Cu  Cu24  1  0.03645627  0.03645627  0.07291153  1
  Cu  Cu25  1  0.63686808  0.63686808  0.27373717  1
  Cu  Cu26  1  0.23710870  0.23710870  0.47421641  1
  Cu  Cu27  1  0.83730806  0.83730806  0.67461611  1
  Cu  Cu28  1  0.43742868  0.43742868  0.87485735  1
  Cu  Cu29  1  0.56257132  0.56257132  0.12514265  1
  Cu  Cu30  1  0.16269194  0.16269194  0.32538389  1
  Cu  Cu31  1  0.76289130  0.76289130  0.52578359  1
  Cu  Cu32  1  0.36313192  0.36313192  0.72626283  1
  Cu  Cu33  1  0.96354373  0.96354373  0.92708847  1
  Cu  Cu34  1  0.50000000  0.00000000  0.00000000  1
