# generated using pymatgen
data_CuNiC
_symmetry_space_group_name_H-M   'P 1'
_cell_length_a   4.14923800
_cell_length_b   7.05347200
_cell_length_c   7.95879400
_cell_angle_alpha   90.00000000
_cell_angle_beta   90.00000000
_cell_angle_gamma   90.00000000
_symmetry_Int_Tables_number   1
_chemical_formula_structural   CuNiC
_chemical_formula_sum   'Cu4 Ni4 C4'
_cell_volume   232.92631563
_cell_formula_units_Z   4
loop_
 _symmetry_equiv_pos_site_id
 _symmetry_equiv_pos_as_xyz
  1  'x, y, z'
loop_
 _atom_site_type_symbol
 _atom_site_label
 _atom_site_symmetry_multiplicity
 _atom_site_fract_x
 _atom_site_fract_y
 _atom_site_fract_z
 _atom_site_occupancy
  C  C0  1  0.25000000  0.52978600  0.30857700  1
  C  C1  1  0.25000000  0.02978600  0.19142300  1
  C  C2  1  0.75000000  0.47021400  0.69142300  1
  C  C3  1  0.75000000  0.97021400  0.80857700  1
  Ni  Ni4  1  0.25000000  0.24992400  0.88014100  1
  Ni  Ni5  1  0.25000000  0.74992400  0.61985900  1
  Ni  Ni6  1  0.75000000  0.75007600  0.11985900  1
  Ni  Ni7  1  0.75000000  0.25007600  0.38014100  1
  Cu  Cu8  1  0.25000000  0.64483600  0.93718500  1
  Cu  Cu9  1  0.25000000  0.14483600  0.56281500  1
  Cu  Cu10  1  0.75000000  0.35516400  0.06281500  1
  Cu  Cu11  1  0.75000000  0.85516400  0.43718500  1
