# generated using pymatgen
data_Cu5Ni2C3
_symmetry_space_group_name_H-M   'P 1'
_cell_length_a   7.22725500
_cell_length_b   7.42009700
_cell_length_c   20.73255221
_cell_angle_alpha   89.47715643
_cell_angle_beta   90.00000000
_cell_angle_gamma   90.00000000
_symmetry_Int_Tables_number   1
_chemical_formula_structural   Cu5Ni2C3
_chemical_formula_sum   'Cu40 Ni16 C24'
_cell_volume   1111.77689996
_cell_formula_units_Z   8
loop_
 _symmetry_equiv_pos_site_id
 _symmetry_equiv_pos_as_xyz
  1  'x, y, z'
loop_
 _atom_site_type_symbol
 _atom_site_label
 _atom_site_symmetry_multiplicity
 _atom_site_fract_x
 _atom_site_fract_y
 _atom_site_fract_z
 _atom_site_occupancy
  C  C0  1  0.29500700  0.77362800  0.99939800  1
  C  C1  1  0.79500700  0.22637200  0.50060200  1
  C  C2  1  0.70499300  0.22637200  0.00060200  1
  C  C3  1  0.20499300  0.77362800  0.49939800  1
  C  C4  1  0.05810400  0.49373400  0.19517500  1
  C  C5  1  0.55810400  0.50626600  0.30482500  1
  C  C6  1  0.94189600  0.50626600  0.80482500  1
  C  C7  1  0.44189600  0.49373400  0.69517500  1
  C  C8  1  0.94682900  0.98327800  0.30785700  1
  C  C9  1  0.44682900  0.01672200  0.19214300  1
  C  C10  1  0.05317100  0.01672200  0.69214300  1
  C  C11  1  0.55317100  0.98327800  0.80785700  1
  C  C12  1  0.99835600  0.97363700  0.14389200  1
  C  C13  1  0.49835600  0.02636300  0.35610800  1
  C  C14  1  0.00164400  0.02636300  0.85610800  1
  C  C15  1  0.50164400  0.97363700  0.64389200  1
  C  C16  1  0.51680300  0.47400600  0.13869000  1
  C  C17  1  0.01680300  0.52599400  0.36131000  1
  C  C18  1  0.48319700  0.52599400  0.86131000  1
  C  C19  1  0.98319700  0.47400600  0.63869000  1
  C  C20  1  0.76302300  0.71908100  0.05135000  1
  C  C21  1  0.26302300  0.28091900  0.44865000  1
  C  C22  1  0.23697700  0.28091900  0.94865000  1
  C  C23  1  0.73697700  0.71908100  0.55135000  1
  Ni  Ni24  1  0.89776900  0.75131700  0.10951400  1
  Ni  Ni25  1  0.39776900  0.24868300  0.39048600  1
  Ni  Ni26  1  0.10223100  0.24868300  0.89048600  1
  Ni  Ni27  1  0.60223100  0.75131700  0.60951400  1
  Ni  Ni28  1  0.65518500  0.54158400  0.06463600  1
  Ni  Ni29  1  0.15518500  0.45841600  0.43536400  1
  Ni  Ni30  1  0.34481500  0.45841600  0.93536400  1
  Ni  Ni31  1  0.84481500  0.54158400  0.56463600  1
  Ni  Ni32  1  0.62935600  0.87115500  0.03589600  1
  Ni  Ni33  1  0.12935600  0.12884500  0.46410400  1
  Ni  Ni34  1  0.37064400  0.12884500  0.96410400  1
  Ni  Ni35  1  0.87064400  0.87115500  0.53589600  1
  Ni  Ni36  1  0.91304600  0.68988000  0.99890300  1
  Ni  Ni37  1  0.41304600  0.31012000  0.50109700  1
  Ni  Ni38  1  0.08695400  0.31012000  0.00109700  1
  Ni  Ni39  1  0.58695400  0.68988000  0.49890300  1
  Cu  Cu40  1  0.21133000  0.94775400  0.09721400  1
  Cu  Cu41  1  0.71133000  0.05224600  0.40278600  1
  Cu  Cu42  1  0.78867000  0.05224600  0.90278600  1
  Cu  Cu43  1  0.28867000  0.94775400  0.59721400  1
  Cu  Cu44  1  0.11223000  0.82854700  0.20558200  1
  Cu  Cu45  1  0.61223000  0.17145300  0.29441800  1
  Cu  Cu46  1  0.88777000  0.17145300  0.79441800  1
  Cu  Cu47  1  0.38777000  0.82854700  0.70558200  1
  Cu  Cu48  1  0.89113400  0.11391200  0.08667100  1
  Cu  Cu49  1  0.39113400  0.88608800  0.41332900  1
  Cu  Cu50  1  0.10886600  0.88608800  0.91332900  1
  Cu  Cu51  1  0.60886600  0.11391200  0.58667100  1
  Cu  Cu52  1  0.79639700  0.97791300  0.19679800  1
  Cu  Cu53  1  0.29639700  0.02208700  0.30320200  1
  Cu  Cu54  1  0.20360300  0.02208700  0.80320200  1
  Cu  Cu55  1  0.70360300  0.97791300  0.69679800  1
  Cu  Cu56  1  0.09725000  0.16110100  0.18820500  1
  Cu  Cu57  1  0.59725000  0.83889900  0.31179500  1
  Cu  Cu58  1  0.90275000  0.83889900  0.81179500  1
  Cu  Cu59  1  0.40275000  0.16110100  0.68820500  1
  Cu  Cu60  1  0.72489000  0.42113200  0.18616600  1
  Cu  Cu61  1  0.22489000  0.57886800  0.31383400  1
  Cu  Cu62  1  0.27511000  0.57886800  0.81383400  1
  Cu  Cu63  1  0.77511000  0.42113200  0.68616600  1
  Cu  Cu64  1  0.51113500  0.24785100  0.10469400  1
  Cu  Cu65  1  0.01113500  0.75214900  0.39530600  1
  Cu  Cu66  1  0.48886500  0.75214900  0.89530600  1
  Cu  Cu67  1  0.98886500  0.24785100  0.60469400  1
  Cu  Cu68  1  0.38475400  0.38031900  0.20845600  1
  Cu  Cu69  1  0.88475400  0.61968100  0.29154400  1
  Cu  Cu70  1  0.61524600  0.61968100  0.79154400  1
  Cu  Cu71  1  0.11524600  0.38031900  0.70845600  1
  Cu  Cu72  1  0.29782100  0.54059200  0.10007300  1
  Cu  Cu73  1  0.79782100  0.45940800  0.39992700  1
  Cu  Cu74  1  0.70217900  0.45940800  0.89992700  1
  Cu  Cu75  1  0.20217900  0.54059200  0.60007300  1
  Cu  Cu76  1  0.51347200  0.69083200  0.18008600  1
  Cu  Cu77  1  0.01347200  0.30916800  0.31991400  1
  Cu  Cu78  1  0.48652800  0.30916800  0.81991400  1
  Cu  Cu79  1  0.98652800  0.69083200  0.68008600  1
