# generated using pymatgen
data_Cu2NiC19
_symmetry_space_group_name_H-M   'P 1'
_cell_length_a   5.00450885
_cell_length_b   6.70144528
_cell_length_c   8.72521373
_cell_angle_alpha   93.50777676
_cell_angle_beta   91.31655968
_cell_angle_gamma   106.56334582
_symmetry_Int_Tables_number   1
_chemical_formula_structural   Cu2NiC19
_chemical_formula_sum   'Cu2 Ni1 C19'
_cell_volume   279.70364748
_cell_formula_units_Z   1
loop_
 _symmetry_equiv_pos_site_id
 _symmetry_equiv_pos_as_xyz
  1  'x, y, z'
loop_
 _atom_site_type_symbol
 _atom_site_label
 _atom_site_symmetry_multiplicity
 _atom_site_fract_x
 _atom_site_fract_y
 _atom_site_fract_z
 _atom_site_occupancy
  C  C0  1  0.41066500  0.55580600  0.06565000  1
  Ni  Ni1  1  0.00053800  0.00062500  0.50921300  1
  C  C2  1  0.39650200  0.78498400  0.78134100  1
  C  C3  1  0.59955600  0.21168200  0.21373400  1
  C  C4  1  0.01807100  0.64694700  0.27985300  1
  C  C5  1  0.97130100  0.35302100  0.72902200  1
  Cu  Cu6  1  0.49748700  0.49390400  0.50293100  1
  Cu  Cu7  1  0.00248900  0.99901800  0.99633200  1
  C  C8  1  0.12269500  0.79297600  0.15167100  1
  C  C9  1  0.88572900  0.20116500  0.85297200  1
  C  C10  1  0.47772400  0.77132700  0.61478300  1
  C  C11  1  0.51778700  0.21858800  0.38067600  1
  C  C12  1  0.20371700  0.54988900  0.82222300  1
  C  C13  1  0.78789600  0.45614400  0.18162900  1
  C  C14  1  0.22275500  0.93475100  0.80932600  1
  C  C15  1  0.77497200  0.06467700  0.18139100  1
  C  C16  1  0.25598700  0.55711200  0.32253600  1
  C  C17  1  0.73434900  0.43590400  0.67963100  1
  C  C18  1  0.63019600  0.79652000  0.90468400  1
  C  C19  1  0.36724100  0.20798800  0.09201700  1
  C  C20  1  0.13703300  0.28383600  0.59530200  1
  C  C21  1  0.86030900  0.72017300  0.41120700  1
