# generated using pymatgen
data_Cu2NiC9
_symmetry_space_group_name_H-M   'P 1'
_cell_length_a   8.17020400
_cell_length_b   8.17020400
_cell_length_c   5.55085700
_cell_angle_alpha   90.00000000
_cell_angle_beta   90.00000000
_cell_angle_gamma   90.00000000
_symmetry_Int_Tables_number   1
_chemical_formula_structural   Cu2NiC9
_chemical_formula_sum   'Cu4 Ni2 C18'
_cell_volume   370.53210204
_cell_formula_units_Z   2
loop_
 _symmetry_equiv_pos_site_id
 _symmetry_equiv_pos_as_xyz
  1  'x, y, z'
loop_
 _atom_site_type_symbol
 _atom_site_label
 _atom_site_symmetry_multiplicity
 _atom_site_fract_x
 _atom_site_fract_y
 _atom_site_fract_z
 _atom_site_occupancy
  C  C0  1  0.33414600  0.83414600  0.49149500  1
  C  C1  1  0.16585400  0.33414600  0.50850500  1
  C  C2  1  0.66585400  0.16585400  0.49149500  1
  C  C3  1  0.83414600  0.66585400  0.50850500  1
  Ni  Ni4  1  0.50000000  0.50000000  0.00000000  1
  Ni  Ni5  1  0.00000000  0.00000000  0.00000000  1
  Cu  Cu6  1  0.36630000  0.13370000  0.97879400  1
  Cu  Cu7  1  0.13370000  0.63370000  0.02120600  1
  Cu  Cu8  1  0.63370000  0.86630000  0.97879400  1
  Cu  Cu9  1  0.86630000  0.36630000  0.02120600  1
  C  C10  1  0.50000000  0.00000000  0.87573200  1
  C  C11  1  0.00000000  0.50000000  0.12426800  1
  C  C12  1  0.57778200  0.70534900  0.85718700  1
  C  C13  1  0.92221800  0.20534900  0.14281300  1
  C  C14  1  0.42221800  0.29465100  0.85718700  1
  C  C15  1  0.07778200  0.79465100  0.14281300  1
  C  C16  1  0.70534900  0.42221800  0.14281300  1
  C  C17  1  0.79465100  0.92221800  0.85718700  1
  C  C18  1  0.29465100  0.57778200  0.14281300  1
  C  C19  1  0.20534900  0.07778200  0.85718700  1
  C  C20  1  0.36501700  0.13498300  0.25018400  1
  C  C21  1  0.13498300  0.63498300  0.74981600  1
  C  C22  1  0.63498300  0.86501700  0.25018400  1
  C  C23  1  0.86501700  0.36501700  0.74981600  1
