# generated using pymatgen
data_CuNiC5
_symmetry_space_group_name_H-M   'P 1'
_cell_length_a   7.59583712
_cell_length_b   7.48810785
_cell_length_c   7.47983987
_cell_angle_alpha   59.90889138
_cell_angle_beta   59.52975423
_cell_angle_gamma   59.47359182
_symmetry_Int_Tables_number   1
_chemical_formula_structural   CuNiC5
_chemical_formula_sum   'Cu2 Ni2 C10'
_cell_volume   298.34371423
_cell_formula_units_Z   2
loop_
 _symmetry_equiv_pos_site_id
 _symmetry_equiv_pos_as_xyz
  1  'x, y, z'
loop_
 _atom_site_type_symbol
 _atom_site_label
 _atom_site_symmetry_multiplicity
 _atom_site_fract_x
 _atom_site_fract_y
 _atom_site_fract_z
 _atom_site_occupancy
  Ni  Ni0  1  0.87735700  0.87308800  0.87204100  1
  Ni  Ni1  1  0.12265300  0.12696000  0.12792000  1
  C  C2  1  0.50003200  0.49997700  0.99993900  1
  C  C3  1  0.49990100  0.99997400  0.50017200  1
  Cu  Cu4  1  0.49993200  0.49998200  0.50004700  1
  Cu  Cu5  1  0.00004500  0.49996000  0.50004200  1
  C  C6  1  0.72340500  0.74869000  0.74860400  1
  C  C7  1  0.26920500  0.23943400  0.72248700  1
  C  C8  1  0.26896500  0.72251200  0.23925300  1
  C  C9  1  0.72095400  0.25161600  0.25104900  1
  C  C10  1  0.73108200  0.27751700  0.76062000  1
  C  C11  1  0.27903900  0.74839700  0.74893000  1
  C  C12  1  0.27665400  0.25131200  0.25135300  1
  C  C13  1  0.73077900  0.76057400  0.27754400  1
