# generated using pymatgen
data_CuNiC5
_symmetry_space_group_name_H-M   'P 1'
_cell_length_a   8.55951100
_cell_length_b   8.55951100
_cell_length_c   4.09196200
_cell_angle_alpha   90.00000000
_cell_angle_beta   90.00000000
_cell_angle_gamma   90.00000000
_symmetry_Int_Tables_number   1
_chemical_formula_structural   CuNiC5
_chemical_formula_sum   'Cu2 Ni2 C10'
_cell_volume   299.79853119
_cell_formula_units_Z   2
loop_
 _symmetry_equiv_pos_site_id
 _symmetry_equiv_pos_as_xyz
  1  'x, y, z'
loop_
 _atom_site_type_symbol
 _atom_site_label
 _atom_site_symmetry_multiplicity
 _atom_site_fract_x
 _atom_site_fract_y
 _atom_site_fract_z
 _atom_site_occupancy
  C  C0  1  0.00000000  0.50000000  0.96004200  1
  C  C1  1  0.50000000  0.00000000  0.03995800  1
  Ni  Ni2  1  0.00000000  0.00000000  0.50000000  1
  Ni  Ni3  1  0.50000000  0.50000000  0.50000000  1
  Cu  Cu4  1  0.00000000  0.50000000  0.49643400  1
  Cu  Cu5  1  0.50000000  0.00000000  0.50356600  1
  C  C6  1  0.77603400  0.50000000  0.01918000  1
  C  C7  1  0.22396600  0.50000000  0.01918000  1
  C  C8  1  0.00000000  0.27603400  0.01918000  1
  C  C9  1  0.00000000  0.72396600  0.01918000  1
  C  C10  1  0.72396600  0.00000000  0.98082000  1
  C  C11  1  0.27603400  0.00000000  0.98082000  1
  C  C12  1  0.50000000  0.22396600  0.98082000  1
  C  C13  1  0.50000000  0.77603400  0.98082000  1
