# generated using pymatgen
data_Cu7Ni3C
_symmetry_space_group_name_H-M   'P 1'
_cell_length_a   6.59239300
_cell_length_b   7.35479314
_cell_length_c   8.78639741
_cell_angle_alpha   83.70478183
_cell_angle_beta   87.62760197
_cell_angle_gamma   75.33706236
_symmetry_Int_Tables_number   1
_chemical_formula_structural   Cu7Ni3C
_chemical_formula_sum   'Cu14 Ni6 C2'
_cell_volume   409.61358152
_cell_formula_units_Z   2
loop_
 _symmetry_equiv_pos_site_id
 _symmetry_equiv_pos_as_xyz
  1  'x, y, z'
loop_
 _atom_site_type_symbol
 _atom_site_label
 _atom_site_symmetry_multiplicity
 _atom_site_fract_x
 _atom_site_fract_y
 _atom_site_fract_z
 _atom_site_occupancy
  C  C0  1  0.79719300  0.79599300  0.24391300  1
  C  C1  1  0.20280700  0.20400700  0.75608700  1
  Ni  Ni2  1  0.31036800  0.74262100  0.52409400  1
  Ni  Ni3  1  0.68963200  0.25737900  0.47590600  1
  Ni  Ni4  1  0.32666600  0.74485900  0.02329500  1
  Ni  Ni5  1  0.67333400  0.25514100  0.97670500  1
  Ni  Ni6  1  0.82555900  0.70444500  0.81705600  1
  Ni  Ni7  1  0.17444100  0.29555500  0.18294400  1
  Cu  Cu8  1  0.60669600  0.10272500  0.12810200  1
  Cu  Cu9  1  0.39330400  0.89727500  0.87189800  1
  Cu  Cu10  1  0.54276200  0.68092800  0.14226000  1
  Cu  Cu11  1  0.45723800  0.31907200  0.85774000  1
  Cu  Cu12  1  0.75059600  0.02959900  0.44141600  1
  Cu  Cu13  1  0.24940400  0.97040100  0.55858400  1
  Cu  Cu14  1  0.56568400  0.69650800  0.46572100  1
  Cu  Cu15  1  0.43431600  0.30349200  0.53427900  1
  Cu  Cu16  1  0.92355900  0.79828000  0.96746700  1
  Cu  Cu17  1  0.07644100  0.20172000  0.03253300  1
  Cu  Cu18  1  0.16447500  0.74600100  0.36996500  1
  Cu  Cu19  1  0.83552500  0.25399900  0.63003500  1
  Cu  Cu20  1  0.95915100  0.45776800  0.25367400  1
  Cu  Cu21  1  0.04084900  0.54223200  0.74632600  1
