# generated using pymatgen
data_Cu3NiC10
_symmetry_space_group_name_H-M   'P 1'
_cell_length_a   8.41922671
_cell_length_b   8.41922671
_cell_length_c   8.38342300
_cell_angle_alpha   90.00000000
_cell_angle_beta   90.00000000
_cell_angle_gamma   90.51574431
_symmetry_Int_Tables_number   1
_chemical_formula_structural   Cu3NiC10
_chemical_formula_sum   'Cu12 Ni4 C40'
_cell_volume   594.22126974
_cell_formula_units_Z   4
loop_
 _symmetry_equiv_pos_site_id
 _symmetry_equiv_pos_as_xyz
  1  'x, y, z'
loop_
 _atom_site_type_symbol
 _atom_site_label
 _atom_site_symmetry_multiplicity
 _atom_site_fract_x
 _atom_site_fract_y
 _atom_site_fract_z
 _atom_site_occupancy
  C  C0  1  0.75336400  0.50152300  0.61978400  1
  C  C1  1  0.49847700  0.24663600  0.88021600  1
  C  C2  1  0.00422200  0.74984300  0.87491800  1
  C  C3  1  0.74984300  0.00422200  0.12508200  1
  C  C4  1  0.24663600  0.49847700  0.11978400  1
  C  C5  1  0.50152300  0.75336400  0.38021600  1
  C  C6  1  0.99577800  0.25015700  0.37491800  1
  C  C7  1  0.25015700  0.99577800  0.62508200  1
  Ni  Ni8  1  0.87606500  0.12393500  0.75000000  1
  Ni  Ni9  1  0.62269200  0.62269200  0.00000000  1
  Ni  Ni10  1  0.12393500  0.87606500  0.25000000  1
  Ni  Ni11  1  0.37730800  0.37730800  0.50000000  1
  Cu  Cu12  1  0.62457000  0.87596600  0.74962200  1
  Cu  Cu13  1  0.37614100  0.62385900  0.75000000  1
  Cu  Cu14  1  0.12403400  0.37543000  0.75037800  1
  Cu  Cu15  1  0.37902200  0.87682100  0.00160600  1
  Cu  Cu16  1  0.12651700  0.12651700  0.00000000  1
  Cu  Cu17  1  0.87682100  0.37902200  0.99839400  1
  Cu  Cu18  1  0.37543000  0.12403400  0.24962200  1
  Cu  Cu19  1  0.62385900  0.37614100  0.25000000  1
  Cu  Cu20  1  0.87596600  0.62457000  0.25037800  1
  Cu  Cu21  1  0.62097800  0.12317900  0.50160600  1
  Cu  Cu22  1  0.87348300  0.87348300  0.50000000  1
  Cu  Cu23  1  0.12317900  0.62097800  0.49839400  1
  C  C24  1  0.63776100  0.11090700  0.74224700  1
  C  C25  1  0.86119000  0.88998300  0.74303400  1
  C  C26  1  0.13669600  0.60785000  0.73773700  1
  C  C27  1  0.61979300  0.63933700  0.76221200  1
  C  C28  1  0.36066300  0.38020700  0.73778800  1
  C  C29  1  0.39215000  0.86330400  0.76226300  1
  C  C30  1  0.11001700  0.13881000  0.75696600  1
  C  C31  1  0.88909300  0.36223900  0.75775300  1
  C  C32  1  0.62151500  0.86183600  0.98107700  1
  C  C33  1  0.39348600  0.63672800  0.99070100  1
  C  C34  1  0.11535200  0.36442600  0.98084300  1
  C  C35  1  0.13868900  0.88737400  0.01536700  1
  C  C36  1  0.88737400  0.13868900  0.98463300  1
  C  C37  1  0.36442600  0.11535200  0.01915700  1
  C  C38  1  0.63672800  0.39348600  0.00929900  1
  C  C39  1  0.86183600  0.62151500  0.01892300  1
  C  C40  1  0.36223900  0.88909300  0.24224700  1
  C  C41  1  0.13881000  0.11001700  0.24303400  1
  C  C42  1  0.86330400  0.39215000  0.23773700  1
  C  C43  1  0.38020700  0.36066300  0.26221200  1
  C  C44  1  0.63933700  0.61979300  0.23778800  1
  C  C45  1  0.60785000  0.13669600  0.26226300  1
  C  C46  1  0.88998300  0.86119000  0.25696600  1
  C  C47  1  0.11090700  0.63776100  0.25775300  1
  C  C48  1  0.37848500  0.13816400  0.48107700  1
  C  C49  1  0.60651400  0.36327200  0.49070100  1
  C  C50  1  0.88464800  0.63557400  0.48084300  1
  C  C51  1  0.86131100  0.11262600  0.51536700  1
  C  C52  1  0.11262600  0.86131100  0.48463300  1
  C  C53  1  0.63557400  0.88464800  0.51915700  1
  C  C54  1  0.36327200  0.60651400  0.50929900  1
  C  C55  1  0.13816400  0.37848500  0.51892300  1
