# generated using pymatgen
data_Cu6(NiC)7
_symmetry_space_group_name_H-M   'P 1'
_cell_length_a   4.16497500
_cell_length_b   13.63692500
_cell_length_c   13.63692500
_cell_angle_alpha   90.00000000
_cell_angle_beta   90.00000000
_cell_angle_gamma   90.00000000
_symmetry_Int_Tables_number   1
_chemical_formula_structural   Cu6(NiC)7
_chemical_formula_sum   'Cu12 Ni14 C14'
_cell_volume   774.54258905
_cell_formula_units_Z   2
loop_
 _symmetry_equiv_pos_site_id
 _symmetry_equiv_pos_as_xyz
  1  'x, y, z'
loop_
 _atom_site_type_symbol
 _atom_site_label
 _atom_site_symmetry_multiplicity
 _atom_site_fract_x
 _atom_site_fract_y
 _atom_site_fract_z
 _atom_site_occupancy
  C  C0  1  0.50000000  0.63144500  0.13144500  1
  C  C1  1  0.50000000  0.36855500  0.86855500  1
  C  C2  1  0.50000000  0.86855500  0.63144500  1
  C  C3  1  0.50000000  0.13144500  0.36855500  1
  C  C4  1  0.00000000  0.26240700  0.04640400  1
  C  C5  1  0.00000000  0.73759300  0.95359600  1
  C  C6  1  0.00000000  0.95359600  0.26240700  1
  C  C7  1  0.00000000  0.23759300  0.54640400  1
  C  C8  1  0.00000000  0.04640400  0.73759300  1
  C  C9  1  0.00000000  0.76240700  0.45359600  1
  C  C10  1  0.00000000  0.54640400  0.76240700  1
  C  C11  1  0.00000000  0.45359600  0.23759300  1
  C  C12  1  0.00000000  0.00000000  0.00000000  1
  C  C13  1  0.00000000  0.50000000  0.50000000  1
  Ni  Ni14  1  0.50000000  0.21282100  0.71282100  1
  Ni  Ni15  1  0.50000000  0.78717900  0.28717900  1
  Ni  Ni16  1  0.50000000  0.28717900  0.21282100  1
  Ni  Ni17  1  0.50000000  0.71282100  0.78717900  1
  Ni  Ni18  1  0.00000000  0.00000000  0.50000000  1
  Ni  Ni19  1  0.00000000  0.50000000  0.00000000  1
  Ni  Ni20  1  0.50000000  0.09706400  0.13847300  1
  Ni  Ni21  1  0.50000000  0.90293600  0.86152700  1
  Ni  Ni22  1  0.50000000  0.86152700  0.09706400  1
  Ni  Ni23  1  0.50000000  0.40293600  0.63847300  1
  Ni  Ni24  1  0.50000000  0.13847300  0.90293600  1
  Ni  Ni25  1  0.50000000  0.59706400  0.36152700  1
  Ni  Ni26  1  0.50000000  0.63847300  0.59706400  1
  Ni  Ni27  1  0.50000000  0.36152700  0.40293600  1
  Cu  Cu28  1  0.50000000  0.07429200  0.57429200  1
  Cu  Cu29  1  0.50000000  0.92570800  0.42570800  1
  Cu  Cu30  1  0.50000000  0.42570800  0.07429200  1
  Cu  Cu31  1  0.50000000  0.57429200  0.92570800  1
  Cu  Cu32  1  0.00000000  0.16379100  0.21256100  1
  Cu  Cu33  1  0.00000000  0.83620900  0.78743900  1
  Cu  Cu34  1  0.00000000  0.78743900  0.16379100  1
  Cu  Cu35  1  0.00000000  0.33620900  0.71256100  1
  Cu  Cu36  1  0.00000000  0.21256100  0.83620900  1
  Cu  Cu37  1  0.00000000  0.66379100  0.28743900  1
  Cu  Cu38  1  0.00000000  0.71256100  0.66379100  1
  Cu  Cu39  1  0.00000000  0.28743900  0.33620900  1
