# generated using pymatgen
data_Cu8Ni4C
_symmetry_space_group_name_H-M   'P 1'
_cell_length_a   5.19595300
_cell_length_b   6.79744290
_cell_length_c   6.79744290
_cell_angle_alpha   81.60039539
_cell_angle_beta   67.53002932
_cell_angle_gamma   67.53002932
_symmetry_Int_Tables_number   1
_chemical_formula_structural   Cu8Ni4C
_chemical_formula_sum   'Cu8 Ni4 C1'
_cell_volume   205.01019912
_cell_formula_units_Z   1
loop_
 _symmetry_equiv_pos_site_id
 _symmetry_equiv_pos_as_xyz
  1  'x, y, z'
loop_
 _atom_site_type_symbol
 _atom_site_label
 _atom_site_symmetry_multiplicity
 _atom_site_fract_x
 _atom_site_fract_y
 _atom_site_fract_z
 _atom_site_occupancy
  C  C0  1  0.00000000  0.00000000  0.00000000  1
  Ni  Ni1  1  0.00000000  0.00000000  0.50000000  1
  Ni  Ni2  1  0.50000000  0.00000000  0.50000000  1
  Ni  Ni3  1  0.50000000  0.50000000  0.00000000  1
  Ni  Ni4  1  0.00000000  0.50000000  0.00000000  1
  Cu  Cu5  1  0.00000000  0.34032600  0.65967400  1
  Cu  Cu6  1  0.00000000  0.65967400  0.34032600  1
  Cu  Cu7  1  0.65967400  0.34032600  0.34032600  1
  Cu  Cu8  1  0.34032600  0.65967400  0.65967400  1
  Cu  Cu9  1  0.50000000  0.77262700  0.22737300  1
  Cu  Cu10  1  0.50000000  0.22737300  0.77262700  1
  Cu  Cu11  1  0.72737300  0.77262700  0.77262700  1
  Cu  Cu12  1  0.27262700  0.22737300  0.22737300  1
