# generated using pymatgen
data_Cu6Ni10C27
_symmetry_space_group_name_H-M   'P 1'
_cell_length_a   5.79338100
_cell_length_b   8.49675900
_cell_length_c   22.86532200
_cell_angle_alpha   90.00000000
_cell_angle_beta   90.00000000
_cell_angle_gamma   90.00000000
_symmetry_Int_Tables_number   1
_chemical_formula_structural   Cu6Ni10C27
_chemical_formula_sum   'Cu12 Ni20 C54'
_cell_volume   1125.54461005
_cell_formula_units_Z   2
loop_
 _symmetry_equiv_pos_site_id
 _symmetry_equiv_pos_as_xyz
  1  'x, y, z'
loop_
 _atom_site_type_symbol
 _atom_site_label
 _atom_site_symmetry_multiplicity
 _atom_site_fract_x
 _atom_site_fract_y
 _atom_site_fract_z
 _atom_site_occupancy
  Ni  Ni0  1  0.00000000  0.81927700  0.21898600  1
  Ni  Ni1  1  0.00000000  0.83867100  0.54868200  1
  Ni  Ni2  1  0.00000000  0.16132900  0.45131800  1
  Ni  Ni3  1  0.00000000  0.18072300  0.78101400  1
  Ni  Ni4  1  0.00000000  0.68072300  0.71898600  1
  Ni  Ni5  1  0.00000000  0.66132900  0.04868200  1
  Ni  Ni6  1  0.00000000  0.31927700  0.28101400  1
  Ni  Ni7  1  0.00000000  0.33867100  0.95131800  1
  Ni  Ni8  1  0.24396200  0.50509600  0.16878300  1
  Ni  Ni9  1  0.25141100  0.50000000  0.50000000  1
  Ni  Ni10  1  0.24396200  0.49490400  0.83121700  1
  Ni  Ni11  1  0.75603800  0.00509600  0.33121700  1
  Ni  Ni12  1  0.75603800  0.99490400  0.66878300  1
  Ni  Ni13  1  0.74858900  0.00000000  0.00000000  1
  Ni  Ni14  1  0.75603800  0.50509600  0.16878300  1
  Ni  Ni15  1  0.74858900  0.50000000  0.50000000  1
  Ni  Ni16  1  0.75603800  0.49490400  0.83121700  1
  Ni  Ni17  1  0.24396200  0.00509600  0.33121700  1
  Ni  Ni18  1  0.24396200  0.99490400  0.66878300  1
  Ni  Ni19  1  0.25141100  0.00000000  0.00000000  1
  Cu  Cu20  1  0.50000000  0.67728300  0.28465100  1
  Cu  Cu21  1  0.50000000  0.67043300  0.61231700  1
  Cu  Cu22  1  0.50000000  0.67275600  0.94269900  1
  Cu  Cu23  1  0.50000000  0.32956700  0.38768300  1
  Cu  Cu24  1  0.50000000  0.32271700  0.71534900  1
  Cu  Cu25  1  0.50000000  0.32724400  0.05730100  1
  Cu  Cu26  1  0.50000000  0.82724400  0.44269900  1
  Cu  Cu27  1  0.50000000  0.82271700  0.78465100  1
  Cu  Cu28  1  0.50000000  0.82956700  0.11231700  1
  Cu  Cu29  1  0.50000000  0.17728300  0.21534900  1
  Cu  Cu30  1  0.50000000  0.17275600  0.55730100  1
  Cu  Cu31  1  0.50000000  0.17043300  0.88768300  1
  C  C32  1  0.50000000  0.93816700  0.27992500  1
  C  C33  1  0.50000000  0.92610000  0.61936100  1
  C  C34  1  0.50000000  0.93332900  0.95110600  1
  C  C35  1  0.50000000  0.07390000  0.38063900  1
  C  C36  1  0.50000000  0.06183300  0.72007500  1
  C  C37  1  0.50000000  0.06667100  0.04889400  1
  C  C38  1  0.50000000  0.56667100  0.45110600  1
  C  C39  1  0.50000000  0.56183300  0.77992500  1
  C  C40  1  0.50000000  0.57390000  0.11936100  1
  C  C41  1  0.50000000  0.43816700  0.22007500  1
  C  C42  1  0.50000000  0.43332900  0.54889400  1
  C  C43  1  0.50000000  0.42610000  0.88063900  1
  C  C44  1  0.00000000  0.92156500  0.28603300  1
  C  C45  1  0.00000000  0.91763100  0.62102100  1
  C  C46  1  0.00000000  0.93059200  0.95802200  1
  C  C47  1  0.00000000  0.08236900  0.37897900  1
  C  C48  1  0.00000000  0.07843500  0.71396700  1
  C  C49  1  0.00000000  0.06940800  0.04197800  1
  C  C50  1  0.00000000  0.56940800  0.45802200  1
  C  C51  1  0.00000000  0.57843500  0.78603300  1
  C  C52  1  0.00000000  0.58236900  0.12102100  1
  C  C53  1  0.00000000  0.42156500  0.21396700  1
  C  C54  1  0.00000000  0.43059200  0.54197800  1
  C  C55  1  0.00000000  0.41763100  0.87897900  1
  C  C56  1  0.24777800  0.29260100  0.45838800  1
  C  C57  1  0.25031900  0.29987900  0.78904500  1
  C  C58  1  0.27890000  0.30417300  0.13220600  1
  C  C59  1  0.25031900  0.70012100  0.21095500  1
  C  C60  1  0.24777800  0.70739900  0.54161200  1
  C  C61  1  0.27890000  0.69582700  0.86779400  1
  C  C62  1  0.74968100  0.20012100  0.28904500  1
  C  C63  1  0.72110000  0.19582700  0.63220600  1
  C  C64  1  0.75222200  0.20739900  0.95838800  1
  C  C65  1  0.72110000  0.80417300  0.36779400  1
  C  C66  1  0.74968100  0.79987900  0.71095500  1
  C  C67  1  0.75222200  0.79260100  0.04161200  1
  C  C68  1  0.00000000  0.98337500  0.17136500  1
  C  C69  1  0.00000000  0.00000000  0.50000000  1
  C  C70  1  0.00000000  0.01662500  0.82863500  1
  C  C71  1  0.00000000  0.48337500  0.32863500  1
  C  C72  1  0.00000000  0.51662500  0.67136500  1
  C  C73  1  0.00000000  0.50000000  0.00000000  1
  C  C74  1  0.25031900  0.20012100  0.28904500  1
  C  C75  1  0.27890000  0.19582700  0.63220600  1
  C  C76  1  0.24777800  0.20739900  0.95838800  1
  C  C77  1  0.27890000  0.80417300  0.36779400  1
  C  C78  1  0.25031900  0.79987900  0.71095500  1
  C  C79  1  0.24777800  0.79260100  0.04161200  1
  C  C80  1  0.75222200  0.29260100  0.45838800  1
  C  C81  1  0.74968100  0.29987900  0.78904500  1
  C  C82  1  0.72110000  0.30417300  0.13220600  1
  C  C83  1  0.74968100  0.70012100  0.21095500  1
  C  C84  1  0.75222200  0.70739900  0.54161200  1
  C  C85  1  0.72110000  0.69582700  0.86779400  1
