# generated using pymatgen
data_Cu2NiC16
_symmetry_space_group_name_H-M   'P 1'
_cell_length_a   10.13563693
_cell_length_b   10.13563693
_cell_length_c   5.11646200
_cell_angle_alpha   90.00000000
_cell_angle_beta   90.00000000
_cell_angle_gamma   90.12987726
_symmetry_Int_Tables_number   1
_chemical_formula_structural   Cu2NiC16
_chemical_formula_sum   'Cu4 Ni2 C32'
_cell_volume   525.61860281
_cell_formula_units_Z   2
loop_
 _symmetry_equiv_pos_site_id
 _symmetry_equiv_pos_as_xyz
  1  'x, y, z'
loop_
 _atom_site_type_symbol
 _atom_site_label
 _atom_site_symmetry_multiplicity
 _atom_site_fract_x
 _atom_site_fract_y
 _atom_site_fract_z
 _atom_site_occupancy
  Ni  Ni0  1  0.50000000  0.50000000  0.50000000  1
  Ni  Ni1  1  0.00000000  0.00000000  0.50000000  1
  Cu  Cu2  1  0.00000000  0.50000000  0.50000000  1
  Cu  Cu3  1  0.50000000  0.00000000  0.50000000  1
  Cu  Cu4  1  0.75000000  0.75000000  0.50000000  1
  Cu  Cu5  1  0.25000000  0.25000000  0.50000000  1
  C  C6  1  0.75087200  0.02113300  0.99798900  1
  C  C7  1  0.24912800  0.97886700  0.00201100  1
  C  C8  1  0.25087200  0.52113300  0.00201100  1
  C  C9  1  0.74912800  0.47886700  0.99798900  1
  C  C10  1  0.02113300  0.75087200  0.00201100  1
  C  C11  1  0.97886700  0.24912800  0.99798900  1
  C  C12  1  0.52113300  0.25087200  0.99798900  1
  C  C13  1  0.47886700  0.74912800  0.00201100  1
  C  C14  1  0.56671900  0.67762800  0.25468000  1
  C  C15  1  0.05844300  0.32718300  0.25898200  1
  C  C16  1  0.44155700  0.17281700  0.25898200  1
  C  C17  1  0.93328100  0.82237200  0.25468000  1
  C  C18  1  0.43328100  0.32237200  0.74532000  1
  C  C19  1  0.94155700  0.67281700  0.74101800  1
  C  C20  1  0.55844300  0.82718300  0.74101800  1
  C  C21  1  0.06671900  0.17762800  0.74532000  1
  C  C22  1  0.67762800  0.56671900  0.74532000  1
  C  C23  1  0.32718300  0.05844300  0.74101800  1
  C  C24  1  0.17281700  0.44155700  0.74101800  1
  C  C25  1  0.82237200  0.93328100  0.74532000  1
  C  C26  1  0.32237200  0.43328100  0.25468000  1
  C  C27  1  0.67281700  0.94155700  0.25898200  1
  C  C28  1  0.82718300  0.55844300  0.25898200  1
  C  C29  1  0.17762800  0.06671900  0.25468000  1
  C  C30  1  0.87123500  0.12876500  0.15319200  1
  C  C31  1  0.37596200  0.87596200  0.16162600  1
  C  C32  1  0.12403800  0.62403800  0.16162600  1
  C  C33  1  0.62876500  0.37123500  0.15319200  1
  C  C34  1  0.12876500  0.87123500  0.84680800  1
  C  C35  1  0.62403800  0.12403800  0.83837400  1
  C  C36  1  0.87596200  0.37596200  0.83837400  1
  C  C37  1  0.37123500  0.62876500  0.84680800  1
