# generated using pymatgen
data_Cu4Ni4C7
_symmetry_space_group_name_H-M   'P 1'
_cell_length_a   6.79878600
_cell_length_b   6.82889779
_cell_length_c   6.84828783
_cell_angle_alpha   91.38092628
_cell_angle_beta   90.33769652
_cell_angle_gamma   90.05175912
_symmetry_Int_Tables_number   1
_chemical_formula_structural   Cu4Ni4C7
_chemical_formula_sum   'Cu4 Ni4 C7'
_cell_volume   317.85573856
_cell_formula_units_Z   1
loop_
 _symmetry_equiv_pos_site_id
 _symmetry_equiv_pos_as_xyz
  1  'x, y, z'
loop_
 _atom_site_type_symbol
 _atom_site_label
 _atom_site_symmetry_multiplicity
 _atom_site_fract_x
 _atom_site_fract_y
 _atom_site_fract_z
 _atom_site_occupancy
  C  C0  1  0.99230900  0.00331600  0.00102200  1
  C  C1  1  0.44298000  0.76455800  0.41392000  1
  C  C2  1  0.58750100  0.43837400  0.24541100  1
  C  C3  1  0.76391200  0.58628600  0.56171300  1
  C  C4  1  0.56307700  0.23119600  0.58458700  1
  C  C5  1  0.41909500  0.56034100  0.75676800  1
  C  C6  1  0.23200300  0.41305400  0.44356200  1
  Ni  Ni7  1  0.25587200  0.60160400  0.11985600  1
  Ni  Ni8  1  0.12145600  0.74730900  0.60919200  1
  Ni  Ni9  1  0.38806600  0.11593100  0.25654100  1
  Ni  Ni10  1  0.74696300  0.39125500  0.88147300  1
  Cu  Cu11  1  0.75351300  0.75219200  0.25624300  1
  Cu  Cu12  1  0.25446000  0.24360000  0.74573700  1
  Cu  Cu13  1  0.87429000  0.27624300  0.40333300  1
  Cu  Cu14  1  0.60450600  0.87474000  0.72064300  1
