# generated using pymatgen
data_Cu4(Ni2C)5
_symmetry_space_group_name_H-M   'P 1'
_cell_length_a   14.27374900
_cell_length_b   14.27374900
_cell_length_c   4.65536100
_cell_angle_alpha   90.00000000
_cell_angle_beta   90.00000000
_cell_angle_gamma   90.00000000
_symmetry_Int_Tables_number   1
_chemical_formula_structural   Cu4(Ni2C)5
_chemical_formula_sum   'Cu8 Ni20 C10'
_cell_volume   948.48283356
_cell_formula_units_Z   2
loop_
 _symmetry_equiv_pos_site_id
 _symmetry_equiv_pos_as_xyz
  1  'x, y, z'
loop_
 _atom_site_type_symbol
 _atom_site_label
 _atom_site_symmetry_multiplicity
 _atom_site_fract_x
 _atom_site_fract_y
 _atom_site_fract_z
 _atom_site_occupancy
  C  C0  1  0.50000000  0.50000000  0.00000000  1
  C  C1  1  0.00000000  0.00000000  0.00000000  1
  C  C2  1  0.67794800  0.17794800  0.50000000  1
  C  C3  1  0.32205200  0.82205200  0.50000000  1
  C  C4  1  0.17794800  0.32205200  0.50000000  1
  C  C5  1  0.82205200  0.67794800  0.50000000  1
  C  C6  1  0.88798100  0.38798100  0.50000000  1
  C  C7  1  0.11201900  0.61201900  0.50000000  1
  C  C8  1  0.38798100  0.11201900  0.50000000  1
  C  C9  1  0.61201900  0.88798100  0.50000000  1
  Ni  Ni10  1  0.56935100  0.06935100  0.00000000  1
  Ni  Ni11  1  0.43064900  0.93064900  0.00000000  1
  Ni  Ni12  1  0.06935100  0.43064900  0.00000000  1
  Ni  Ni13  1  0.93064900  0.56935100  0.00000000  1
  Ni  Ni14  1  0.65409800  0.69758700  0.00000000  1
  Ni  Ni15  1  0.34590200  0.30241300  0.00000000  1
  Ni  Ni16  1  0.15409800  0.80241300  0.00000000  1
  Ni  Ni17  1  0.84590200  0.19758700  0.00000000  1
  Ni  Ni18  1  0.30241300  0.65409800  0.00000000  1
  Ni  Ni19  1  0.69758700  0.34590200  0.00000000  1
  Ni  Ni20  1  0.19758700  0.15409800  0.00000000  1
  Ni  Ni21  1  0.80241300  0.84590200  0.00000000  1
  Ni  Ni22  1  0.66376100  0.50492700  0.50000000  1
  Ni  Ni23  1  0.33623900  0.49507300  0.50000000  1
  Ni  Ni24  1  0.16376100  0.99507300  0.50000000  1
  Ni  Ni25  1  0.83623900  0.00492700  0.50000000  1
  Ni  Ni26  1  0.49507300  0.66376100  0.50000000  1
  Ni  Ni27  1  0.50492700  0.33623900  0.50000000  1
  Ni  Ni28  1  0.00492700  0.16376100  0.50000000  1
  Ni  Ni29  1  0.99507300  0.83623900  0.50000000  1
  Cu  Cu30  1  0.74624800  0.52763800  0.00000000  1
  Cu  Cu31  1  0.25375200  0.47236200  0.00000000  1
  Cu  Cu32  1  0.24624800  0.97236200  0.00000000  1
  Cu  Cu33  1  0.75375200  0.02763800  0.00000000  1
  Cu  Cu34  1  0.47236200  0.74624800  0.00000000  1
  Cu  Cu35  1  0.52763800  0.25375200  0.00000000  1
  Cu  Cu36  1  0.02763800  0.24624800  0.00000000  1
  Cu  Cu37  1  0.97236200  0.75375200  0.00000000  1
