# generated using pymatgen
data_Cu2Ni2C7
_symmetry_space_group_name_H-M   'P 1'
_cell_length_a   3.77207847
_cell_length_b   5.91312648
_cell_length_c   5.91312648
_cell_angle_alpha   87.53585049
_cell_angle_beta   88.10010622
_cell_angle_gamma   91.89989378
_symmetry_Int_Tables_number   1
_chemical_formula_structural   Cu2Ni2C7
_chemical_formula_sum   'Cu2 Ni2 C7'
_cell_volume   131.61758418
_cell_formula_units_Z   1
loop_
 _symmetry_equiv_pos_site_id
 _symmetry_equiv_pos_as_xyz
  1  'x, y, z'
loop_
 _atom_site_type_symbol
 _atom_site_label
 _atom_site_symmetry_multiplicity
 _atom_site_fract_x
 _atom_site_fract_y
 _atom_site_fract_z
 _atom_site_occupancy
  C  C0  1  0.00000000  0.00445100  0.00445100  1
  C  C1  1  0.78680100  0.80946100  0.38318000  1
  C  C2  1  0.21319900  0.38318000  0.80946100  1
  C  C3  1  0.20075900  0.74689500  0.34421700  1
  C  C4  1  0.10787800  0.21161100  0.60562200  1
  C  C5  1  0.79924100  0.34421700  0.74689500  1
  C  C6  1  0.89212200  0.60562200  0.21161100  1
  Ni  Ni7  1  0.03174000  0.26206600  0.76317400  1
  Ni  Ni8  1  0.96826000  0.76317400  0.26206600  1
  Cu  Cu9  1  0.50000000  0.81024100  0.81024100  1
  Cu  Cu10  1  0.50000000  0.19708200  0.19708200  1
