# generated using pymatgen
data_Cu2NiC18
_symmetry_space_group_name_H-M   'P 1'
_cell_length_a   3.29155100
_cell_length_b   10.05594200
_cell_length_c   10.05611522
_cell_angle_alpha   60.00002000
_cell_angle_beta   89.99994603
_cell_angle_gamma   90.00014370
_symmetry_Int_Tables_number   1
_chemical_formula_structural   Cu2NiC18
_chemical_formula_sum   'Cu2 Ni1 C18'
_cell_volume   288.25995089
_cell_formula_units_Z   1
loop_
 _symmetry_equiv_pos_site_id
 _symmetry_equiv_pos_as_xyz
  1  'x, y, z'
loop_
 _atom_site_type_symbol
 _atom_site_label
 _atom_site_symmetry_multiplicity
 _atom_site_fract_x
 _atom_site_fract_y
 _atom_site_fract_z
 _atom_site_occupancy
  Ni  Ni0  1  0.66735000  0.99999700  0.99999300  1
  Cu  Cu1  1  0.74966400  0.66666900  0.66667900  1
  Cu  Cu2  1  0.24966300  0.33333200  0.33333300  1
  C  C3  1  0.75024900  0.35374700  0.65167100  1
  C  C4  1  0.75024700  0.99458800  0.35375300  1
  C  C5  1  0.75025000  0.65165500  0.99457900  1
  C  C6  1  0.24745400  0.64798200  0.34756000  1
  C  C7  1  0.24745300  0.00442600  0.64799100  1
  C  C8  1  0.24744400  0.34760400  0.00444600  1
  C  C9  1  0.74903700  0.13439100  0.46808300  1
  C  C10  1  0.74904500  0.39752100  0.13439100  1
  C  C11  1  0.74904200  0.46809300  0.39751800  1
  C  C12  1  0.24995800  0.86826600  0.53035900  1
  C  C13  1  0.24995900  0.60136900  0.86827900  1
  C  C14  1  0.24996100  0.53036000  0.60137400  1
  C  C15  1  0.74843900  0.88968400  0.80329300  1
  C  C16  1  0.74844400  0.30702600  0.88968500  1
  C  C17  1  0.74843300  0.80329100  0.30701300  1
  C  C18  1  0.24696100  0.10191900  0.18644800  1
  C  C19  1  0.24697200  0.71162500  0.10192500  1
  C  C20  1  0.24697500  0.18645600  0.71162700  1
