# generated using pymatgen
data_Cu4Ni5C4
_symmetry_space_group_name_H-M   'P 1'
_cell_length_a   4.07393900
_cell_length_b   14.69206600
_cell_length_c   16.81982700
_cell_angle_alpha   90.00000000
_cell_angle_beta   90.00000000
_cell_angle_gamma   90.00000000
_symmetry_Int_Tables_number   1
_chemical_formula_structural   Cu4Ni5C4
_chemical_formula_sum   'Cu16 Ni20 C16'
_cell_volume   1006.74369199
_cell_formula_units_Z   4
loop_
 _symmetry_equiv_pos_site_id
 _symmetry_equiv_pos_as_xyz
  1  'x, y, z'
loop_
 _atom_site_type_symbol
 _atom_site_label
 _atom_site_symmetry_multiplicity
 _atom_site_fract_x
 _atom_site_fract_y
 _atom_site_fract_z
 _atom_site_occupancy
  C  C0  1  0.25000000  0.26107600  0.12981300  1
  C  C1  1  0.75000000  0.73892400  0.87018700  1
  C  C2  1  0.75000000  0.76107600  0.37018700  1
  C  C3  1  0.25000000  0.23892400  0.62981300  1
  C  C4  1  0.25000000  0.08428700  0.37916800  1
  C  C5  1  0.75000000  0.91571300  0.62083200  1
  C  C6  1  0.75000000  0.58428700  0.12083200  1
  C  C7  1  0.25000000  0.41571300  0.87916800  1
  C  C8  1  0.25000000  0.58082000  0.62051600  1
  C  C9  1  0.75000000  0.41918000  0.37948400  1
  C  C10  1  0.75000000  0.08082000  0.87948400  1
  C  C11  1  0.25000000  0.91918000  0.12051600  1
  C  C12  1  0.25000000  0.58946500  0.29144200  1
  C  C13  1  0.75000000  0.41053500  0.70855800  1
  C  C14  1  0.75000000  0.08946500  0.20855800  1
  C  C15  1  0.25000000  0.91053500  0.79144200  1
  Ni  Ni16  1  0.25000000  0.71582300  0.02133600  1
  Ni  Ni17  1  0.75000000  0.28417700  0.97866400  1
  Ni  Ni18  1  0.75000000  0.21582300  0.47866400  1
  Ni  Ni19  1  0.25000000  0.78417700  0.52133600  1
  Ni  Ni20  1  0.25000000  0.09657000  0.01633700  1
  Ni  Ni21  1  0.75000000  0.90343000  0.98366300  1
  Ni  Ni22  1  0.75000000  0.59657000  0.48366300  1
  Ni  Ni23  1  0.25000000  0.40343000  0.51633700  1
  Ni  Ni24  1  0.25000000  0.89944300  0.29785400  1
  Ni  Ni25  1  0.75000000  0.10055700  0.70214600  1
  Ni  Ni26  1  0.75000000  0.39944300  0.20214600  1
  Ni  Ni27  1  0.25000000  0.60055700  0.79785400  1
  Ni  Ni28  1  0.25000000  0.27468100  0.32048100  1
  Ni  Ni29  1  0.75000000  0.72531900  0.67951900  1
  Ni  Ni30  1  0.75000000  0.77468100  0.17951900  1
  Ni  Ni31  1  0.25000000  0.22531900  0.82048100  1
  Ni  Ni32  1  0.25000000  0.44291800  0.05416500  1
  Ni  Ni33  1  0.75000000  0.55708200  0.94583500  1
  Ni  Ni34  1  0.75000000  0.94291800  0.44583500  1
  Ni  Ni35  1  0.25000000  0.05708200  0.55416500  1
  Cu  Cu36  1  0.25000000  0.09137700  0.20842000  1
  Cu  Cu37  1  0.75000000  0.90862300  0.79158000  1
  Cu  Cu38  1  0.75000000  0.59137700  0.29158000  1
  Cu  Cu39  1  0.25000000  0.40862300  0.70842000  1
  Cu  Cu40  1  0.25000000  0.69897900  0.34570100  1
  Cu  Cu41  1  0.75000000  0.30102100  0.65429900  1
  Cu  Cu42  1  0.75000000  0.19897900  0.15429900  1
  Cu  Cu43  1  0.25000000  0.80102100  0.84570100  1
  Cu  Cu44  1  0.25000000  0.58997600  0.18164300  1
  Cu  Cu45  1  0.75000000  0.41002400  0.81835700  1
  Cu  Cu46  1  0.75000000  0.08997600  0.31835700  1
  Cu  Cu47  1  0.25000000  0.91002400  0.68164300  1
  Cu  Cu48  1  0.25000000  0.48157400  0.34827400  1
  Cu  Cu49  1  0.75000000  0.51842600  0.65172600  1
  Cu  Cu50  1  0.75000000  0.98157400  0.15172600  1
  Cu  Cu51  1  0.25000000  0.01842600  0.84827400  1
