# generated using pymatgen
data_Cu2Ni8C13
_symmetry_space_group_name_H-M   'P 1'
_cell_length_a   5.81926200
_cell_length_b   11.16593600
_cell_length_c   14.75654400
_cell_angle_alpha   90.00000000
_cell_angle_beta   90.00000000
_cell_angle_gamma   90.00000000
_symmetry_Int_Tables_number   1
_chemical_formula_structural   Cu2Ni8C13
_chemical_formula_sum   'Cu8 Ni32 C52'
_cell_volume   958.84344193
_cell_formula_units_Z   4
loop_
 _symmetry_equiv_pos_site_id
 _symmetry_equiv_pos_as_xyz
  1  'x, y, z'
loop_
 _atom_site_type_symbol
 _atom_site_label
 _atom_site_symmetry_multiplicity
 _atom_site_fract_x
 _atom_site_fract_y
 _atom_site_fract_z
 _atom_site_occupancy
  C  C0  1  0.62627800  0.25000000  0.67040200  1
  C  C1  1  0.87372200  0.25000000  0.17040200  1
  C  C2  1  0.37372200  0.75000000  0.32959800  1
  C  C3  1  0.12627800  0.75000000  0.82959800  1
  Ni  Ni4  1  0.98110300  0.31955100  0.81999300  1
  Ni  Ni5  1  0.51889700  0.18044900  0.31999300  1
  Ni  Ni6  1  0.01889700  0.81955100  0.18000700  1
  Ni  Ni7  1  0.48110300  0.68044900  0.68000700  1
  Ni  Ni8  1  0.01889700  0.68044900  0.18000700  1
  Ni  Ni9  1  0.48110300  0.81955100  0.68000700  1
  Ni  Ni10  1  0.98110300  0.18044900  0.81999300  1
  Ni  Ni11  1  0.51889700  0.31955100  0.31999300  1
  Ni  Ni12  1  0.28996500  0.44418000  0.59444000  1
  Ni  Ni13  1  0.21003500  0.05582000  0.09444000  1
  Ni  Ni14  1  0.71003500  0.94418000  0.40556000  1
  Ni  Ni15  1  0.78996500  0.55582000  0.90556000  1
  Ni  Ni16  1  0.71003500  0.55582000  0.40556000  1
  Ni  Ni17  1  0.78996500  0.94418000  0.90556000  1
  Ni  Ni18  1  0.28996500  0.05582000  0.59444000  1
  Ni  Ni19  1  0.21003500  0.44418000  0.09444000  1
  Ni  Ni20  1  0.36760100  0.37339500  0.50798500  1
  Ni  Ni21  1  0.13239900  0.12660500  0.00798500  1
  Ni  Ni22  1  0.63239900  0.87339500  0.49201500  1
  Ni  Ni23  1  0.86760100  0.62660500  0.99201500  1
  Ni  Ni24  1  0.63239900  0.62660500  0.49201500  1
  Ni  Ni25  1  0.86760100  0.87339500  0.99201500  1
  Ni  Ni26  1  0.36760100  0.12660500  0.50798500  1
  Ni  Ni27  1  0.13239900  0.37339500  0.00798500  1
  Ni  Ni28  1  0.84727300  0.32144100  0.48635700  1
  Ni  Ni29  1  0.65272700  0.17855900  0.98635700  1
  Ni  Ni30  1  0.15272700  0.82144100  0.51364300  1
  Ni  Ni31  1  0.34727300  0.67855900  0.01364300  1
  Ni  Ni32  1  0.15272700  0.67855900  0.51364300  1
  Ni  Ni33  1  0.34727300  0.82144100  0.01364300  1
  Ni  Ni34  1  0.84727300  0.17855900  0.48635700  1
  Ni  Ni35  1  0.65272700  0.32144100  0.98635700  1
  Cu  Cu36  1  0.88503500  0.55538100  0.64814600  1
  Cu  Cu37  1  0.61496500  0.94461900  0.14814600  1
  Cu  Cu38  1  0.11496500  0.05538100  0.35185400  1
  Cu  Cu39  1  0.38503500  0.44461900  0.85185400  1
  Cu  Cu40  1  0.11496500  0.44461900  0.35185400  1
  Cu  Cu41  1  0.38503500  0.05538100  0.85185400  1
  Cu  Cu42  1  0.88503500  0.94461900  0.64814600  1
  Cu  Cu43  1  0.61496500  0.55538100  0.14814600  1
  C  C44  1  0.80803400  0.25000000  0.52391500  1
  C  C45  1  0.69196600  0.25000000  0.02391500  1
  C  C46  1  0.19196600  0.75000000  0.47608500  1
  C  C47  1  0.30803400  0.75000000  0.97608500  1
  C  C48  1  0.38764300  0.37604400  0.57504300  1
  C  C49  1  0.11235700  0.12395600  0.07504300  1
  C  C50  1  0.61235700  0.87604400  0.42495700  1
  C  C51  1  0.88764300  0.62395600  0.92495700  1
  C  C52  1  0.61235700  0.62395600  0.42495700  1
  C  C53  1  0.88764300  0.87604400  0.92495700  1
  C  C54  1  0.38764300  0.12395600  0.57504300  1
  C  C55  1  0.11235700  0.37604400  0.07504300  1
  C  C56  1  0.84691700  0.42490600  0.66744500  1
  C  C57  1  0.65308300  0.07509400  0.16744500  1
  C  C58  1  0.15308300  0.92490600  0.33255500  1
  C  C59  1  0.34691700  0.57509400  0.83255500  1
  C  C60  1  0.15308300  0.57509400  0.33255500  1
  C  C61  1  0.34691700  0.92490600  0.83255500  1
  C  C62  1  0.84691700  0.07509400  0.66744500  1
  C  C63  1  0.65308300  0.42490600  0.16744500  1
  C  C64  1  0.09202700  0.56616600  0.59126600  1
  C  C65  1  0.40797300  0.93383400  0.09126600  1
  C  C66  1  0.90797300  0.06616600  0.40873400  1
  C  C67  1  0.59202700  0.43383400  0.90873400  1
  C  C68  1  0.90797300  0.43383400  0.40873400  1
  C  C69  1  0.59202700  0.06616600  0.90873400  1
  C  C70  1  0.09202700  0.93383400  0.59126600  1
  C  C71  1  0.40797300  0.56616600  0.09126600  1
  C  C72  1  0.92155000  0.61762100  0.73744500  1
  C  C73  1  0.57845000  0.88237900  0.23744500  1
  C  C74  1  0.07845000  0.11762100  0.26255500  1
  C  C75  1  0.42155000  0.38237900  0.76255500  1
  C  C76  1  0.07845000  0.38237900  0.26255500  1
  C  C77  1  0.42155000  0.11762100  0.76255500  1
  C  C78  1  0.92155000  0.88237900  0.73744500  1
  C  C79  1  0.57845000  0.61762100  0.23744500  1
  C  C80  1  0.67873200  0.60774900  0.60544200  1
  C  C81  1  0.82126800  0.89225100  0.10544200  1
  C  C82  1  0.32126800  0.10774900  0.39455800  1
  C  C83  1  0.17873200  0.39225100  0.89455800  1
  C  C84  1  0.32126800  0.39225100  0.39455800  1
  C  C85  1  0.17873200  0.10774900  0.89455800  1
  C  C86  1  0.67873200  0.89225100  0.60544200  1
  C  C87  1  0.82126800  0.60774900  0.10544200  1
  C  C88  1  0.89696200  0.25000000  0.79439000  1
  C  C89  1  0.60303800  0.25000000  0.29439000  1
  C  C90  1  0.10303800  0.75000000  0.20561000  1
  C  C91  1  0.39696200  0.75000000  0.70561000  1
