# generated using pymatgen
data_Cu3Ni2
_symmetry_space_group_name_H-M   'P 1'
_cell_length_a   6.39507200
_cell_length_b   6.39507200
_cell_length_c   6.39507200
_cell_angle_alpha   90.00000000
_cell_angle_beta   90.00000000
_cell_angle_gamma   90.00000000
_symmetry_Int_Tables_number   1
_chemical_formula_structural   Cu3Ni2
_chemical_formula_sum   'Cu12 Ni8'
_cell_volume   261.53891352
_cell_formula_units_Z   4
loop_
 _symmetry_equiv_pos_site_id
 _symmetry_equiv_pos_as_xyz
  1  'x, y, z'
loop_
 _atom_site_type_symbol
 _atom_site_label
 _atom_site_symmetry_multiplicity
 _atom_site_fract_x
 _atom_site_fract_y
 _atom_site_fract_z
 _atom_site_occupancy
  Ni  Ni0  1  0.17910500  0.82089500  0.32089500  1
  Ni  Ni1  1  0.32089500  0.17910500  0.82089500  1
  Ni  Ni2  1  0.82089500  0.32089500  0.17910500  1
  Ni  Ni3  1  0.67910500  0.67910500  0.67910500  1
  Ni  Ni4  1  0.57089500  0.42910500  0.92910500  1
  Ni  Ni5  1  0.42910500  0.92910500  0.57089500  1
  Ni  Ni6  1  0.92910500  0.57089500  0.42910500  1
  Ni  Ni7  1  0.07089500  0.07089500  0.07089500  1
  Cu  Cu8  1  0.79640600  0.95359400  0.37500000  1
  Cu  Cu9  1  0.70359400  0.04640600  0.87500000  1
  Cu  Cu10  1  0.20359400  0.45359400  0.12500000  1
  Cu  Cu11  1  0.29640600  0.54640600  0.62500000  1
  Cu  Cu12  1  0.95359400  0.37500000  0.79640600  1
  Cu  Cu13  1  0.04640600  0.87500000  0.70359400  1
  Cu  Cu14  1  0.45359400  0.12500000  0.20359400  1
  Cu  Cu15  1  0.54640600  0.62500000  0.29640600  1
  Cu  Cu16  1  0.37500000  0.79640600  0.95359400  1
  Cu  Cu17  1  0.87500000  0.70359400  0.04640600  1
  Cu  Cu18  1  0.12500000  0.20359400  0.45359400  1
  Cu  Cu19  1  0.62500000  0.29640600  0.54640600  1
