# generated using pymatgen
data_CuNiC9
_symmetry_space_group_name_H-M   'P 1'
_cell_length_a   7.08005464
_cell_length_b   9.56310237
_cell_length_c   8.32543215
_cell_angle_alpha   100.64048564
_cell_angle_beta   82.03824264
_cell_angle_gamma   109.05040826
_symmetry_Int_Tables_number   1
_chemical_formula_structural   CuNiC9
_chemical_formula_sum   'Cu4 Ni4 C36'
_cell_volume   521.79751455
_cell_formula_units_Z   4
loop_
 _symmetry_equiv_pos_site_id
 _symmetry_equiv_pos_as_xyz
  1  'x, y, z'
loop_
 _atom_site_type_symbol
 _atom_site_label
 _atom_site_symmetry_multiplicity
 _atom_site_fract_x
 _atom_site_fract_y
 _atom_site_fract_z
 _atom_site_occupancy
  Ni  Ni0  1  0.68736600  0.57193900  0.73343600  1
  Ni  Ni1  1  0.18763400  0.07139500  0.23367300  1
  Ni  Ni2  1  0.31213400  0.42786300  0.26642200  1
  Ni  Ni3  1  0.81257100  0.92846500  0.76611600  1
  Cu  Cu4  1  0.69671100  0.88534700  0.19909300  1
  Cu  Cu5  1  0.80341700  0.61554000  0.29989900  1
  Cu  Cu6  1  0.19689900  0.38435800  0.70001500  1
  Cu  Cu7  1  0.30378800  0.11503600  0.79981300  1
  C  C8  1  0.96129400  0.20380800  0.02628100  1
  C  C9  1  0.46158200  0.70396900  0.52638100  1
  C  C10  1  0.03843100  0.79617500  0.97391200  1
  C  C11  1  0.53882100  0.29600400  0.47343300  1
  C  C12  1  0.33312000  0.63866600  0.00408900  1
  C  C13  1  0.83420200  0.13898900  0.50366300  1
  C  C14  1  0.66637900  0.36130300  0.99600200  1
  C  C15  1  0.16631000  0.86090400  0.49624300  1
  C  C16  1  0.16239000  0.68014400  0.92506600  1
  C  C17  1  0.66397900  0.18072600  0.42422000  1
  C  C18  1  0.83702700  0.31969700  0.07506700  1
  C  C19  1  0.33648800  0.81938900  0.57606600  1
  C  C20  1  0.81719400  0.04204600  0.01021600  1
  C  C21  1  0.31843400  0.54197100  0.51004300  1
  C  C22  1  0.18220500  0.95793800  0.98981000  1
  C  C23  1  0.68184400  0.45803300  0.48992500  1
  C  C24  1  0.76801400  0.43638200  0.84801500  1
  C  C25  1  0.26831500  0.93589200  0.34832300  1
  C  C26  1  0.23148700  0.56322600  0.15183900  1
  C  C27  1  0.73232800  0.06438600  0.65190300  1
  C  C28  1  0.60771000  0.47090400  0.14242700  1
  C  C29  1  0.10731400  0.97072100  0.64231900  1
  C  C30  1  0.39228200  0.52950300  0.85744600  1
  C  C31  1  0.89282200  0.02909300  0.35768200  1
  C  C32  1  0.89756300  0.75989000  0.83776900  1
  C  C33  1  0.39847000  0.25950800  0.33682800  1
  C  C34  1  0.10160500  0.23987600  0.16276000  1
  C  C35  1  0.60197200  0.74046300  0.66301800  1
  C  C36  1  0.91718300  0.77167100  0.14083600  1
  C  C37  1  0.41705100  0.27063700  0.63999500  1
  C  C38  1  0.08294700  0.22842200  0.85959300  1
  C  C39  1  0.58337400  0.72945700  0.35995000  1
  C  C40  1  0.49249500  0.21844000  0.96635300  1
  C  C41  1  0.99272500  0.71783000  0.46625800  1
  C  C42  1  0.50613000  0.78192800  0.03436500  1
  C  C43  1  0.00798900  0.28206400  0.53343800  1
