# generated using pymatgen
data_Cu5NiC
_symmetry_space_group_name_H-M   'P 1'
_cell_length_a   4.75670200
_cell_length_b   6.49847801
_cell_length_c   6.49847801
_cell_angle_alpha   97.39533667
_cell_angle_beta   111.46826621
_cell_angle_gamma   68.53173379
_symmetry_Int_Tables_number   1
_chemical_formula_structural   Cu5NiC
_chemical_formula_sum   'Cu10 Ni2 C2'
_cell_volume   173.96684270
_cell_formula_units_Z   2
loop_
 _symmetry_equiv_pos_site_id
 _symmetry_equiv_pos_as_xyz
  1  'x, y, z'
loop_
 _atom_site_type_symbol
 _atom_site_label
 _atom_site_symmetry_multiplicity
 _atom_site_fract_x
 _atom_site_fract_y
 _atom_site_fract_z
 _atom_site_occupancy
  C  C0  1  0.00000000  0.00000000  0.00000000  1
  Ni  Ni1  1  0.00000000  0.35880200  0.35880200  1
  Ni  Ni2  1  0.00000000  0.64119800  0.64119800  1
  Cu  Cu3  1  0.72492600  0.77507400  0.22492600  1
  Cu  Cu4  1  0.27507400  0.22492600  0.77507400  1
  Cu  Cu5  1  0.50000000  0.77611200  0.77611200  1
  Cu  Cu6  1  0.50000000  0.22388800  0.22388800  1
  Cu  Cu7  1  0.50000000  0.00000000  0.50000000  1
  Cu  Cu8  1  0.00000000  0.00000000  0.50000000  1
  Cu  Cu9  1  0.50000000  0.50000000  0.00000000  1
  Cu  Cu10  1  0.00000000  0.50000000  0.00000000  1
  Cu  Cu11  1  0.64004600  0.35995400  0.64004600  1
  Cu  Cu12  1  0.35995400  0.64004600  0.35995400  1
  C  C13  1  0.50000000  0.00000000  0.00000000  1
