# generated using pymatgen
data_Cu4Ni4C29
_symmetry_space_group_name_H-M   'P 1'
_cell_length_a   16.32884093
_cell_length_b   16.32884093
_cell_length_c   16.32884093
_cell_angle_alpha   160.22674889
_cell_angle_beta   160.22674889
_cell_angle_gamma   28.10599030
_symmetry_Int_Tables_number   1
_chemical_formula_structural   Cu4Ni4C29
_chemical_formula_sum   'Cu4 Ni4 C29'
_cell_volume   498.04213957
_cell_formula_units_Z   1
loop_
 _symmetry_equiv_pos_site_id
 _symmetry_equiv_pos_as_xyz
  1  'x, y, z'
loop_
 _atom_site_type_symbol
 _atom_site_label
 _atom_site_symmetry_multiplicity
 _atom_site_fract_x
 _atom_site_fract_y
 _atom_site_fract_z
 _atom_site_occupancy
  C  C0  1  0.86956400  0.36956400  0.50000000  1
  C  C1  1  0.13043600  0.63043600  0.50000000  1
  C  C2  1  0.36956400  0.86956400  0.50000000  1
  C  C3  1  0.63043600  0.13043600  0.50000000  1
  C  C4  1  0.00000000  0.50000000  0.50000000  1
  C  C5  1  0.25000000  0.75000000  0.50000000  1
  C  C6  1  0.50000000  0.00000000  0.50000000  1
  C  C7  1  0.75000000  0.25000000  0.50000000  1
  Ni  Ni8  1  0.56012900  0.56012900  0.00000000  1
  Ni  Ni9  1  0.06603200  0.06603200  0.00000000  1
  Ni  Ni10  1  0.43987100  0.43987100  0.00000000  1
  Ni  Ni11  1  0.93396800  0.93396800  0.00000000  1
  Cu  Cu12  1  0.30573600  0.30573600  0.00000000  1
  Cu  Cu13  1  0.80636600  0.80636600  0.00000000  1
  Cu  Cu14  1  0.19363400  0.19363400  0.00000000  1
  Cu  Cu15  1  0.69426400  0.69426400  0.00000000  1
  C  C16  1  0.29175200  0.29175200  0.48067500  1
  C  C17  1  0.54741300  0.54741300  0.49683200  1
  C  C18  1  0.81107700  0.81107700  0.51932500  1
  C  C19  1  0.05058100  0.05058100  0.50316800  1
  C  C20  1  0.29175200  0.81107700  0.00000000  1
  C  C21  1  0.54741300  0.05058100  0.00000000  1
  C  C22  1  0.81107700  0.29175200  0.00000000  1
  C  C23  1  0.05058100  0.54741300  0.00000000  1
  C  C24  1  0.18892300  0.18892300  0.48067500  1
  C  C25  1  0.45258700  0.45258700  0.50316800  1
  C  C26  1  0.70824800  0.70824800  0.51932500  1
  C  C27  1  0.94941900  0.94941900  0.49683200  1
  C  C28  1  0.18892300  0.70824800  0.00000000  1
  C  C29  1  0.45258700  0.94941900  0.00000000  1
  C  C30  1  0.70824800  0.18892300  0.00000000  1
  C  C31  1  0.94941900  0.45258700  0.00000000  1
  C  C32  1  0.38066600  0.38066600  0.00000000  1
  C  C33  1  0.61933400  0.61933400  0.00000000  1
  C  C34  1  0.87475200  0.87475200  0.00000000  1
  C  C35  1  0.12524800  0.12524800  0.00000000  1
  C  C36  1  0.50000000  0.50000000  0.00000000  1
