# generated using pymatgen
data_Cu6Ni2C19
_symmetry_space_group_name_H-M   'P 1'
_cell_length_a   6.37232137
_cell_length_b   6.37232137
_cell_length_c   20.09228600
_cell_angle_alpha   90.00000000
_cell_angle_beta   90.00000000
_cell_angle_gamma   119.99999341
_symmetry_Int_Tables_number   1
_chemical_formula_structural   Cu6Ni2C19
_chemical_formula_sum   'Cu12 Ni4 C38'
_cell_volume   706.57025632
_cell_formula_units_Z   2
loop_
 _symmetry_equiv_pos_site_id
 _symmetry_equiv_pos_as_xyz
  1  'x, y, z'
loop_
 _atom_site_type_symbol
 _atom_site_label
 _atom_site_symmetry_multiplicity
 _atom_site_fract_x
 _atom_site_fract_y
 _atom_site_fract_z
 _atom_site_occupancy
  Ni  Ni0  1  0.33333300  0.66666700  0.50000000  1
  Ni  Ni1  1  0.66666700  0.33333300  0.00000000  1
  Ni  Ni2  1  0.66666700  0.33333300  0.50000000  1
  Ni  Ni3  1  0.33333300  0.66666700  0.00000000  1
  Cu  Cu4  1  0.64860300  0.64860300  0.84450000  1
  Cu  Cu5  1  0.35139700  0.00000000  0.84450000  1
  Cu  Cu6  1  0.00000000  0.35139700  0.84450000  1
  Cu  Cu7  1  0.00000000  0.64860300  0.34450000  1
  Cu  Cu8  1  0.35139700  0.00000000  0.65550000  1
  Cu  Cu9  1  0.35139700  0.35139700  0.34450000  1
  Cu  Cu10  1  0.64860300  0.00000000  0.34450000  1
  Cu  Cu11  1  0.35139700  0.35139700  0.15550000  1
  Cu  Cu12  1  0.00000000  0.64860300  0.15550000  1
  Cu  Cu13  1  0.00000000  0.35139700  0.65550000  1
  Cu  Cu14  1  0.64860300  0.64860300  0.65550000  1
  Cu  Cu15  1  0.64860300  0.00000000  0.15550000  1
  C  C16  1  0.66666700  0.33333300  0.14477100  1
  C  C17  1  0.33333300  0.66666700  0.64477100  1
  C  C18  1  0.33333300  0.66666700  0.35522900  1
  C  C19  1  0.66666700  0.33333300  0.85522900  1
  C  C20  1  0.33333300  0.66666700  0.85522900  1
  C  C21  1  0.66666700  0.33333300  0.35522900  1
  C  C22  1  0.66666700  0.33333300  0.64477100  1
  C  C23  1  0.33333300  0.66666700  0.14477100  1
  C  C24  1  0.40070400  0.00000000  0.75000000  1
  C  C25  1  0.40070400  0.40070400  0.25000000  1
  C  C26  1  0.00000000  0.59929600  0.25000000  1
  C  C27  1  0.00000000  0.40070400  0.75000000  1
  C  C28  1  0.59929600  0.59929600  0.75000000  1
  C  C29  1  0.59929600  0.00000000  0.25000000  1
  C  C30  1  0.61543600  0.61543600  0.94563600  1
  C  C31  1  0.38456400  0.00000000  0.94563600  1
  C  C32  1  0.00000000  0.24000800  0.15510100  1
  C  C33  1  0.75999200  0.00000000  0.65510100  1
  C  C34  1  0.24000800  0.24000800  0.65510100  1
  C  C35  1  0.75999200  0.75999200  0.15510100  1
  C  C36  1  0.24000800  0.00000000  0.15510100  1
  C  C37  1  0.75999200  0.75999200  0.34489900  1
  C  C38  1  0.00000000  0.24000800  0.34489900  1
  C  C39  1  0.00000000  0.75999200  0.65510100  1
  C  C40  1  0.24000800  0.00000000  0.34489900  1
  C  C41  1  0.75999200  0.00000000  0.84489900  1
  C  C42  1  0.24000800  0.24000800  0.84489900  1
  C  C43  1  0.00000000  0.75999200  0.84489900  1
  C  C44  1  0.61543600  0.00000000  0.05436400  1
  C  C45  1  0.61543600  0.61543600  0.55436400  1
  C  C46  1  0.00000000  0.38456400  0.55436400  1
  C  C47  1  0.00000000  0.61543600  0.05436400  1
  C  C48  1  0.38456400  0.38456400  0.05436400  1
  C  C49  1  0.61543600  0.00000000  0.44563600  1
  C  C50  1  0.38456400  0.38456400  0.44563600  1
  C  C51  1  0.38456400  0.00000000  0.55436400  1
  C  C52  1  0.00000000  0.61543600  0.44563600  1
  C  C53  1  0.00000000  0.38456400  0.94563600  1
