# generated using pymatgen
data_Cu3NiC4
_symmetry_space_group_name_H-M   'P 1'
_cell_length_a   8.63346700
_cell_length_b   8.63346700
_cell_length_c   13.24985200
_cell_angle_alpha   90.00000000
_cell_angle_beta   90.00000000
_cell_angle_gamma   90.00000000
_symmetry_Int_Tables_number   1
_chemical_formula_structural   Cu3NiC4
_chemical_formula_sum   'Cu12 Ni4 C16'
_cell_volume   987.60093839
_cell_formula_units_Z   4
loop_
 _symmetry_equiv_pos_site_id
 _symmetry_equiv_pos_as_xyz
  1  'x, y, z'
loop_
 _atom_site_type_symbol
 _atom_site_label
 _atom_site_symmetry_multiplicity
 _atom_site_fract_x
 _atom_site_fract_y
 _atom_site_fract_z
 _atom_site_occupancy
  C  C0  1  0.32840000  0.38121400  0.40320700  1
  C  C1  1  0.67160000  0.38121400  0.90320700  1
  C  C2  1  0.32840000  0.61878600  0.90320700  1
  C  C3  1  0.67160000  0.61878600  0.40320700  1
  C  C4  1  0.88121400  0.82840000  0.90320700  1
  C  C5  1  0.11878600  0.82840000  0.40320700  1
  C  C6  1  0.88121400  0.17160000  0.40320700  1
  C  C7  1  0.11878600  0.17160000  0.90320700  1
  C  C8  1  0.17160000  0.11878600  0.59679300  1
  C  C9  1  0.82840000  0.11878600  0.09679300  1
  C  C10  1  0.17160000  0.88121400  0.09679300  1
  C  C11  1  0.82840000  0.88121400  0.59679300  1
  C  C12  1  0.61878600  0.67160000  0.09679300  1
  C  C13  1  0.38121400  0.67160000  0.59679300  1
  C  C14  1  0.61878600  0.32840000  0.59679300  1
  C  C15  1  0.38121400  0.32840000  0.09679300  1
  Ni  Ni16  1  0.00000000  0.50000000  0.21094700  1
  Ni  Ni17  1  0.00000000  0.50000000  0.71094700  1
  Ni  Ni18  1  0.50000000  0.00000000  0.78905300  1
  Ni  Ni19  1  0.50000000  0.00000000  0.28905300  1
  Cu  Cu20  1  0.00000000  0.50000000  0.49360300  1
  Cu  Cu21  1  0.00000000  0.50000000  0.99360300  1
  Cu  Cu22  1  0.50000000  0.00000000  0.50639700  1
  Cu  Cu23  1  0.50000000  0.00000000  0.00639700  1
  Cu  Cu24  1  0.32839000  0.67161000  0.25000000  1
  Cu  Cu25  1  0.67161000  0.67161000  0.75000000  1
  Cu  Cu26  1  0.32839000  0.32839000  0.75000000  1
  Cu  Cu27  1  0.67161000  0.32839000  0.25000000  1
  Cu  Cu28  1  0.17161000  0.82839000  0.75000000  1
  Cu  Cu29  1  0.82839000  0.82839000  0.25000000  1
  Cu  Cu30  1  0.17161000  0.17161000  0.25000000  1
  Cu  Cu31  1  0.82839000  0.17161000  0.75000000  1
