# generated using pymatgen
data_CuNi7C32
_symmetry_space_group_name_H-M   'P 1'
_cell_length_a   7.91475549
_cell_length_b   7.91475549
_cell_length_c   7.90825700
_cell_angle_alpha   90.00000000
_cell_angle_beta   90.00000000
_cell_angle_gamma   90.03609794
_symmetry_Int_Tables_number   1
_chemical_formula_structural   CuNi7C32
_chemical_formula_sum   'Cu1 Ni7 C32'
_cell_volume   495.39964801
_cell_formula_units_Z   1
loop_
 _symmetry_equiv_pos_site_id
 _symmetry_equiv_pos_as_xyz
  1  'x, y, z'
loop_
 _atom_site_type_symbol
 _atom_site_label
 _atom_site_symmetry_multiplicity
 _atom_site_fract_x
 _atom_site_fract_y
 _atom_site_fract_z
 _atom_site_occupancy
  C  C0  1  0.75140900  0.75140900  0.75144100  1
  C  C1  1  0.24859100  0.24859100  0.75144100  1
  C  C2  1  0.75169100  0.75169100  0.24828400  1
  C  C3  1  0.24856700  0.75143300  0.24840900  1
  C  C4  1  0.24857200  0.75142800  0.75169700  1
  C  C5  1  0.75143300  0.24856700  0.24840900  1
  C  C6  1  0.24830900  0.24830900  0.24828400  1
  C  C7  1  0.75142800  0.24857200  0.75169700  1
  Ni  Ni8  1  0.50000000  0.00000000  0.00261600  1
  Ni  Ni9  1  0.00000000  0.00000000  0.49520200  1
  Ni  Ni10  1  0.50000000  0.00000000  0.49742200  1
  Ni  Ni11  1  0.00000000  0.50000000  0.00261600  1
  Ni  Ni12  1  0.50000000  0.50000000  0.00277100  1
  Ni  Ni13  1  0.00000000  0.50000000  0.49742200  1
  Ni  Ni14  1  0.50000000  0.50000000  0.49735500  1
  Cu  Cu15  1  0.00000000  0.00000000  0.00123200  1
  C  C16  1  0.00272400  0.75382300  0.00467300  1
  C  C17  1  0.49780500  0.75067000  0.00449700  1
  C  C18  1  0.00214400  0.75074600  0.49565300  1
  C  C19  1  0.49784100  0.75032400  0.49565700  1
  C  C20  1  0.99727600  0.24617700  0.00467300  1
  C  C21  1  0.50219500  0.24933000  0.00449700  1
  C  C22  1  0.99785600  0.24925400  0.49565300  1
  C  C23  1  0.50215900  0.24967600  0.49565700  1
  C  C24  1  0.00000000  0.00000000  0.24636300  1
  C  C25  1  0.50000000  0.00000000  0.24944600  1
  C  C26  1  0.00000000  0.00000000  0.75480300  1
  C  C27  1  0.50000000  0.00000000  0.75077400  1
  C  C28  1  0.00000000  0.50000000  0.24944600  1
  C  C29  1  0.50000000  0.50000000  0.24981000  1
  C  C30  1  0.00000000  0.50000000  0.75077400  1
  C  C31  1  0.50000000  0.50000000  0.75036700  1
  C  C32  1  0.75382300  0.00272400  0.00467300  1
  C  C33  1  0.24617700  0.99727600  0.00467300  1
  C  C34  1  0.75074600  0.00214400  0.49565300  1
  C  C35  1  0.24925400  0.99785600  0.49565300  1
  C  C36  1  0.75067000  0.49780500  0.00449700  1
  C  C37  1  0.24933000  0.50219500  0.00449700  1
  C  C38  1  0.75032400  0.49784100  0.49565700  1
  C  C39  1  0.24967600  0.50215900  0.49565700  1
