# generated using pymatgen
data_CuNi2
_symmetry_space_group_name_H-M   'P 1'
_cell_length_a   10.02034400
_cell_length_b   10.02034400
_cell_length_c   5.18531800
_cell_angle_alpha   90.00000000
_cell_angle_beta   90.00000000
_cell_angle_gamma   90.00000000
_symmetry_Int_Tables_number   1
_chemical_formula_structural   CuNi2
_chemical_formula_sum   'Cu10 Ni20'
_cell_volume   520.64374828
_cell_formula_units_Z   10
loop_
 _symmetry_equiv_pos_site_id
 _symmetry_equiv_pos_as_xyz
  1  'x, y, z'
loop_
 _atom_site_type_symbol
 _atom_site_label
 _atom_site_symmetry_multiplicity
 _atom_site_fract_x
 _atom_site_fract_y
 _atom_site_fract_z
 _atom_site_occupancy
  Ni  Ni0  1  0.89461300  0.10538700  0.50000000  1
  Ni  Ni1  1  0.10538700  0.89461300  0.50000000  1
  Ni  Ni2  1  0.39461300  0.39461300  0.00000000  1
  Ni  Ni3  1  0.60538700  0.60538700  0.00000000  1
  Ni  Ni4  1  0.96284500  0.37421400  0.50000000  1
  Ni  Ni5  1  0.03715500  0.62578600  0.50000000  1
  Ni  Ni6  1  0.46284500  0.12578600  0.00000000  1
  Ni  Ni7  1  0.53715500  0.87421400  0.00000000  1
  Ni  Ni8  1  0.37421400  0.96284500  0.50000000  1
  Ni  Ni9  1  0.62578600  0.03715500  0.50000000  1
  Ni  Ni10  1  0.12578600  0.46284500  0.00000000  1
  Ni  Ni11  1  0.87421400  0.53715500  0.00000000  1
  Ni  Ni12  1  0.68102100  0.31897900  0.24779900  1
  Ni  Ni13  1  0.31897900  0.68102100  0.24779900  1
  Ni  Ni14  1  0.18102100  0.18102100  0.74779900  1
  Ni  Ni15  1  0.81897900  0.81897900  0.74779900  1
  Ni  Ni16  1  0.31897900  0.68102100  0.75220100  1
  Ni  Ni17  1  0.68102100  0.31897900  0.75220100  1
  Ni  Ni18  1  0.81897900  0.81897900  0.25220100  1
  Ni  Ni19  1  0.18102100  0.18102100  0.25220100  1
  Cu  Cu20  1  0.50000000  0.50000000  0.50000000  1
  Cu  Cu21  1  0.00000000  0.00000000  0.00000000  1
  Cu  Cu22  1  0.23728000  0.43259500  0.50000000  1
  Cu  Cu23  1  0.76272000  0.56740500  0.50000000  1
  Cu  Cu24  1  0.73728000  0.06740500  0.00000000  1
  Cu  Cu25  1  0.26272000  0.93259500  0.00000000  1
  Cu  Cu26  1  0.43259500  0.23728000  0.50000000  1
  Cu  Cu27  1  0.56740500  0.76272000  0.50000000  1
  Cu  Cu28  1  0.06740500  0.73728000  0.00000000  1
  Cu  Cu29  1  0.93259500  0.26272000  0.00000000  1
