# generated using pymatgen
data_Cu30Ni7C4
_symmetry_space_group_name_H-M   'P 1'
_cell_length_a   12.83008900
_cell_length_b   12.83008900
_cell_length_c   7.13502800
_cell_angle_alpha   90.00000000
_cell_angle_beta   90.00000000
_cell_angle_gamma   90.00000000
_symmetry_Int_Tables_number   1
_chemical_formula_structural   Cu30Ni7C4
_chemical_formula_sum   'Cu60 Ni14 C8'
_cell_volume   1174.50540515
_cell_formula_units_Z   2
loop_
 _symmetry_equiv_pos_site_id
 _symmetry_equiv_pos_as_xyz
  1  'x, y, z'
loop_
 _atom_site_type_symbol
 _atom_site_label
 _atom_site_symmetry_multiplicity
 _atom_site_fract_x
 _atom_site_fract_y
 _atom_site_fract_z
 _atom_site_occupancy
  C  C0  1  0.19865000  0.30135000  0.40756600  1
  C  C1  1  0.30135000  0.80135000  0.59243400  1
  C  C2  1  0.80135000  0.69865000  0.40756600  1
  C  C3  1  0.69865000  0.19865000  0.59243400  1
  C  C4  1  0.36097800  0.13902200  0.01960400  1
  C  C5  1  0.13902200  0.63902200  0.98039600  1
  C  C6  1  0.63902200  0.86097800  0.01960400  1
  C  C7  1  0.86097800  0.36097800  0.98039600  1
  Ni  Ni8  1  0.50000000  0.00000000  0.65336200  1
  Ni  Ni9  1  0.00000000  0.50000000  0.34663800  1
  Ni  Ni10  1  0.62388200  0.12388200  0.10633300  1
  Ni  Ni11  1  0.87611800  0.62388200  0.89366700  1
  Ni  Ni12  1  0.37611800  0.87611800  0.10633300  1
  Ni  Ni13  1  0.12388200  0.37611800  0.89366700  1
  Ni  Ni14  1  0.43558100  0.32318600  0.69931700  1
  Ni  Ni15  1  0.06441900  0.82318600  0.30068300  1
  Ni  Ni16  1  0.56441900  0.67681400  0.69931700  1
  Ni  Ni17  1  0.93558100  0.17681400  0.30068300  1
  Ni  Ni18  1  0.32318600  0.56441900  0.30068300  1
  Ni  Ni19  1  0.17681400  0.06441900  0.69931700  1
  Ni  Ni20  1  0.67681400  0.43558100  0.30068300  1
  Ni  Ni21  1  0.82318600  0.93558100  0.69931700  1
  Cu  Cu22  1  0.29753700  0.20246300  0.20961600  1
  Cu  Cu23  1  0.20246300  0.70246300  0.79038400  1
  Cu  Cu24  1  0.70246300  0.79753700  0.20961600  1
  Cu  Cu25  1  0.79753700  0.29753700  0.79038400  1
  Cu  Cu26  1  0.43232800  0.93232800  0.53925200  1
  Cu  Cu27  1  0.06767200  0.43232800  0.46074800  1
  Cu  Cu28  1  0.56767200  0.06767200  0.53925200  1
  Cu  Cu29  1  0.93232800  0.56767200  0.46074800  1
  Cu  Cu30  1  0.43349300  0.06650700  0.77556100  1
  Cu  Cu31  1  0.06650700  0.56650700  0.22443900  1
  Cu  Cu32  1  0.56650700  0.93349300  0.77556100  1
  Cu  Cu33  1  0.93349300  0.43349300  0.22443900  1
  Cu  Cu34  1  0.65655100  0.15655100  0.92067800  1
  Cu  Cu35  1  0.84344900  0.65655100  0.07932200  1
  Cu  Cu36  1  0.34344900  0.84344900  0.92067800  1
  Cu  Cu37  1  0.15655100  0.34344900  0.07932200  1
  Cu  Cu38  1  0.67684800  0.17684800  0.26017800  1
  Cu  Cu39  1  0.82315200  0.67684800  0.73982200  1
  Cu  Cu40  1  0.32315200  0.82315200  0.26017800  1
  Cu  Cu41  1  0.17684800  0.32315200  0.73982200  1
  Cu  Cu42  1  0.50861200  0.14247600  0.13087900  1
  Cu  Cu43  1  0.99138800  0.64247600  0.86912100  1
  Cu  Cu44  1  0.49138800  0.85752400  0.13087900  1
  Cu  Cu45  1  0.00861200  0.35752400  0.86912100  1
  Cu  Cu46  1  0.14247600  0.49138800  0.86912100  1
  Cu  Cu47  1  0.35752400  0.99138800  0.13087900  1
  Cu  Cu48  1  0.85752400  0.50861200  0.86912100  1
  Cu  Cu49  1  0.64247600  0.00861200  0.13087900  1
  Cu  Cu50  1  0.36820300  0.28835900  0.54438400  1
  Cu  Cu51  1  0.13179700  0.78835900  0.45561600  1
  Cu  Cu52  1  0.63179700  0.71164100  0.54438400  1
  Cu  Cu53  1  0.86820300  0.21164100  0.45561600  1
  Cu  Cu54  1  0.28835900  0.63179700  0.45561600  1
  Cu  Cu55  1  0.21164100  0.13179700  0.54438400  1
  Cu  Cu56  1  0.71164100  0.36820300  0.45561600  1
  Cu  Cu57  1  0.78835900  0.86820300  0.54438400  1
  Cu  Cu58  1  0.54384700  0.28983300  0.67217300  1
  Cu  Cu59  1  0.95615300  0.78983300  0.32782700  1
  Cu  Cu60  1  0.45615300  0.71016700  0.67217300  1
  Cu  Cu61  1  0.04384700  0.21016700  0.32782700  1
  Cu  Cu62  1  0.28983300  0.45615300  0.32782700  1
  Cu  Cu63  1  0.21016700  0.95615300  0.67217300  1
  Cu  Cu64  1  0.71016700  0.54384700  0.32782700  1
  Cu  Cu65  1  0.78983300  0.04384700  0.67217300  1
  Cu  Cu66  1  0.42499100  0.43571000  0.72734000  1
  Cu  Cu67  1  0.07500900  0.93571000  0.27266000  1
  Cu  Cu68  1  0.57500900  0.56429000  0.72734000  1
  Cu  Cu69  1  0.92499100  0.06429000  0.27266000  1
  Cu  Cu70  1  0.43571000  0.57500900  0.27266000  1
  Cu  Cu71  1  0.06429000  0.07500900  0.72734000  1
  Cu  Cu72  1  0.56429000  0.42499100  0.27266000  1
  Cu  Cu73  1  0.93571000  0.92499100  0.72734000  1
  Cu  Cu74  1  0.39467000  0.27035400  0.87923100  1
  Cu  Cu75  1  0.10533000  0.77035400  0.12076900  1
  Cu  Cu76  1  0.60533000  0.72964600  0.87923100  1
  Cu  Cu77  1  0.89467000  0.22964600  0.12076900  1
  Cu  Cu78  1  0.27035400  0.60533000  0.12076900  1
  Cu  Cu79  1  0.22964600  0.10533000  0.87923100  1
  Cu  Cu80  1  0.72964600  0.39467000  0.12076900  1
  Cu  Cu81  1  0.77035400  0.89467000  0.87923100  1
