# generated using pymatgen
data_Cu5Ni4C21
_symmetry_space_group_name_H-M   'P 1'
_cell_length_a   9.20673165
_cell_length_b   9.20673165
_cell_length_c   11.71460277
_cell_angle_alpha   87.62235337
_cell_angle_beta   87.62235337
_cell_angle_gamma   61.75149318
_symmetry_Int_Tables_number   1
_chemical_formula_structural   Cu5Ni4C21
_chemical_formula_sum   'Cu10 Ni8 C42'
_cell_volume   873.69275280
_cell_formula_units_Z   2
loop_
 _symmetry_equiv_pos_site_id
 _symmetry_equiv_pos_as_xyz
  1  'x, y, z'
loop_
 _atom_site_type_symbol
 _atom_site_label
 _atom_site_symmetry_multiplicity
 _atom_site_fract_x
 _atom_site_fract_y
 _atom_site_fract_z
 _atom_site_occupancy
  Ni  Ni0  1  0.34942600  0.05106100  0.07384800  1
  Ni  Ni1  1  0.36520400  0.68041700  0.95853600  1
  Ni  Ni2  1  0.94893900  0.65057400  0.42615200  1
  Ni  Ni3  1  0.31958300  0.63479600  0.54146400  1
  Ni  Ni4  1  0.68041700  0.36520400  0.45853600  1
  Ni  Ni5  1  0.05106100  0.34942600  0.57384800  1
  Ni  Ni6  1  0.65057400  0.94893900  0.92615200  1
  Ni  Ni7  1  0.63479600  0.31958300  0.04146400  1
  Cu  Cu8  1  0.28904400  0.97286500  0.72674600  1
  Cu  Cu9  1  0.97286500  0.28904400  0.22674600  1
  Cu  Cu10  1  0.12859900  0.51791300  0.07781600  1
  Cu  Cu11  1  0.51791300  0.12859900  0.57781600  1
  Cu  Cu12  1  0.48208700  0.87140100  0.42218400  1
  Cu  Cu13  1  0.83043100  0.16956900  0.75000000  1
  Cu  Cu14  1  0.16956900  0.83043100  0.25000000  1
  Cu  Cu15  1  0.87140100  0.48208700  0.92218400  1
  Cu  Cu16  1  0.71095600  0.02713500  0.27325400  1
  Cu  Cu17  1  0.02713500  0.71095600  0.77325400  1
  C  C18  1  0.66713500  0.64508900  0.67908400  1
  C  C19  1  0.00000000  0.00000000  0.00000000  1
  C  C20  1  0.00000000  0.00000000  0.50000000  1
  C  C21  1  0.64508900  0.66713500  0.17908400  1
  C  C22  1  0.33286500  0.35491100  0.32091600  1
  C  C23  1  0.35491100  0.33286500  0.82091600  1
  C  C24  1  0.87638200  0.59312600  0.58532100  1
  C  C25  1  0.23592800  0.88608600  0.58221000  1
  C  C26  1  0.40103300  0.77757200  0.28792400  1
  C  C27  1  0.93490000  0.91851800  0.17471300  1
  C  C28  1  0.11391400  0.76407200  0.91779000  1
  C  C29  1  0.08148200  0.06510000  0.32528700  1
  C  C30  1  0.57502400  0.56871500  0.06207500  1
  C  C31  1  0.89877200  0.23868000  0.57885600  1
  C  C32  1  0.10122800  0.76132000  0.42114400  1
  C  C33  1  0.19165200  0.25514800  0.15574000  1
  C  C34  1  0.42090400  0.77549800  0.82217000  1
  C  C35  1  0.80834800  0.74485200  0.84426000  1
  C  C36  1  0.76407200  0.11391400  0.41779000  1
  C  C37  1  0.54121000  0.89692000  0.65688000  1
  C  C38  1  0.22450200  0.57909600  0.67783000  1
  C  C39  1  0.42497600  0.43128500  0.93792500  1
  C  C40  1  0.57909600  0.22450200  0.17783000  1
  C  C41  1  0.10308000  0.45879000  0.84312000  1
  C  C42  1  0.22242800  0.59896700  0.21207600  1
  C  C43  1  0.77549800  0.42090400  0.32217000  1
  C  C44  1  0.59312600  0.87638200  0.08532100  1
  C  C45  1  0.45879000  0.10308000  0.34312000  1
  C  C46  1  0.76132000  0.10122800  0.92114400  1
  C  C47  1  0.56871500  0.57502400  0.56207500  1
  C  C48  1  0.59896700  0.22242800  0.71207600  1
  C  C49  1  0.91851800  0.93490000  0.67471300  1
  C  C50  1  0.25514800  0.19165200  0.65574000  1
  C  C51  1  0.43128500  0.42497600  0.43792500  1
  C  C52  1  0.88608600  0.23592800  0.08221000  1
  C  C53  1  0.89692000  0.54121000  0.15688000  1
  C  C54  1  0.12361800  0.40687400  0.41467900  1
  C  C55  1  0.06510000  0.08148200  0.82528700  1
  C  C56  1  0.23868000  0.89877200  0.07885600  1
  C  C57  1  0.74485200  0.80834800  0.34426000  1
  C  C58  1  0.77757200  0.40103300  0.78792400  1
  C  C59  1  0.40687400  0.12361800  0.91467900  1
