# generated using pymatgen
data_Cu7Ni3C8
_symmetry_space_group_name_H-M   'P 1'
_cell_length_a   8.29500384
_cell_length_b   8.29500384
_cell_length_c   8.97180900
_cell_angle_alpha   90.00000000
_cell_angle_beta   90.00000000
_cell_angle_gamma   119.99999870
_symmetry_Int_Tables_number   1
_chemical_formula_structural   Cu7Ni3C8
_chemical_formula_sum   'Cu14 Ni6 C16'
_cell_volume   534.61832294
_cell_formula_units_Z   2
loop_
 _symmetry_equiv_pos_site_id
 _symmetry_equiv_pos_as_xyz
  1  'x, y, z'
loop_
 _atom_site_type_symbol
 _atom_site_label
 _atom_site_symmetry_multiplicity
 _atom_site_fract_x
 _atom_site_fract_y
 _atom_site_fract_z
 _atom_site_occupancy
  C  C0  1  0.20035700  0.79964300  0.25000000  1
  C  C1  1  0.20035700  0.40071400  0.25000000  1
  C  C2  1  0.59928600  0.79964300  0.25000000  1
  C  C3  1  0.79964300  0.20035700  0.75000000  1
  C  C4  1  0.79964300  0.59928600  0.75000000  1
  C  C5  1  0.40071400  0.20035700  0.75000000  1
  Ni  Ni6  1  0.50000000  0.50000000  0.50000000  1
  Ni  Ni7  1  0.50000000  0.00000000  0.50000000  1
  Ni  Ni8  1  0.00000000  0.50000000  0.50000000  1
  Ni  Ni9  1  0.50000000  0.50000000  0.00000000  1
  Ni  Ni10  1  0.50000000  0.00000000  0.00000000  1
  Ni  Ni11  1  0.00000000  0.50000000  0.00000000  1
  Cu  Cu12  1  0.16359000  0.83641000  0.92049100  1
  Cu  Cu13  1  0.16359000  0.32718000  0.92049100  1
  Cu  Cu14  1  0.67282000  0.83641000  0.92049100  1
  Cu  Cu15  1  0.83641000  0.16359000  0.07950900  1
  Cu  Cu16  1  0.83641000  0.67282000  0.07950900  1
  Cu  Cu17  1  0.32718000  0.16359000  0.07950900  1
  Cu  Cu18  1  0.83641000  0.16359000  0.42049100  1
  Cu  Cu19  1  0.83641000  0.67282000  0.42049100  1
  Cu  Cu20  1  0.32718000  0.16359000  0.42049100  1
  Cu  Cu21  1  0.16359000  0.83641000  0.57950900  1
  Cu  Cu22  1  0.16359000  0.32718000  0.57950900  1
  Cu  Cu23  1  0.67282000  0.83641000  0.57950900  1
  Cu  Cu24  1  0.00000000  0.00000000  0.25000000  1
  Cu  Cu25  1  0.00000000  0.00000000  0.75000000  1
  C  C26  1  0.55984000  0.44016000  0.25000000  1
  C  C27  1  0.55984000  0.11968000  0.25000000  1
  C  C28  1  0.88032000  0.44016000  0.25000000  1
  C  C29  1  0.44016000  0.55984000  0.75000000  1
  C  C30  1  0.44016000  0.88032000  0.75000000  1
  C  C31  1  0.11968000  0.55984000  0.75000000  1
  C  C32  1  0.33333300  0.66666700  0.46008800  1
  C  C33  1  0.66666700  0.33333300  0.53991200  1
  C  C34  1  0.66666700  0.33333300  0.96008800  1
  C  C35  1  0.33333300  0.66666700  0.03991200  1
