# generated using pymatgen
data_Cu6Ni3C4
_symmetry_space_group_name_H-M   'P 1'
_cell_length_a   9.22050786
_cell_length_b   9.22050786
_cell_length_c   5.33336600
_cell_angle_alpha   90.00000000
_cell_angle_beta   90.00000000
_cell_angle_gamma   119.99999898
_symmetry_Int_Tables_number   1
_chemical_formula_structural   Cu6Ni3C4
_chemical_formula_sum   'Cu12 Ni6 C8'
_cell_volume   392.68264601
_cell_formula_units_Z   2
loop_
 _symmetry_equiv_pos_site_id
 _symmetry_equiv_pos_as_xyz
  1  'x, y, z'
loop_
 _atom_site_type_symbol
 _atom_site_label
 _atom_site_symmetry_multiplicity
 _atom_site_fract_x
 _atom_site_fract_y
 _atom_site_fract_z
 _atom_site_occupancy
  C  C0  1  0.40495700  0.09025500  0.25000000  1
  C  C1  1  0.59504300  0.90974500  0.75000000  1
  C  C2  1  0.90974500  0.31470200  0.25000000  1
  C  C3  1  0.09025500  0.68529800  0.75000000  1
  C  C4  1  0.68529800  0.59504300  0.25000000  1
  C  C5  1  0.31470200  0.40495700  0.75000000  1
  C  C6  1  0.33333300  0.66666700  0.25000000  1
  C  C7  1  0.66666700  0.33333300  0.75000000  1
  Ni  Ni8  1  0.19116400  0.24018100  0.25000000  1
  Ni  Ni9  1  0.80883600  0.75981900  0.75000000  1
  Ni  Ni10  1  0.75981900  0.95098300  0.25000000  1
  Ni  Ni11  1  0.24018100  0.04901700  0.75000000  1
  Ni  Ni12  1  0.04901700  0.80883600  0.25000000  1
  Ni  Ni13  1  0.95098300  0.19116400  0.75000000  1
  Cu  Cu14  1  0.15659100  0.52176500  0.01413800  1
  Cu  Cu15  1  0.84340900  0.47823500  0.98586200  1
  Cu  Cu16  1  0.47823500  0.63482500  0.01413800  1
  Cu  Cu17  1  0.84340900  0.47823500  0.51413800  1
  Cu  Cu18  1  0.52176500  0.36517500  0.98586200  1
  Cu  Cu19  1  0.15659100  0.52176500  0.48586200  1
  Cu  Cu20  1  0.36517500  0.84340900  0.01413800  1
  Cu  Cu21  1  0.52176500  0.36517500  0.51413800  1
  Cu  Cu22  1  0.63482500  0.15659100  0.98586200  1
  Cu  Cu23  1  0.47823500  0.63482500  0.48586200  1
  Cu  Cu24  1  0.63482500  0.15659100  0.51413800  1
  Cu  Cu25  1  0.36517500  0.84340900  0.48586200  1
