# generated using pymatgen
data_CuNi14C17
_symmetry_space_group_name_H-M   'P 1'
_cell_length_a   4.32069100
_cell_length_b   8.63964300
_cell_length_c   8.72043100
_cell_angle_alpha   90.00000000
_cell_angle_beta   90.00000000
_cell_angle_gamma   90.00000000
_symmetry_Int_Tables_number   1
_chemical_formula_structural   CuNi14C17
_chemical_formula_sum   'Cu1 Ni14 C17'
_cell_volume   325.52695491
_cell_formula_units_Z   1
loop_
 _symmetry_equiv_pos_site_id
 _symmetry_equiv_pos_as_xyz
  1  'x, y, z'
loop_
 _atom_site_type_symbol
 _atom_site_label
 _atom_site_symmetry_multiplicity
 _atom_site_fract_x
 _atom_site_fract_y
 _atom_site_fract_z
 _atom_site_occupancy
  C  C0  1  0.00000000  0.00000000  0.00000000  1
  Ni  Ni1  1  0.00000000  0.00000000  0.50000000  1
  Ni  Ni2  1  0.00000000  0.50000000  0.50000000  1
  Ni  Ni3  1  0.50000000  0.73111000  0.00000000  1
  Ni  Ni4  1  0.50000000  0.26889000  0.00000000  1
  Ni  Ni5  1  0.50000000  0.74540200  0.50000000  1
  Ni  Ni6  1  0.50000000  0.25459800  0.50000000  1
  Ni  Ni7  1  0.50000000  0.00000000  0.73689400  1
  Ni  Ni8  1  0.50000000  0.50000000  0.75149900  1
  Ni  Ni9  1  0.50000000  0.00000000  0.26310600  1
  Ni  Ni10  1  0.50000000  0.50000000  0.24850100  1
  Ni  Ni11  1  0.00000000  0.73747200  0.74533800  1
  Ni  Ni12  1  0.00000000  0.26252800  0.74533800  1
  Ni  Ni13  1  0.00000000  0.73747200  0.25466200  1
  Ni  Ni14  1  0.00000000  0.26252800  0.25466200  1
  Cu  Cu15  1  0.00000000  0.50000000  0.00000000  1
  C  C16  1  0.00000000  0.00000000  0.74057600  1
  C  C17  1  0.00000000  0.50000000  0.72786900  1
  C  C18  1  0.00000000  0.00000000  0.25942400  1
  C  C19  1  0.00000000  0.50000000  0.27213100  1
  C  C20  1  0.50000000  0.75123900  0.75101900  1
  C  C21  1  0.50000000  0.24876100  0.75101900  1
  C  C22  1  0.50000000  0.75123900  0.24898100  1
  C  C23  1  0.50000000  0.24876100  0.24898100  1
  C  C24  1  0.50000000  0.00000000  0.00000000  1
  C  C25  1  0.50000000  0.50000000  0.00000000  1
  C  C26  1  0.50000000  0.00000000  0.50000000  1
  C  C27  1  0.50000000  0.50000000  0.50000000  1
  C  C28  1  0.00000000  0.74602400  0.00000000  1
  C  C29  1  0.00000000  0.25397600  0.00000000  1
  C  C30  1  0.00000000  0.75352300  0.50000000  1
  C  C31  1  0.00000000  0.24647700  0.50000000  1
