# generated using pymatgen
data_Cu12Ni3C2
_symmetry_space_group_name_H-M   'P 1'
_cell_length_a   9.21353600
_cell_length_b   9.33182200
_cell_length_c   12.80209100
_cell_angle_alpha   90.00000000
_cell_angle_beta   90.00000000
_cell_angle_gamma   90.00000000
_symmetry_Int_Tables_number   1
_chemical_formula_structural   Cu12Ni3C2
_chemical_formula_sum   'Cu48 Ni12 C8'
_cell_volume   1100.71197992
_cell_formula_units_Z   4
loop_
 _symmetry_equiv_pos_site_id
 _symmetry_equiv_pos_as_xyz
  1  'x, y, z'
loop_
 _atom_site_type_symbol
 _atom_site_label
 _atom_site_symmetry_multiplicity
 _atom_site_fract_x
 _atom_site_fract_y
 _atom_site_fract_z
 _atom_site_occupancy
  C  C0  1  0.25130800  0.46594400  0.11685800  1
  C  C1  1  0.74869200  0.53405600  0.88314200  1
  C  C2  1  0.24869200  0.96594400  0.38314200  1
  C  C3  1  0.25130800  0.03405600  0.88314200  1
  C  C4  1  0.75130800  0.03405600  0.61685800  1
  C  C5  1  0.74869200  0.96594400  0.11685800  1
  C  C6  1  0.24869200  0.53405600  0.61685800  1
  C  C7  1  0.75130800  0.46594400  0.38314200  1
  Ni  Ni8  1  0.52871500  0.25000000  0.00000000  1
  Ni  Ni9  1  0.47128500  0.75000000  0.00000000  1
  Ni  Ni10  1  0.97128500  0.75000000  0.50000000  1
  Ni  Ni11  1  0.02871500  0.25000000  0.50000000  1
  Ni  Ni12  1  0.10517000  0.11774700  0.14453500  1
  Ni  Ni13  1  0.89483000  0.88225300  0.85546500  1
  Ni  Ni14  1  0.39483000  0.61774700  0.35546500  1
  Ni  Ni15  1  0.10517000  0.38225300  0.85546500  1
  Ni  Ni16  1  0.60517000  0.38225300  0.64453500  1
  Ni  Ni17  1  0.89483000  0.61774700  0.14453500  1
  Ni  Ni18  1  0.39483000  0.88225300  0.64453500  1
  Ni  Ni19  1  0.60517000  0.11774700  0.35546500  1
  Cu  Cu20  1  0.16723400  0.07916100  0.04171700  1
  Cu  Cu21  1  0.83276600  0.92083900  0.95828300  1
  Cu  Cu22  1  0.33276600  0.57916100  0.45828300  1
  Cu  Cu23  1  0.16723400  0.42083900  0.95828300  1
  Cu  Cu24  1  0.66723400  0.42083900  0.54171700  1
  Cu  Cu25  1  0.83276600  0.57916100  0.04171700  1
  Cu  Cu26  1  0.33276600  0.92083900  0.54171700  1
  Cu  Cu27  1  0.66723400  0.07916100  0.45828300  1
  Cu  Cu28  1  0.17010500  0.02495200  0.22603100  1
  Cu  Cu29  1  0.82989500  0.97504800  0.77396900  1
  Cu  Cu30  1  0.32989500  0.52495200  0.27396900  1
  Cu  Cu31  1  0.17010500  0.47504800  0.77396900  1
  Cu  Cu32  1  0.67010500  0.47504800  0.72603100  1
  Cu  Cu33  1  0.82989500  0.52495200  0.22603100  1
  Cu  Cu34  1  0.32989500  0.97504800  0.72603100  1
  Cu  Cu35  1  0.67010500  0.02495200  0.27396900  1
  Cu  Cu36  1  0.12208500  0.14510700  0.44557600  1
  Cu  Cu37  1  0.87791500  0.85489300  0.55442400  1
  Cu  Cu38  1  0.37791500  0.64510700  0.05442400  1
  Cu  Cu39  1  0.12208500  0.35489300  0.55442400  1
  Cu  Cu40  1  0.62208500  0.35489300  0.94557600  1
  Cu  Cu41  1  0.87791500  0.64510700  0.44557600  1
  Cu  Cu42  1  0.37791500  0.85489300  0.94557600  1
  Cu  Cu43  1  0.62208500  0.14510700  0.05442400  1
  Cu  Cu44  1  0.13636100  0.27014700  0.16902600  1
  Cu  Cu45  1  0.86363900  0.72985300  0.83097400  1
  Cu  Cu46  1  0.36363900  0.77014700  0.33097400  1
  Cu  Cu47  1  0.13636100  0.22985300  0.83097400  1
  Cu  Cu48  1  0.63636100  0.22985300  0.66902600  1
  Cu  Cu49  1  0.86363900  0.77014700  0.16902600  1
  Cu  Cu50  1  0.36363900  0.72985300  0.66902600  1
  Cu  Cu51  1  0.63636100  0.27014700  0.33097400  1
  Cu  Cu52  1  0.43639600  0.32353000  0.07817600  1
  Cu  Cu53  1  0.56360400  0.67647000  0.92182400  1
  Cu  Cu54  1  0.06360400  0.82353000  0.42182400  1
  Cu  Cu55  1  0.43639600  0.17647000  0.92182400  1
  Cu  Cu56  1  0.93639600  0.17647000  0.57817600  1
  Cu  Cu57  1  0.56360400  0.82353000  0.07817600  1
  Cu  Cu58  1  0.06360400  0.67647000  0.57817600  1
  Cu  Cu59  1  0.93639600  0.32353000  0.42182400  1
  Cu  Cu60  1  0.44589500  0.09663300  0.35758700  1
  Cu  Cu61  1  0.55410500  0.90336700  0.64241300  1
  Cu  Cu62  1  0.05410500  0.59663300  0.14241300  1
  Cu  Cu63  1  0.44589500  0.40336700  0.64241300  1
  Cu  Cu64  1  0.94589500  0.40336700  0.85758700  1
  Cu  Cu65  1  0.55410500  0.59663300  0.35758700  1
  Cu  Cu66  1  0.05410500  0.90336700  0.85758700  1
  Cu  Cu67  1  0.94589500  0.09663300  0.14241300  1
