# generated using pymatgen
data_Cu2NiC11
_symmetry_space_group_name_H-M   'P 1'
_cell_length_a   5.68398312
_cell_length_b   5.68398312
_cell_length_c   7.80398560
_cell_angle_alpha   72.84070009
_cell_angle_beta   72.84070009
_cell_angle_gamma   61.79208678
_symmetry_Int_Tables_number   1
_chemical_formula_structural   Cu2NiC11
_chemical_formula_sum   'Cu2 Ni1 C11'
_cell_volume   208.64015443
_cell_formula_units_Z   1
loop_
 _symmetry_equiv_pos_site_id
 _symmetry_equiv_pos_as_xyz
  1  'x, y, z'
loop_
 _atom_site_type_symbol
 _atom_site_label
 _atom_site_symmetry_multiplicity
 _atom_site_fract_x
 _atom_site_fract_y
 _atom_site_fract_z
 _atom_site_occupancy
  C  C0  1  0.20281500  0.20281500  0.38806400  1
  C  C1  1  0.79718500  0.79718500  0.61193600  1
  C  C2  1  0.00000000  0.00000000  0.00000000  1
  Ni  Ni3  1  0.50000000  0.50000000  0.00000000  1
  Cu  Cu4  1  0.42025500  0.42025500  0.76744900  1
  Cu  Cu5  1  0.57974500  0.57974500  0.23255100  1
  C  C6  1  0.28280100  0.70316400  0.29975100  1
  C  C7  1  0.70316400  0.28280100  0.29975100  1
  C  C8  1  0.71769000  0.71769000  0.27140000  1
  C  C9  1  0.71719900  0.29683600  0.70024900  1
  C  C10  1  0.29683600  0.71719900  0.70024900  1
  C  C11  1  0.28231000  0.28231000  0.72860000  1
  C  C12  1  0.38126400  0.38126400  0.97880300  1
  C  C13  1  0.61873600  0.61873600  0.02119700  1
