# generated using pymatgen
data_Cu9Ni2C
_symmetry_space_group_name_H-M   'P 1'
_cell_length_a   8.38110810
_cell_length_b   8.38110810
_cell_length_c   8.38110845
_cell_angle_alpha   33.58860855
_cell_angle_beta   33.58860855
_cell_angle_gamma   33.58860680
_symmetry_Int_Tables_number   1
_chemical_formula_structural   Cu9Ni2C
_chemical_formula_sum   'Cu9 Ni2 C1'
_cell_volume   160.49987301
_cell_formula_units_Z   1
loop_
 _symmetry_equiv_pos_site_id
 _symmetry_equiv_pos_as_xyz
  1  'x, y, z'
loop_
 _atom_site_type_symbol
 _atom_site_label
 _atom_site_symmetry_multiplicity
 _atom_site_fract_x
 _atom_site_fract_y
 _atom_site_fract_z
 _atom_site_occupancy
  C  C0  1  0.00000000  0.00000000  0.00000000  1
  Ni  Ni1  1  0.85545500  0.85545500  0.85545500  1
  Ni  Ni2  1  0.14454500  0.14454500  0.14454500  1
  Cu  Cu3  1  0.58647200  0.08229800  0.58647200  1
  Cu  Cu4  1  0.08229800  0.58647200  0.58647200  1
  Cu  Cu5  1  0.58647200  0.58647200  0.08229800  1
  Cu  Cu6  1  0.41352800  0.91770200  0.41352800  1
  Cu  Cu7  1  0.91770200  0.41352800  0.41352800  1
  Cu  Cu8  1  0.33378900  0.33378900  0.33378900  1
  Cu  Cu9  1  0.41352800  0.41352800  0.91770200  1
  Cu  Cu10  1  0.50000000  0.50000000  0.50000000  1
  Cu  Cu11  1  0.66621100  0.66621100  0.66621100  1
