# generated using pymatgen
data_CuNiC8
_symmetry_space_group_name_H-M   'P 1'
_cell_length_a   5.30098200
_cell_length_b   5.14074000
_cell_length_c   9.12906954
_cell_angle_alpha   55.60881589
_cell_angle_beta   90.00000000
_cell_angle_gamma   90.00000000
_symmetry_Int_Tables_number   1
_chemical_formula_structural   CuNiC8
_chemical_formula_sum   'Cu2 Ni2 C16'
_cell_volume   205.29006087
_cell_formula_units_Z   2
loop_
 _symmetry_equiv_pos_site_id
 _symmetry_equiv_pos_as_xyz
  1  'x, y, z'
loop_
 _atom_site_type_symbol
 _atom_site_label
 _atom_site_symmetry_multiplicity
 _atom_site_fract_x
 _atom_site_fract_y
 _atom_site_fract_z
 _atom_site_occupancy
  C  C0  1  0.94231300  0.24277100  0.75079800  1
  C  C1  1  0.44231300  0.75722900  0.74920200  1
  C  C2  1  0.55768700  0.24277100  0.25079800  1
  C  C3  1  0.05768700  0.75722900  0.24920200  1
  Ni  Ni4  1  0.50000000  0.00000000  0.00000000  1
  Ni  Ni5  1  0.00000000  0.00000000  0.50000000  1
  Cu  Cu6  1  0.50000000  0.50000000  0.50000000  1
  Cu  Cu7  1  0.00000000  0.50000000  0.00000000  1
  C  C8  1  0.42897900  0.61698500  0.25092400  1
  C  C9  1  0.18185300  0.88786300  0.93225300  1
  C  C10  1  0.18314000  0.25339700  0.57008300  1
  C  C11  1  0.68314000  0.74660300  0.92991700  1
  C  C12  1  0.68185300  0.11213700  0.56774700  1
  C  C13  1  0.92897900  0.38301500  0.24907600  1
  C  C14  1  0.07102100  0.61698500  0.75092400  1
  C  C15  1  0.31814700  0.88786300  0.43225300  1
  C  C16  1  0.31686000  0.25339700  0.07008300  1
  C  C17  1  0.81814700  0.11213700  0.06774700  1
  C  C18  1  0.81686000  0.74660300  0.42991700  1
  C  C19  1  0.57102100  0.38301500  0.74907600  1
