# generated using pymatgen
data_CuNi3C
_symmetry_space_group_name_H-M   'P 1'
_cell_length_a   8.54411800
_cell_length_b   5.35187500
_cell_length_c   5.96369687
_cell_angle_alpha   86.69217046
_cell_angle_beta   90.00000000
_cell_angle_gamma   90.00000000
_symmetry_Int_Tables_number   1
_chemical_formula_structural   CuNi3C
_chemical_formula_sum   'Cu2 Ni6 C2'
_cell_volume   272.24793599
_cell_formula_units_Z   2
loop_
 _symmetry_equiv_pos_site_id
 _symmetry_equiv_pos_as_xyz
  1  'x, y, z'
loop_
 _atom_site_type_symbol
 _atom_site_label
 _atom_site_symmetry_multiplicity
 _atom_site_fract_x
 _atom_site_fract_y
 _atom_site_fract_z
 _atom_site_occupancy
  Ni  Ni0  1  0.25000000  0.23378600  0.75501600  1
  Ni  Ni1  1  0.75000000  0.76621400  0.24498400  1
  Ni  Ni2  1  0.16910800  0.28772100  0.31339000  1
  Ni  Ni3  1  0.66910800  0.71227900  0.68661000  1
  Ni  Ni4  1  0.83089200  0.71227900  0.68661000  1
  Ni  Ni5  1  0.33089200  0.28772100  0.31339000  1
  C  C6  1  0.25000000  0.69304700  0.21881300  1
  C  C7  1  0.75000000  0.30695300  0.78118700  1
  Cu  Cu8  1  0.25000000  0.26011400  0.55330300  1
  Cu  Cu9  1  0.75000000  0.73988600  0.44669700  1
