# generated using pymatgen
data_Cu21Ni5C9
_symmetry_space_group_name_H-M   'P 1'
_cell_length_a   6.09196065
_cell_length_b   10.33696545
_cell_length_c   27.32751224
_cell_angle_alpha   79.18344663
_cell_angle_beta   89.99905335
_cell_angle_gamma   89.97791876
_symmetry_Int_Tables_number   1
_chemical_formula_structural   Cu21Ni5C9
_chemical_formula_sum   'Cu42 Ni10 C18'
_cell_volume   1690.30381461
_cell_formula_units_Z   2
loop_
 _symmetry_equiv_pos_site_id
 _symmetry_equiv_pos_as_xyz
  1  'x, y, z'
loop_
 _atom_site_type_symbol
 _atom_site_label
 _atom_site_symmetry_multiplicity
 _atom_site_fract_x
 _atom_site_fract_y
 _atom_site_fract_z
 _atom_site_occupancy
  C  C0  1  0.25271547  0.67105249  0.04616362  1
  C  C1  1  0.24472856  0.01804558  0.37837989  1
  C  C2  1  0.24498178  0.35437859  0.71040727  1
  C  C3  1  0.23965794  0.43749502  0.21427206  1
  C  C4  1  0.24463570  0.77236218  0.54752147  1
  C  C5  1  0.26087090  0.11334703  0.87404971  1
  C  C6  1  0.25061769  0.21910843  0.07766659  1
  C  C7  1  0.24482871  0.54187706  0.40881833  1
  C  C8  1  0.24665363  0.87293548  0.74226620  1
  C  C9  1  0.75536389  0.64760689  0.28923156  1
  C  C10  1  0.75481186  0.98266239  0.62162429  1
  C  C11  1  0.74214439  0.33322968  0.95117581  1
  C  C12  1  0.75532910  0.89055675  0.12438071  1
  C  C13  1  0.75387983  0.22723382  0.45405899  1
  C  C14  1  0.74316445  0.56165552  0.78889537  1
  C  C15  1  0.75494466  0.12482616  0.25840524  1
  C  C16  1  0.75413075  0.45645908  0.59140562  1
  C  C17  1  0.74285301  0.77467481  0.92130222  1
  Ni  Ni18  1  0.33601293  0.88801385  0.22333418  1
  Ni  Ni19  1  0.33535496  0.22225701  0.55548793  1
  Ni  Ni20  1  0.32221370  0.55647509  0.88688604  1
  Ni  Ni21  1  0.82500729  0.44383828  0.11220245  1
  Ni  Ni22  1  0.82635375  0.77769652  0.44442046  1
  Ni  Ni23  1  0.83129853  0.11205024  0.77702291  1
  Ni  Ni24  1  0.49840613  0.00002120  0.99991878  1
  Ni  Ni25  1  0.46654876  0.33300792  0.33350708  1
  Ni  Ni26  1  0.47154763  0.66691716  0.66695515  1
  Ni  Ni27  1  0.99690837  0.00041383  0.99899995  1
  Cu  Cu28  1  0.98079897  0.61845443  0.13972332  1
  Cu  Cu29  1  0.97699666  0.94940240  0.47219231  1
  Cu  Cu30  1  0.98069698  0.28402669  0.80463412  1
  Cu  Cu31  1  0.97744085  0.26117480  0.16035242  1
  Cu  Cu32  1  0.97737506  0.59862328  0.49200158  1
  Cu  Cu33  1  0.98360196  0.93478781  0.82573855  1
  Cu  Cu34  1  0.97885897  0.44986719  0.03554430  1
  Cu  Cu35  1  0.97743187  0.78568454  0.36845478  1
  Cu  Cu36  1  0.98056893  0.11870451  0.70146628  1
  Cu  Cu37  1  0.48174937  0.71677211  0.19442047  1
  Cu  Cu38  1  0.48503596  0.05089713  0.52717872  1
  Cu  Cu39  1  0.49177088  0.36957007  0.85981951  1
  Cu  Cu40  1  0.48459468  0.06633071  0.17424948  1
  Cu  Cu41  1  0.48495525  0.40177071  0.50733557  1
  Cu  Cu42  1  0.48800621  0.75052976  0.83790277  1
  Cu  Cu43  1  0.48806139  0.88098941  0.29837131  1
  Cu  Cu44  1  0.48531998  0.21458660  0.63109129  1
  Cu  Cu45  1  0.48119292  0.54850032  0.96966276  1
  Cu  Cu46  1  0.70234148  0.78185579  0.03350154  1
  Cu  Cu47  1  0.69761656  0.11547036  0.36515599  1
  Cu  Cu48  1  0.69839144  0.44894865  0.69833693  1
  Cu  Cu49  1  0.69797306  0.40536010  0.24899503  1
  Cu  Cu50  1  0.69752954  0.73747317  0.58285205  1
  Cu  Cu51  1  0.70303831  0.06734580  0.91800624  1
  Cu  Cu52  1  0.70071222  0.14781369  0.05214522  1
  Cu  Cu53  1  0.69828695  0.48073532  0.38478769  1
  Cu  Cu54  1  0.69882391  0.81380711  0.71670108  1
  Cu  Cu55  1  0.21089527  0.55886116  0.30108217  1
  Cu  Cu56  1  0.21099871  0.89221541  0.63391704  1
  Cu  Cu57  1  0.20155706  0.21774845  0.96812204  1
  Cu  Cu58  1  0.20197041  0.93047594  0.08354357  1
  Cu  Cu59  1  0.21194204  0.25861757  0.41851710  1
  Cu  Cu60  1  0.21168322  0.59047378  0.75367304  1
  Cu  Cu61  1  0.21202606  0.18220454  0.28031076  1
  Cu  Cu62  1  0.20932465  0.51625416  0.61229355  1
  Cu  Cu63  1  0.20133488  0.85366712  0.94912323  1
  Cu  Cu64  1  0.97006185  0.88888386  0.22334488  1
  Cu  Cu65  1  0.96925555  0.22246074  0.55517008  1
  Cu  Cu66  1  0.92435127  0.55509753  0.88826860  1
  Cu  Cu67  1  0.45182300  0.44357760  0.11360129  1
  Cu  Cu68  1  0.46139177  0.77792964  0.44410664  1
  Cu  Cu69  1  0.46604955  0.11185198  0.77554483  1
