# generated using pymatgen
data_Cu3NiC5
_symmetry_space_group_name_H-M   'P 1'
_cell_length_a   8.33348800
_cell_length_b   8.85965400
_cell_length_c   11.40841700
_cell_angle_alpha   90.00000000
_cell_angle_beta   90.00000000
_cell_angle_gamma   90.00000000
_symmetry_Int_Tables_number   1
_chemical_formula_structural   Cu3NiC5
_chemical_formula_sum   'Cu12 Ni4 C20'
_cell_volume   842.30419377
_cell_formula_units_Z   4
loop_
 _symmetry_equiv_pos_site_id
 _symmetry_equiv_pos_as_xyz
  1  'x, y, z'
loop_
 _atom_site_type_symbol
 _atom_site_label
 _atom_site_symmetry_multiplicity
 _atom_site_fract_x
 _atom_site_fract_y
 _atom_site_fract_z
 _atom_site_occupancy
  C  C0  1  0.27708600  0.75000000  0.22938300  1
  C  C1  1  0.22291400  0.75000000  0.72938300  1
  C  C2  1  0.72291400  0.25000000  0.77061700  1
  C  C3  1  0.77708600  0.25000000  0.27061700  1
  C  C4  1  0.39658800  0.25000000  0.01137600  1
  C  C5  1  0.10341200  0.25000000  0.51137600  1
  C  C6  1  0.60341200  0.75000000  0.98862400  1
  C  C7  1  0.89658800  0.75000000  0.48862400  1
  C  C8  1  0.18772900  0.25000000  0.06246700  1
  C  C9  1  0.31227100  0.25000000  0.56246700  1
  C  C10  1  0.81227100  0.75000000  0.93753300  1
  C  C11  1  0.68772900  0.75000000  0.43753300  1
  C  C12  1  0.27854500  0.12401600  0.00846100  1
  C  C13  1  0.22145500  0.37598400  0.50846100  1
  C  C14  1  0.72145500  0.62401600  0.99153900  1
  C  C15  1  0.77854500  0.87598400  0.49153900  1
  C  C16  1  0.72145500  0.87598400  0.99153900  1
  C  C17  1  0.77854500  0.62401600  0.49153900  1
  C  C18  1  0.27854500  0.37598400  0.00846100  1
  C  C19  1  0.22145500  0.12401600  0.50846100  1
  Ni  Ni20  1  0.23877700  0.25000000  0.91942400  1
  Ni  Ni21  1  0.26122300  0.25000000  0.41942400  1
  Ni  Ni22  1  0.76122300  0.75000000  0.08057600  1
  Ni  Ni23  1  0.73877700  0.75000000  0.58057600  1
  Cu  Cu24  1  0.42925300  0.95175400  0.23782300  1
  Cu  Cu25  1  0.07074700  0.54824600  0.73782300  1
  Cu  Cu26  1  0.57074700  0.45175400  0.76217700  1
  Cu  Cu27  1  0.92925300  0.04824600  0.26217700  1
  Cu  Cu28  1  0.57074700  0.04824600  0.76217700  1
  Cu  Cu29  1  0.92925300  0.45175400  0.26217700  1
  Cu  Cu30  1  0.42925300  0.54824600  0.23782300  1
  Cu  Cu31  1  0.07074700  0.95175400  0.73782300  1
  Cu  Cu32  1  0.15635300  0.75000000  0.05802100  1
  Cu  Cu33  1  0.34364700  0.75000000  0.55802100  1
  Cu  Cu34  1  0.84364700  0.25000000  0.94197900  1
  Cu  Cu35  1  0.65635300  0.25000000  0.44197900  1
