# generated using pymatgen
data_Cu3NiC
_symmetry_space_group_name_H-M   'P 1'
_cell_length_a   4.04884500
_cell_length_b   12.08185600
_cell_length_c   20.24638900
_cell_angle_alpha   90.00000000
_cell_angle_beta   90.00000000
_cell_angle_gamma   90.00000000
_symmetry_Int_Tables_number   1
_chemical_formula_structural   Cu3NiC
_chemical_formula_sum   'Cu24 Ni8 C8'
_cell_volume   990.40399437
_cell_formula_units_Z   8
loop_
 _symmetry_equiv_pos_site_id
 _symmetry_equiv_pos_as_xyz
  1  'x, y, z'
loop_
 _atom_site_type_symbol
 _atom_site_label
 _atom_site_symmetry_multiplicity
 _atom_site_fract_x
 _atom_site_fract_y
 _atom_site_fract_z
 _atom_site_occupancy
  C  C0  1  0.50000000  0.31821600  0.07849300  1
  C  C1  1  0.50000000  0.81821600  0.92150700  1
  C  C2  1  0.50000000  0.75311400  0.36187600  1
  C  C3  1  0.50000000  0.25311400  0.63812400  1
  C  C4  1  0.50000000  0.68374100  0.12022400  1
  C  C5  1  0.50000000  0.18374100  0.87977600  1
  C  C6  1  0.50000000  0.87432500  0.58106800  1
  C  C7  1  0.50000000  0.37432500  0.41893200  1
  Ni  Ni8  1  0.50000000  0.10209700  0.25484800  1
  Ni  Ni9  1  0.50000000  0.60209700  0.74515200  1
  Ni  Ni10  1  0.00000000  0.99397500  0.09296000  1
  Ni  Ni11  1  0.00000000  0.49397500  0.90704000  1
  Ni  Ni12  1  0.00000000  0.50071300  0.24808200  1
  Ni  Ni13  1  0.00000000  0.00071300  0.75191800  1
  Ni  Ni14  1  0.00000000  0.54809100  0.57550700  1
  Ni  Ni15  1  0.00000000  0.04809100  0.42449300  1
  Cu  Cu16  1  0.50000000  0.06016000  0.01639900  1
  Cu  Cu17  1  0.50000000  0.56016000  0.98360100  1
  Cu  Cu18  1  0.50000000  0.92094400  0.16710800  1
  Cu  Cu19  1  0.50000000  0.42094400  0.83289200  1
  Cu  Cu20  1  0.50000000  0.59614700  0.50704700  1
  Cu  Cu21  1  0.50000000  0.09614700  0.49295300  1
  Cu  Cu22  1  0.50000000  0.87862900  0.74160800  1
  Cu  Cu23  1  0.50000000  0.37862900  0.25839200  1
  Cu  Cu24  1  0.00000000  0.79657700  0.04332100  1
  Cu  Cu25  1  0.00000000  0.29657700  0.95667900  1
  Cu  Cu26  1  0.00000000  0.50605900  0.12099900  1
  Cu  Cu27  1  0.00000000  0.00605900  0.87900100  1
  Cu  Cu28  1  0.00000000  0.16900000  0.16176700  1
  Cu  Cu29  1  0.00000000  0.66900000  0.83823300  1
  Cu  Cu30  1  0.00000000  0.70353200  0.23042400  1
  Cu  Cu31  1  0.00000000  0.20353200  0.76957600  1
  Cu  Cu32  1  0.00000000  0.95220100  0.31763900  1
  Cu  Cu33  1  0.00000000  0.45220100  0.68236100  1
  Cu  Cu34  1  0.00000000  0.53544300  0.37212200  1
  Cu  Cu35  1  0.00000000  0.03544300  0.62787800  1
  Cu  Cu36  1  0.00000000  0.85245500  0.47709400  1
  Cu  Cu37  1  0.00000000  0.35245500  0.52290600  1
  Cu  Cu38  1  0.00000000  0.73071000  0.63713600  1
  Cu  Cu39  1  0.00000000  0.23071000  0.36286400  1
