# generated using pymatgen
data_Cu3Ni3C5
_symmetry_space_group_name_H-M   'P 1'
_cell_length_a   4.19828300
_cell_length_b   10.74154900
_cell_length_c   18.40606900
_cell_angle_alpha   90.00000000
_cell_angle_beta   90.00000000
_cell_angle_gamma   90.00000000
_symmetry_Int_Tables_number   1
_chemical_formula_structural   Cu3Ni3C5
_chemical_formula_sum   'Cu12 Ni12 C20'
_cell_volume   830.04123911
_cell_formula_units_Z   4
loop_
 _symmetry_equiv_pos_site_id
 _symmetry_equiv_pos_as_xyz
  1  'x, y, z'
loop_
 _atom_site_type_symbol
 _atom_site_label
 _atom_site_symmetry_multiplicity
 _atom_site_fract_x
 _atom_site_fract_y
 _atom_site_fract_z
 _atom_site_occupancy
  C  C0  1  0.25000000  0.57028900  0.34227000  1
  C  C1  1  0.75000000  0.42971100  0.65773000  1
  C  C2  1  0.75000000  0.92971100  0.84227000  1
  C  C3  1  0.25000000  0.07028900  0.15773000  1
  C  C4  1  0.25000000  0.64868800  0.96027500  1
  C  C5  1  0.75000000  0.35131200  0.03972500  1
  C  C6  1  0.75000000  0.85131200  0.46027500  1
  C  C7  1  0.25000000  0.14868800  0.53972500  1
  Ni  Ni8  1  0.25000000  0.64275800  0.79452700  1
  Ni  Ni9  1  0.75000000  0.35724200  0.20547300  1
  Ni  Ni10  1  0.75000000  0.85724200  0.29452700  1
  Ni  Ni11  1  0.25000000  0.14275800  0.70547300  1
  Ni  Ni12  1  0.25000000  0.63694400  0.52875700  1
  Ni  Ni13  1  0.75000000  0.36305600  0.47124300  1
  Ni  Ni14  1  0.75000000  0.86305600  0.02875700  1
  Ni  Ni15  1  0.25000000  0.13694400  0.97124300  1
  Ni  Ni16  1  0.25000000  0.60012400  0.12141000  1
  Ni  Ni17  1  0.75000000  0.39987600  0.87859000  1
  Ni  Ni18  1  0.75000000  0.89987600  0.62141000  1
  Ni  Ni19  1  0.25000000  0.10012400  0.37859000  1
  Cu  Cu20  1  0.25000000  0.55168700  0.06190300  1
  Cu  Cu21  1  0.75000000  0.44831300  0.93809700  1
  Cu  Cu22  1  0.75000000  0.94831300  0.56190300  1
  Cu  Cu23  1  0.25000000  0.05168700  0.43809700  1
  Cu  Cu24  1  0.25000000  0.22707100  0.01028400  1
  Cu  Cu25  1  0.75000000  0.77292900  0.98971600  1
  Cu  Cu26  1  0.75000000  0.27292900  0.51028400  1
  Cu  Cu27  1  0.25000000  0.72707100  0.48971600  1
  Cu  Cu28  1  0.25000000  0.70697900  0.84853900  1
  Cu  Cu29  1  0.75000000  0.29302100  0.15146100  1
  Cu  Cu30  1  0.75000000  0.79302100  0.34853900  1
  Cu  Cu31  1  0.25000000  0.20697900  0.65146100  1
  C  C32  1  0.25000000  0.54504100  0.56709300  1
  C  C33  1  0.75000000  0.45495900  0.43290700  1
  C  C34  1  0.75000000  0.95495900  0.06709300  1
  C  C35  1  0.25000000  0.04504100  0.93290700  1
  C  C36  1  0.25000000  0.63973800  0.18237800  1
  C  C37  1  0.75000000  0.36026200  0.81762200  1
  C  C38  1  0.75000000  0.86026200  0.68237800  1
  C  C39  1  0.25000000  0.13973800  0.31762200  1
  C  C40  1  0.25000000  0.58632900  0.73811300  1
  C  C41  1  0.75000000  0.41367100  0.26188700  1
  C  C42  1  0.75000000  0.91367100  0.23811300  1
  C  C43  1  0.25000000  0.08632900  0.76188700  1
