# generated using pymatgen
data_CuNiC8
_symmetry_space_group_name_H-M   'P 1'
_cell_length_a   5.80118500
_cell_length_b   5.41821700
_cell_length_c   9.51089888
_cell_angle_alpha   55.13976158
_cell_angle_beta   90.00000000
_cell_angle_gamma   90.00000000
_symmetry_Int_Tables_number   1
_chemical_formula_structural   CuNiC8
_chemical_formula_sum   'Cu2 Ni2 C16'
_cell_volume   245.30084938
_cell_formula_units_Z   2
loop_
 _symmetry_equiv_pos_site_id
 _symmetry_equiv_pos_as_xyz
  1  'x, y, z'
loop_
 _atom_site_type_symbol
 _atom_site_label
 _atom_site_symmetry_multiplicity
 _atom_site_fract_x
 _atom_site_fract_y
 _atom_site_fract_z
 _atom_site_occupancy
  C  C0  1  0.42796800  0.22997500  0.74652500  1
  C  C1  1  0.57203200  0.77002500  0.25347500  1
  C  C2  1  0.92796800  0.77002500  0.75347500  1
  C  C3  1  0.07203200  0.22997500  0.24652500  1
  Ni  Ni4  1  0.00000000  0.50000000  0.50000000  1
  Ni  Ni5  1  0.50000000  0.50000000  0.00000000  1
  Cu  Cu6  1  0.00000000  0.00000000  0.00000000  1
  Cu  Cu7  1  0.50000000  0.00000000  0.50000000  1
  C  C8  1  0.04827900  0.36700700  0.75396000  1
  C  C9  1  0.95172100  0.63299300  0.24604000  1
  C  C10  1  0.54827900  0.63299300  0.74604000  1
  C  C11  1  0.45172100  0.36700700  0.25396000  1
  C  C12  1  0.70290000  0.87885400  0.93534200  1
  C  C13  1  0.29710000  0.12114600  0.06465800  1
  C  C14  1  0.20290000  0.12114600  0.56465800  1
  C  C15  1  0.79710000  0.87885400  0.43534200  1
  C  C16  1  0.19135100  0.74683100  0.94473100  1
  C  C17  1  0.80864900  0.25316900  0.05526900  1
  C  C18  1  0.69135100  0.25316900  0.55526900  1
  C  C19  1  0.30864900  0.74683100  0.44473100  1
