# generated using pymatgen
data_CuNiC3
_symmetry_space_group_name_H-M   'P 1'
_cell_length_a   4.86261800
_cell_length_b   4.98961947
_cell_length_c   5.23819045
_cell_angle_alpha   116.54490346
_cell_angle_beta   89.17355517
_cell_angle_gamma   117.59520691
_symmetry_Int_Tables_number   1
_chemical_formula_structural   CuNiC3
_chemical_formula_sum   'Cu2 Ni2 C6'
_cell_volume   97.74293929
_cell_formula_units_Z   2
loop_
 _symmetry_equiv_pos_site_id
 _symmetry_equiv_pos_as_xyz
  1  'x, y, z'
loop_
 _atom_site_type_symbol
 _atom_site_label
 _atom_site_symmetry_multiplicity
 _atom_site_fract_x
 _atom_site_fract_y
 _atom_site_fract_z
 _atom_site_occupancy
  Ni  Ni0  1  0.35444500  0.65447100  0.05928700  1
  Ni  Ni1  1  0.64555500  0.34552900  0.94071300  1
  Cu  Cu2  1  0.14870100  0.84513800  0.45414400  1
  Cu  Cu3  1  0.85129900  0.15486200  0.54585600  1
  C  C4  1  0.78487800  0.97472900  0.25963900  1
  C  C5  1  0.08169600  0.56842700  0.28148800  1
  C  C6  1  0.44785400  0.24137400  0.25661000  1
  C  C7  1  0.55214600  0.75862600  0.74339000  1
  C  C8  1  0.91830400  0.43157300  0.71851200  1
  C  C9  1  0.21512200  0.02527100  0.74036100  1
