# generated using pymatgen
data_CuNiC8
_symmetry_space_group_name_H-M   'P 1'
_cell_length_a   8.13038388
_cell_length_b   8.13293846
_cell_length_c   9.91464180
_cell_angle_alpha   66.01772033
_cell_angle_beta   66.04435281
_cell_angle_gamma   90.56800113
_symmetry_Int_Tables_number   1
_chemical_formula_structural   CuNiC8
_chemical_formula_sum   'Cu4 Ni4 C32'
_cell_volume   535.25015132
_cell_formula_units_Z   4
loop_
 _symmetry_equiv_pos_site_id
 _symmetry_equiv_pos_as_xyz
  1  'x, y, z'
loop_
 _atom_site_type_symbol
 _atom_site_label
 _atom_site_symmetry_multiplicity
 _atom_site_fract_x
 _atom_site_fract_y
 _atom_site_fract_z
 _atom_site_occupancy
  C  C0  1  0.09608700  0.64107900  0.75181800  1
  C  C1  1  0.59606300  0.14099800  0.75180600  1
  C  C2  1  0.39095200  0.34601500  0.25178100  1
  C  C3  1  0.89092600  0.84608800  0.25190600  1
  C  C4  1  0.50323900  0.99309100  0.50234800  1
  C  C5  1  0.24307100  0.25328500  0.00230900  1
  C  C6  1  0.00325300  0.49305000  0.50237900  1
  C  C7  1  0.74298700  0.75322200  0.00240800  1
  Ni  Ni8  1  0.25297600  0.74695600  0.99956100  1
  Ni  Ni9  1  0.75314800  0.24708300  0.99918700  1
  Ni  Ni10  1  0.49699300  0.50298400  0.49936000  1
  Ni  Ni11  1  0.99709800  0.00305100  0.49935100  1
  Cu  Cu12  1  0.38268400  0.86712000  0.25337500  1
  Cu  Cu13  1  0.88248100  0.36686500  0.25334300  1
  Cu  Cu14  1  0.11713500  0.13254300  0.75331500  1
  Cu  Cu15  1  0.61706900  0.63275000  0.75321300  1
  C  C16  1  0.57197700  0.58105500  0.25748000  1
  C  C17  1  0.07213100  0.08115300  0.25750500  1
  C  C18  1  0.33111300  0.82203400  0.75755100  1
  C  C19  1  0.83109200  0.32199900  0.75741700  1
  C  C20  1  0.92377300  0.89751100  0.74346400  1
  C  C21  1  0.42393900  0.39745000  0.74340200  1
  C  C22  1  0.14742100  0.67383800  0.24351000  1
  C  C23  1  0.64755300  0.17405000  0.24335300  1
  C  C24  1  0.56762500  0.76533200  0.45423900  1
  C  C25  1  0.06764300  0.26530100  0.45430600  1
  C  C26  1  0.01525300  0.31772600  0.95424300  1
  C  C27  1  0.51521100  0.81761200  0.95433400  1
  C  C28  1  0.95106400  0.74004100  0.53458500  1
  C  C29  1  0.45096800  0.23993900  0.53462000  1
  C  C30  1  0.49013700  0.20090700  0.03458800  1
  C  C31  1  0.99009800  0.70107800  0.03453000  1
  C  C32  1  0.26131100  0.99024400  0.46081600  1
  C  C33  1  0.76124500  0.49027400  0.46067200  1
  C  C34  1  0.74020700  0.51138600  0.96063900  1
  C  C35  1  0.24026000  0.01141700  0.96078000  1
  C  C36  1  0.23724300  0.52958700  0.54267500  1
  C  C37  1  0.73723900  0.02957200  0.54258200  1
  C  C38  1  0.77971000  0.98716600  0.04267200  1
  C  C39  1  0.27962400  0.48714900  0.04257800  1
