# generated using pymatgen
data_CuNi3C8
_symmetry_space_group_name_H-M   'P 1'
_cell_length_a   9.97663581
_cell_length_b   9.97663581
_cell_length_c   6.84153800
_cell_angle_alpha   90.00000000
_cell_angle_beta   90.00000000
_cell_angle_gamma   119.99999873
_symmetry_Int_Tables_number   1
_chemical_formula_structural   CuNi3C8
_chemical_formula_sum   'Cu2 Ni6 C16'
_cell_volume   589.72918152
_cell_formula_units_Z   2
loop_
 _symmetry_equiv_pos_site_id
 _symmetry_equiv_pos_as_xyz
  1  'x, y, z'
loop_
 _atom_site_type_symbol
 _atom_site_label
 _atom_site_symmetry_multiplicity
 _atom_site_fract_x
 _atom_site_fract_y
 _atom_site_fract_z
 _atom_site_occupancy
  C  C0  1  0.17279400  0.82720600  0.50847100  1
  C  C1  1  0.65441100  0.82720600  0.50847100  1
  C  C2  1  0.17279400  0.34558900  0.50847100  1
  C  C3  1  0.82720600  0.17279400  0.00847100  1
  C  C4  1  0.34558900  0.17279400  0.00847100  1
  C  C5  1  0.82720600  0.65441100  0.00847100  1
  C  C6  1  0.33333300  0.66666700  0.82887900  1
  C  C7  1  0.66666700  0.33333300  0.32887900  1
  C  C8  1  0.46418200  0.53581800  0.20828000  1
  C  C9  1  0.07163500  0.53581800  0.20828000  1
  C  C10  1  0.46418200  0.92836500  0.20828000  1
  C  C11  1  0.53581800  0.46418200  0.70828000  1
  C  C12  1  0.92836500  0.46418200  0.70828000  1
  C  C13  1  0.53581800  0.07163500  0.70828000  1
  C  C14  1  0.00000000  0.00000000  0.22860700  1
  C  C15  1  0.00000000  0.00000000  0.72860700  1
  Ni  Ni16  1  0.16357500  0.83642500  0.96203300  1
  Ni  Ni17  1  0.67284900  0.83642500  0.96203300  1
  Ni  Ni18  1  0.16357500  0.32715100  0.96203300  1
  Ni  Ni19  1  0.83642500  0.16357500  0.46203300  1
  Ni  Ni20  1  0.32715100  0.16357500  0.46203300  1
  Ni  Ni21  1  0.83642500  0.67284900  0.46203300  1
  Cu  Cu22  1  0.33333300  0.66666700  0.44318300  1
  Cu  Cu23  1  0.66666700  0.33333300  0.94318300  1
