# generated using pymatgen
data_Cu4NiC32
_symmetry_space_group_name_H-M   'P 1'
_cell_length_a   9.96782060
_cell_length_b   8.38860934
_cell_length_c   8.43123730
_cell_angle_alpha   61.09562512
_cell_angle_beta   56.84457390
_cell_angle_gamma   57.08008081
_symmetry_Int_Tables_number   1
_chemical_formula_structural   Cu4NiC32
_chemical_formula_sum   'Cu4 Ni1 C32'
_cell_volume   477.74821837
_cell_formula_units_Z   1
loop_
 _symmetry_equiv_pos_site_id
 _symmetry_equiv_pos_as_xyz
  1  'x, y, z'
loop_
 _atom_site_type_symbol
 _atom_site_label
 _atom_site_symmetry_multiplicity
 _atom_site_fract_x
 _atom_site_fract_y
 _atom_site_fract_z
 _atom_site_occupancy
  Ni  Ni0  1  0.25335100  0.21564200  0.27801300  1
  Cu  Cu1  1  0.11339700  0.15572700  0.11093900  1
  Cu  Cu2  1  0.38131500  0.38776000  0.34941900  1
  Cu  Cu3  1  0.67568800  0.64702100  0.62979700  1
  Cu  Cu4  1  0.82235300  0.87378000  0.85116600  1
  C  C5  1  0.98171100  0.98961700  0.00222100  1
  C  C6  1  0.51771700  0.49801100  0.51016000  1
  C  C7  1  0.02186200  0.76057700  0.42590400  1
  C  C8  1  0.47484600  0.07428300  0.74128600  1
  C  C9  1  0.74852400  0.46846600  0.03322300  1
  C  C10  1  0.25160800  0.53609500  0.96375200  1
  C  C11  1  0.54930900  0.92834900  0.26825300  1
  C  C12  1  0.95588500  0.23094300  0.56890900  1
  C  C13  1  0.09693900  0.27679100  0.54097500  1
  C  C14  1  0.30797700  0.46963800  0.13558700  1
  C  C15  1  0.05623500  0.91943600  0.21655600  1
  C  C16  1  0.47081500  0.11566500  0.33674400  1
  C  C17  1  0.92716400  0.86297300  0.58817800  1
  C  C18  1  0.20258500  0.61496600  0.43956700  1
  C  C19  1  0.29476600  0.05773100  0.88901000  1
  C  C20  1  0.43747300  0.28535900  0.58502300  1
  C  C21  1  0.19883600  0.36133400  0.02540100  1
  C  C22  1  0.59935200  0.46481500  0.24365600  1
  C  C23  1  0.09283700  0.72864900  0.96475700  1
  C  C24  1  0.41000700  0.95068700  0.22415400  1
  C  C25  1  0.58175800  0.06565300  0.82294500  1
  C  C26  1  0.89938800  0.25921900  0.03113700  1
  C  C27  1  0.40813000  0.54207800  0.76817100  1
  C  C28  1  0.83097700  0.60726300  0.97852300  1
  C  C29  1  0.58253200  0.73091900  0.43247100  1
  C  C30  1  0.72608500  0.92510300  0.09779600  1
  C  C31  1  0.77612100  0.39658200  0.58266300  1
  C  C32  1  0.03072600  0.16538900  0.38122200  1
  C  C33  1  0.56846000  0.91215800  0.63859100  1
  C  C34  1  0.92904100  0.06095500  0.76279500  1
  C  C35  1  0.66529900  0.52654900  0.89530600  1
  C  C36  1  0.91607200  0.67600600  0.43572900  1
