# generated using pymatgen
data_Cu4(NiC7)3
_symmetry_space_group_name_H-M   'P 1'
_cell_length_a   7.45828140
_cell_length_b   7.45828140
_cell_length_c   31.29488868
_cell_angle_alpha   90.00000000
_cell_angle_beta   90.00000000
_cell_angle_gamma   90.00000000
_symmetry_Int_Tables_number   1
_chemical_formula_structural   Cu4(NiC7)3
_chemical_formula_sum   'Cu16 Ni12 C84'
_cell_volume   1740.80827103
_cell_formula_units_Z   4
loop_
 _symmetry_equiv_pos_site_id
 _symmetry_equiv_pos_as_xyz
  1  'x, y, z'
loop_
 _atom_site_type_symbol
 _atom_site_label
 _atom_site_symmetry_multiplicity
 _atom_site_fract_x
 _atom_site_fract_y
 _atom_site_fract_z
 _atom_site_occupancy
  C  C0  1  0.40253841  0.61097346  0.00134463  1
  C  C1  1  0.59746159  0.38902654  0.50134463  1
  C  C2  1  0.61097346  0.59746159  0.75134463  1
  C  C3  1  0.38902654  0.40253841  0.25134463  1
  C  C4  1  0.80219683  0.49937065  0.89556819  1
  C  C5  1  0.19780317  0.50062935  0.39556819  1
  C  C6  1  0.49937065  0.19780317  0.64556819  1
  C  C7  1  0.50062935  0.80219683  0.14556819  1
  C  C8  1  0.89046610  0.92515004  0.99154739  1
  C  C9  1  0.10953390  0.07484996  0.49154739  1
  C  C10  1  0.92515004  0.10953390  0.74154739  1
  C  C11  1  0.07484996  0.89046610  0.24154739  1
  C  C12  1  0.49348021  0.01423630  0.88128718  1
  C  C13  1  0.50651979  0.98576370  0.38128718  1
  C  C14  1  0.01423630  0.50651979  0.63128718  1
  C  C15  1  0.98576370  0.49348021  0.13128718  1
  C  C16  1  0.15171658  0.26693229  0.94093412  1
  C  C17  1  0.84828342  0.73306771  0.44093412  1
  C  C18  1  0.26693229  0.84828342  0.69093412  1
  C  C19  1  0.73306771  0.15171658  0.19093412  1
  Ni  Ni20  1  0.72287812  0.29811179  0.04533787  1
  Ni  Ni21  1  0.27712188  0.70188821  0.54533787  1
  Ni  Ni22  1  0.29811179  0.27712188  0.79533787  1
  Ni  Ni23  1  0.70188821  0.72287812  0.29533787  1
  Ni  Ni24  1  0.21383291  0.75862376  0.85046208  1
  Ni  Ni25  1  0.78616709  0.24137624  0.35046208  1
  Ni  Ni26  1  0.75862376  0.78616709  0.60046208  1
  Ni  Ni27  1  0.24137624  0.21383291  0.10046208  1
  Ni  Ni28  1  0.22402037  0.02857350  0.05115143  1
  Ni  Ni29  1  0.77597963  0.97142650  0.55115143  1
  Ni  Ni30  1  0.02857350  0.77597963  0.80115143  1
  Ni  Ni31  1  0.97142650  0.22402037  0.30115143  1
  Cu  Cu32  1  0.90035487  0.45986275  0.00622180  1
  Cu  Cu33  1  0.09964513  0.54013725  0.50622180  1
  Cu  Cu34  1  0.45986275  0.09964513  0.75622180  1
  Cu  Cu35  1  0.54013725  0.90035487  0.25622180  1
  Cu  Cu36  1  0.44334266  0.09001477  0.00215215  1
  Cu  Cu37  1  0.55665734  0.90998523  0.50215215  1
  Cu  Cu38  1  0.09001477  0.55665734  0.75215215  1
  Cu  Cu39  1  0.90998523  0.44334266  0.25215215  1
  Cu  Cu40  1  0.97349278  0.99487275  0.87664061  1
  Cu  Cu41  1  0.02650722  0.00512725  0.37664061  1
  Cu  Cu42  1  0.99487275  0.02650722  0.62664061  1
  Cu  Cu43  1  0.00512725  0.97349278  0.12664061  1
  Cu  Cu44  1  0.34793381  0.54271736  0.88792531  1
  Cu  Cu45  1  0.65206619  0.45728264  0.38792531  1
  Cu  Cu46  1  0.54271736  0.65206619  0.63792531  1
  Cu  Cu47  1  0.45728264  0.34793381  0.13792531  1
  C  C48  1  0.94296294  0.30391110  0.97876177  1
  C  C49  1  0.05703706  0.69608890  0.47876177  1
  C  C50  1  0.30391110  0.05703706  0.72876177  1
  C  C51  1  0.69608890  0.94296294  0.22876177  1
  C  C52  1  0.82674489  0.38297012  0.04991830  1
  C  C53  1  0.17325511  0.61702988  0.54991830  1
  C  C54  1  0.38297012  0.17325511  0.79991830  1
  C  C55  1  0.61702988  0.82674489  0.29991830  1
  C  C56  1  0.75823338  0.56970761  0.98681866  1
  C  C57  1  0.24176662  0.43029239  0.48681866  1
  C  C58  1  0.56970761  0.24176662  0.73681866  1
  C  C59  1  0.43029239  0.75823338  0.23681866  1
  C  C60  1  0.05553198  0.56564833  0.01930782  1
  C  C61  1  0.94446802  0.43435167  0.51930782  1
  C  C62  1  0.56564833  0.94446802  0.76930782  1
  C  C63  1  0.43435167  0.05553198  0.26930782  1
  C  C64  1  0.35753412  0.24561112  0.98160355  1
  C  C65  1  0.64246588  0.75438888  0.48160355  1
  C  C66  1  0.24561112  0.64246588  0.73160355  1
  C  C67  1  0.75438888  0.35753412  0.23160355  1
  C  C68  1  0.57500578  0.14025434  0.03465033  1
  C  C69  1  0.42499422  0.85974566  0.53465033  1
  C  C70  1  0.14025434  0.42499422  0.78465033  1
  C  C71  1  0.85974566  0.57500578  0.28465033  1
  C  C72  1  0.28760070  0.97529401  0.02506987  1
  C  C73  1  0.71239930  0.02470599  0.52506987  1
  C  C74  1  0.97529401  0.71239930  0.77506987  1
  C  C75  1  0.02470599  0.28760070  0.27506987  1
  C  C76  1  0.51387723  0.95959172  0.97161870  1
  C  C77  1  0.48612277  0.04040828  0.47161870  1
  C  C78  1  0.95959172  0.48612277  0.72161870  1
  C  C79  1  0.04040828  0.51387723  0.22161870  1
  C  C80  1  0.10665301  0.04924881  0.90992753  1
  C  C81  1  0.89334699  0.95075119  0.40992753  1
  C  C82  1  0.04924881  0.89334699  0.65992753  1
  C  C83  1  0.95075119  0.10665301  0.15992753  1
  C  C84  1  0.87803416  0.15075261  0.85864593  1
  C  C85  1  0.12196584  0.84924739  0.35864593  1
  C  C86  1  0.15075261  0.12196584  0.60864593  1
  C  C87  1  0.84924739  0.87803416  0.10864593  1
  C  C88  1  0.08078409  0.90241883  0.84095650  1
  C  C89  1  0.91921591  0.09758117  0.34095650  1
  C  C90  1  0.90241883  0.91921591  0.59095650  1
  C  C91  1  0.09758117  0.08078409  0.09095650  1
  C  C92  1  0.84508042  0.86356467  0.89509388  1
  C  C93  1  0.15491958  0.13643533  0.39509388  1
  C  C94  1  0.86356467  0.15491958  0.64509388  1
  C  C95  1  0.13643533  0.84508042  0.14509388  1
  C  C96  1  0.17236350  0.49055164  0.90608140  1
  C  C97  1  0.82763650  0.50944836  0.40608140  1
  C  C98  1  0.49055164  0.82763650  0.65608140  1
  C  C99  1  0.50944836  0.17236350  0.15608140  1
  C  C100  1  0.31291344  0.66054701  0.84687287  1
  C  C101  1  0.68708656  0.33945299  0.34687287  1
  C  C102  1  0.66054701  0.68708656  0.59687287  1
  C  C103  1  0.33945299  0.31291344  0.09687287  1
  C  C104  1  0.45067678  0.65666914  0.91739871  1
  C  C105  1  0.54932322  0.34333086  0.41739871  1
  C  C106  1  0.65666914  0.54932322  0.66739871  1
  C  C107  1  0.34333086  0.45067678  0.16739871  1
  C  C108  1  0.45248063  0.39004196  0.87240142  1
  C  C109  1  0.54751937  0.60995804  0.37240142  1
  C  C110  1  0.39004196  0.54751937  0.62240142  1
  C  C111  1  0.60995804  0.45248063  0.12240142  1
