# generated using pymatgen
data_CuNiC16
_symmetry_space_group_name_H-M   'P 1'
_cell_length_a   8.85139971
_cell_length_b   8.85140065
_cell_length_c   8.85139965
_cell_angle_alpha   58.39114266
_cell_angle_beta   58.39114198
_cell_angle_gamma   58.39115109
_symmetry_Int_Tables_number   1
_chemical_formula_structural   CuNiC16
_chemical_formula_sum   'Cu2 Ni2 C32'
_cell_volume   472.30822371
_cell_formula_units_Z   2
loop_
 _symmetry_equiv_pos_site_id
 _symmetry_equiv_pos_as_xyz
  1  'x, y, z'
loop_
 _atom_site_type_symbol
 _atom_site_label
 _atom_site_symmetry_multiplicity
 _atom_site_fract_x
 _atom_site_fract_y
 _atom_site_fract_z
 _atom_site_occupancy
  C  C0  1  0.99832500  0.99832500  0.99832500  1
  C  C1  1  0.49832500  0.49832500  0.49832500  1
  Ni  Ni2  1  0.14739800  0.14739800  0.14739800  1
  Ni  Ni3  1  0.64739800  0.64739800  0.64739800  1
  Cu  Cu4  1  0.35423600  0.35423600  0.35423600  1
  Cu  Cu5  1  0.85423600  0.85423600  0.85423600  1
  C  C6  1  0.04021500  0.46145800  0.75061200  1
  C  C7  1  0.46145800  0.75061200  0.04021500  1
  C  C8  1  0.75061200  0.04021500  0.46145800  1
  C  C9  1  0.25061200  0.96145800  0.54021500  1
  C  C10  1  0.54021500  0.25061200  0.96145800  1
  C  C11  1  0.96145800  0.54021500  0.25061200  1
  C  C12  1  0.12162500  0.50874100  0.29453100  1
  C  C13  1  0.29453100  0.12162500  0.50874100  1
  C  C14  1  0.05678700  0.27222800  0.92193500  1
  C  C15  1  0.50874100  0.29453100  0.12162500  1
  C  C16  1  0.00874100  0.62162500  0.79453100  1
  C  C17  1  0.22658200  0.43617800  0.58194900  1
  C  C18  1  0.27222800  0.92193500  0.05678700  1
  C  C19  1  0.43617800  0.58194900  0.22658200  1
  C  C20  1  0.20580900  0.99957600  0.37181200  1
  C  C21  1  0.58194900  0.22658200  0.43617800  1
  C  C22  1  0.08194900  0.93617800  0.72658200  1
  C  C23  1  0.37181200  0.20580900  0.99957600  1
  C  C24  1  0.62162500  0.79453100  0.00874100  1
  C  C25  1  0.92193500  0.05678700  0.27222800  1
  C  C26  1  0.42193500  0.77222800  0.55678700  1
  C  C27  1  0.79453100  0.00874100  0.62162500  1
  C  C28  1  0.55678700  0.42193500  0.77222800  1
  C  C29  1  0.72658200  0.08194900  0.93617800  1
  C  C30  1  0.77222800  0.55678700  0.42193500  1
  C  C31  1  0.99957600  0.37181200  0.20580900  1
  C  C32  1  0.49957600  0.70580900  0.87181200  1
  C  C33  1  0.93617800  0.72658200  0.08194900  1
  C  C34  1  0.70580900  0.87181200  0.49957600  1
  C  C35  1  0.87181200  0.49957600  0.70580900  1
