# generated using pymatgen
data_Cu2Ni4C3
_symmetry_space_group_name_H-M   'P 1'
_cell_length_a   10.84945800
_cell_length_b   7.16727700
_cell_length_c   7.17851512
_cell_angle_alpha   68.04998958
_cell_angle_beta   90.00000000
_cell_angle_gamma   90.00000000
_symmetry_Int_Tables_number   1
_chemical_formula_structural   Cu2Ni4C3
_chemical_formula_sum   'Cu8 Ni16 C12'
_cell_volume   517.74464017
_cell_formula_units_Z   4
loop_
 _symmetry_equiv_pos_site_id
 _symmetry_equiv_pos_as_xyz
  1  'x, y, z'
loop_
 _atom_site_type_symbol
 _atom_site_label
 _atom_site_symmetry_multiplicity
 _atom_site_fract_x
 _atom_site_fract_y
 _atom_site_fract_z
 _atom_site_occupancy
  C  C0  1  0.88599900  0.76411100  0.03035400  1
  C  C1  1  0.11400100  0.23588900  0.96964600  1
  C  C2  1  0.88599900  0.23588900  0.46964600  1
  C  C3  1  0.11400100  0.76411100  0.53035400  1
  Ni  Ni4  1  0.70435400  0.59434000  0.66982400  1
  Ni  Ni5  1  0.29564600  0.40566000  0.33017600  1
  Ni  Ni6  1  0.70435400  0.40566000  0.83017600  1
  Ni  Ni7  1  0.29564600  0.59434000  0.16982400  1
  Ni  Ni8  1  0.47965700  0.59496200  0.67309200  1
  Ni  Ni9  1  0.52034300  0.40503800  0.32690800  1
  Ni  Ni10  1  0.47965700  0.40503800  0.82690800  1
  Ni  Ni11  1  0.52034300  0.59496200  0.17309200  1
  Ni  Ni12  1  0.59200500  0.68646700  0.59638200  1
  Ni  Ni13  1  0.40799500  0.31353300  0.40361800  1
  Ni  Ni14  1  0.59200500  0.31353300  0.90361800  1
  Ni  Ni15  1  0.40799500  0.68646700  0.09638200  1
  Ni  Ni16  1  0.82391200  0.69728900  0.56997300  1
  Ni  Ni17  1  0.17608800  0.30271100  0.43002700  1
  Ni  Ni18  1  0.82391200  0.30271100  0.93002700  1
  Ni  Ni19  1  0.17608800  0.69728900  0.06997300  1
  Cu  Cu20  1  0.86648800  0.83325200  0.62480700  1
  Cu  Cu21  1  0.13351200  0.16674800  0.37519300  1
  Cu  Cu22  1  0.86648800  0.16674800  0.87519300  1
  Cu  Cu23  1  0.13351200  0.83325200  0.12480700  1
  Cu  Cu24  1  0.87100500  0.36439900  0.05770100  1
  Cu  Cu25  1  0.12899500  0.63560100  0.94229900  1
  Cu  Cu26  1  0.87100500  0.63560100  0.44229900  1
  Cu  Cu27  1  0.12899500  0.36439900  0.55770100  1
  C  C28  1  0.41077600  0.86791900  0.94191800  1
  C  C29  1  0.58922400  0.13208100  0.05808200  1
  C  C30  1  0.41077600  0.13208100  0.55808200  1
  C  C31  1  0.58922400  0.86791900  0.44191800  1
  C  C32  1  0.37169300  0.68688200  0.59690400  1
  C  C33  1  0.62830700  0.31311800  0.40309600  1
  C  C34  1  0.37169300  0.31311800  0.90309600  1
  C  C35  1  0.62830700  0.68688200  0.09690400  1
