# generated using pymatgen
data_Cu2NiC7
_symmetry_space_group_name_H-M   'P 1'
_cell_length_a   6.88225407
_cell_length_b   7.84293213
_cell_length_c   9.56333670
_cell_angle_alpha   75.82580955
_cell_angle_beta   80.80275611
_cell_angle_gamma   94.71838108
_symmetry_Int_Tables_number   1
_chemical_formula_structural   Cu2NiC7
_chemical_formula_sum   'Cu8 Ni4 C28'
_cell_volume   490.06079721
_cell_formula_units_Z   4
loop_
 _symmetry_equiv_pos_site_id
 _symmetry_equiv_pos_as_xyz
  1  'x, y, z'
loop_
 _atom_site_type_symbol
 _atom_site_label
 _atom_site_symmetry_multiplicity
 _atom_site_fract_x
 _atom_site_fract_y
 _atom_site_fract_z
 _atom_site_occupancy
  Ni  Ni0  1  0.25018600  0.99996000  0.75001400  1
  Ni  Ni1  1  0.25000500  0.50001600  0.24994800  1
  Ni  Ni2  1  0.74998700  0.99997400  0.25003000  1
  Ni  Ni3  1  0.74980900  0.50005200  0.75000700  1
  C  C4  1  0.90273700  0.17370100  0.92350700  1
  C  C5  1  0.09725700  0.32629000  0.57648900  1
  C  C6  1  0.90269000  0.67371800  0.42353700  1
  C  C7  1  0.09731900  0.82628500  0.07645600  1
  Cu  Cu8  1  0.38942400  0.72847700  0.48338900  1
  Cu  Cu9  1  0.38945200  0.22850200  0.98338400  1
  Cu  Cu10  1  0.78815000  0.93259500  0.67781400  1
  Cu  Cu11  1  0.78813400  0.43249300  0.17768500  1
  Cu  Cu12  1  0.61056600  0.27149800  0.51662100  1
  Cu  Cu13  1  0.61057300  0.77152900  0.01660400  1
  Cu  Cu14  1  0.21187400  0.06750000  0.32230800  1
  Cu  Cu15  1  0.21184400  0.56741500  0.82219600  1
  C  C16  1  0.29920200  0.93868200  0.47750400  1
  C  C17  1  0.29894600  0.43864600  0.97752500  1
  C  C18  1  0.58382500  0.86995300  0.83107600  1
  C  C19  1  0.58394700  0.36986800  0.33101700  1
  C  C20  1  0.70103500  0.06134700  0.52248500  1
  C  C21  1  0.70080700  0.56132200  0.02249300  1
  C  C22  1  0.41607300  0.13014600  0.16898600  1
  C  C23  1  0.41616400  0.63004100  0.66892100  1
  C  C24  1  0.14249400  0.25942000  0.36867400  1
  C  C25  1  0.14242700  0.75940100  0.86845600  1
  C  C26  1  0.37214000  0.23330000  0.62410000  1
  C  C27  1  0.37208000  0.73347500  0.12410100  1
  C  C28  1  0.85756300  0.74058300  0.63156400  1
  C  C29  1  0.85750600  0.24059000  0.13130700  1
  C  C30  1  0.62793700  0.76651300  0.37592200  1
  C  C31  1  0.62783500  0.26671300  0.87588100  1
  C  C32  1  0.20313800  0.58871000  0.44177800  1
  C  C33  1  0.20350300  0.08839200  0.94182600  1
  C  C34  1  0.96952800  0.07491600  0.72171100  1
  C  C35  1  0.96972700  0.57482100  0.22140900  1
  C  C36  1  0.79652800  0.41159500  0.55817900  1
  C  C37  1  0.79684300  0.91129600  0.05821000  1
  C  C38  1  0.03030500  0.92517600  0.27856000  1
  C  C39  1  0.03044200  0.42508800  0.77832400  1
