# generated using pymatgen
data_Cu5Ni3C32
_symmetry_space_group_name_H-M   'P 1'
_cell_length_a   10.90597670
_cell_length_b   15.30563169
_cell_length_c   10.76586842
_cell_angle_alpha   90.01127163
_cell_angle_beta   90.02142614
_cell_angle_gamma   89.99455235
_symmetry_Int_Tables_number   1
_chemical_formula_structural   Cu5Ni3C32
_chemical_formula_sum   'Cu20 Ni12 C128'
_cell_volume   1797.06940708
_cell_formula_units_Z   4
loop_
 _symmetry_equiv_pos_site_id
 _symmetry_equiv_pos_as_xyz
  1  'x, y, z'
loop_
 _atom_site_type_symbol
 _atom_site_label
 _atom_site_symmetry_multiplicity
 _atom_site_fract_x
 _atom_site_fract_y
 _atom_site_fract_z
 _atom_site_occupancy
  C  C0  1  0.01293114  0.12475810  0.49811617  1
  C  C1  1  0.48645011  0.37506408  0.00212950  1
  C  C2  1  0.23599187  0.37574112  0.24838693  1
  C  C3  1  0.26925614  0.12446499  0.25329573  1
  C  C4  1  0.01793879  0.12478569  0.99515183  1
  C  C5  1  0.02270578  0.62516326  0.49722389  1
  C  C6  1  0.01865392  0.62524953  0.99510149  1
  C  C7  1  0.52414930  0.12481129  0.49579886  1
  C  C8  1  0.52497701  0.12493234  0.99491301  1
  C  C9  1  0.52407317  0.62518724  0.49564640  1
  C  C10  1  0.52407922  0.62513346  0.99526691  1
  C  C11  1  0.48048598  0.37661015  0.50690649  1
  C  C12  1  0.48086854  0.87524081  0.00434558  1
  C  C13  1  0.47981039  0.87330885  0.50593898  1
  C  C14  1  0.97609433  0.37627133  0.00230373  1
  C  C15  1  0.97549689  0.37608909  0.50535647  1
  C  C16  1  0.97561520  0.87369947  0.00249299  1
  C  C17  1  0.97612346  0.87387434  0.50501812  1
  C  C18  1  0.22887565  0.37726652  0.74334279  1
  C  C19  1  0.23075838  0.87431705  0.24740954  1
  C  C20  1  0.22908722  0.87272167  0.74434167  1
  C  C21  1  0.72745154  0.37474460  0.24707772  1
  C  C22  1  0.72667766  0.37515713  0.74441856  1
  C  C23  1  0.72631533  0.87516443  0.24607569  1
  C  C24  1  0.72636748  0.87483893  0.74477205  1
  C  C25  1  0.27538361  0.12462135  0.75469326  1
  C  C26  1  0.27460656  0.62533779  0.25540464  1
  C  C27  1  0.27339785  0.62538054  0.75170705  1
  C  C28  1  0.76668959  0.12488007  0.25414166  1
  C  C29  1  0.76842619  0.12505833  0.75529972  1
  C  C30  1  0.76790895  0.62520254  0.25442682  1
  C  C31  1  0.77304428  0.62495361  0.75565888  1
  Ni  Ni32  1  0.99723340  0.99812370  0.24950816  1
  Ni  Ni33  1  0.99868642  0.99834383  0.75183099  1
  Ni  Ni34  1  0.99708211  0.50052187  0.25064954  1
  Ni  Ni35  1  0.25140253  0.99880262  0.99838349  1
  Ni  Ni36  1  0.25230354  0.99774797  0.50281879  1
  Ni  Ni37  1  0.24916238  0.50152600  0.99801684  1
  Ni  Ni38  1  0.24988765  0.24968448  0.99719053  1
  Ni  Ni39  1  0.25171000  0.25149349  0.50424696  1
  Ni  Ni40  1  0.25066626  0.75001174  0.99929451  1
  Ni  Ni41  1  0.99584103  0.25123042  0.24990118  1
  Ni  Ni42  1  0.99831744  0.25154554  0.75148650  1
  Ni  Ni43  1  0.99874393  0.75010141  0.25036322  1
  Cu  Cu44  1  0.00045472  0.50177453  0.74945338  1
  Cu  Cu45  1  0.50273364  0.99939046  0.25202765  1
  Cu  Cu46  1  0.50224005  0.99977204  0.75200183  1
  Cu  Cu47  1  0.50219574  0.50155969  0.25239845  1
  Cu  Cu48  1  0.50144342  0.50175401  0.74827181  1
  Cu  Cu49  1  0.25161837  0.50237383  0.50070877  1
  Cu  Cu50  1  0.74834334  0.99922757  0.00155476  1
  Cu  Cu51  1  0.74674147  0.99848824  0.50142666  1
  Cu  Cu52  1  0.74990933  0.50036178  0.00057696  1
  Cu  Cu53  1  0.74990505  0.50109434  0.50256639  1
  Cu  Cu54  1  0.25219574  0.74853561  0.49895585  1
  Cu  Cu55  1  0.74974483  0.24954518  0.00196446  1
  Cu  Cu56  1  0.74661277  0.25112325  0.50164276  1
  Cu  Cu57  1  0.74847901  0.75089874  0.00014126  1
  Cu  Cu58  1  0.75002105  0.74927505  0.50235495  1
  Cu  Cu59  1  0.00082195  0.74845538  0.74961273  1
  Cu  Cu60  1  0.50388105  0.24844353  0.25243549  1
  Cu  Cu61  1  0.50178381  0.24912649  0.75019634  1
  Cu  Cu62  1  0.50080514  0.75069172  0.25179226  1
  Cu  Cu63  1  0.50185737  0.74923103  0.75004963  1
  C  C64  1  0.10464899  0.26738630  0.10376687  1
  C  C65  1  0.10607711  0.26984720  0.60751338  1
  C  C66  1  0.10642451  0.77015757  0.10554274  1
  C  C67  1  0.10431104  0.77001682  0.60263572  1
  C  C68  1  0.60908394  0.26625727  0.10748283  1
  C  C69  1  0.60290552  0.26979841  0.60145417  1
  C  C70  1  0.60285048  0.77034223  0.10250361  1
  C  C71  1  0.60403106  0.77029146  0.60318877  1
  C  C72  1  0.39833840  0.23391019  0.39388536  1
  C  C73  1  0.39716229  0.22949622  0.89013733  1
  C  C74  1  0.39732957  0.72842349  0.39740329  1
  C  C75  1  0.39649678  0.73034387  0.89228273  1
  C  C76  1  0.88553986  0.23525743  0.39185413  1
  C  C77  1  0.89183806  0.23258086  0.89795661  1
  C  C78  1  0.89174405  0.73061758  0.39721009  1
  C  C79  1  0.89622791  0.72955994  0.89732786  1
  C  C80  1  0.13990272  0.23628975  0.36007672  1
  C  C81  1  0.14361094  0.23153710  0.85292983  1
  C  C82  1  0.14663085  0.72998943  0.35617314  1
  C  C83  1  0.14293157  0.72963490  0.85266904  1
  C  C84  1  0.64678983  0.22954314  0.35394005  1
  C  C85  1  0.64642949  0.23015097  0.85321392  1
  C  C86  1  0.64625071  0.72955653  0.35302563  1
  C  C87  1  0.64679184  0.72921233  0.85250794  1
  C  C88  1  0.36269315  0.26324584  0.14129530  1
  C  C89  1  0.35796806  0.26788834  0.64858005  1
  C  C90  1  0.35736328  0.76925454  0.14688494  1
  C  C91  1  0.35476900  0.76996694  0.64679290  1
  C  C92  1  0.85276573  0.26968992  0.14166786  1
  C  C93  1  0.85318019  0.26851573  0.64216317  1
  C  C94  1  0.85282959  0.76966651  0.14321546  1
  C  C95  1  0.85376144  0.77096239  0.64730272  1
  C  C96  1  0.36100419  0.48768226  0.14267080  1
  C  C97  1  0.35464905  0.48126451  0.64717316  1
  C  C98  1  0.35921149  0.98001429  0.14553652  1
  C  C99  1  0.35795596  0.98063339  0.64831068  1
  C  C100  1  0.85339074  0.48075514  0.14292112  1
  C  C101  1  0.85384754  0.47906828  0.64731680  1
  C  C102  1  0.85200986  0.97991426  0.14199969  1
  C  C103  1  0.85314264  0.98142657  0.64210280  1
  C  C104  1  0.14116137  0.01278472  0.35871627  1
  C  C105  1  0.14368968  0.01755077  0.85357192  1
  C  C106  1  0.14532261  0.52093357  0.35787822  1
  C  C107  1  0.14276542  0.52116539  0.85197856  1
  C  C108  1  0.64671185  0.02005668  0.35276842  1
  C  C109  1  0.64711274  0.02049453  0.85243507  1
  C  C110  1  0.64653436  0.52085480  0.35421636  1
  C  C111  1  0.64601638  0.52012621  0.85332742  1
  C  C112  1  0.39904954  0.01663980  0.39461199  1
  C  C113  1  0.39843632  0.01930856  0.89290970  1
  C  C114  1  0.39667831  0.52095843  0.39706808  1
  C  C115  1  0.39516002  0.52080737  0.88955276  1
  C  C116  1  0.88600592  0.01404645  0.39166912  1
  C  C117  1  0.89170119  0.01727999  0.89807460  1
  C  C118  1  0.89128473  0.52004111  0.39734403  1
  C  C119  1  0.89621248  0.52053477  0.89728347  1
  C  C120  1  0.10477370  0.48219813  0.10444482  1
  C  C121  1  0.10372041  0.48034227  0.60320188  1
  C  C122  1  0.10621035  0.98038289  0.10479937  1
  C  C123  1  0.10682558  0.97960235  0.60695598  1
  C  C124  1  0.60859174  0.48449586  0.10791968  1
  C  C125  1  0.60448823  0.48063477  0.60213755  1
  C  C126  1  0.60333869  0.97900212  0.10217975  1
  C  C127  1  0.60249502  0.97927250  0.60243686  1
  C  C128  1  0.00179487  0.37645116  0.28533789  1
  C  C129  1  0.00831751  0.37816333  0.78596177  1
  C  C130  1  0.00772278  0.87358386  0.28546890  1
  C  C131  1  0.00845113  0.87179379  0.78609868  1
  C  C132  1  0.51027214  0.37542311  0.28891482  1
  C  C133  1  0.51156880  0.37540782  0.77988890  1
  C  C134  1  0.51187787  0.87470790  0.29131557  1
  C  C135  1  0.51124470  0.87461642  0.79056748  1
  C  C136  1  0.49837927  0.12375301  0.21111172  1
  C  C137  1  0.49099425  0.12459976  0.70990488  1
  C  C138  1  0.49006227  0.62634537  0.21181232  1
  C  C139  1  0.49034198  0.62536245  0.70887945  1
  C  C140  1  0.99153779  0.12464459  0.21608824  1
  C  C141  1  0.98955987  0.12489711  0.72390730  1
  C  C142  1  0.99157967  0.62532427  0.21410845  1
  C  C143  1  0.98768960  0.62500750  0.70896890  1
  C  C144  1  0.23993080  0.12416895  0.02578339  1
  C  C145  1  0.24746035  0.12473441  0.53460459  1
  C  C146  1  0.23979271  0.62590919  0.03513339  1
  C  C147  1  0.24015758  0.62528104  0.54040868  1
  C  C148  1  0.73984451  0.12427094  0.04029795  1
  C  C149  1  0.74012252  0.12485699  0.54038551  1
  C  C150  1  0.74065277  0.62572636  0.03941096  1
  C  C151  1  0.73818699  0.62517082  0.54144559  1
  C  C152  1  0.26010938  0.37845319  0.47453269  1
  C  C153  1  0.25369176  0.37543415  0.96405746  1
  C  C154  1  0.26014247  0.87134245  0.46409325  1
  C  C155  1  0.25940159  0.87459293  0.96229896  1
  C  C156  1  0.75939852  0.37605627  0.46166357  1
  C  C157  1  0.75796816  0.37523354  0.96063666  1
  C  C158  1  0.75957813  0.87393152  0.46123602  1
  C  C159  1  0.75944713  0.87477461  0.95961523  1
