# generated using pymatgen
data_Cu4Ni
_symmetry_space_group_name_H-M   'P 1'
_cell_length_a   12.08710916
_cell_length_b   12.08710916
_cell_length_c   20.73555928
_cell_angle_alpha   71.56778652
_cell_angle_beta   71.56778652
_cell_angle_gamma   58.74747696
_symmetry_Int_Tables_number   1
_chemical_formula_structural   Cu4Ni
_chemical_formula_sum   'Cu64 Ni16'
_cell_volume   2413.34398152
_cell_formula_units_Z   16
loop_
 _symmetry_equiv_pos_site_id
 _symmetry_equiv_pos_as_xyz
  1  'x, y, z'
loop_
 _atom_site_type_symbol
 _atom_site_label
 _atom_site_symmetry_multiplicity
 _atom_site_fract_x
 _atom_site_fract_y
 _atom_site_fract_z
 _atom_site_occupancy
  Ni  Ni0  1  0.94430800  0.37344900  0.37345600  1
  Ni  Ni1  1  0.62655100  0.05569200  0.12654400  1
  Ni  Ni2  1  0.05569200  0.62655100  0.62654400  1
  Ni  Ni3  1  0.37344900  0.94430800  0.87345600  1
  Ni  Ni4  1  0.18661300  0.55987100  0.12256200  1
  Ni  Ni5  1  0.44012900  0.81338700  0.37743800  1
  Ni  Ni6  1  0.81338700  0.44012900  0.87743800  1
  Ni  Ni7  1  0.55987100  0.18661300  0.62256200  1
  Ni  Ni8  1  0.68458100  0.55605700  0.12239300  1
  Ni  Ni9  1  0.44394300  0.31541900  0.37760700  1
  Ni  Ni10  1  0.31541900  0.44394300  0.87760700  1
  Ni  Ni11  1  0.55605700  0.68458100  0.62239300  1
  Ni  Ni12  1  0.93890100  0.87135800  0.37689400  1
  Ni  Ni13  1  0.12864200  0.06109900  0.12310600  1
  Ni  Ni14  1  0.06109900  0.12864200  0.62310600  1
  Ni  Ni15  1  0.87135800  0.93890100  0.87689400  1
  Cu  Cu16  1  0.86412800  0.44637600  0.30114500  1
  Cu  Cu17  1  0.55362400  0.13587200  0.19885500  1
  Cu  Cu18  1  0.13587200  0.55362400  0.69885500  1
  Cu  Cu19  1  0.44637600  0.86412800  0.80114500  1
  Cu  Cu20  1  0.95981100  0.49361200  0.39660600  1
  Cu  Cu21  1  0.50638800  0.04018900  0.10339400  1
  Cu  Cu22  1  0.04018900  0.50638800  0.60339400  1
  Cu  Cu23  1  0.49361200  0.95981100  0.89660600  1
  Cu  Cu24  1  0.84917600  0.31197500  0.44465200  1
  Cu  Cu25  1  0.68802500  0.15082400  0.05534800  1
  Cu  Cu26  1  0.15082400  0.68802500  0.55534800  1
  Cu  Cu27  1  0.31197500  0.84917600  0.94465200  1
  Cu  Cu28  1  0.10295500  0.24143300  0.35191100  1
  Cu  Cu29  1  0.75856700  0.89704500  0.14808900  1
  Cu  Cu30  1  0.89704500  0.75856700  0.64808900  1
  Cu  Cu31  1  0.24143300  0.10295500  0.85191100  1
  Cu  Cu32  1  0.18378400  0.40701600  0.14309300  1
  Cu  Cu33  1  0.59298400  0.81621600  0.35690700  1
  Cu  Cu34  1  0.81621600  0.59298400  0.85690700  1
  Cu  Cu35  1  0.40701600  0.18378400  0.64309300  1
  Cu  Cu36  1  0.10430000  0.63899000  0.19552800  1
  Cu  Cu37  1  0.36101000  0.89570000  0.30447200  1
  Cu  Cu38  1  0.89570000  0.36101000  0.80447200  1
  Cu  Cu39  1  0.63899000  0.10430000  0.69552800  1
  Cu  Cu40  1  0.35252200  0.53184600  0.10034900  1
  Cu  Cu41  1  0.46815400  0.64747800  0.39965100  1
  Cu  Cu42  1  0.64747800  0.46815400  0.89965100  1
  Cu  Cu43  1  0.53184600  0.35252200  0.60034900  1
  Cu  Cu44  1  0.10555900  0.66259200  0.05155900  1
  Cu  Cu45  1  0.33740800  0.89444100  0.44844100  1
  Cu  Cu46  1  0.89444100  0.33740800  0.94844100  1
  Cu  Cu47  1  0.66259200  0.10555900  0.55155900  1
  Cu  Cu48  1  0.68640100  0.40118700  0.14187300  1
  Cu  Cu49  1  0.59881300  0.31359900  0.35812700  1
  Cu  Cu50  1  0.31359900  0.59881300  0.85812700  1
  Cu  Cu51  1  0.40118700  0.68640100  0.64187300  1
  Cu  Cu52  1  0.59554500  0.63573600  0.19497800  1
  Cu  Cu53  1  0.36426400  0.40445500  0.30502200  1
  Cu  Cu54  1  0.40445500  0.36426400  0.80502200  1
  Cu  Cu55  1  0.63573600  0.59554500  0.69497800  1
  Cu  Cu56  1  0.84883200  0.53218000  0.10289300  1
  Cu  Cu57  1  0.46782000  0.15116800  0.39710700  1
  Cu  Cu58  1  0.15116800  0.46782000  0.89710700  1
  Cu  Cu59  1  0.53218000  0.84883200  0.60289300  1
  Cu  Cu60  1  0.60711800  0.65639300  0.04993300  1
  Cu  Cu61  1  0.34360700  0.39288200  0.45006700  1
  Cu  Cu62  1  0.39288200  0.34360700  0.95006700  1
  Cu  Cu63  1  0.65639300  0.60711800  0.54993300  1
  Cu  Cu64  1  0.85880100  0.93862600  0.30479800  1
  Cu  Cu65  1  0.06137400  0.14119900  0.19520200  1
  Cu  Cu66  1  0.14119900  0.06137400  0.69520200  1
  Cu  Cu67  1  0.93862600  0.85880100  0.80479800  1
  Cu  Cu68  1  0.84585600  0.80963100  0.44923300  1
  Cu  Cu69  1  0.19036900  0.15414400  0.05076700  1
  Cu  Cu70  1  0.15414400  0.19036900  0.55076700  1
  Cu  Cu71  1  0.80963100  0.84585600  0.94923300  1
  Cu  Cu72  1  0.95123400  0.99587700  0.39768400  1
  Cu  Cu73  1  0.00412300  0.04876600  0.10231600  1
  Cu  Cu74  1  0.04876600  0.00412300  0.60231600  1
  Cu  Cu75  1  0.99587700  0.95123400  0.89768400  1
  Cu  Cu76  1  0.09912100  0.74074800  0.35607300  1
  Cu  Cu77  1  0.25925200  0.90087900  0.14392700  1
  Cu  Cu78  1  0.90087900  0.25925200  0.64392700  1
  Cu  Cu79  1  0.74074800  0.09912100  0.85607300  1
