# generated using pymatgen
data_CuNiC8
_symmetry_space_group_name_H-M   'P 1'
_cell_length_a   5.41785300
_cell_length_b   5.42157415
_cell_length_c   5.47974573
_cell_angle_alpha   119.63052418
_cell_angle_beta   119.45496100
_cell_angle_gamma   90.01367513
_symmetry_Int_Tables_number   1
_chemical_formula_structural   CuNiC8
_chemical_formula_sum   'Cu1 Ni1 C8'
_cell_volume   115.35660940
_cell_formula_units_Z   1
loop_
 _symmetry_equiv_pos_site_id
 _symmetry_equiv_pos_as_xyz
  1  'x, y, z'
loop_
 _atom_site_type_symbol
 _atom_site_label
 _atom_site_symmetry_multiplicity
 _atom_site_fract_x
 _atom_site_fract_y
 _atom_site_fract_z
 _atom_site_occupancy
  C  C0  1  0.75004700  0.74996800  0.49990900  1
  C  C1  1  0.24977900  0.25276800  0.49992700  1
  Ni  Ni2  1  0.50027000  0.00038900  0.00004900  1
  Cu  Cu3  1  0.00057100  0.50027900  0.00021200  1
  C  C4  1  0.27737900  0.70197700  0.99143200  1
  C  C5  1  0.20901800  0.22115300  0.00654900  1
  C  C6  1  0.70567100  0.28392000  0.97795500  1
  C  C7  1  0.80697700  0.79452400  0.02411000  1
  C  C8  1  0.24721300  0.73452800  0.49370800  1
  C  C9  1  0.75307700  0.26049400  0.50615000  1
