# generated using pymatgen
data_Cu8Ni2C13
_symmetry_space_group_name_H-M   'P 1'
_cell_length_a   5.14139612
_cell_length_b   6.72181171
_cell_length_c   13.48434000
_cell_angle_alpha   90.00000000
_cell_angle_beta   90.00000000
_cell_angle_gamma   93.95434576
_symmetry_Int_Tables_number   1
_chemical_formula_structural   Cu8Ni2C13
_chemical_formula_sum   'Cu16 Ni4 C26'
_cell_volume   464.90257638
_cell_formula_units_Z   2
loop_
 _symmetry_equiv_pos_site_id
 _symmetry_equiv_pos_as_xyz
  1  'x, y, z'
loop_
 _atom_site_type_symbol
 _atom_site_label
 _atom_site_symmetry_multiplicity
 _atom_site_fract_x
 _atom_site_fract_y
 _atom_site_fract_z
 _atom_site_occupancy
  C  C0  1  0.50000000  0.50000000  0.00000000  1
  C  C1  1  0.00000000  0.00000000  0.50000000  1
  C  C2  1  0.97881700  0.14743300  0.18083700  1
  C  C3  1  0.92920300  0.65513400  0.43416300  1
  C  C4  1  0.92037300  0.60705800  0.82537900  1
  C  C5  1  0.02118300  0.85256700  0.81916300  1
  C  C6  1  0.12192000  0.25515800  0.28017900  1
  C  C7  1  0.17658600  0.68173600  0.75067000  1
  C  C8  1  0.37808000  0.24484200  0.78017900  1
  C  C9  1  0.32341400  0.81826400  0.25067000  1
  C  C10  1  0.47881700  0.64743300  0.31916300  1
  C  C11  1  0.42037300  0.10705800  0.67462100  1
  C  C12  1  0.42920300  0.15513400  0.06583700  1
  C  C13  1  0.52118300  0.35256700  0.68083700  1
  C  C14  1  0.57079700  0.84486600  0.93416300  1
  C  C15  1  0.57962700  0.89294200  0.32537900  1
  C  C16  1  0.67658600  0.18173600  0.74933000  1
  C  C17  1  0.62192000  0.75515800  0.21982100  1
  C  C18  1  0.82341400  0.31826400  0.24933000  1
  C  C19  1  0.87808000  0.74484200  0.71982100  1
  C  C20  1  0.07079700  0.34486600  0.56583700  1
  C  C21  1  0.07962700  0.39294200  0.17462100  1
  C  C22  1  0.01905400  0.75952900  0.06675900  1
  C  C23  1  0.51905400  0.25952900  0.43324100  1
  C  C24  1  0.48094600  0.74047100  0.56675900  1
  C  C25  1  0.98094600  0.24047100  0.93324100  1
  Ni  Ni26  1  0.99980100  0.72037100  0.77914900  1
  Ni  Ni27  1  0.49980100  0.22037100  0.72085100  1
  Ni  Ni28  1  0.50019900  0.77962900  0.27914900  1
  Ni  Ni29  1  0.00019900  0.27962900  0.22085100  1
  Cu  Cu30  1  0.97025800  0.22090000  0.58200900  1
  Cu  Cu31  1  0.08198900  0.89753200  0.15331600  1
  Cu  Cu32  1  0.18857700  0.57637100  0.08436300  1
  Cu  Cu33  1  0.26537100  0.33367000  0.90711300  1
  Cu  Cu34  1  0.23462900  0.16633000  0.40711300  1
  Cu  Cu35  1  0.31142300  0.92362900  0.58436300  1
  Cu  Cu36  1  0.41801100  0.60246800  0.65331600  1
  Cu  Cu37  1  0.52974200  0.27910000  0.08200900  1
  Cu  Cu38  1  0.47025800  0.72090000  0.91799100  1
  Cu  Cu39  1  0.58198900  0.39753200  0.34668400  1
  Cu  Cu40  1  0.68857700  0.07637100  0.41563700  1
  Cu  Cu41  1  0.76537100  0.83367000  0.59288700  1
  Cu  Cu42  1  0.73462900  0.66633000  0.09288700  1
  Cu  Cu43  1  0.81142300  0.42362900  0.91563700  1
  Cu  Cu44  1  0.91801100  0.10246800  0.84668400  1
  Cu  Cu45  1  0.02974200  0.77910000  0.41799100  1
