# generated using pymatgen
data_Cu3Ni2C11
_symmetry_space_group_name_H-M   'P 1'
_cell_length_a   10.19012682
_cell_length_b   10.19012682
_cell_length_c   10.19012682
_cell_angle_alpha   158.14879087
_cell_angle_beta   148.06830905
_cell_angle_gamma   39.02850160
_symmetry_Int_Tables_number   1
_chemical_formula_structural   Cu3Ni2C11
_chemical_formula_sum   'Cu3 Ni2 C11'
_cell_volume   207.98353077
_cell_formula_units_Z   1
loop_
 _symmetry_equiv_pos_site_id
 _symmetry_equiv_pos_as_xyz
  1  'x, y, z'
loop_
 _atom_site_type_symbol
 _atom_site_label
 _atom_site_symmetry_multiplicity
 _atom_site_fract_x
 _atom_site_fract_y
 _atom_site_fract_z
 _atom_site_occupancy
  Ni  Ni0  1  0.69976900  0.69976900  0.00000000  1
  Ni  Ni1  1  0.30023100  0.30023100  0.00000000  1
  Cu  Cu2  1  0.90649300  0.90649300  0.00000000  1
  Cu  Cu3  1  0.50000000  0.50000000  0.00000000  1
  Cu  Cu4  1  0.09350700  0.09350700  0.00000000  1
  C  C5  1  0.82900600  0.59507300  0.23393300  1
  C  C6  1  0.63886000  0.40492700  0.23393300  1
  C  C7  1  0.28415600  0.00000000  0.28415600  1
  C  C8  1  0.41243500  0.18557000  0.22686500  1
  C  C9  1  0.04129400  0.81443000  0.22686500  1
  C  C10  1  0.36114000  0.59507300  0.76606700  1
  C  C11  1  0.17099400  0.40492700  0.76606700  1
  C  C12  1  0.71584400  0.00000000  0.71584400  1
  C  C13  1  0.95870600  0.18557000  0.77313500  1
  C  C14  1  0.58756500  0.81443000  0.77313500  1
  C  C15  1  0.00000000  0.50000000  0.50000000  1
