# generated using pymatgen
data_Cu2Ni3C19
_symmetry_space_group_name_H-M   'P 1'
_cell_length_a   10.90359366
_cell_length_b   10.90359366
_cell_length_c   7.82034600
_cell_angle_alpha   90.00000000
_cell_angle_beta   90.00000000
_cell_angle_gamma   119.99999792
_symmetry_Int_Tables_number   1
_chemical_formula_structural   Cu2Ni3C19
_chemical_formula_sum   'Cu4 Ni6 C38'
_cell_volume   805.18546340
_cell_formula_units_Z   2
loop_
 _symmetry_equiv_pos_site_id
 _symmetry_equiv_pos_as_xyz
  1  'x, y, z'
loop_
 _atom_site_type_symbol
 _atom_site_label
 _atom_site_symmetry_multiplicity
 _atom_site_fract_x
 _atom_site_fract_y
 _atom_site_fract_z
 _atom_site_occupancy
  Ni  Ni0  1  0.73682600  0.00000000  0.22672600  1
  Ni  Ni1  1  0.00000000  0.73682600  0.22672600  1
  Ni  Ni2  1  0.26317400  0.00000000  0.72672600  1
  Ni  Ni3  1  0.00000000  0.26317400  0.72672600  1
  Ni  Ni4  1  0.26317400  0.26317400  0.22672600  1
  Ni  Ni5  1  0.73682600  0.73682600  0.72672600  1
  Cu  Cu6  1  0.33333300  0.66666700  0.47171600  1
  Cu  Cu7  1  0.66666700  0.33333300  0.97171600  1
  Cu  Cu8  1  0.33333300  0.66666700  0.97171600  1
  Cu  Cu9  1  0.66666700  0.33333300  0.47171600  1
  C  C10  1  0.39175400  0.00000000  0.17022000  1
  C  C11  1  0.00000000  0.39175400  0.17022000  1
  C  C12  1  0.60824600  0.00000000  0.67022000  1
  C  C13  1  0.00000000  0.60824600  0.67022000  1
  C  C14  1  0.60824600  0.60824600  0.17022000  1
  C  C15  1  0.39175400  0.39175400  0.67022000  1
  C  C16  1  0.00000000  0.00000000  0.00187300  1
  C  C17  1  0.00000000  0.00000000  0.50187300  1
  C  C18  1  0.13553400  0.57998500  0.21384100  1
  C  C19  1  0.42001500  0.55554900  0.21384100  1
  C  C20  1  0.86446600  0.42001500  0.71384100  1
  C  C21  1  0.42001500  0.86446600  0.71384100  1
  C  C22  1  0.44445100  0.86446600  0.21384100  1
  C  C23  1  0.57998500  0.44445100  0.71384100  1
  C  C24  1  0.44445100  0.57998500  0.71384100  1
  C  C25  1  0.57998500  0.13553400  0.21384100  1
  C  C26  1  0.55554900  0.13553400  0.71384100  1
  C  C27  1  0.55554900  0.42001500  0.21384100  1
  C  C28  1  0.13553400  0.55554900  0.71384100  1
  C  C29  1  0.86446600  0.44445100  0.21384100  1
  C  C30  1  0.13474700  0.39231400  0.02613400  1
  C  C31  1  0.60768600  0.74243300  0.02613400  1
  C  C32  1  0.86525300  0.60768600  0.52613400  1
  C  C33  1  0.60768600  0.86525300  0.52613400  1
  C  C34  1  0.25756700  0.86525300  0.02613400  1
  C  C35  1  0.39231400  0.25756700  0.52613400  1
  C  C36  1  0.25756700  0.39231400  0.52613400  1
  C  C37  1  0.39231400  0.13474700  0.02613400  1
  C  C38  1  0.74243300  0.13474700  0.52613400  1
  C  C39  1  0.74243300  0.60768600  0.02613400  1
  C  C40  1  0.13474700  0.74243300  0.52613400  1
  C  C41  1  0.86525300  0.25756700  0.02613400  1
  C  C42  1  0.29195500  0.00000000  0.34753600  1
  C  C43  1  0.00000000  0.29195500  0.34753600  1
  C  C44  1  0.70804500  0.00000000  0.84753600  1
  C  C45  1  0.00000000  0.70804500  0.84753600  1
  C  C46  1  0.70804500  0.70804500  0.34753600  1
  C  C47  1  0.29195500  0.29195500  0.84753600  1
