# generated using pymatgen
data_Cu2NiC17
_symmetry_space_group_name_H-M   'P 1'
_cell_length_a   7.55439726
_cell_length_b   7.56218095
_cell_length_c   7.55320391
_cell_angle_alpha   86.65510705
_cell_angle_beta   93.26888384
_cell_angle_gamma   93.42188691
_symmetry_Int_Tables_number   1
_chemical_formula_structural   Cu2NiC17
_chemical_formula_sum   'Cu4 Ni2 C34'
_cell_volume   429.37316513
_cell_formula_units_Z   2
loop_
 _symmetry_equiv_pos_site_id
 _symmetry_equiv_pos_as_xyz
  1  'x, y, z'
loop_
 _atom_site_type_symbol
 _atom_site_label
 _atom_site_symmetry_multiplicity
 _atom_site_fract_x
 _atom_site_fract_y
 _atom_site_fract_z
 _atom_site_occupancy
  C  C0  1  0.20048100  0.79155000  0.26595100  1
  C  C1  1  0.70264600  0.29398000  0.26941200  1
  C  C2  1  0.72059400  0.78171000  0.81043200  1
  C  C3  1  0.23019300  0.27583000  0.79768500  1
  C  C4  1  0.70832600  0.29667700  0.80960400  1
  C  C5  1  0.20788700  0.79906100  0.80482900  1
  C  C6  1  0.28313800  0.21674000  0.19889700  1
  C  C7  1  0.74595700  0.74342500  0.23618900  1
  Ni  Ni8  1  0.99613100  0.00059500  0.99880500  1
  Ni  Ni9  1  0.49461700  0.50132900  0.99786800  1
  C  C10  1  0.99992500  0.50146200  0.50423600  1
  C  C11  1  0.49427800  0.01172900  0.51737200  1
  Cu  Cu12  1  0.99703600  0.01090400  0.49783700  1
  Cu  Cu13  1  0.49849500  0.50746700  0.50312800  1
  Cu  Cu14  1  0.49660400  0.99270000  0.00725900  1
  Cu  Cu15  1  0.99888800  0.49594100  0.00385300  1
  C  C16  1  0.94534900  0.74595700  0.42843900  1
  C  C17  1  0.44022700  0.25398400  0.42696900  1
  C  C18  1  0.93900300  0.94306500  0.73489800  1
  C  C19  1  0.44617600  0.42853800  0.73972300  1
  C  C20  1  0.74295100  0.93446700  0.05180200  1
  C  C21  1  0.24094400  0.43700100  0.04580400  1
  C  C22  1  0.77642200  0.08089600  0.41816900  1
  C  C23  1  0.24791200  0.57053600  0.43909100  1
  C  C24  1  0.44892400  0.75624300  0.92166300  1
  C  C25  1  0.94245500  0.25625800  0.94515500  1
  C  C26  1  0.56975700  0.07642400  0.75927900  1
  C  C27  1  0.06506100  0.56141200  0.74595500  1
  C  C28  1  0.42694900  0.92312900  0.23535700  1
  C  C29  1  0.93905400  0.43964500  0.25736500  1
  C  C30  1  0.54624500  0.24195600  0.06128900  1
  C  C31  1  0.05710100  0.74147800  0.04384100  1
  C  C32  1  0.24397700  0.94254700  0.57455900  1
  C  C33  1  0.75654100  0.41884800  0.55536500  1
  C  C34  1  0.25164200  0.05237000  0.93731600  1
  C  C35  1  0.75452500  0.54593300  0.94584400  1
  C  C36  1  0.07650900  0.03915200  0.25752100  1
  C  C37  1  0.55595400  0.55147500  0.25744400  1
  C  C38  1  0.07635100  0.25829500  0.56279100  1
  C  C39  1  0.59237000  0.72169200  0.57340900  1
