# generated using pymatgen
data_CuNi2C13
_symmetry_space_group_name_H-M   'P 1'
_cell_length_a   5.71450222
_cell_length_b   10.04828538
_cell_length_c   5.87317867
_cell_angle_alpha   104.68476243
_cell_angle_beta   119.11436702
_cell_angle_gamma   73.45949347
_symmetry_Int_Tables_number   1
_chemical_formula_structural   CuNi2C13
_chemical_formula_sum   'Cu2 Ni4 C26'
_cell_volume   279.76602138
_cell_formula_units_Z   2
loop_
 _symmetry_equiv_pos_site_id
 _symmetry_equiv_pos_as_xyz
  1  'x, y, z'
loop_
 _atom_site_type_symbol
 _atom_site_label
 _atom_site_symmetry_multiplicity
 _atom_site_fract_x
 _atom_site_fract_y
 _atom_site_fract_z
 _atom_site_occupancy
  C  C0  1  0.25008000  0.75047900  0.75066400  1
  C  C1  1  0.74985100  0.24952700  0.24929900  1
  C  C2  1  0.25003500  0.25005900  0.25007500  1
  C  C3  1  0.75000400  0.74993300  0.74988700  1
  C  C4  1  0.99996900  0.99999300  0.49994400  1
  C  C5  1  0.50006500  0.50001900  0.00008700  1
  C  C6  1  0.24990900  0.74979000  0.24983200  1
  C  C7  1  0.75008700  0.25023800  0.75016900  1
  C  C8  1  0.24987000  0.25020800  0.75019200  1
  C  C9  1  0.75014500  0.74976400  0.24985100  1
  Ni  Ni10  1  0.99990400  0.00003200  0.99991000  1
  Ni  Ni11  1  0.49999200  0.49997100  0.50006600  1
  Ni  Ni12  1  0.50001100  0.99996100  0.00007700  1
  Ni  Ni13  1  0.99983600  0.50002300  0.50000800  1
  Cu  Cu14  1  0.99997700  0.50006600  0.00008400  1
  Cu  Cu15  1  0.49999000  0.99993000  0.49993900  1
  C  C16  1  0.86416200  0.88512300  0.11305900  1
  C  C17  1  0.36437800  0.38486100  0.61333700  1
  C  C18  1  0.13593900  0.11479800  0.88678500  1
  C  C19  1  0.63565300  0.61523800  0.38676600  1
  C  C20  1  0.35872900  0.87915100  0.09606600  1
  C  C21  1  0.85783400  0.37902800  0.59473000  1
  C  C22  1  0.64154700  0.12079900  0.90384100  1
  C  C23  1  0.14194600  0.62099300  0.40536600  1
  C  C24  1  0.86286000  0.89465900  0.64972400  1
  C  C25  1  0.36067100  0.39498900  0.14817800  1
  C  C26  1  0.39240600  0.89466900  0.64961300  1
  C  C27  1  0.89244500  0.39495500  0.14825900  1
  C  C28  1  0.13731900  0.10530500  0.35024200  1
  C  C29  1  0.63917600  0.60508500  0.85185800  1
  C  C30  1  0.60776900  0.10532000  0.35011000  1
  C  C31  1  0.10744200  0.60503400  0.85198200  1
