# generated using pymatgen
data_Cu3NiC36
_symmetry_space_group_name_H-M   'P 1'
_cell_length_a   8.69714300
_cell_length_b   8.70628954
_cell_length_c   8.70798745
_cell_angle_alpha   61.91633994
_cell_angle_beta   61.82705380
_cell_angle_gamma   61.69042657
_symmetry_Int_Tables_number   1
_chemical_formula_structural   Cu3NiC36
_chemical_formula_sum   'Cu3 Ni1 C36'
_cell_volume   485.15455313
_cell_formula_units_Z   1
loop_
 _symmetry_equiv_pos_site_id
 _symmetry_equiv_pos_as_xyz
  1  'x, y, z'
loop_
 _atom_site_type_symbol
 _atom_site_label
 _atom_site_symmetry_multiplicity
 _atom_site_fract_x
 _atom_site_fract_y
 _atom_site_fract_z
 _atom_site_occupancy
  C  C0  1  0.97116400  0.99995400  0.99154900  1
  C  C1  1  0.25513800  0.64582400  0.84666600  1
  C  C2  1  0.52558500  0.50160500  0.49539600  1
  C  C3  1  0.70458900  0.34729300  0.16046800  1
  C  C4  1  0.34664900  0.16445800  0.70271000  1
  C  C5  1  0.16276600  0.70486700  0.34736200  1
  Ni  Ni6  1  0.14657800  0.14903100  0.14914400  1
  Cu  Cu7  1  0.85819900  0.86010700  0.85298800  1
  Cu  Cu8  1  0.64197500  0.64628500  0.63873100  1
  Cu  Cu9  1  0.35408800  0.35238800  0.35160500  1
  C  C10  1  0.94543100  0.56263500  0.25209700  1
  C  C11  1  0.55857700  0.25245200  0.94430100  1
  C  C12  1  0.25127900  0.94908200  0.55818100  1
  C  C13  1  0.75080100  0.04119200  0.46100200  1
  C  C14  1  0.45981600  0.74914800  0.03599100  1
  C  C15  1  0.04273200  0.46699200  0.75109900  1
  C  C16  1  0.87065600  0.50530000  0.71596800  1
  C  C17  1  0.70055100  0.88274700  0.48832500  1
  C  C18  1  0.93325600  0.74140000  0.08592600  1
  C  C19  1  0.46876900  0.70393900  0.87922400  1
  C  C20  1  0.75956300  0.56944900  0.41042200  1
  C  C21  1  0.99193900  0.39528500  0.19379200  1
  C  C22  1  0.74271600  0.09498900  0.91404300  1
  C  C23  1  0.54623300  0.41982400  0.76638200  1
  C  C24  1  0.40430800  0.75714900  0.57047800  1
  C  C25  1  0.82272100  0.99909400  0.60968800  1
  C  C26  1  0.90335300  0.07811100  0.26368800  1
  C  C27  1  0.62160300  0.80564400  0.98589300  1
  C  C28  1  0.39205700  0.19086900  0.99561900  1
  C  C29  1  0.09812400  0.91917400  0.74804300  1
  C  C30  1  0.18950300  0.99374400  0.39575500  1
  C  C31  1  0.58943500  0.22847700  0.44826600  1
  C  C32  1  0.44846800  0.58729400  0.22053000  1
  C  C33  1  0.26818900  0.90630100  0.07584600  1
  C  C34  1  0.02575300  0.61561400  0.81276500  1
  C  C35  1  0.22407100  0.44860500  0.58570300  1
  C  C36  1  0.53819800  0.30310400  0.10019700  1
  C  C37  1  0.07606700  0.27179300  0.90443400  1
  C  C38  1  0.30798600  0.10174100  0.53334300  1
  C  C39  1  0.10111400  0.53604000  0.30737800  1
