# generated using pymatgen
data_Cu11NiC10
_symmetry_space_group_name_H-M   'P 1'
_cell_length_a   12.20234000
_cell_length_b   12.20234000
_cell_length_c   6.42486000
_cell_angle_alpha   90.00000000
_cell_angle_beta   90.00000000
_cell_angle_gamma   90.00000000
_symmetry_Int_Tables_number   1
_chemical_formula_structural   Cu11NiC10
_chemical_formula_sum   'Cu44 Ni4 C40'
_cell_volume   956.64303139
_cell_formula_units_Z   4
loop_
 _symmetry_equiv_pos_site_id
 _symmetry_equiv_pos_as_xyz
  1  'x, y, z'
loop_
 _atom_site_type_symbol
 _atom_site_label
 _atom_site_symmetry_multiplicity
 _atom_site_fract_x
 _atom_site_fract_y
 _atom_site_fract_z
 _atom_site_occupancy
  C  C0  1  0.82337400  0.45402300  0.77719300  1
  C  C1  1  0.17662600  0.54597700  0.27719300  1
  C  C2  1  0.54597700  0.82337400  0.52719300  1
  C  C3  1  0.45402300  0.17662600  0.02719300  1
  Ni  Ni4  1  0.08982000  0.57358400  0.77526700  1
  Ni  Ni5  1  0.91018000  0.42641600  0.27526700  1
  Ni  Ni6  1  0.42641600  0.08982000  0.52526700  1
  Ni  Ni7  1  0.57358400  0.91018000  0.02526700  1
  Cu  Cu8  1  0.89783500  0.13620300  0.82601700  1
  Cu  Cu9  1  0.10216500  0.86379700  0.32601700  1
  Cu  Cu10  1  0.86379700  0.89783500  0.57601700  1
  Cu  Cu11  1  0.13620300  0.10216500  0.07601700  1
  Cu  Cu12  1  0.76952400  0.14240800  0.42385300  1
  Cu  Cu13  1  0.23047600  0.85759200  0.92385300  1
  Cu  Cu14  1  0.85759200  0.76952400  0.17385300  1
  Cu  Cu15  1  0.14240800  0.23047600  0.67385300  1
  Cu  Cu16  1  0.63597600  0.29947400  0.91819700  1
  Cu  Cu17  1  0.36402400  0.70052600  0.41819700  1
  Cu  Cu18  1  0.70052600  0.63597600  0.66819700  1
  Cu  Cu19  1  0.29947400  0.36402400  0.16819700  1
  Cu  Cu20  1  0.61048500  0.34713300  0.43383900  1
  Cu  Cu21  1  0.38951500  0.65286700  0.93383900  1
  Cu  Cu22  1  0.65286700  0.61048500  0.18383900  1
  Cu  Cu23  1  0.34713300  0.38951500  0.68383900  1
  Cu  Cu24  1  0.66071800  0.17317100  0.92120100  1
  Cu  Cu25  1  0.33928200  0.82682900  0.42120100  1
  Cu  Cu26  1  0.82682900  0.66071800  0.67120100  1
  Cu  Cu27  1  0.17317100  0.33928200  0.17120100  1
  Cu  Cu28  1  0.50010300  0.50175700  0.82930900  1
  Cu  Cu29  1  0.49989700  0.49824300  0.32930900  1
  Cu  Cu30  1  0.49824300  0.50010300  0.57930900  1
  Cu  Cu31  1  0.50175700  0.49989700  0.07930900  1
  Cu  Cu32  1  0.86239500  0.71819600  0.10965300  1
  Cu  Cu33  1  0.13760500  0.28180400  0.60965300  1
  Cu  Cu34  1  0.28180400  0.86239500  0.85965300  1
  Cu  Cu35  1  0.71819600  0.13760500  0.35965300  1
  Cu  Cu36  1  0.89730900  0.97207500  0.96069700  1
  Cu  Cu37  1  0.10269100  0.02792500  0.46069700  1
  Cu  Cu38  1  0.02792500  0.89730900  0.71069700  1
  Cu  Cu39  1  0.97207500  0.10269100  0.21069700  1
  Cu  Cu40  1  0.70774500  0.95674600  0.40662600  1
  Cu  Cu41  1  0.29225500  0.04325400  0.90662600  1
  Cu  Cu42  1  0.04325400  0.70774500  0.15662600  1
  Cu  Cu43  1  0.95674600  0.29225500  0.65662600  1
  Cu  Cu44  1  0.64114100  0.29583100  0.40922300  1
  Cu  Cu45  1  0.35885900  0.70416900  0.90922300  1
  Cu  Cu46  1  0.70416900  0.64114100  0.15922300  1
  Cu  Cu47  1  0.29583100  0.35885900  0.65922300  1
  Cu  Cu48  1  0.05084500  0.72648400  0.62377100  1
  Cu  Cu49  1  0.94915500  0.27351600  0.12377100  1
  Cu  Cu50  1  0.27351600  0.05084500  0.37377100  1
  Cu  Cu51  1  0.72648400  0.94915500  0.87377100  1
  C  C52  1  0.97996300  0.51413400  0.77804900  1
  C  C53  1  0.02003700  0.48586600  0.27804900  1
  C  C54  1  0.48586600  0.97996300  0.52804900  1
  C  C55  1  0.51413400  0.02003700  0.02804900  1
  C  C56  1  0.15983300  0.54680100  0.58648400  1
  C  C57  1  0.84016700  0.45319900  0.08648400  1
  C  C58  1  0.45319900  0.15983300  0.33648400  1
  C  C59  1  0.54680100  0.84016700  0.83648400  1
  C  C60  1  0.15575200  0.56066900  0.97443000  1
  C  C61  1  0.84424800  0.43933100  0.47443000  1
  C  C62  1  0.43933100  0.15575200  0.72443000  1
  C  C63  1  0.56066900  0.84424800  0.22443000  1
  C  C64  1  0.77179800  0.61501700  0.73894700  1
  C  C65  1  0.22820200  0.38498300  0.23894700  1
  C  C66  1  0.38498300  0.77179800  0.48894700  1
  C  C67  1  0.61501700  0.22820200  0.98894700  1
  C  C68  1  0.91952800  0.29575600  0.79293700  1
  C  C69  1  0.08047200  0.70424400  0.29293700  1
  C  C70  1  0.70424400  0.91952800  0.54293700  1
  C  C71  1  0.29575600  0.08047200  0.04293700  1
  C  C72  1  0.70091100  0.39727600  0.79235900  1
  C  C73  1  0.29908900  0.60272400  0.29235900  1
  C  C74  1  0.60272400  0.70091100  0.54235900  1
  C  C75  1  0.39727600  0.29908900  0.04235900  1
  C  C76  1  0.19923200  0.15253800  0.03536800  1
  C  C77  1  0.80076800  0.84746200  0.53536800  1
  C  C78  1  0.84746200  0.19923200  0.78536800  1
  C  C79  1  0.15253800  0.80076800  0.28536800  1
  C  C80  1  0.94982100  0.02112700  0.89134700  1
  C  C81  1  0.05017900  0.97887300  0.39134700  1
  C  C82  1  0.97887300  0.94982100  0.64134700  1
  C  C83  1  0.02112700  0.05017900  0.14134700  1
  C  C84  1  0.93926400  0.29470300  0.26913200  1
  C  C85  1  0.06073600  0.70529700  0.76913200  1
  C  C86  1  0.70529700  0.93926400  0.01913200  1
  C  C87  1  0.29470300  0.06073600  0.51913200  1
