# generated using pymatgen
data_CuNiC11
_symmetry_space_group_name_H-M   'P 1'
_cell_length_a   5.60808900
_cell_length_b   6.76537626
_cell_length_c   9.46718763
_cell_angle_alpha   107.40885744
_cell_angle_beta   105.01039187
_cell_angle_gamma   97.35882436
_symmetry_Int_Tables_number   1
_chemical_formula_structural   CuNiC11
_chemical_formula_sum   'Cu2 Ni2 C22'
_cell_volume   322.70512125
_cell_formula_units_Z   2
loop_
 _symmetry_equiv_pos_site_id
 _symmetry_equiv_pos_as_xyz
  1  'x, y, z'
loop_
 _atom_site_type_symbol
 _atom_site_label
 _atom_site_symmetry_multiplicity
 _atom_site_fract_x
 _atom_site_fract_y
 _atom_site_fract_z
 _atom_site_occupancy
  C  C0  1  0.78732000  0.25999200  0.05133700  1
  C  C1  1  0.21268000  0.74000800  0.94866300  1
  Ni  Ni2  1  0.65738800  0.25069800  0.64720300  1
  Ni  Ni3  1  0.34261200  0.74930200  0.35279700  1
  Cu  Cu4  1  0.94219300  0.66480000  0.54937600  1
  Cu  Cu5  1  0.05780700  0.33520000  0.45062400  1
  C  C6  1  0.84252700  0.82194900  0.23634700  1
  C  C7  1  0.15747300  0.17805100  0.76365300  1
  C  C8  1  0.44214800  0.27025100  0.29695600  1
  C  C9  1  0.55785200  0.72974900  0.70304400  1
  C  C10  1  0.06733400  0.32519600  0.89037000  1
  C  C11  1  0.55659300  0.74184200  0.21122200  1
  C  C12  1  0.10677600  0.94614000  0.75819200  1
  C  C13  1  0.74298900  0.57180200  0.69211600  1
  C  C14  1  0.44340700  0.25815800  0.78877800  1
  C  C15  1  0.57188100  0.83329900  0.57700600  1
  C  C16  1  0.42811900  0.16670100  0.42299400  1
  C  C17  1  0.62521700  0.88156400  0.86909600  1
  C  C18  1  0.89322400  0.05386000  0.24180800  1
  C  C19  1  0.37478300  0.11843600  0.13090400  1
  C  C20  1  0.93266600  0.67480400  0.10963000  1
  C  C21  1  0.01446800  0.80995600  0.39269300  1
  C  C22  1  0.98553200  0.19004400  0.60730700  1
  C  C23  1  0.71680300  0.41115000  0.34612500  1
  C  C24  1  0.25701100  0.42819800  0.30788400  1
  C  C25  1  0.28319700  0.58885000  0.65387500  1
