# generated using pymatgen
data_CuNiC61
_symmetry_space_group_name_H-M   'P 1'
_cell_length_a   8.54488400
_cell_length_b   8.71697000
_cell_length_c   8.73772400
_cell_angle_alpha   90.00000000
_cell_angle_beta   90.00000000
_cell_angle_gamma   90.00000000
_symmetry_Int_Tables_number   1
_chemical_formula_structural   CuNiC61
_chemical_formula_sum   'Cu1 Ni1 C61'
_cell_volume   650.83371900
_cell_formula_units_Z   1
loop_
 _symmetry_equiv_pos_site_id
 _symmetry_equiv_pos_as_xyz
  1  'x, y, z'
loop_
 _atom_site_type_symbol
 _atom_site_label
 _atom_site_symmetry_multiplicity
 _atom_site_fract_x
 _atom_site_fract_y
 _atom_site_fract_z
 _atom_site_occupancy
  Ni  Ni0  1  0.99294800  0.00000000  0.00000000  1
  Cu  Cu1  1  0.12023900  0.00000000  0.50000000  1
  C  C2  1  0.99280500  0.50000000  0.00000000  1
  C  C3  1  0.98974900  0.50000000  0.50000000  1
  C  C4  1  0.49999100  0.00000000  0.00000000  1
  C  C5  1  0.51738100  0.00000000  0.50000000  1
  C  C6  1  0.50049300  0.50000000  0.00000000  1
  C  C7  1  0.50525800  0.50000000  0.50000000  1
  C  C8  1  0.99644100  0.25195400  0.25115600  1
  C  C9  1  0.99644100  0.25195400  0.74884400  1
  C  C10  1  0.99644100  0.74804600  0.25115600  1
  C  C11  1  0.99644100  0.74804600  0.74884400  1
  C  C12  1  0.49820100  0.24807600  0.25200400  1
  C  C13  1  0.49820100  0.24807600  0.74799600  1
  C  C14  1  0.49820100  0.75192400  0.25200400  1
  C  C15  1  0.49820100  0.75192400  0.74799600  1
  C  C16  1  0.24752600  0.00000000  0.21867600  1
  C  C17  1  0.24752600  0.00000000  0.78132400  1
  C  C18  1  0.24706200  0.50000000  0.24478700  1
  C  C19  1  0.24706200  0.50000000  0.75521300  1
  C  C20  1  0.75698200  0.00000000  0.25734300  1
  C  C21  1  0.75698200  0.00000000  0.74265700  1
  C  C22  1  0.74751100  0.50000000  0.25008100  1
  C  C23  1  0.74751100  0.50000000  0.74991900  1
  C  C24  1  0.24778600  0.25860400  0.00000000  1
  C  C25  1  0.24954200  0.28188900  0.50000000  1
  C  C26  1  0.24778600  0.74139600  0.00000000  1
  C  C27  1  0.24954200  0.71811100  0.50000000  1
  C  C28  1  0.74604100  0.24959000  0.00000000  1
  C  C29  1  0.75894900  0.24314600  0.50000000  1
  C  C30  1  0.74604100  0.75041000  0.00000000  1
  C  C31  1  0.75894900  0.75685400  0.50000000  1
  C  C32  1  0.27339500  0.00000000  0.00000000  1
  C  C33  1  0.25410300  0.50000000  0.00000000  1
  C  C34  1  0.25738500  0.50000000  0.50000000  1
  C  C35  1  0.72195800  0.00000000  0.00000000  1
  C  C36  1  0.74376200  0.00000000  0.50000000  1
  C  C37  1  0.74244700  0.50000000  0.00000000  1
  C  C38  1  0.74356600  0.50000000  0.50000000  1
  C  C39  1  0.24722900  0.24616500  0.25454400  1
  C  C40  1  0.24722900  0.24616500  0.74545600  1
  C  C41  1  0.24722900  0.75383500  0.25454400  1
  C  C42  1  0.24722900  0.75383500  0.74545600  1
  C  C43  1  0.74679100  0.24907500  0.25183000  1
  C  C44  1  0.74679100  0.24907500  0.74817000  1
  C  C45  1  0.74679100  0.75092500  0.25183000  1
  C  C46  1  0.74679100  0.75092500  0.74817000  1
  C  C47  1  0.99872200  0.00000000  0.26095900  1
  C  C48  1  0.99872200  0.00000000  0.73904100  1
  C  C49  1  0.99888300  0.50000000  0.25166000  1
  C  C50  1  0.99888300  0.50000000  0.74834000  1
  C  C51  1  0.48637900  0.00000000  0.26291300  1
  C  C52  1  0.48637900  0.00000000  0.73708700  1
  C  C53  1  0.49633300  0.50000000  0.25269900  1
  C  C54  1  0.49633300  0.50000000  0.74730100  1
  C  C55  1  0.00012700  0.27448100  0.00000000  1
  C  C56  1  0.00320400  0.27133400  0.50000000  1
  C  C57  1  0.00012700  0.72551900  0.00000000  1
  C  C58  1  0.00320400  0.72866600  0.50000000  1
  C  C59  1  0.49536200  0.25362900  0.00000000  1
  C  C60  1  0.48952400  0.24442100  0.50000000  1
  C  C61  1  0.49536200  0.74637100  0.00000000  1
  C  C62  1  0.48952400  0.75557900  0.50000000  1
