# generated using pymatgen
data_Cu19Ni2C35
_symmetry_space_group_name_H-M   'P 1'
_cell_length_a   6.03902819
_cell_length_b   6.03902819
_cell_length_c   20.01148569
_cell_angle_alpha   81.34649257
_cell_angle_beta   81.34649257
_cell_angle_gamma   59.98507732
_symmetry_Int_Tables_number   1
_chemical_formula_structural   Cu19Ni2C35
_chemical_formula_sum   'Cu19 Ni2 C35'
_cell_volume   622.33539104
_cell_formula_units_Z   1
loop_
 _symmetry_equiv_pos_site_id
 _symmetry_equiv_pos_as_xyz
  1  'x, y, z'
loop_
 _atom_site_type_symbol
 _atom_site_label
 _atom_site_symmetry_multiplicity
 _atom_site_fract_x
 _atom_site_fract_y
 _atom_site_fract_z
 _atom_site_occupancy
  C  C0  1  0.43807800  0.43807800  0.68868800  1
  C  C1  1  0.18757000  0.18757000  0.43781000  1
  C  C2  1  0.93711500  0.93711500  0.18708400  1
  Ni  Ni3  1  0.22059500  0.22059500  0.84298900  1
  Ni  Ni4  1  0.34183900  0.34183900  0.96857900  1
  Cu  Cu5  1  0.99784000  0.99784000  0.00130900  1
  Cu  Cu6  1  0.71278300  0.22249500  0.84297200  1
  Cu  Cu7  1  0.22249500  0.71278300  0.84297200  1
  Cu  Cu8  1  0.69052300  0.69052300  0.93567500  1
  Cu  Cu9  1  0.09600000  0.09600000  0.71564600  1
  Cu  Cu10  1  0.74839500  0.74839500  0.74849400  1
  Cu  Cu11  1  0.45791500  0.97384000  0.59448900  1
  Cu  Cu12  1  0.97384000  0.45791500  0.59448900  1
  Cu  Cu13  1  0.72485600  0.20869900  0.34481400  1
  Cu  Cu14  1  0.84457300  0.84457300  0.46604200  1
  Cu  Cu15  1  0.97382600  0.97382600  0.59459200  1
  Cu  Cu16  1  0.72401700  0.72401700  0.34470400  1
  Cu  Cu17  1  0.49984000  0.49984000  0.50002100  1
  Cu  Cu18  1  0.25063600  0.25063600  0.25155000  1
  Cu  Cu19  1  0.20869900  0.72485600  0.34481400  1
  Cu  Cu20  1  0.96318900  0.46913800  0.09541800  1
  Cu  Cu21  1  0.46966800  0.46966800  0.09522900  1
  Cu  Cu22  1  0.59379700  0.59379700  0.21604000  1
  Cu  Cu23  1  0.46913800  0.96318900  0.09541800  1
  C  C24  1  0.53446000  0.04353700  0.90493900  1
  C  C25  1  0.52697200  0.52697200  0.90310700  1
  C  C26  1  0.40856400  0.40856400  0.79162700  1
  C  C27  1  0.02842600  0.02842600  0.90233100  1
  C  C28  1  0.90797300  0.38853900  0.78079700  1
  C  C29  1  0.66566900  0.13650000  0.53232200  1
  C  C30  1  0.38853900  0.90797300  0.78079700  1
  C  C31  1  0.81114000  0.26750500  0.65297300  1
  C  C32  1  0.04353700  0.53446000  0.90493900  1
  C  C33  1  0.01811900  0.01811900  0.40348900  1
  C  C34  1  0.15394200  0.15394200  0.53900500  1
  C  C35  1  0.26876400  0.26876400  0.65302600  1
  C  C36  1  0.91487800  0.91487800  0.78272400  1
  C  C37  1  0.78321400  0.78321400  0.64944700  1
  C  C38  1  0.66532100  0.66532100  0.53236300  1
  C  C39  1  0.13650000  0.66566900  0.53232200  1
  C  C40  1  0.88780800  0.41561600  0.28322600  1
  C  C41  1  0.56112400  0.01874000  0.40310900  1
  C  C42  1  0.01874000  0.56112400  0.40310900  1
  C  C43  1  0.26750500  0.81114000  0.65297300  1
  C  C44  1  0.90442900  0.90442900  0.28899700  1
  C  C45  1  0.28196100  0.28196100  0.15189600  1
  C  C46  1  0.41673800  0.41673800  0.28254700  1
  C  C47  1  0.16057000  0.16057000  0.03608500  1
  C  C48  1  0.53308200  0.53308200  0.40060600  1
  C  C49  1  0.63926000  0.16130000  0.03678000  1
  C  C50  1  0.41561600  0.88780800  0.28322600  1
  C  C51  1  0.16130000  0.63926000  0.03678000  1
  C  C52  1  0.31242800  0.76596900  0.15283400  1
  C  C53  1  0.76596900  0.31242800  0.15283400  1
  C  C54  1  0.76556700  0.76556700  0.15320200  1
  C  C55  1  0.65466000  0.65466000  0.03574700  1
