# generated using pymatgen
data_CuNi4C3
_symmetry_space_group_name_H-M   'P 1'
_cell_length_a   5.26096400
_cell_length_b   5.31797070
_cell_length_c   7.43908283
_cell_angle_alpha   109.79653094
_cell_angle_beta   105.08314740
_cell_angle_gamma   98.02161374
_symmetry_Int_Tables_number   1
_chemical_formula_structural   CuNi4C3
_chemical_formula_sum   'Cu2 Ni8 C6'
_cell_volume   183.04745732
_cell_formula_units_Z   2
loop_
 _symmetry_equiv_pos_site_id
 _symmetry_equiv_pos_as_xyz
  1  'x, y, z'
loop_
 _atom_site_type_symbol
 _atom_site_label
 _atom_site_symmetry_multiplicity
 _atom_site_fract_x
 _atom_site_fract_y
 _atom_site_fract_z
 _atom_site_occupancy
  C  C0  1  0.27003900  0.61477400  0.81190200  1
  C  C1  1  0.72996100  0.38522600  0.18809800  1
  C  C2  1  0.00000000  0.00000000  0.50000000  1
  C  C3  1  0.00000000  0.00000000  0.00000000  1
  C  C4  1  0.68483400  0.36264200  0.76072500  1
  C  C5  1  0.31516600  0.63735800  0.23927500  1
  Ni  Ni6  1  0.37148800  0.25137000  0.91133200  1
  Ni  Ni7  1  0.75285900  0.21348200  0.60850700  1
  Ni  Ni8  1  0.69584600  0.66499600  0.65661400  1
  Ni  Ni9  1  0.12321700  0.65713400  0.11991100  1
  Ni  Ni10  1  0.87678300  0.34286600  0.88009000  1
  Ni  Ni11  1  0.30415400  0.33500400  0.34338600  1
  Ni  Ni12  1  0.24714100  0.78651800  0.39149300  1
  Ni  Ni13  1  0.62851200  0.74863000  0.08866800  1
  Cu  Cu14  1  0.86468200  0.07571700  0.25338800  1
  Cu  Cu15  1  0.13531800  0.92428300  0.74661200  1
