# generated using pymatgen
data_Cu4Ni2C5
_symmetry_space_group_name_H-M   'P 1'
_cell_length_a   24.34908100
_cell_length_b   5.42539900
_cell_length_c   7.02589531
_cell_angle_alpha   59.47779741
_cell_angle_beta   90.00000000
_cell_angle_gamma   90.00000000
_symmetry_Int_Tables_number   1
_chemical_formula_structural   Cu4Ni2C5
_chemical_formula_sum   'Cu16 Ni8 C20'
_cell_volume   799.53438176
_cell_formula_units_Z   4
loop_
 _symmetry_equiv_pos_site_id
 _symmetry_equiv_pos_as_xyz
  1  'x, y, z'
loop_
 _atom_site_type_symbol
 _atom_site_label
 _atom_site_symmetry_multiplicity
 _atom_site_fract_x
 _atom_site_fract_y
 _atom_site_fract_z
 _atom_site_occupancy
  C  C0  1  0.56209300  0.00641300  0.73452400  1
  C  C1  1  0.06209300  0.99358700  0.76547600  1
  C  C2  1  0.93790700  0.00641300  0.23452400  1
  C  C3  1  0.88167100  0.97706800  0.35113700  1
  C  C4  1  0.11832900  0.02293200  0.64886300  1
  C  C5  1  0.82185600  0.68135300  0.89660800  1
  C  C6  1  0.67814400  0.68135300  0.39660800  1
  C  C7  1  0.61832900  0.97706800  0.85113700  1
  C  C8  1  0.43790700  0.99358700  0.26547600  1
  C  C9  1  0.17814400  0.31864700  0.10339200  1
  C  C10  1  0.32185600  0.31864700  0.60339200  1
  C  C11  1  0.38167100  0.02293200  0.14886300  1
  C  C12  1  0.11532700  0.86878000  0.47523100  1
  C  C13  1  0.69103600  0.02752300  0.16867400  1
  C  C14  1  0.38467300  0.86878000  0.97523100  1
  C  C15  1  0.19103600  0.97247700  0.33132600  1
  C  C16  1  0.30896400  0.97247700  0.83132600  1
  C  C17  1  0.88467300  0.13122000  0.52476900  1
  C  C18  1  0.80896400  0.02752300  0.66867400  1
  C  C19  1  0.61532700  0.13122000  0.02476900  1
  Ni  Ni20  1  0.86177300  0.53265000  0.94738100  1
  Ni  Ni21  1  0.63822700  0.53265000  0.44738100  1
  Ni  Ni22  1  0.15646800  0.14985000  0.67002700  1
  Ni  Ni23  1  0.34353200  0.14985000  0.17002700  1
  Ni  Ni24  1  0.36177300  0.46735000  0.55261900  1
  Ni  Ni25  1  0.13822700  0.46735000  0.05261900  1
  Ni  Ni26  1  0.84353200  0.85015000  0.32997300  1
  Ni  Ni27  1  0.65646800  0.85015000  0.82997300  1
  Cu  Cu28  1  0.06901900  0.98020400  0.96072800  1
  Cu  Cu29  1  0.96624300  0.24071100  0.20112100  1
  Cu  Cu30  1  0.72550700  0.59534500  0.52034800  1
  Cu  Cu31  1  0.93098100  0.01979600  0.03927200  1
  Cu  Cu32  1  0.43098100  0.98020400  0.46072800  1
  Cu  Cu33  1  0.46890400  0.22935900  0.13293700  1
  Cu  Cu34  1  0.56901900  0.01979600  0.53927200  1
  Cu  Cu35  1  0.77449300  0.59534500  0.02034800  1
  Cu  Cu36  1  0.53109600  0.77064100  0.86706300  1
  Cu  Cu37  1  0.03109600  0.22935900  0.63293700  1
  Cu  Cu38  1  0.46624300  0.75928900  0.29887900  1
  Cu  Cu39  1  0.96890400  0.77064100  0.36706300  1
  Cu  Cu40  1  0.53375700  0.24071100  0.70112100  1
  Cu  Cu41  1  0.03375700  0.75928900  0.79887900  1
  Cu  Cu42  1  0.27449300  0.40465500  0.47965200  1
  Cu  Cu43  1  0.22550700  0.40465500  0.97965200  1
