# generated using pymatgen
data_CuNiC5
_symmetry_space_group_name_H-M   'P 1'
_cell_length_a   5.32246900
_cell_length_b   6.48439600
_cell_length_c   11.48003800
_cell_angle_alpha   90.00000000
_cell_angle_beta   90.00000000
_cell_angle_gamma   90.00000000
_symmetry_Int_Tables_number   1
_chemical_formula_structural   CuNiC5
_chemical_formula_sum   'Cu4 Ni4 C20'
_cell_volume   396.21051354
_cell_formula_units_Z   4
loop_
 _symmetry_equiv_pos_site_id
 _symmetry_equiv_pos_as_xyz
  1  'x, y, z'
loop_
 _atom_site_type_symbol
 _atom_site_label
 _atom_site_symmetry_multiplicity
 _atom_site_fract_x
 _atom_site_fract_y
 _atom_site_fract_z
 _atom_site_occupancy
  Ni  Ni0  1  0.50000000  0.00000000  0.00000000  1
  Ni  Ni1  1  0.00000000  0.00000000  0.50000000  1
  Ni  Ni2  1  0.50000000  0.50000000  0.00000000  1
  Ni  Ni3  1  0.00000000  0.50000000  0.50000000  1
  Cu  Cu4  1  0.00536100  0.75000000  0.77739400  1
  Cu  Cu5  1  0.50536100  0.25000000  0.72260600  1
  Cu  Cu6  1  0.99463900  0.25000000  0.22260600  1
  Cu  Cu7  1  0.49463900  0.75000000  0.27739400  1
  C  C8  1  0.05288200  0.75000000  0.09793700  1
  C  C9  1  0.55288200  0.25000000  0.40206300  1
  C  C10  1  0.94711800  0.25000000  0.90206300  1
  C  C11  1  0.44711800  0.75000000  0.59793700  1
  C  C12  1  0.17162300  0.75000000  0.95449600  1
  C  C13  1  0.67162300  0.25000000  0.54550400  1
  C  C14  1  0.82837700  0.25000000  0.04550400  1
  C  C15  1  0.32837700  0.75000000  0.45449600  1
  C  C16  1  0.79271300  0.04191100  0.82497500  1
  C  C17  1  0.29271300  0.95808900  0.67502500  1
  C  C18  1  0.20728700  0.54191100  0.17502500  1
  C  C19  1  0.70728700  0.45808900  0.32497500  1
  C  C20  1  0.20728700  0.95808900  0.17502500  1
  C  C21  1  0.70728700  0.04191100  0.32497500  1
  C  C22  1  0.79271300  0.45808900  0.82497500  1
  C  C23  1  0.29271300  0.54191100  0.67502500  1
  C  C24  1  0.77388500  0.75000000  0.61155300  1
  C  C25  1  0.27388500  0.25000000  0.88844700  1
  C  C26  1  0.22611500  0.25000000  0.38844700  1
  C  C27  1  0.72611500  0.75000000  0.11155300  1
