# generated using pymatgen
data_CuNi27C14
_symmetry_space_group_name_H-M   'P 1'
_cell_length_a   7.43601100
_cell_length_b   8.73841337
_cell_length_c   8.74111990
_cell_angle_alpha   63.37061087
_cell_angle_beta   64.82724843
_cell_angle_gamma   64.83860618
_symmetry_Int_Tables_number   1
_chemical_formula_structural   CuNi27C14
_chemical_formula_sum   'Cu1 Ni27 C14'
_cell_volume   439.78843393
_cell_formula_units_Z   1
loop_
 _symmetry_equiv_pos_site_id
 _symmetry_equiv_pos_as_xyz
  1  'x, y, z'
loop_
 _atom_site_type_symbol
 _atom_site_label
 _atom_site_symmetry_multiplicity
 _atom_site_fract_x
 _atom_site_fract_y
 _atom_site_fract_z
 _atom_site_occupancy
  C  C0  1  0.78980400  0.81899100  0.07164700  1
  C  C1  1  0.28650800  0.32225500  0.56988800  1
  C  C2  1  0.70920600  0.56969200  0.81995400  1
  C  C3  1  0.21274100  0.07189200  0.32073700  1
  C  C4  1  0.37321500  0.73541400  0.98245100  1
  C  C5  1  0.87690300  0.23253900  0.48487400  1
  C  C6  1  0.87178300  0.12864300  0.87230200  1
  C  C7  1  0.37193400  0.62749300  0.37155000  1
  C  C8  1  0.28508700  0.41241000  0.16107600  1
  C  C9  1  0.77668900  0.92198800  0.65890100  1
  C  C10  1  0.60048300  0.27600700  0.02684800  1
  C  C11  1  0.09870600  0.78283000  0.51810900  1
  C  C12  1  0.23974400  0.18696600  0.93579600  1
  C  C13  1  0.72847500  0.69077800  0.42809100  1
  Ni  Ni14  1  0.71691000  0.61580300  0.05013900  1
  Ni  Ni15  1  0.21877000  0.11517200  0.55207600  1
  Ni  Ni16  1  0.40043800  0.50373100  0.02229200  1
  Ni  Ni17  1  0.89948800  0.99942900  0.52652100  1
  Ni  Ni18  1  0.33332100  0.28901200  0.80712800  1
  Ni  Ni19  1  0.84019900  0.78658200  0.31420000  1
  Ni  Ni20  1  0.04318500  0.43040800  0.94766800  1
  Ni  Ni21  1  0.55168600  0.92302200  0.45047000  1
  Ni  Ni22  1  0.12083300  0.64134000  0.16866700  1
  Ni  Ni23  1  0.61894700  0.14671700  0.66748300  1
  Ni  Ni24  1  0.69152900  0.35526200  0.88166400  1
  Ni  Ni25  1  0.19299900  0.85657000  0.37848300  1
  Ni  Ni26  1  0.47136600  0.71493600  0.23640800  1
  Ni  Ni27  1  0.97682500  0.21268000  0.73948800  1
  Ni  Ni28  1  0.54808100  0.39323700  0.37056200  1
  Ni  Ni29  1  0.04388000  0.89314900  0.86717400  1
  Ni  Ni30  1  0.78170600  0.04061200  0.01795700  1
  Ni  Ni31  1  0.27941600  0.54422500  0.51885400  1
  Ni  Ni32  1  0.13649700  0.10040000  0.07648800  1
  Ni  Ni33  1  0.63798700  0.60113100  0.57625000  1
  Ni  Ni34  1  0.73642900  0.79553600  0.81838300  1
  Ni  Ni35  1  0.23479500  0.29547300  0.31979500  1
  Ni  Ni36  1  0.35736000  0.72418000  0.74415500  1
  Ni  Ni37  1  0.86441300  0.22133100  0.24845600  1
  Ni  Ni38  1  0.44111400  0.94461000  0.96998200  1
  Ni  Ni39  1  0.93714000  0.44808300  0.46995100  1
  Ni  Ni40  1  0.46256100  0.20374300  0.12959000  1
  Cu  Cu41  1  0.97284800  0.69372700  0.63949200  1
