# generated using pymatgen
data_CuNiC
_symmetry_space_group_name_H-M   'P 1'
_cell_length_a   4.60646600
_cell_length_b   7.50069100
_cell_length_c   8.02946200
_cell_angle_alpha   90.00000000
_cell_angle_beta   90.00000000
_cell_angle_gamma   90.00000000
_symmetry_Int_Tables_number   1
_chemical_formula_structural   CuNiC
_chemical_formula_sum   'Cu4 Ni4 C4'
_cell_volume   277.43138608
_cell_formula_units_Z   4
loop_
 _symmetry_equiv_pos_site_id
 _symmetry_equiv_pos_as_xyz
  1  'x, y, z'
loop_
 _atom_site_type_symbol
 _atom_site_label
 _atom_site_symmetry_multiplicity
 _atom_site_fract_x
 _atom_site_fract_y
 _atom_site_fract_z
 _atom_site_occupancy
  C  C0  1  0.25000000  0.51683400  0.19047300  1
  C  C1  1  0.75000000  0.48316600  0.80952700  1
  C  C2  1  0.75000000  0.98316600  0.69047300  1
  C  C3  1  0.25000000  0.01683400  0.30952700  1
  Ni  Ni4  1  0.25000000  0.67405000  0.58715900  1
  Ni  Ni5  1  0.75000000  0.32595000  0.41284100  1
  Ni  Ni6  1  0.75000000  0.82595000  0.08715900  1
  Ni  Ni7  1  0.25000000  0.17405000  0.91284100  1
  Cu  Cu8  1  0.25000000  0.80026400  0.90804500  1
  Cu  Cu9  1  0.75000000  0.19973600  0.09195500  1
  Cu  Cu10  1  0.75000000  0.69973600  0.40804500  1
  Cu  Cu11  1  0.25000000  0.30026400  0.59195500  1
