# generated using pymatgen
data_CuNiC12
_symmetry_space_group_name_H-M   'P 1'
_cell_length_a   3.90595900
_cell_length_b   3.88736000
_cell_length_c   12.91568100
_cell_angle_alpha   90.00000000
_cell_angle_beta   90.00000000
_cell_angle_gamma   90.00000000
_symmetry_Int_Tables_number   1
_chemical_formula_structural   CuNiC12
_chemical_formula_sum   'Cu1 Ni1 C12'
_cell_volume   196.11000549
_cell_formula_units_Z   1
loop_
 _symmetry_equiv_pos_site_id
 _symmetry_equiv_pos_as_xyz
  1  'x, y, z'
loop_
 _atom_site_type_symbol
 _atom_site_label
 _atom_site_symmetry_multiplicity
 _atom_site_fract_x
 _atom_site_fract_y
 _atom_site_fract_z
 _atom_site_occupancy
  C  C0  1  0.50000000  0.50000000  0.10923200  1
  C  C1  1  0.50000000  0.50000000  0.79624300  1
  Ni  Ni2  1  0.00000000  0.50000000  0.26857700  1
  Cu  Cu3  1  0.50000000  0.50000000  0.51317900  1
  C  C4  1  0.00000000  0.00000000  0.63930000  1
  C  C5  1  0.00000000  0.00000000  0.40298100  1
  C  C6  1  0.00000000  0.00000000  0.97564100  1
  C  C7  1  0.50000000  0.00000000  0.41058700  1
  C  C8  1  0.00000000  0.00000000  0.83004300  1
  C  C9  1  0.50000000  0.00000000  0.62606700  1
  C  C10  1  0.00000000  0.50000000  0.40820600  1
  C  C11  1  0.00000000  0.50000000  0.62089100  1
  C  C12  1  0.00000000  0.00000000  0.14383100  1
  C  C13  1  0.00000000  0.50000000  0.97744500  1
