# generated using pymatgen
data_Cu2NiC4
_symmetry_space_group_name_H-M   'P 1'
_cell_length_a   4.87568200
_cell_length_b   13.71734200
_cell_length_c   7.96156166
_cell_angle_alpha   90.00000000
_cell_angle_beta   97.09784046
_cell_angle_gamma   90.00000000
_symmetry_Int_Tables_number   1
_chemical_formula_structural   Cu2NiC4
_chemical_formula_sum   'Cu8 Ni4 C16'
_cell_volume   528.39975796
_cell_formula_units_Z   4
loop_
 _symmetry_equiv_pos_site_id
 _symmetry_equiv_pos_as_xyz
  1  'x, y, z'
loop_
 _atom_site_type_symbol
 _atom_site_label
 _atom_site_symmetry_multiplicity
 _atom_site_fract_x
 _atom_site_fract_y
 _atom_site_fract_z
 _atom_site_occupancy
  C  C0  1  0.25489700  0.65494100  0.57867700  1
  C  C1  1  0.74510300  0.15494100  0.92132300  1
  C  C2  1  0.74510300  0.34505900  0.42132300  1
  C  C3  1  0.25489700  0.84505900  0.07867700  1
  C  C4  1  0.05404500  0.43297300  0.89110200  1
  C  C5  1  0.94595500  0.93297300  0.60889800  1
  C  C6  1  0.94595500  0.56702700  0.10889800  1
  C  C7  1  0.05404500  0.06702700  0.39110200  1
  Ni  Ni8  1  0.24876300  0.39166400  0.90866300  1
  Ni  Ni9  1  0.75123700  0.89166400  0.59133700  1
  Ni  Ni10  1  0.75123700  0.60833600  0.09133700  1
  Ni  Ni11  1  0.24876300  0.10833600  0.40866300  1
  Cu  Cu12  1  0.34433100  0.34780000  0.05603400  1
  Cu  Cu13  1  0.65566900  0.84780000  0.44396600  1
  Cu  Cu14  1  0.65566900  0.65220000  0.94396600  1
  Cu  Cu15  1  0.34433100  0.15220000  0.55603400  1
  Cu  Cu16  1  0.40952400  0.38163900  0.78378500  1
  Cu  Cu17  1  0.59047600  0.88163900  0.71621500  1
  Cu  Cu18  1  0.59047600  0.61836100  0.21621500  1
  Cu  Cu19  1  0.40952400  0.11836100  0.28378500  1
  C  C20  1  0.31740600  0.42384100  0.64378400  1
  C  C21  1  0.68259400  0.92384100  0.85621600  1
  C  C22  1  0.68259400  0.57615900  0.35621600  1
  C  C23  1  0.31740600  0.07615900  0.14378400  1
  C  C24  1  0.18993600  0.35659000  0.17431800  1
  C  C25  1  0.81006400  0.85659000  0.32568200  1
  C  C26  1  0.81006400  0.64341000  0.82568200  1
  C  C27  1  0.18993600  0.14341000  0.67431800  1
