# generated using pymatgen
data_CuNi7C12
_symmetry_space_group_name_H-M   'P 1'
_cell_length_a   11.24251813
_cell_length_b   11.24251813
_cell_length_c   11.24251813
_cell_angle_alpha   117.25707458
_cell_angle_beta   117.25707458
_cell_angle_gamma   94.82039989
_symmetry_Int_Tables_number   1
_chemical_formula_structural   CuNi7C12
_chemical_formula_sum   'Cu2 Ni14 C24'
_cell_volume   1042.45699827
_cell_formula_units_Z   2
loop_
 _symmetry_equiv_pos_site_id
 _symmetry_equiv_pos_as_xyz
  1  'x, y, z'
loop_
 _atom_site_type_symbol
 _atom_site_label
 _atom_site_symmetry_multiplicity
 _atom_site_fract_x
 _atom_site_fract_y
 _atom_site_fract_z
 _atom_site_occupancy
  C  C0  1  0.14679000  0.64679000  0.50000000  1
  C  C1  1  0.85321000  0.35321000  0.50000000  1
  C  C2  1  0.64679000  0.14679000  0.50000000  1
  C  C3  1  0.35321000  0.85321000  0.50000000  1
  C  C4  1  0.83785800  0.70148400  0.26557200  1
  C  C5  1  0.16214200  0.29851600  0.73442800  1
  C  C6  1  0.43591300  0.57228700  0.73442800  1
  C  C7  1  0.70148400  0.43591300  0.86362600  1
  C  C8  1  0.06408700  0.79851600  0.13637400  1
  C  C9  1  0.56408700  0.42771300  0.26557200  1
  C  C10  1  0.29851600  0.56408700  0.13637400  1
  C  C11  1  0.93591300  0.20148400  0.86362600  1
  C  C12  1  0.57228700  0.83785800  0.13637400  1
  C  C13  1  0.66214200  0.92771300  0.86362600  1
  C  C14  1  0.42771300  0.16214200  0.86362600  1
  C  C15  1  0.33785800  0.07228700  0.13637400  1
  C  C16  1  0.92771300  0.06408700  0.26557200  1
  C  C17  1  0.07228700  0.93591300  0.73442800  1
  C  C18  1  0.79851600  0.66214200  0.73442800  1
  C  C19  1  0.20148400  0.33785800  0.26557200  1
  C  C20  1  0.17047600  0.67047600  0.84095200  1
  C  C21  1  0.82952400  0.32952400  0.15904800  1
  C  C22  1  0.67047600  0.82952400  0.50000000  1
  C  C23  1  0.32952400  0.17047600  0.50000000  1
  Ni  Ni24  1  0.61819000  0.11819000  0.73638000  1
  Ni  Ni25  1  0.38181000  0.88181000  0.26362000  1
  Ni  Ni26  1  0.11819000  0.38181000  0.50000000  1
  Ni  Ni27  1  0.88181000  0.61819000  0.50000000  1
  Ni  Ni28  1  0.50000000  0.50000000  0.00000000  1
  Ni  Ni29  1  0.00000000  0.00000000  0.00000000  1
  Ni  Ni30  1  0.38158100  0.88158100  0.85689100  1
  Ni  Ni31  1  0.61841900  0.11841900  0.14310900  1
  Ni  Ni32  1  0.02469000  0.52469000  0.14310900  1
  Ni  Ni33  1  0.88158100  0.02469000  0.50000000  1
  Ni  Ni34  1  0.47531000  0.61841900  0.50000000  1
  Ni  Ni35  1  0.97531000  0.47531000  0.85689100  1
  Ni  Ni36  1  0.11841900  0.97531000  0.50000000  1
  Ni  Ni37  1  0.52469000  0.38158100  0.50000000  1
  Cu  Cu38  1  0.75000000  0.75000000  0.00000000  1
  Cu  Cu39  1  0.25000000  0.25000000  0.00000000  1
