# generated using pymatgen
data_Cu2Ni4C
_symmetry_space_group_name_H-M   'P 1'
_cell_length_a   8.40186000
_cell_length_b   8.40186000
_cell_length_c   4.53531900
_cell_angle_alpha   90.00000000
_cell_angle_beta   90.00000000
_cell_angle_gamma   90.00000000
_symmetry_Int_Tables_number   1
_chemical_formula_structural   Cu2Ni4C
_chemical_formula_sum   'Cu4 Ni8 C2'
_cell_volume   320.15384398
_cell_formula_units_Z   2
loop_
 _symmetry_equiv_pos_site_id
 _symmetry_equiv_pos_as_xyz
  1  'x, y, z'
loop_
 _atom_site_type_symbol
 _atom_site_label
 _atom_site_symmetry_multiplicity
 _atom_site_fract_x
 _atom_site_fract_y
 _atom_site_fract_z
 _atom_site_occupancy
  C  C0  1  0.50000000  0.50000000  0.50000000  1
  C  C1  1  0.00000000  0.00000000  0.00000000  1
  Ni  Ni2  1  0.34388600  0.09136500  0.50000000  1
  Ni  Ni3  1  0.65611400  0.90863500  0.50000000  1
  Ni  Ni4  1  0.84388600  0.40863500  0.00000000  1
  Ni  Ni5  1  0.15611400  0.59136500  0.00000000  1
  Ni  Ni6  1  0.09136500  0.34388600  0.50000000  1
  Ni  Ni7  1  0.90863500  0.65611400  0.50000000  1
  Ni  Ni8  1  0.40863500  0.84388600  0.00000000  1
  Ni  Ni9  1  0.59136500  0.15611400  0.00000000  1
  Cu  Cu10  1  0.78078000  0.21922000  0.50000000  1
  Cu  Cu11  1  0.21922000  0.78078000  0.50000000  1
  Cu  Cu12  1  0.28078000  0.28078000  0.00000000  1
  Cu  Cu13  1  0.71922000  0.71922000  0.00000000  1
