# generated using pymatgen
data_Cu2NiC18
_symmetry_space_group_name_H-M   'P 1'
_cell_length_a   5.06880443
_cell_length_b   6.31644471
_cell_length_c   9.55406228
_cell_angle_alpha   109.86887213
_cell_angle_beta   102.54680150
_cell_angle_gamma   102.71745580
_symmetry_Int_Tables_number   1
_chemical_formula_structural   Cu2NiC18
_chemical_formula_sum   'Cu2 Ni1 C18'
_cell_volume   266.02417048
_cell_formula_units_Z   1
loop_
 _symmetry_equiv_pos_site_id
 _symmetry_equiv_pos_as_xyz
  1  'x, y, z'
loop_
 _atom_site_type_symbol
 _atom_site_label
 _atom_site_symmetry_multiplicity
 _atom_site_fract_x
 _atom_site_fract_y
 _atom_site_fract_z
 _atom_site_occupancy
  Ni  Ni0  1  0.18336700  0.72771300  0.07036400  1
  Cu  Cu1  1  0.08330300  0.60147100  0.37188300  1
  Cu  Cu2  1  0.91523800  0.38799700  0.63580400  1
  C  C3  1  0.25039300  0.14047800  0.36311000  1
  C  C4  1  0.58815000  0.67704900  0.85986300  1
  C  C5  1  0.40804500  0.33100300  0.13222000  1
  C  C6  1  0.74542500  0.85656500  0.63823400  1
  C  C7  1  0.08531000  0.87775500  0.31375700  1
  C  C8  1  0.06433000  0.30117400  0.40202100  1
  C  C9  1  0.32309500  0.49166100  0.72825000  1
  C  C10  1  0.20461900  0.48271600  0.15957300  1
  C  C11  1  0.39730200  0.20757400  0.96912900  1
  C  C12  1  0.46092300  0.76205800  0.50927500  1
  C  C13  1  0.68904300  0.88767200  0.80121200  1
  C  C14  1  0.28386500  0.11491700  0.19270600  1
  C  C15  1  0.53743600  0.22866100  0.48623500  1
  C  C16  1  0.54074600  0.78459800  0.01540300  1
  C  C17  1  0.84530300  0.58040300  0.87167400  1
  C  C18  1  0.69234600  0.48303400  0.26349800  1
  C  C19  1  0.92595000  0.68476900  0.60463600  1
  C  C20  1  0.92581000  0.09906300  0.65976600  1
