# generated using pymatgen
data_Cu10Ni3C
_symmetry_space_group_name_H-M   'P 1'
_cell_length_a   9.26152800
_cell_length_b   9.54710222
_cell_length_c   11.25818952
_cell_angle_alpha   103.95413348
_cell_angle_beta   101.93669158
_cell_angle_gamma   105.90995532
_symmetry_Int_Tables_number   1
_chemical_formula_structural   Cu10Ni3C
_chemical_formula_sum   'Cu40 Ni12 C4'
_cell_volume   888.45920577
_cell_formula_units_Z   4
loop_
 _symmetry_equiv_pos_site_id
 _symmetry_equiv_pos_as_xyz
  1  'x, y, z'
loop_
 _atom_site_type_symbol
 _atom_site_label
 _atom_site_symmetry_multiplicity
 _atom_site_fract_x
 _atom_site_fract_y
 _atom_site_fract_z
 _atom_site_occupancy
  C  C0  1  0.90020700  0.10141800  0.65773700  1
  C  C1  1  0.10076000  0.90549400  0.34557100  1
  C  C2  1  0.65107800  0.23414200  0.12837100  1
  C  C3  1  0.32980100  0.76886500  0.86450400  1
  Ni  Ni4  1  0.14397100  0.91270300  0.68299400  1
  Ni  Ni5  1  0.84974100  0.09431600  0.32049600  1
  Ni  Ni6  1  0.80935600  0.61044500  0.23310000  1
  Ni  Ni7  1  0.19298200  0.39634500  0.76975200  1
  Ni  Ni8  1  0.78147900  0.23779100  0.89506600  1
  Ni  Ni9  1  0.21378700  0.76558400  0.10609100  1
  Ni  Ni10  1  0.93478300  0.55697200  0.30661700  1
  Ni  Ni11  1  0.06546200  0.44793400  0.69756800  1
  Ni  Ni12  1  0.66125200  0.07169400  0.84453500  1
  Ni  Ni13  1  0.34071000  0.92884000  0.16022900  1
  Ni  Ni14  1  0.08507400  0.92999300  0.80367700  1
  Ni  Ni15  1  0.91028000  0.07672100  0.19941600  1
  Cu  Cu16  1  0.77651000  0.33171000  0.99419400  1
  Cu  Cu17  1  0.21472100  0.67207000  0.00535400  1
  Cu  Cu18  1  0.14673100  0.88355900  0.89126900  1
  Cu  Cu19  1  0.84756700  0.11846400  0.11010100  1
  Cu  Cu20  1  0.84736800  0.75449100  0.24612900  1
  Cu  Cu21  1  0.15436400  0.25297700  0.75976000  1
  Cu  Cu22  1  0.57057100  0.03957200  0.91355500  1
  Cu  Cu23  1  0.43605400  0.95774900  0.09470100  1
  Cu  Cu24  1  0.33876100  0.53838500  0.51309900  1
  Cu  Cu25  1  0.69874500  0.50948100  0.56113900  1
  Cu  Cu26  1  0.41158900  0.24152900  0.03068600  1
  Cu  Cu27  1  0.65502200  0.74524500  0.98844300  1
  Cu  Cu28  1  0.67787600  0.51291000  0.17004200  1
  Cu  Cu29  1  0.32595000  0.49424800  0.82869900  1
  Cu  Cu30  1  0.45180700  0.31915800  0.26213300  1
  Cu  Cu31  1  0.42537800  0.61427600  0.62245600  1
  Cu  Cu32  1  0.56340400  0.73555800  0.35641900  1
  Cu  Cu33  1  0.43675400  0.26785300  0.64672300  1
  Cu  Cu34  1  0.36685800  0.40496300  0.24175900  1
  Cu  Cu35  1  0.66808400  0.53971000  0.66353300  1
  Cu  Cu36  1  0.55793400  0.04960600  0.50055700  1
  Cu  Cu37  1  0.44187000  0.94970900  0.50234400  1
  Cu  Cu38  1  0.87752700  0.27461600  0.83333200  1
  Cu  Cu39  1  0.11656600  0.73123100  0.16780900  1
  Cu  Cu40  1  0.25948100  0.86766500  0.68470700  1
  Cu  Cu41  1  0.73360100  0.13773000  0.31845500  1
  Cu  Cu42  1  0.66062900  0.98474600  0.74144400  1
  Cu  Cu43  1  0.33983400  0.01530800  0.26347600  1
  Cu  Cu44  1  0.97857900  0.98808900  0.81032800  1
  Cu  Cu45  1  0.01974700  0.02091400  0.19617500  1
  Cu  Cu46  1  0.06111300  0.66048400  0.38118500  1
  Cu  Cu47  1  0.94033200  0.34496500  0.62213800  1
  Cu  Cu48  1  0.66739900  0.75945200  0.45470100  1
  Cu  Cu49  1  0.33429900  0.23692100  0.54557200  1
  Cu  Cu50  1  0.89908800  0.41471200  0.28905600  1
  Cu  Cu51  1  0.09665300  0.59095800  0.71590300  1
  Cu  Cu52  1  0.06961000  0.94697000  0.59156500  1
  Cu  Cu53  1  0.92563700  0.06036800  0.41167200  1
  Cu  Cu54  1  0.27743400  0.36960900  0.12756500  1
  Cu  Cu55  1  0.74653200  0.70378400  0.93499700  1
