# generated using pymatgen
data_CuNi2C13
_symmetry_space_group_name_H-M   'P 1'
_cell_length_a   9.98095173
_cell_length_b   9.98095173
_cell_length_c   6.01599628
_cell_angle_alpha   82.20642863
_cell_angle_beta   82.20642863
_cell_angle_gamma   119.43226859
_symmetry_Int_Tables_number   1
_chemical_formula_structural   CuNi2C13
_chemical_formula_sum   'Cu2 Ni4 C26'
_cell_volume   502.73581193
_cell_formula_units_Z   2
loop_
 _symmetry_equiv_pos_site_id
 _symmetry_equiv_pos_as_xyz
  1  'x, y, z'
loop_
 _atom_site_type_symbol
 _atom_site_label
 _atom_site_symmetry_multiplicity
 _atom_site_fract_x
 _atom_site_fract_y
 _atom_site_fract_z
 _atom_site_occupancy
  Ni  Ni0  1  0.78503200  0.92017100  0.68301400  1
  Ni  Ni1  1  0.92017100  0.78503200  0.18301400  1
  Ni  Ni2  1  0.30417600  0.15432800  0.21776800  1
  Ni  Ni3  1  0.15432800  0.30417600  0.71776800  1
  Cu  Cu4  1  0.49717500  0.01702700  0.53509700  1
  Cu  Cu5  1  0.01702700  0.49717500  0.03509700  1
  C  C6  1  0.64837300  0.22604200  0.95010200  1
  C  C7  1  0.22604200  0.64837300  0.45010200  1
  C  C8  1  0.82544600  0.08318300  0.12246200  1
  C  C9  1  0.08318300  0.82544600  0.62246200  1
  C  C10  1  0.79456000  0.39327200  0.87182800  1
  C  C11  1  0.39327200  0.79456000  0.37182800  1
  C  C12  1  0.71295400  0.10105500  0.95834200  1
  C  C13  1  0.10105500  0.71295400  0.45834200  1
  C  C14  1  0.53868800  0.17747700  0.78787300  1
  C  C15  1  0.17747700  0.53868800  0.28787300  1
  C  C16  1  0.55655100  0.19753900  0.19772300  1
  C  C17  1  0.19753900  0.55655100  0.69772300  1
  C  C18  1  0.97944300  0.24432500  0.06684100  1
  C  C19  1  0.24432500  0.97944300  0.56684100  1
  C  C20  1  0.85252700  0.95789600  0.03481300  1
  C  C21  1  0.95789600  0.85252700  0.53481300  1
  C  C22  1  0.73380800  0.03015800  0.37259800  1
  C  C23  1  0.03015800  0.73380800  0.87259800  1
  C  C24  1  0.76460400  0.44904500  0.23712800  1
  C  C25  1  0.44904500  0.76460400  0.73712800  1
  C  C26  1  0.44703800  0.45947200  0.02905100  1
  C  C27  1  0.45947200  0.44703800  0.52905100  1
  C  C28  1  0.57504600  0.58238100  0.46758300  1
  C  C29  1  0.58238100  0.57504600  0.96758300  1
  C  C30  1  0.07836900  0.13783800  0.43577800  1
  C  C31  1  0.13783800  0.07836900  0.93577800  1
