# generated using pymatgen
data_Cu(Ni2C5)2
_symmetry_space_group_name_H-M   'P 1'
_cell_length_a   10.53883994
_cell_length_b   10.51713216
_cell_length_c   9.17178226
_cell_angle_alpha   64.29925282
_cell_angle_beta   64.05511937
_cell_angle_gamma   51.64562781
_symmetry_Int_Tables_number   1
_chemical_formula_structural   Cu(Ni2C5)2
_chemical_formula_sum   'Cu2 Ni8 C20'
_cell_volume   697.63015160
_cell_formula_units_Z   2
loop_
 _symmetry_equiv_pos_site_id
 _symmetry_equiv_pos_as_xyz
  1  'x, y, z'
loop_
 _atom_site_type_symbol
 _atom_site_label
 _atom_site_symmetry_multiplicity
 _atom_site_fract_x
 _atom_site_fract_y
 _atom_site_fract_z
 _atom_site_occupancy
  C  C0  1  0.12500000  0.62500000  0.12500000  1
  C  C1  1  0.12500000  0.12500000  0.62500000  1
  C  C2  1  0.12500000  0.12500000  0.12500000  1
  C  C3  1  0.62500000  0.12500000  0.12500000  1
  Ni  Ni4  1  0.44846300  0.44029800  0.78743000  1
  Ni  Ni5  1  0.32380900  0.78743000  0.44029800  1
  Ni  Ni6  1  0.78743000  0.32380900  0.44846300  1
  Ni  Ni7  1  0.80153700  0.80970200  0.46257000  1
  Ni  Ni8  1  0.44029800  0.44846300  0.32380900  1
  Ni  Ni9  1  0.92619100  0.46257000  0.80970200  1
  Ni  Ni10  1  0.46257000  0.92619100  0.80153700  1
  Ni  Ni11  1  0.80970200  0.80153700  0.92619100  1
  Cu  Cu12  1  0.75000000  0.75000000  0.75000000  1
  Cu  Cu13  1  0.50000000  0.50000000  0.50000000  1
  C  C14  1  0.56881800  0.32109500  0.21771500  1
  C  C15  1  0.89237200  0.21771500  0.32109500  1
  C  C16  1  0.21771500  0.89237200  0.56881800  1
  C  C17  1  0.68118200  0.92890500  0.03228500  1
  C  C18  1  0.32109500  0.56881800  0.89237200  1
  C  C19  1  0.35762800  0.03228500  0.92890500  1
  C  C20  1  0.03228500  0.35762800  0.68118200  1
  C  C21  1  0.92890500  0.68118200  0.35762800  1
  C  C22  1  0.56763600  0.27080600  0.88071400  1
  C  C23  1  0.28084500  0.88071400  0.27080600  1
  C  C24  1  0.88071400  0.28084500  0.56763600  1
  C  C25  1  0.68236400  0.97919400  0.36928600  1
  C  C26  1  0.27080600  0.56763600  0.28084500  1
  C  C27  1  0.96915500  0.36928600  0.97919400  1
  C  C28  1  0.36928600  0.96915500  0.68236400  1
  C  C29  1  0.97919400  0.68236400  0.96915500  1
