# generated using pymatgen
data_Cu10NiC32
_symmetry_space_group_name_H-M   'P 1'
_cell_length_a   12.17331664
_cell_length_b   12.17331664
_cell_length_c   11.83429134
_cell_angle_alpha   85.13628338
_cell_angle_beta   85.13628338
_cell_angle_gamma   90.77673544
_symmetry_Int_Tables_number   1
_chemical_formula_structural   Cu10NiC32
_chemical_formula_sum   'Cu20 Ni2 C64'
_cell_volume   1740.73233096
_cell_formula_units_Z   2
loop_
 _symmetry_equiv_pos_site_id
 _symmetry_equiv_pos_as_xyz
  1  'x, y, z'
loop_
 _atom_site_type_symbol
 _atom_site_label
 _atom_site_symmetry_multiplicity
 _atom_site_fract_x
 _atom_site_fract_y
 _atom_site_fract_z
 _atom_site_occupancy
  C  C0  1  0.37420300  0.37064500  0.66971500  1
  C  C1  1  0.62935500  0.62579700  0.83028500  1
  C  C2  1  0.62579700  0.62935500  0.33028500  1
  C  C3  1  0.37064500  0.37420300  0.16971500  1
  C  C4  1  0.18117700  0.29559800  0.50615700  1
  C  C5  1  0.70440200  0.81882300  0.99384300  1
  C  C6  1  0.81882300  0.70440200  0.49384300  1
  C  C7  1  0.29559800  0.18117700  0.00615700  1
  C  C8  1  0.35280400  0.68103900  0.57935500  1
  C  C9  1  0.31896100  0.64719600  0.92064500  1
  C  C10  1  0.64719600  0.31896100  0.42064500  1
  C  C11  1  0.68103900  0.35280400  0.07935500  1
  C  C12  1  0.15309400  0.64438600  0.40325400  1
  C  C13  1  0.35561400  0.84690600  0.09674600  1
  C  C14  1  0.84690600  0.35561400  0.59674600  1
  C  C15  1  0.64438600  0.15309400  0.90325400  1
  C  C16  1  0.07858000  0.99802400  0.19067500  1
  C  C17  1  0.00197600  0.92142000  0.30932500  1
  C  C18  1  0.92142000  0.00197600  0.80932500  1
  C  C19  1  0.99802400  0.07858000  0.69067500  1
  Ni  Ni20  1  0.00453600  0.99546400  0.25000000  1
  Ni  Ni21  1  0.99546400  0.00453600  0.75000000  1
  Cu  Cu22  1  0.35922700  0.13732100  0.59592000  1
  Cu  Cu23  1  0.86267900  0.64077300  0.90408000  1
  Cu  Cu24  1  0.64077300  0.86267900  0.40408000  1
  Cu  Cu25  1  0.13732100  0.35922700  0.09592000  1
  Cu  Cu26  1  0.12959100  0.32085400  0.76145100  1
  Cu  Cu27  1  0.67914600  0.87040900  0.73854900  1
  Cu  Cu28  1  0.87040900  0.67914600  0.23854900  1
  Cu  Cu29  1  0.32085400  0.12959100  0.26145100  1
  Cu  Cu30  1  0.23441500  0.87437000  0.45901000  1
  Cu  Cu31  1  0.12563000  0.76558500  0.04099000  1
  Cu  Cu32  1  0.76558500  0.12563000  0.54099000  1
  Cu  Cu33  1  0.87437000  0.23441500  0.95901000  1
  Cu  Cu34  1  0.11415600  0.60247300  0.66577600  1
  Cu  Cu35  1  0.39752700  0.88584400  0.83422400  1
  Cu  Cu36  1  0.88584400  0.39752700  0.33422400  1
  Cu  Cu37  1  0.60247300  0.11415600  0.16577600  1
  Cu  Cu38  1  0.34849900  0.49030900  0.43278200  1
  Cu  Cu39  1  0.50969100  0.65150100  0.06721800  1
  Cu  Cu40  1  0.65150100  0.50969100  0.56721800  1
  Cu  Cu41  1  0.49030900  0.34849900  0.93278200  1
  C  C42  1  0.42598700  0.22505700  0.65049800  1
  C  C43  1  0.77494300  0.57401300  0.84950200  1
  C  C44  1  0.57401300  0.77494300  0.34950200  1
  C  C45  1  0.22505700  0.42598700  0.15049800  1
  C  C46  1  0.24531600  0.15786000  0.55098000  1
  C  C47  1  0.84214000  0.75468400  0.94902000  1
  C  C48  1  0.75468400  0.84214000  0.44902000  1
  C  C49  1  0.15786000  0.24531600  0.05098000  1
  C  C50  1  0.25300300  0.33274100  0.78070100  1
  C  C51  1  0.66725900  0.74699700  0.71929900  1
  C  C52  1  0.74699700  0.66725900  0.21929900  1
  C  C53  1  0.33274100  0.25300300  0.28070100  1
  C  C54  1  0.08694600  0.30371700  0.64463000  1
  C  C55  1  0.69628300  0.91305400  0.85537000  1
  C  C56  1  0.91305400  0.69628300  0.35537000  1
  C  C57  1  0.30371700  0.08694600  0.14463000  1
  C  C58  1  0.31313400  0.83020400  0.54660600  1
  C  C59  1  0.16979600  0.68686600  0.95339400  1
  C  C60  1  0.68686600  0.16979600  0.45339400  1
  C  C61  1  0.83020400  0.31313400  0.04660600  1
  C  C62  1  0.15925800  0.80130400  0.39629600  1
  C  C63  1  0.19869600  0.84074200  0.10370400  1
  C  C64  1  0.84074200  0.19869600  0.60370400  1
  C  C65  1  0.80130400  0.15925800  0.89629600  1
  C  C66  1  0.23366800  0.63097000  0.68937900  1
  C  C67  1  0.36903000  0.76633200  0.81062100  1
  C  C68  1  0.76633200  0.36903000  0.31062100  1
  C  C69  1  0.63097000  0.23366800  0.18937900  1
  C  C70  1  0.06872700  0.61856900  0.54757000  1
  C  C71  1  0.38143100  0.93127300  0.95243000  1
  C  C72  1  0.93127300  0.38143100  0.45243000  1
  C  C73  1  0.61856900  0.06872700  0.04757000  1
  C  C74  1  0.29447800  0.39596500  0.53742600  1
  C  C75  1  0.60403500  0.70552200  0.96257400  1
  C  C76  1  0.70552200  0.60403500  0.46257400  1
  C  C77  1  0.39596500  0.29447800  0.03742600  1
  C  C78  1  0.29836100  0.61651500  0.45048400  1
  C  C79  1  0.38348500  0.70163900  0.04951600  1
  C  C80  1  0.70163900  0.38348500  0.54951600  1
  C  C81  1  0.61651500  0.29836100  0.95048400  1
  C  C82  1  0.00764600  0.11240000  0.33051100  1
  C  C83  1  0.88760000  0.99235400  0.16948900  1
  C  C84  1  0.99235400  0.88760000  0.66948900  1
  C  C85  1  0.11240000  0.00764600  0.83051100  1
