# generated using pymatgen
data_Cu2NiC13
_symmetry_space_group_name_H-M   'P 1'
_cell_length_a   7.48764407
_cell_length_b   7.48764407
_cell_length_c   14.41052200
_cell_angle_alpha   90.00000000
_cell_angle_beta   90.00000000
_cell_angle_gamma   120.00000062
_symmetry_Int_Tables_number   1
_chemical_formula_structural   Cu2NiC13
_chemical_formula_sum   'Cu6 Ni3 C39'
_cell_volume   699.68203852
_cell_formula_units_Z   3
loop_
 _symmetry_equiv_pos_site_id
 _symmetry_equiv_pos_as_xyz
  1  'x, y, z'
loop_
 _atom_site_type_symbol
 _atom_site_label
 _atom_site_symmetry_multiplicity
 _atom_site_fract_x
 _atom_site_fract_y
 _atom_site_fract_z
 _atom_site_occupancy
  C  C0  1  0.86793400  0.85545500  0.66654300  1
  C  C1  1  0.50734500  0.15872100  0.80125400  1
  C  C2  1  0.98752200  0.13206600  0.99987600  1
  C  C3  1  0.84127900  0.34862400  0.46792000  1
  C  C4  1  0.65137600  0.49265500  0.13458700  1
  C  C5  1  0.14454500  0.01247800  0.33320900  1
  Ni  Ni6  1  0.50482000  0.67821300  0.87125800  1
  Ni  Ni7  1  0.17339300  0.49518000  0.20459100  1
  Ni  Ni8  1  0.32178700  0.82660700  0.53792500  1
  Cu  Cu9  1  0.97260800  0.66167700  0.89091700  1
  Cu  Cu10  1  0.12012100  0.42816100  0.72673100  1
  Cu  Cu11  1  0.57183900  0.69196000  0.39339800  1
  Cu  Cu12  1  0.68906900  0.02739200  0.22425000  1
  Cu  Cu13  1  0.30804000  0.87987900  0.06006400  1
  Cu  Cu14  1  0.33832300  0.31093100  0.55758400  1
  C  C15  1  0.00410700  0.75627900  0.02699300  1
  C  C16  1  0.83054600  0.36261400  0.92873500  1
  C  C17  1  0.75217200  0.99589300  0.36032600  1
  C  C18  1  0.42720100  0.08263000  0.48381000  1
  C  C19  1  0.86241300  0.90568400  0.18130500  1
  C  C20  1  0.23271100  0.28762900  0.17957500  1
  C  C21  1  0.91737000  0.34457100  0.15047600  1
  C  C22  1  0.71237100  0.94508200  0.84624200  1
  C  C23  1  0.04327100  0.13758700  0.51463800  1
  C  C24  1  0.60758700  0.01316600  0.08788900  1
  C  C25  1  0.65542900  0.57279900  0.81714300  1
  C  C26  1  0.24372100  0.24782800  0.69366000  1
  C  C27  1  0.62532400  0.69227000  0.98131000  1
  C  C28  1  0.36699000  0.16174500  0.01924700  1
  C  C29  1  0.06694600  0.37467600  0.31464400  1
  C  C30  1  0.63738600  0.46793200  0.59540200  1
  C  C31  1  0.34660600  0.79122100  0.90918800  1
  C  C32  1  0.40557900  0.39241300  0.42122200  1
  C  C33  1  0.32338900  0.73406600  0.41777300  1
  C  C34  1  0.30773000  0.93305400  0.64797700  1
  C  C35  1  0.41067700  0.67661100  0.75110600  1
  C  C36  1  0.83825500  0.20524500  0.68591300  1
  C  C37  1  0.79475500  0.63301000  0.35258000  1
  C  C38  1  0.44461500  0.65339400  0.24252100  1
  C  C39  1  0.98683400  0.59442100  0.75455600  1
  C  C40  1  0.09431600  0.95672900  0.84797100  1
  C  C41  1  0.53206800  0.16945400  0.26206800  1
  C  C42  1  0.28604200  0.41804400  0.88544400  1
  C  C43  1  0.13200200  0.71395800  0.21877700  1
  C  C44  1  0.26593400  0.58932300  0.08444000  1
  C  C45  1  0.05491800  0.76728900  0.51290900  1
  C  C46  1  0.20877900  0.55538500  0.57585400  1
  C  C47  1  0.58195600  0.86799800  0.55211000  1
