# generated using pymatgen
data_CuNiC11
_symmetry_space_group_name_H-M   'P 1'
_cell_length_a   5.72020415
_cell_length_b   6.92796947
_cell_length_c   9.44796263
_cell_angle_alpha   109.40931397
_cell_angle_beta   101.90167117
_cell_angle_gamma   98.52376799
_symmetry_Int_Tables_number   1
_chemical_formula_structural   CuNiC11
_chemical_formula_sum   'Cu2 Ni2 C22'
_cell_volume   335.88152928
_cell_formula_units_Z   2
loop_
 _symmetry_equiv_pos_site_id
 _symmetry_equiv_pos_as_xyz
  1  'x, y, z'
loop_
 _atom_site_type_symbol
 _atom_site_label
 _atom_site_symmetry_multiplicity
 _atom_site_fract_x
 _atom_site_fract_y
 _atom_site_fract_z
 _atom_site_occupancy
  Ni  Ni0  1  0.26328500  0.80828000  0.06018600  1
  Ni  Ni1  1  0.73671500  0.19172000  0.93981400  1
  Cu  Cu2  1  0.99558300  0.41928700  0.66106400  1
  Cu  Cu3  1  0.00441700  0.58071300  0.33893600  1
  C  C4  1  0.65274900  0.85036900  0.55954400  1
  C  C5  1  0.34725100  0.14963100  0.44045600  1
  C  C6  1  0.39609800  0.41725100  0.22800800  1
  C  C7  1  0.60390200  0.58274900  0.77199200  1
  C  C8  1  0.84105900  0.03077000  0.29957800  1
  C  C9  1  0.15894100  0.96923000  0.70042200  1
  C  C10  1  0.83754600  0.55985900  0.87913800  1
  C  C11  1  0.62380800  0.45091400  0.16798100  1
  C  C12  1  0.65199600  0.80113300  0.75857700  1
  C  C13  1  0.95934600  0.10339600  0.69628100  1
  C  C14  1  0.37619200  0.54908600  0.83201900  1
  C  C15  1  0.00726100  0.73814200  0.59402000  1
  C  C16  1  0.99273900  0.26185800  0.40598000  1
  C  C17  1  0.27393500  0.99723600  0.86888600  1
  C  C18  1  0.34800400  0.19886700  0.24142300  1
  C  C19  1  0.72606500  0.00276400  0.13111400  1
  C  C20  1  0.16245400  0.44014100  0.12086200  1
  C  C21  1  0.42618200  0.59035400  0.39158800  1
  C  C22  1  0.57381800  0.40964600  0.60841200  1
  C  C23  1  0.63843500  0.96667400  0.37633400  1
  C  C24  1  0.04065400  0.89660400  0.30371900  1
  C  C25  1  0.36156500  0.03332600  0.62366600  1
