# generated using pymatgen
data_Cu2(NiC11)3
_symmetry_space_group_name_H-M   'P 1'
_cell_length_a   8.06700800
_cell_length_b   10.23060300
_cell_length_c   10.33143309
_cell_angle_alpha   90.00000000
_cell_angle_beta   112.98006867
_cell_angle_gamma   90.00000000
_symmetry_Int_Tables_number   1
_chemical_formula_structural   Cu2(NiC11)3
_chemical_formula_sum   'Cu4 Ni6 C66'
_cell_volume   784.99061959
_cell_formula_units_Z   2
loop_
 _symmetry_equiv_pos_site_id
 _symmetry_equiv_pos_as_xyz
  1  'x, y, z'
loop_
 _atom_site_type_symbol
 _atom_site_label
 _atom_site_symmetry_multiplicity
 _atom_site_fract_x
 _atom_site_fract_y
 _atom_site_fract_z
 _atom_site_occupancy
  C  C0  1  0.94828200  0.20071600  0.82149700  1
  C  C1  1  0.12678500  0.20071600  0.17850300  1
  C  C2  1  0.05171800  0.70071600  0.17850300  1
  C  C3  1  0.87321500  0.70071600  0.82149700  1
  C  C4  1  0.31072800  0.91466700  0.00000000  1
  C  C5  1  0.68927200  0.41466700  0.00000000  1
  C  C6  1  0.02423700  0.41769100  0.00000000  1
  C  C7  1  0.97576300  0.91769100  0.00000000  1
  C  C8  1  0.30588700  0.17684400  0.00000000  1
  C  C9  1  0.69411300  0.67684400  0.00000000  1
  C  C10  1  0.06831800  0.36709600  0.65005200  1
  C  C11  1  0.41826600  0.36709600  0.34994800  1
  C  C12  1  0.93168200  0.86709600  0.34994800  1
  C  C13  1  0.58173400  0.86709600  0.65005200  1
  C  C14  1  0.20737200  0.38147900  0.80673100  1
  C  C15  1  0.40064200  0.38147900  0.19326900  1
  C  C16  1  0.79262800  0.88147900  0.19326900  1
  C  C17  1  0.59935800  0.88147900  0.80673100  1
  C  C18  1  0.35482000  0.05713600  0.60353700  1
  C  C19  1  0.75128300  0.05713600  0.39646300  1
  C  C20  1  0.64518000  0.55713600  0.39646300  1
  C  C21  1  0.24871700  0.55713600  0.60353700  1
  C  C22  1  0.31207400  0.18143500  0.69565100  1
  C  C23  1  0.61642300  0.18143500  0.30434900  1
  C  C24  1  0.68792600  0.68143500  0.30434900  1
  C  C25  1  0.38357700  0.68143500  0.69565100  1
  C  C26  1  0.24792000  0.19257300  0.52181800  1
  C  C27  1  0.72610300  0.19257300  0.47818200  1
  C  C28  1  0.75208000  0.69257300  0.47818200  1
  C  C29  1  0.27389700  0.69257300  0.52181800  1
  C  C30  1  0.47121400  0.19735800  0.62799300  1
  C  C31  1  0.84322200  0.19735800  0.37200700  1
  C  C32  1  0.52878600  0.69735800  0.37200700  1
  C  C33  1  0.15677800  0.69735800  0.62799300  1
  Ni  Ni34  1  0.02135500  0.92545300  0.64302100  1
  Ni  Ni35  1  0.37833400  0.92545300  0.35697900  1
  Ni  Ni36  1  0.97864500  0.42545300  0.35697900  1
  Ni  Ni37  1  0.62166600  0.42545300  0.64302100  1
  Ni  Ni38  1  0.68751000  0.08207600  0.00000000  1
  Ni  Ni39  1  0.31249000  0.58207600  0.00000000  1
  Cu  Cu40  1  0.34707800  0.15665900  0.61293000  1
  Cu  Cu41  1  0.73414800  0.15665900  0.38707000  1
  Cu  Cu42  1  0.65292200  0.65665900  0.38707000  1
  Cu  Cu43  1  0.26585200  0.65665900  0.61293000  1
  C  C44  1  0.90792200  0.02173200  0.67829300  1
  C  C45  1  0.22962900  0.02173200  0.32170700  1
  C  C46  1  0.09207800  0.52173200  0.32170700  1
  C  C47  1  0.77037100  0.52173200  0.67829300  1
  C  C48  1  0.21079400  0.92757000  0.74974000  1
  C  C49  1  0.46105400  0.92757000  0.25026000  1
  C  C50  1  0.78920600  0.42757000  0.25026000  1
  C  C51  1  0.53894600  0.42757000  0.74974000  1
  C  C52  1  0.02078300  0.95351000  0.50216400  1
  C  C53  1  0.51862000  0.95351000  0.49783600  1
  C  C54  1  0.97921700  0.45351000  0.49783600  1
  C  C55  1  0.48138000  0.45351000  0.50216400  1
  C  C56  1  0.94495300  0.78888800  0.63931400  1
  C  C57  1  0.30563900  0.78888800  0.36068600  1
  C  C58  1  0.05504700  0.28888800  0.36068600  1
  C  C59  1  0.69436100  0.28888800  0.63931400  1
  C  C60  1  0.72835700  0.08155800  0.87115600  1
  C  C61  1  0.85720100  0.08155800  0.12884400  1
  C  C62  1  0.27164300  0.58155800  0.12884400  1
  C  C63  1  0.14279900  0.58155800  0.87115600  1
  C  C64  1  0.57211800  0.19636300  0.00000000  1
  C  C65  1  0.42788200  0.69636300  0.00000000  1
  C  C66  1  0.59069600  0.95619900  0.00000000  1
  C  C67  1  0.40930400  0.45619900  0.00000000  1
  C  C68  1  0.95387100  0.33979800  0.00000000  1
  C  C69  1  0.04612900  0.83979800  0.00000000  1
  C  C70  1  0.20543900  0.12320200  0.00000000  1
  C  C71  1  0.79456100  0.62320200  0.00000000  1
  C  C72  1  0.13928200  0.31598100  0.73672000  1
  C  C73  1  0.40256100  0.31598100  0.26328000  1
  C  C74  1  0.86071800  0.81598100  0.26328000  1
  C  C75  1  0.59743900  0.81598100  0.73672000  1
