# generated using pymatgen
data_Cu5Ni2C
_symmetry_space_group_name_H-M   'P 1'
_cell_length_a   6.22374287
_cell_length_b   6.22374287
_cell_length_c   6.28191359
_cell_angle_alpha   75.89096684
_cell_angle_beta   75.89096684
_cell_angle_gamma   72.85942786
_symmetry_Int_Tables_number   1
_chemical_formula_structural   Cu5Ni2C
_chemical_formula_sum   'Cu10 Ni4 C2'
_cell_volume   221.59341813
_cell_formula_units_Z   2
loop_
 _symmetry_equiv_pos_site_id
 _symmetry_equiv_pos_as_xyz
  1  'x, y, z'
loop_
 _atom_site_type_symbol
 _atom_site_label
 _atom_site_symmetry_multiplicity
 _atom_site_fract_x
 _atom_site_fract_y
 _atom_site_fract_z
 _atom_site_occupancy
  C  C0  1  0.80996500  0.80996500  0.01156900  1
  C  C1  1  0.19003500  0.19003500  0.98843100  1
  Ni  Ni2  1  0.60601300  0.39398700  0.00000000  1
  Ni  Ni3  1  0.39398700  0.60601300  0.00000000  1
  Ni  Ni4  1  0.93217900  0.93217900  0.46074700  1
  Ni  Ni5  1  0.06782100  0.06782100  0.53925300  1
  Cu  Cu6  1  0.57192300  0.20514600  0.99332500  1
  Cu  Cu7  1  0.42807700  0.79485400  0.00667500  1
  Cu  Cu8  1  0.79485400  0.42807700  0.00667500  1
  Cu  Cu9  1  0.20514600  0.57192300  0.99332500  1
  Cu  Cu10  1  0.95243500  0.95243500  0.25283700  1
  Cu  Cu11  1  0.04756500  0.04756500  0.74716300  1
  Cu  Cu12  1  0.81702400  0.81702400  0.61395500  1
  Cu  Cu13  1  0.18297600  0.18297600  0.38604500  1
  Cu  Cu14  1  0.64330300  0.64330300  0.41863700  1
  Cu  Cu15  1  0.35669700  0.35669700  0.58136300  1
