# generated using pymatgen
data_CuNi2C9
_symmetry_space_group_name_H-M   'P 1'
_cell_length_a   5.11833377
_cell_length_b   5.11833377
_cell_length_c   25.29324900
_cell_angle_alpha   90.00000000
_cell_angle_beta   90.00000000
_cell_angle_gamma   119.99999699
_symmetry_Int_Tables_number   1
_chemical_formula_structural   CuNi2C9
_chemical_formula_sum   'Cu4 Ni8 C36'
_cell_volume   573.84218311
_cell_formula_units_Z   4
loop_
 _symmetry_equiv_pos_site_id
 _symmetry_equiv_pos_as_xyz
  1  'x, y, z'
loop_
 _atom_site_type_symbol
 _atom_site_label
 _atom_site_symmetry_multiplicity
 _atom_site_fract_x
 _atom_site_fract_y
 _atom_site_fract_z
 _atom_site_occupancy
  Ni  Ni0  1  0.00000000  0.00000000  0.66642100  1
  Ni  Ni1  1  0.00000000  0.00000000  0.33357900  1
  Ni  Ni2  1  0.66666700  0.33333300  0.91642200  1
  Ni  Ni3  1  0.66666700  0.33333300  0.58375100  1
  Ni  Ni4  1  0.66666700  0.33333300  0.25063000  1
  Ni  Ni5  1  0.66666700  0.33333300  0.08357800  1
  Ni  Ni6  1  0.66666700  0.33333300  0.74937000  1
  Ni  Ni7  1  0.66666700  0.33333300  0.41624900  1
  Cu  Cu8  1  0.33333300  0.66666700  0.83182300  1
  Cu  Cu9  1  0.33333300  0.66666700  0.50000000  1
  Cu  Cu10  1  0.33333300  0.66666700  0.16817700  1
  Cu  Cu11  1  0.00000000  0.00000000  0.00000000  1
  C  C12  1  0.83749200  0.16250800  0.83333800  1
  C  C13  1  0.83772000  0.16228000  0.50000000  1
  C  C14  1  0.83749200  0.16250800  0.16666200  1
  C  C15  1  0.83749200  0.67498300  0.83333800  1
  C  C16  1  0.83772000  0.67543900  0.50000000  1
  C  C17  1  0.83749200  0.67498300  0.16666200  1
  C  C18  1  0.32501700  0.16250800  0.83333800  1
  C  C19  1  0.32456100  0.16228000  0.50000000  1
  C  C20  1  0.32501700  0.16250800  0.16666200  1
  C  C21  1  0.49604000  0.50396000  0.00000000  1
  C  C22  1  0.49554200  0.50445800  0.66662300  1
  C  C23  1  0.49554200  0.50445800  0.33337700  1
  C  C24  1  0.49604000  0.99208100  0.00000000  1
  C  C25  1  0.49554200  0.99108500  0.66662300  1
  C  C26  1  0.49554200  0.99108500  0.33337700  1
  C  C27  1  0.00791900  0.50396000  0.00000000  1
  C  C28  1  0.00891500  0.50445800  0.66662300  1
  C  C29  1  0.00891500  0.50445800  0.33337700  1
  C  C30  1  0.66622100  0.83311100  0.91660800  1
  C  C31  1  0.66813400  0.83406700  0.58406100  1
  C  C32  1  0.66853200  0.83426600  0.25083900  1
  C  C33  1  0.16688900  0.83311100  0.91660800  1
  C  C34  1  0.16593300  0.83406700  0.58406100  1
  C  C35  1  0.16573400  0.83426600  0.25083900  1
  C  C36  1  0.16688900  0.33377900  0.91660800  1
  C  C37  1  0.16593300  0.33186600  0.58406100  1
  C  C38  1  0.16573400  0.33146800  0.25083900  1
  C  C39  1  0.66622100  0.83311100  0.08339200  1
  C  C40  1  0.66853200  0.83426600  0.74916100  1
  C  C41  1  0.66813400  0.83406700  0.41593900  1
  C  C42  1  0.16688900  0.83311100  0.08339200  1
  C  C43  1  0.16573400  0.83426600  0.74916100  1
  C  C44  1  0.16593300  0.83406700  0.41593900  1
  C  C45  1  0.16573400  0.33146800  0.74916100  1
  C  C46  1  0.16593300  0.33186600  0.41593900  1
  C  C47  1  0.16688900  0.33377900  0.08339200  1
