# generated using pymatgen
data_Cu11Ni13C32
_symmetry_space_group_name_H-M   'P 1'
_cell_length_a   6.06801800
_cell_length_b   6.16525022
_cell_length_c   20.35504094
_cell_angle_alpha   97.06893302
_cell_angle_beta   89.75329995
_cell_angle_gamma   119.30268266
_symmetry_Int_Tables_number   1
_chemical_formula_structural   Cu11Ni13C32
_chemical_formula_sum   'Cu11 Ni13 C32'
_cell_volume   657.63765346
_cell_formula_units_Z   1
loop_
 _symmetry_equiv_pos_site_id
 _symmetry_equiv_pos_as_xyz
  1  'x, y, z'
loop_
 _atom_site_type_symbol
 _atom_site_label
 _atom_site_symmetry_multiplicity
 _atom_site_fract_x
 _atom_site_fract_y
 _atom_site_fract_z
 _atom_site_occupancy
  Ni  Ni0  1  0.09447000  0.90663700  0.28128800  1
  Ni  Ni1  1  0.74600500  0.24362000  0.24984600  1
  Ni  Ni2  1  0.12549900  0.38004000  0.37522500  1
  Ni  Ni3  1  0.15546800  0.84862600  0.46971600  1
  Ni  Ni4  1  0.40422900  0.59013700  0.21926100  1
  Ni  Ni5  1  0.84453200  0.15137400  0.53028400  1
  Ni  Ni6  1  0.25399500  0.75638000  0.75015400  1
  Ni  Ni7  1  0.87450100  0.61996000  0.62477500  1
  Ni  Ni8  1  0.90553000  0.09336300  0.71871200  1
  Ni  Ni9  1  0.34861400  0.66317400  0.03101100  1
  Ni  Ni10  1  0.59577100  0.40986300  0.78073900  1
  Ni  Ni11  1  0.00000000  0.00000000  0.00000000  1
  Ni  Ni12  1  0.65138600  0.33682600  0.96898900  1
  Cu  Cu13  1  0.62404400  0.87552400  0.37555800  1
  Cu  Cu14  1  0.62731200  0.37859800  0.37498400  1
  Cu  Cu15  1  0.37595600  0.12447600  0.62444200  1
  Cu  Cu16  1  0.37268800  0.62140200  0.62501600  1
  Cu  Cu17  1  0.50000000  0.50000000  0.50000000  1
  Cu  Cu18  1  0.12262200  0.87279600  0.87458700  1
  Cu  Cu19  1  0.12187000  0.37298500  0.87484700  1
  Cu  Cu20  1  0.62455700  0.87337200  0.87494500  1
  Cu  Cu21  1  0.37544300  0.12662800  0.12505500  1
  Cu  Cu22  1  0.87813000  0.62701500  0.12515300  1
  Cu  Cu23  1  0.87737800  0.12720400  0.12541300  1
  C  C24  1  0.32288600  0.22924100  0.43382200  1
  C  C25  1  0.34691500  0.69204600  0.43837200  1
  C  C26  1  0.90238700  0.06628300  0.31087200  1
  C  C27  1  0.93177900  0.53446000  0.31957500  1
  C  C28  1  0.47365000  0.08942400  0.31642300  1
  C  C29  1  0.22129300  0.33289900  0.56669400  1
  C  C30  1  0.81682600  0.18845500  0.42689400  1
  C  C31  1  0.77870700  0.66710100  0.43330600  1
  C  C32  1  0.18317400  0.81154500  0.57310600  1
  C  C33  1  0.43417200  0.56400800  0.32311400  1
  C  C34  1  0.06822100  0.46554000  0.68042500  1
  C  C35  1  0.09761300  0.93371700  0.68912800  1
  C  C36  1  0.65308500  0.30795400  0.56162800  1
  C  C37  1  0.67711400  0.77075900  0.56617800  1
  C  C38  1  0.30402900  0.67776400  0.92771600  1
  C  C39  1  0.56582800  0.43599200  0.67688600  1
  C  C40  1  0.97698000  0.58688800  0.81491500  1
  C  C41  1  0.94451200  0.07015300  0.82196200  1
  C  C42  1  0.52635000  0.91057600  0.68357700  1
  C  C43  1  0.26882200  0.16062000  0.93530800  1
  C  C44  1  0.81817100  0.70772200  0.92939400  1
  C  C45  1  0.82560300  0.16101300  0.93547000  1
  C  C46  1  0.42011500  0.58555400  0.81342600  1
  C  C47  1  0.42935800  0.03879600  0.82021500  1
  C  C48  1  0.18182900  0.29227800  0.07060600  1
  C  C49  1  0.17439700  0.83898700  0.06453000  1
  C  C50  1  0.73117800  0.83938000  0.06469200  1
  C  C51  1  0.05548800  0.92984700  0.17803800  1
  C  C52  1  0.02302000  0.41311200  0.18508500  1
  C  C53  1  0.69597100  0.32223600  0.07228400  1
  C  C54  1  0.57064200  0.96120400  0.17978500  1
  C  C55  1  0.57988500  0.41444600  0.18657400  1
