# generated using pymatgen
data_Cu4NiC40
_symmetry_space_group_name_H-M   'P 1'
_cell_length_a   5.30504100
_cell_length_b   9.57409430
_cell_length_c   27.94536028
_cell_angle_alpha   90.45955205
_cell_angle_beta   90.04647983
_cell_angle_gamma   90.06573332
_symmetry_Int_Tables_number   1
_chemical_formula_structural   Cu4NiC40
_chemical_formula_sum   'Cu8 Ni2 C80'
_cell_volume   1419.32468803
_cell_formula_units_Z   2
loop_
 _symmetry_equiv_pos_site_id
 _symmetry_equiv_pos_as_xyz
  1  'x, y, z'
loop_
 _atom_site_type_symbol
 _atom_site_label
 _atom_site_symmetry_multiplicity
 _atom_site_fract_x
 _atom_site_fract_y
 _atom_site_fract_z
 _atom_site_occupancy
  Ni  Ni0  1  0.84225400  0.25524700  0.65351700  1
  Ni  Ni1  1  0.84310500  0.25528300  0.45300000  1
  Cu  Cu2  1  0.33421700  0.74572500  0.94684400  1
  Cu  Cu3  1  0.33169900  0.74570200  0.74704100  1
  Cu  Cu4  1  0.33056300  0.74558400  0.54674100  1
  Cu  Cu5  1  0.33307400  0.74554000  0.34653400  1
  Cu  Cu6  1  0.33425000  0.74569200  0.14681600  1
  Cu  Cu7  1  0.83480400  0.25454700  0.85334400  1
  Cu  Cu8  1  0.83523000  0.25475000  0.25289700  1
  Cu  Cu9  1  0.83425800  0.25433900  0.05316200  1
  C  C10  1  0.74204800  0.60002000  0.84614300  1
  C  C11  1  0.73960500  0.60432100  0.64625000  1
  C  C12  1  0.73940200  0.60424900  0.44604800  1
  C  C13  1  0.74188600  0.59999800  0.24593600  1
  C  C14  1  0.74158900  0.59988900  0.04600800  1
  C  C15  1  0.24167600  0.40024900  0.95403900  1
  C  C16  1  0.24522300  0.40139500  0.75531500  1
  C  C17  1  0.24796600  0.40265200  0.55410900  1
  C  C18  1  0.24463400  0.40139300  0.35280700  1
  C  C19  1  0.24177100  0.40023500  0.15400700  1
  C  C20  1  0.26409100  0.93281800  0.84770000  1
  C  C21  1  0.26645700  0.93025900  0.64758800  1
  C  C22  1  0.26680500  0.93033800  0.44723900  1
  C  C23  1  0.26427400  0.93296700  0.24733800  1
  C  C24  1  0.26441500  0.93310500  0.04751500  1
  C  C25  1  0.76448000  0.06694700  0.95252800  1
  C  C26  1  0.76237100  0.06430600  0.75345700  1
  C  C27  1  0.75925400  0.06299900  0.55228300  1
  C  C28  1  0.76133400  0.06562000  0.35133100  1
  C  C29  1  0.76435800  0.06699400  0.15246400  1
  C  C30  1  0.55107600  0.72428000  0.88175800  1
  C  C31  1  0.54929900  0.72976100  0.68167300  1
  C  C32  1  0.55011300  0.72979000  0.48151100  1
  C  C33  1  0.55195400  0.72424600  0.28157900  1
  C  C34  1  0.55144500  0.72420100  0.08170700  1
  C  C35  1  0.05139100  0.27568800  0.91832300  1
  C  C36  1  0.05714500  0.27621800  0.71984300  1
  C  C37  1  0.05679500  0.27672400  0.51952800  1
  C  C38  1  0.05096800  0.27616600  0.31804200  1
  C  C39  1  0.05141300  0.27575200  0.11827400  1
  C  C40  1  0.05413500  0.07872400  0.83110300  1
  C  C41  1  0.05791200  0.07602100  0.63076200  1
  C  C42  1  0.05869900  0.07612400  0.43060100  1
  C  C43  1  0.05480600  0.07889800  0.23095900  1
  C  C44  1  0.05441200  0.07885100  0.03107400  1
  C  C45  1  0.55434100  0.92110700  0.96895300  1
  C  C46  1  0.55368600  0.91844700  0.77050300  1
  C  C47  1  0.55384800  0.91620200  0.56985200  1
  C  C48  1  0.55454300  0.91884600  0.36827700  1
  C  C49  1  0.55434200  0.92114200  0.16893200  1
  C  C50  1  0.62386400  0.43347200  0.86983600  1
  C  C51  1  0.61915700  0.43934400  0.67050100  1
  C  C52  1  0.61938500  0.43921600  0.47045800  1
  C  C53  1  0.62404400  0.43339300  0.26979000  1
  C  C54  1  0.62410500  0.43330300  0.06981700  1
  C  C55  1  0.12401700  0.56663900  0.93019100  1
  C  C56  1  0.12519000  0.56637600  0.73062700  1
  C  C57  1  0.12526900  0.56745200  0.52959900  1
  C  C58  1  0.12407400  0.56763800  0.32918300  1
  C  C59  1  0.12405800  0.56660800  0.13018300  1
  C  C60  1  0.11826900  0.80248100  0.80727200  1
  C  C61  1  0.11876400  0.79987000  0.60731900  1
  C  C62  1  0.11939700  0.79973700  0.40702900  1
  C  C63  1  0.11894100  0.80234900  0.20696800  1
  C  C64  1  0.11948900  0.80254300  0.00706500  1
  C  C65  1  0.61960900  0.19738900  0.99293000  1
  C  C66  1  0.61926300  0.19658100  0.79339200  1
  C  C67  1  0.61342300  0.19475500  0.59177500  1
  C  C68  1  0.61382200  0.19577100  0.39118200  1
  C  C69  1  0.61962700  0.19759800  0.19277400  1
  C  C70  1  0.56216500  0.60250700  0.98938300  1
  C  C71  1  0.56238800  0.60239900  0.78948800  1
  C  C72  1  0.56269400  0.60408500  0.58931200  1
  C  C73  1  0.56233400  0.60413200  0.38915600  1
  C  C74  1  0.56206300  0.60243700  0.18933100  1
  C  C75  1  0.06232400  0.39926900  0.81157300  1
  C  C76  1  0.06892200  0.40128200  0.61065800  1
  C  C77  1  0.06892200  0.39951500  0.40967500  1
  C  C78  1  0.06233300  0.39754300  0.21060300  1
  C  C79  1  0.06224800  0.39750700  0.01060900  1
  C  C80  1  0.10631100  0.87849900  0.90333000  1
  C  C81  1  0.10632200  0.87786900  0.70330100  1
  C  C82  1  0.10652900  0.87838100  0.50305800  1
  C  C83  1  0.10646600  0.87898700  0.30308600  1
  C  C84  1  0.10700800  0.87867500  0.10319800  1
  C  C85  1  0.60697800  0.12134400  0.89682000  1
  C  C86  1  0.60264700  0.11741200  0.69790900  1
  C  C87  1  0.60174600  0.11497300  0.49635900  1
  C  C88  1  0.60599200  0.11905700  0.29526800  1
  C  C89  1  0.60692700  0.12126000  0.09673600  1
