# generated using pymatgen
data_Cu15(NiC)2
_symmetry_space_group_name_H-M   'P 1'
_cell_length_a   8.53994600
_cell_length_b   8.35209130
_cell_length_c   8.35209130
_cell_angle_alpha   120.16038370
_cell_angle_beta   90.00000000
_cell_angle_gamma   90.00000000
_symmetry_Int_Tables_number   1
_chemical_formula_structural   Cu15(NiC)2
_chemical_formula_sum   'Cu30 Ni4 C4'
_cell_volume   515.07690132
_cell_formula_units_Z   2
loop_
 _symmetry_equiv_pos_site_id
 _symmetry_equiv_pos_as_xyz
  1  'x, y, z'
loop_
 _atom_site_type_symbol
 _atom_site_label
 _atom_site_symmetry_multiplicity
 _atom_site_fract_x
 _atom_site_fract_y
 _atom_site_fract_z
 _atom_site_occupancy
  Ni  Ni0  1  0.75000000  0.99990800  0.00009200  1
  Ni  Ni1  1  0.25000000  0.00009200  0.99990800  1
  Ni  Ni2  1  0.25000000  0.66672800  0.33327200  1
  Ni  Ni3  1  0.75000000  0.33327200  0.66672800  1
  Cu  Cu4  1  0.50000000  0.50000000  0.00000000  1
  Cu  Cu5  1  0.50000000  0.50000000  0.50000000  1
  Cu  Cu6  1  0.50000000  0.00000000  0.50000000  1
  Cu  Cu7  1  0.00000000  0.50000000  0.00000000  1
  Cu  Cu8  1  0.00000000  0.50000000  0.50000000  1
  Cu  Cu9  1  0.00000000  0.00000000  0.50000000  1
  Cu  Cu10  1  0.75000000  0.66805100  0.02162700  1
  Cu  Cu11  1  0.75000000  0.35326000  0.33187800  1
  Cu  Cu12  1  0.75000000  0.97886600  0.64671900  1
  Cu  Cu13  1  0.75000000  0.35328100  0.02113400  1
  Cu  Cu14  1  0.75000000  0.97837300  0.33194900  1
  Cu  Cu15  1  0.75000000  0.66812200  0.64674000  1
  Cu  Cu16  1  0.25000000  0.33194900  0.97837300  1
  Cu  Cu17  1  0.25000000  0.64674000  0.66812200  1
  Cu  Cu18  1  0.25000000  0.02113400  0.35328100  1
  Cu  Cu19  1  0.25000000  0.64671900  0.97886600  1
  Cu  Cu20  1  0.25000000  0.02162700  0.66805100  1
  Cu  Cu21  1  0.25000000  0.33187800  0.35326000  1
  Cu  Cu22  1  0.49012700  0.83596200  0.67172700  1
  Cu  Cu23  1  0.49009300  0.83575100  0.16424900  1
  Cu  Cu24  1  0.49012700  0.32827300  0.16403800  1
  Cu  Cu25  1  0.50987300  0.16403800  0.32827300  1
  Cu  Cu26  1  0.50990700  0.16424900  0.83575100  1
  Cu  Cu27  1  0.50987300  0.67172700  0.83596200  1
  Cu  Cu28  1  0.99012700  0.16403800  0.32827300  1
  Cu  Cu29  1  0.99009300  0.16424900  0.83575100  1
  Cu  Cu30  1  0.99012700  0.67172700  0.83596200  1
  Cu  Cu31  1  0.00987300  0.83596200  0.67172700  1
  Cu  Cu32  1  0.00990700  0.83575100  0.16424900  1
  Cu  Cu33  1  0.00987300  0.32827300  0.16403800  1
  C  C34  1  0.59981100  0.66669200  0.33330800  1
  C  C35  1  0.40018900  0.33330800  0.66669200  1
  C  C36  1  0.09981100  0.33330800  0.66669200  1
  C  C37  1  0.90018900  0.66669200  0.33330800  1
