# generated using pymatgen
data_Cu9(Ni3C17)8
_symmetry_space_group_name_H-M   'P 1'
_cell_length_a   15.02155604
_cell_length_b   15.02155604
_cell_length_c   15.02155604
_cell_angle_alpha   90.00000000
_cell_angle_beta   90.00000000
_cell_angle_gamma   90.00000000
_symmetry_Int_Tables_number   1
_chemical_formula_structural   Cu9(Ni3C17)8
_chemical_formula_sum   'Cu9 Ni24 C136'
_cell_volume   3389.57124685
_cell_formula_units_Z   1
loop_
 _symmetry_equiv_pos_site_id
 _symmetry_equiv_pos_as_xyz
  1  'x, y, z'
loop_
 _atom_site_type_symbol
 _atom_site_label
 _atom_site_symmetry_multiplicity
 _atom_site_fract_x
 _atom_site_fract_y
 _atom_site_fract_z
 _atom_site_occupancy
  Ni  Ni0  1  0.09800953  0.24993743  0.75006257  1
  Ni  Ni1  1  0.24993743  0.24993743  0.90199047  1
  Ni  Ni2  1  0.24993743  0.09800953  0.75006257  1
  Ni  Ni3  1  0.09800953  0.75006257  0.24993743  1
  Ni  Ni4  1  0.24993743  0.75006257  0.09800953  1
  Ni  Ni5  1  0.24993743  0.90199047  0.24993743  1
  Ni  Ni6  1  0.90199047  0.24993743  0.24993743  1
  Ni  Ni7  1  0.75006257  0.24993743  0.09800953  1
  Ni  Ni8  1  0.75006257  0.09800953  0.24993743  1
  Ni  Ni9  1  0.90199047  0.75006257  0.75006257  1
  Ni  Ni10  1  0.75006257  0.75006257  0.90199047  1
  Ni  Ni11  1  0.75006257  0.90199047  0.75006257  1
  Ni  Ni12  1  0.90199047  0.75006257  0.24993743  1
  Ni  Ni13  1  0.75006257  0.75006257  0.09800953  1
  Ni  Ni14  1  0.75006257  0.90199047  0.24993743  1
  Ni  Ni15  1  0.90199047  0.24993743  0.75006257  1
  Ni  Ni16  1  0.75006257  0.24993743  0.90199047  1
  Ni  Ni17  1  0.75006257  0.09800953  0.75006257  1
  Ni  Ni18  1  0.09800953  0.75006257  0.75006257  1
  Ni  Ni19  1  0.24993743  0.75006257  0.90199047  1
  Ni  Ni20  1  0.24993743  0.90199047  0.75006257  1
  Ni  Ni21  1  0.09800953  0.24993743  0.24993743  1
  Ni  Ni22  1  0.24993743  0.24993743  0.09800953  1
  Ni  Ni23  1  0.24993743  0.09800953  0.24993743  1
  Cu  Cu24  1  -0.00000000  0.17052226  -0.00000000  1
  Cu  Cu25  1  0.17052226  0.00000000  -0.00000000  1
  Cu  Cu26  1  -0.00000000  0.00000000  0.82947774  1
  Cu  Cu27  1  -0.00000000  0.82947774  -0.00000000  1
  Cu  Cu28  1  -0.00000000  0.00000000  0.17052226  1
  Cu  Cu29  1  0.82947774  0.00000000  -0.00000000  1
  Cu  Cu30  1  -0.00000000  0.50000000  -0.00000000  1
  Cu  Cu31  1  0.50000000  0.00000000  -0.00000000  1
  Cu  Cu32  1  -0.00000000  0.00000000  0.50000000  1
  C  C33  1  0.50000000  0.50000000  0.77163120  1
  C  C34  1  0.50000000  0.22836880  0.50000000  1
  C  C35  1  0.22836880  0.50000000  0.50000000  1
  C  C36  1  0.50000000  0.50000000  0.22836880  1
  C  C37  1  0.50000000  0.77163120  0.50000000  1
  C  C38  1  0.77163120  0.50000000  0.50000000  1
  C  C39  1  0.29947487  0.29947487  0.70052513  1
  C  C40  1  0.29947487  0.70052513  0.29947487  1
  C  C41  1  0.70052513  0.29947487  0.29947487  1
  C  C42  1  0.70052513  0.70052513  0.70052513  1
  C  C43  1  0.70052513  0.70052513  0.29947487  1
  C  C44  1  0.70052513  0.29947487  0.70052513  1
  C  C45  1  0.29947487  0.70052513  0.70052513  1
  C  C46  1  0.29947487  0.29947487  0.29947487  1
  C  C47  1  -0.00000000  0.50000000  0.73229698  1
  C  C48  1  0.50000000  0.26770302  -0.00000000  1
  C  C49  1  0.26770302  0.00000000  0.50000000  1
  C  C50  1  -0.00000000  0.26770302  0.50000000  1
  C  C51  1  0.50000000  0.00000000  0.73229698  1
  C  C52  1  0.26770302  0.50000000  -0.00000000  1
  C  C53  1  -0.00000000  0.50000000  0.26770302  1
  C  C54  1  0.50000000  0.73229698  -0.00000000  1
  C  C55  1  -0.00000000  0.73229698  0.50000000  1
  C  C56  1  0.50000000  0.00000000  0.26770302  1
  C  C57  1  0.73229698  0.00000000  0.50000000  1
  C  C58  1  0.73229698  0.50000000  -0.00000000  1
  C  C59  1  0.11784122  0.11784122  0.88215878  1
  C  C60  1  0.11784122  0.88215878  0.11784122  1
  C  C61  1  0.88215878  0.11784122  0.11784122  1
  C  C62  1  0.88215878  0.88215878  0.88215878  1
  C  C63  1  0.88215878  0.88215878  0.11784122  1
  C  C64  1  0.88215878  0.11784122  0.88215878  1
  C  C65  1  0.11784122  0.88215878  0.88215878  1
  C  C66  1  0.11784122  0.11784122  0.11784122  1
  C  C67  1  0.12310558  0.38418336  0.61581664  1
  C  C68  1  0.38418336  0.38418336  0.87689442  1
  C  C69  1  0.38418336  0.12310558  0.61581664  1
  C  C70  1  0.12310558  0.61581664  0.38418336  1
  C  C71  1  0.38418336  0.61581664  0.12310558  1
  C  C72  1  0.38418336  0.87689442  0.38418336  1
  C  C73  1  0.87689442  0.38418336  0.38418336  1
  C  C74  1  0.61581664  0.38418336  0.12310558  1
  C  C75  1  0.61581664  0.12310558  0.38418336  1
  C  C76  1  0.87689442  0.61581664  0.61581664  1
  C  C77  1  0.61581664  0.61581664  0.87689442  1
  C  C78  1  0.61581664  0.87689442  0.61581664  1
  C  C79  1  0.87689442  0.61581664  0.38418336  1
  C  C80  1  0.61581664  0.61581664  0.12310558  1
  C  C81  1  0.61581664  0.87689442  0.38418336  1
  C  C82  1  0.87689442  0.38418336  0.61581664  1
  C  C83  1  0.61581664  0.38418336  0.87689442  1
  C  C84  1  0.61581664  0.12310558  0.61581664  1
  C  C85  1  0.12310558  0.61581664  0.61581664  1
  C  C86  1  0.38418336  0.61581664  0.87689442  1
  C  C87  1  0.38418336  0.87689442  0.61581664  1
  C  C88  1  0.12310558  0.38418336  0.38418336  1
  C  C89  1  0.38418336  0.38418336  0.12310558  1
  C  C90  1  0.38418336  0.12310558  0.38418336  1
  C  C91  1  -0.00000000  0.33476002  -0.00000000  1
  C  C92  1  0.33476002  0.00000000  -0.00000000  1
  C  C93  1  -0.00000000  0.00000000  0.66523998  1
  C  C94  1  -0.00000000  0.66523998  -0.00000000  1
  C  C95  1  -0.00000000  0.00000000  0.33476002  1
  C  C96  1  0.66523998  0.00000000  -0.00000000  1
  C  C97  1  0.12599619  0.50000000  0.87400381  1
  C  C98  1  0.50000000  0.12599619  0.87400381  1
  C  C99  1  0.12599619  0.12599619  0.50000000  1
  C  C100  1  0.12599619  0.50000000  0.12599619  1
  C  C101  1  0.50000000  0.87400381  0.12599619  1
  C  C102  1  0.12599619  0.87400381  0.50000000  1
  C  C103  1  0.87400381  0.50000000  0.12599619  1
  C  C104  1  0.50000000  0.12599619  0.12599619  1
  C  C105  1  0.87400381  0.12599619  0.50000000  1
  C  C106  1  0.87400381  0.50000000  0.87400381  1
  C  C107  1  0.50000000  0.87400381  0.87400381  1
  C  C108  1  0.87400381  0.87400381  0.50000000  1
  C  C109  1  0.32270609  0.50000000  0.67729391  1
  C  C110  1  0.50000000  0.32270609  0.67729391  1
  C  C111  1  0.32270609  0.32270609  0.50000000  1
  C  C112  1  0.32270609  0.50000000  0.32270609  1
  C  C113  1  0.50000000  0.67729391  0.32270609  1
  C  C114  1  0.32270609  0.67729391  0.50000000  1
  C  C115  1  0.67729391  0.50000000  0.32270609  1
  C  C116  1  0.50000000  0.32270609  0.32270609  1
  C  C117  1  0.67729391  0.32270609  0.50000000  1
  C  C118  1  0.67729391  0.50000000  0.67729391  1
  C  C119  1  0.50000000  0.67729391  0.67729391  1
  C  C120  1  0.67729391  0.67729391  0.50000000  1
  C  C121  1  0.21261168  0.31705842  -0.00000000  1
  C  C122  1  0.31705842  0.00000000  0.78738832  1
  C  C123  1  -0.00000000  0.21261168  0.68294158  1
  C  C124  1  0.21261168  0.00000000  0.68294158  1
  C  C125  1  0.31705842  0.21261168  -0.00000000  1
  C  C126  1  -0.00000000  0.31705842  0.78738832  1
  C  C127  1  0.21261168  0.68294158  -0.00000000  1
  C  C128  1  0.31705842  0.00000000  0.21261168  1
  C  C129  1  -0.00000000  0.78738832  0.31705842  1
  C  C130  1  0.21261168  0.00000000  0.31705842  1
  C  C131  1  0.31705842  0.78738832  -0.00000000  1
  C  C132  1  -0.00000000  0.68294158  0.21261168  1
  C  C133  1  0.78738832  0.31705842  -0.00000000  1
  C  C134  1  0.68294158  0.00000000  0.21261168  1
  C  C135  1  -0.00000000  0.21261168  0.31705842  1
  C  C136  1  0.78738832  0.00000000  0.31705842  1
  C  C137  1  0.68294158  0.21261168  -0.00000000  1
  C  C138  1  -0.00000000  0.31705842  0.21261168  1
  C  C139  1  0.78738832  0.68294158  -0.00000000  1
  C  C140  1  0.68294158  0.00000000  0.78738832  1
  C  C141  1  -0.00000000  0.78738832  0.68294158  1
  C  C142  1  0.78738832  0.00000000  0.68294158  1
  C  C143  1  0.68294158  0.78738832  -0.00000000  1
  C  C144  1  -0.00000000  0.68294158  0.78738832  1
  C  C145  1  0.31022782  0.18649994  0.81350006  1
  C  C146  1  0.18649994  0.18649994  0.68977218  1
  C  C147  1  0.18649994  0.31022782  0.81350006  1
  C  C148  1  0.31022782  0.81350006  0.18649994  1
  C  C149  1  0.18649994  0.81350006  0.31022782  1
  C  C150  1  0.18649994  0.68977218  0.18649994  1
  C  C151  1  0.68977218  0.18649994  0.18649994  1
  C  C152  1  0.81350006  0.18649994  0.31022782  1
  C  C153  1  0.81350006  0.31022782  0.18649994  1
  C  C154  1  0.68977218  0.81350006  0.81350006  1
  C  C155  1  0.81350006  0.81350006  0.68977218  1
  C  C156  1  0.81350006  0.68977218  0.81350006  1
  C  C157  1  0.68977218  0.81350006  0.18649994  1
  C  C158  1  0.81350006  0.81350006  0.31022782  1
  C  C159  1  0.81350006  0.68977218  0.18649994  1
  C  C160  1  0.68977218  0.18649994  0.81350006  1
  C  C161  1  0.81350006  0.18649994  0.68977218  1
  C  C162  1  0.81350006  0.31022782  0.81350006  1
  C  C163  1  0.31022782  0.81350006  0.81350006  1
  C  C164  1  0.18649994  0.81350006  0.68977218  1
  C  C165  1  0.18649994  0.68977218  0.81350006  1
  C  C166  1  0.31022782  0.18649994  0.18649994  1
  C  C167  1  0.18649994  0.18649994  0.31022782  1
  C  C168  1  0.18649994  0.31022782  0.18649994  1
