# generated using pymatgen
data_CuNi5C8
_symmetry_space_group_name_H-M   'P 1'
_cell_length_a   5.51484000
_cell_length_b   11.80815413
_cell_length_c   12.30972871
_cell_angle_alpha   113.84691599
_cell_angle_beta   93.50847328
_cell_angle_gamma   97.43720160
_symmetry_Int_Tables_number   1
_chemical_formula_structural   CuNi5C8
_chemical_formula_sum   'Cu4 Ni20 C32'
_cell_volume   721.28981902
_cell_formula_units_Z   4
loop_
 _symmetry_equiv_pos_site_id
 _symmetry_equiv_pos_as_xyz
  1  'x, y, z'
loop_
 _atom_site_type_symbol
 _atom_site_label
 _atom_site_symmetry_multiplicity
 _atom_site_fract_x
 _atom_site_fract_y
 _atom_site_fract_z
 _atom_site_occupancy
  C  C0  1  0.21005000  0.35287300  0.20408000  1
  C  C1  1  0.78995000  0.64712700  0.79592000  1
  C  C2  1  0.50000000  0.50000000  0.00000000  1
  C  C3  1  0.00000000  0.50000000  0.00000000  1
  C  C4  1  0.00000000  0.50000000  0.50000000  1
  C  C5  1  0.50000000  0.50000000  0.50000000  1
  Ni  Ni6  1  0.76847700  0.95403000  0.41211000  1
  Ni  Ni7  1  0.23152300  0.04597000  0.58789000  1
  Ni  Ni8  1  0.79233100  0.54965900  0.11013300  1
  Ni  Ni9  1  0.20766900  0.45034100  0.88986700  1
  Ni  Ni10  1  0.44966400  0.09039600  0.43873500  1
  Ni  Ni11  1  0.55033600  0.90960400  0.56126500  1
  Ni  Ni12  1  0.69796800  0.27022100  0.84870900  1
  Ni  Ni13  1  0.30203200  0.72977900  0.15129100  1
  Ni  Ni14  1  0.78600500  0.10398600  0.25803000  1
  Ni  Ni15  1  0.21399500  0.89601400  0.74197000  1
  Ni  Ni16  1  0.11042300  0.83872300  0.30885500  1
  Ni  Ni17  1  0.88957700  0.16127700  0.69114500  1
  Ni  Ni18  1  0.23939200  0.39436700  0.60883900  1
  Ni  Ni19  1  0.76060800  0.60563300  0.39116100  1
  Ni  Ni20  1  0.39704900  0.17354000  0.65069100  1
  Ni  Ni21  1  0.60295100  0.82646000  0.34930900  1
  Ni  Ni22  1  0.40001800  0.02148200  0.41259000  1
  Ni  Ni23  1  0.59998200  0.97851800  0.58741000  1
  Ni  Ni24  1  0.15887300  0.77494900  0.39071400  1
  Ni  Ni25  1  0.84112700  0.22505100  0.60928600  1
  Cu  Cu26  1  0.64810700  0.26683100  0.00196000  1
  Cu  Cu27  1  0.35189300  0.73316900  0.99804000  1
  Cu  Cu28  1  0.67424000  0.25636700  0.35118300  1
  Cu  Cu29  1  0.32576000  0.74363300  0.64881700  1
  C  C30  1  0.26123000  0.52846600  0.10202100  1
  C  C31  1  0.73877000  0.47153400  0.89797900  1
  C  C32  1  0.47937500  0.33579700  0.01081600  1
  C  C33  1  0.52062500  0.66420300  0.98918400  1
  C  C34  1  0.72005400  0.23418200  0.08180600  1
  C  C35  1  0.27994600  0.76581800  0.91819400  1
  C  C36  1  0.89880300  0.30940200  0.38480400  1
  C  C37  1  0.10119700  0.69059800  0.61519600  1
  C  C38  1  0.48328800  0.30631100  0.37859500  1
  C  C39  1  0.51671200  0.69368900  0.62140500  1
  C  C40  1  0.62792700  0.13213600  0.27599400  1
  C  C41  1  0.37207300  0.86786400  0.72400600  1
  C  C42  1  0.75778000  0.23061500  0.90034200  1
  C  C43  1  0.24222000  0.76938500  0.09965800  1
  C  C44  1  0.75819700  0.48919700  0.58936800  1
  C  C45  1  0.24180300  0.51080300  0.41063200  1
  C  C46  1  0.13865600  0.09973300  0.90934000  1
  C  C47  1  0.86134400  0.90026700  0.09066000  1
  C  C48  1  0.74360700  0.53018600  0.40521900  1
  C  C49  1  0.25639300  0.46981400  0.59478100  1
  C  C50  1  0.99949200  0.00258000  0.13188000  1
  C  C51  1  0.00050800  0.99742000  0.86812000  1
  C  C52  1  0.22507600  0.13270400  0.64108100  1
  C  C53  1  0.77492400  0.86729600  0.35891900  1
  C  C54  1  0.24473400  0.81005300  0.34153100  1
  C  C55  1  0.75526600  0.18994700  0.65846900  1
