# generated using pymatgen
data_Cu(NiC4)3
_symmetry_space_group_name_H-M   'P 1'
_cell_length_a   6.18221200
_cell_length_b   8.58146500
_cell_length_c   12.83316800
_cell_angle_alpha   90.00000000
_cell_angle_beta   90.00000000
_cell_angle_gamma   90.00000000
_symmetry_Int_Tables_number   1
_chemical_formula_structural   Cu(NiC4)3
_chemical_formula_sum   'Cu4 Ni12 C48'
_cell_volume   680.83082272
_cell_formula_units_Z   4
loop_
 _symmetry_equiv_pos_site_id
 _symmetry_equiv_pos_as_xyz
  1  'x, y, z'
loop_
 _atom_site_type_symbol
 _atom_site_label
 _atom_site_symmetry_multiplicity
 _atom_site_fract_x
 _atom_site_fract_y
 _atom_site_fract_z
 _atom_site_occupancy
  Ni  Ni0  1  0.24946100  0.72813200  0.13065900  1
  Ni  Ni1  1  0.24946100  0.27186800  0.86934100  1
  Ni  Ni2  1  0.25053900  0.77186800  0.63065900  1
  Ni  Ni3  1  0.25053900  0.22813200  0.36934100  1
  Ni  Ni4  1  0.75053900  0.27186800  0.86934100  1
  Ni  Ni5  1  0.75053900  0.72813200  0.13065900  1
  Ni  Ni6  1  0.74946100  0.22813200  0.36934100  1
  Ni  Ni7  1  0.74946100  0.77186800  0.63065900  1
  Ni  Ni8  1  0.00000000  0.00000000  0.00000000  1
  Ni  Ni9  1  0.50000000  0.50000000  0.50000000  1
  Ni  Ni10  1  0.50000000  0.00000000  0.00000000  1
  Ni  Ni11  1  0.00000000  0.50000000  0.50000000  1
  Cu  Cu12  1  0.50000000  0.87686400  0.36855700  1
  Cu  Cu13  1  0.50000000  0.12313600  0.63144300  1
  Cu  Cu14  1  0.00000000  0.62313600  0.86855700  1
  Cu  Cu15  1  0.00000000  0.37686400  0.13144300  1
  C  C16  1  0.50000000  0.63209000  0.99445500  1
  C  C17  1  0.50000000  0.36791000  0.00554500  1
  C  C18  1  0.00000000  0.86791000  0.49445500  1
  C  C19  1  0.00000000  0.13209000  0.50554500  1
  C  C20  1  0.00000000  0.85019300  0.25223900  1
  C  C21  1  0.00000000  0.14980700  0.74776100  1
  C  C22  1  0.50000000  0.64980700  0.75223900  1
  C  C23  1  0.50000000  0.35019300  0.24776100  1
  C  C24  1  0.24181900  0.03303200  0.16212100  1
  C  C25  1  0.24181900  0.96696700  0.83787900  1
  C  C26  1  0.25818100  0.46696800  0.66212100  1
  C  C27  1  0.25818100  0.53303300  0.33787900  1
  C  C28  1  0.75818100  0.96696700  0.83787900  1
  C  C29  1  0.75818100  0.03303200  0.16212100  1
  C  C30  1  0.74181900  0.53303300  0.33787900  1
  C  C31  1  0.74181900  0.46696800  0.66212100  1
  C  C32  1  0.50000000  0.72467300  0.03875900  1
  C  C33  1  0.50000000  0.27532700  0.96124100  1
  C  C34  1  0.00000000  0.77532700  0.53875900  1
  C  C35  1  0.00000000  0.22467300  0.46124100  1
  C  C36  1  0.00000000  0.74500300  0.22202900  1
  C  C37  1  0.00000000  0.25499700  0.77797100  1
  C  C38  1  0.50000000  0.75499700  0.72202900  1
  C  C39  1  0.50000000  0.24500300  0.27797100  1
  C  C40  1  0.24967500  0.96746700  0.09942600  1
  C  C41  1  0.24967500  0.03253300  0.90057400  1
  C  C42  1  0.25032500  0.53253300  0.59942600  1
  C  C43  1  0.25032500  0.46746700  0.40057400  1
  C  C44  1  0.75032500  0.03253300  0.90057400  1
  C  C45  1  0.75032500  0.96746700  0.09942600  1
  C  C46  1  0.74967500  0.46746700  0.40057400  1
  C  C47  1  0.74967500  0.53253300  0.59942600  1
  C  C48  1  0.50000000  0.73192600  0.26829900  1
  C  C49  1  0.50000000  0.26807400  0.73170100  1
  C  C50  1  0.00000000  0.76807400  0.76829900  1
  C  C51  1  0.00000000  0.23192600  0.23170100  1
  C  C52  1  0.25846700  0.99409500  0.35667400  1
  C  C53  1  0.25846700  0.00590500  0.64332600  1
  C  C54  1  0.24153300  0.50590500  0.85667400  1
  C  C55  1  0.24153300  0.49409500  0.14332600  1
  C  C56  1  0.74153300  0.00590500  0.64332600  1
  C  C57  1  0.74153300  0.99409500  0.35667400  1
  C  C58  1  0.75846700  0.49409500  0.14332600  1
  C  C59  1  0.75846700  0.50590500  0.85667400  1
  C  C60  1  0.50000000  0.77740100  0.49200000  1
  C  C61  1  0.50000000  0.22259900  0.50800000  1
  C  C62  1  0.00000000  0.72259900  0.99200000  1
  C  C63  1  0.00000000  0.27740100  0.00800000  1
