# generated using pymatgen
data_CuNiC5
_symmetry_space_group_name_H-M   'P 1'
_cell_length_a   8.86201800
_cell_length_b   5.18340300
_cell_length_c   8.89079552
_cell_angle_alpha   75.56203855
_cell_angle_beta   90.00000000
_cell_angle_gamma   90.00000000
_symmetry_Int_Tables_number   1
_chemical_formula_structural   CuNiC5
_chemical_formula_sum   'Cu4 Ni4 C20'
_cell_volume   395.50425350
_cell_formula_units_Z   4
loop_
 _symmetry_equiv_pos_site_id
 _symmetry_equiv_pos_as_xyz
  1  'x, y, z'
loop_
 _atom_site_type_symbol
 _atom_site_label
 _atom_site_symmetry_multiplicity
 _atom_site_fract_x
 _atom_site_fract_y
 _atom_site_fract_z
 _atom_site_occupancy
  Ni  Ni0  1  0.74261400  0.80120500  0.50616800  1
  Ni  Ni1  1  0.24261400  0.19879500  0.99383200  1
  Ni  Ni2  1  0.25738600  0.19879500  0.49383200  1
  Ni  Ni3  1  0.75738600  0.80120500  0.00616800  1
  Cu  Cu4  1  0.93221800  0.22795300  0.19460500  1
  Cu  Cu5  1  0.43221800  0.77204700  0.30539500  1
  Cu  Cu6  1  0.06778200  0.77204700  0.80539500  1
  Cu  Cu7  1  0.56778200  0.22795300  0.69460500  1
  C  C8  1  0.94854300  0.46757500  0.53928200  1
  C  C9  1  0.44854300  0.53242500  0.96071800  1
  C  C10  1  0.05145700  0.53242500  0.46071800  1
  C  C11  1  0.55145700  0.46757500  0.03928200  1
  C  C12  1  0.85701500  0.11800000  0.06658800  1
  C  C13  1  0.35701500  0.88200000  0.43341200  1
  C  C14  1  0.14298500  0.88200000  0.93341200  1
  C  C15  1  0.64298500  0.11800000  0.56658800  1
  C  C16  1  0.89707600  0.53034100  0.16383400  1
  C  C17  1  0.39707600  0.46965900  0.33616600  1
  C  C18  1  0.10292400  0.46965900  0.83616600  1
  C  C19  1  0.60292400  0.53034100  0.66383400  1
  C  C20  1  0.10897200  0.19634700  0.18984400  1
  C  C21  1  0.60897200  0.80365300  0.31015600  1
  C  C22  1  0.89102800  0.80365300  0.81015600  1
  C  C23  1  0.39102800  0.19634700  0.68984400  1
  C  C24  1  0.88483000  0.08626800  0.36050600  1
  C  C25  1  0.38483000  0.91373200  0.13949400  1
  C  C26  1  0.11517000  0.91373200  0.63949400  1
  C  C27  1  0.61517000  0.08626800  0.86050600  1
