# generated using pymatgen
data_Cu2NiC18
_symmetry_space_group_name_H-M   'P 1'
_cell_length_a   3.40999700
_cell_length_b   10.32268869
_cell_length_c   10.32267527
_cell_angle_alpha   120.00007037
_cell_angle_beta   90.00000000
_cell_angle_gamma   90.00000000
_symmetry_Int_Tables_number   1
_chemical_formula_structural   Cu2NiC18
_chemical_formula_sum   'Cu2 Ni1 C18'
_cell_volume   314.68019917
_cell_formula_units_Z   1
loop_
 _symmetry_equiv_pos_site_id
 _symmetry_equiv_pos_as_xyz
  1  'x, y, z'
loop_
 _atom_site_type_symbol
 _atom_site_label
 _atom_site_symmetry_multiplicity
 _atom_site_fract_x
 _atom_site_fract_y
 _atom_site_fract_z
 _atom_site_occupancy
  Ni  Ni0  1  0.75000000  0.00000600  0.00000300  1
  Cu  Cu1  1  0.75000000  0.66667200  0.33333600  1
  Cu  Cu2  1  0.25000000  0.33333100  0.66666500  1
  C  C3  1  0.75000000  0.34953100  0.00123300  1
  C  C4  1  0.75000000  0.99877100  0.34829700  1
  C  C5  1  0.75000000  0.65170000  0.65047100  1
  C  C6  1  0.25000000  0.65317200  0.99898300  1
  C  C7  1  0.25000000  0.00101500  0.65418900  1
  C  C8  1  0.25000000  0.34581400  0.34682800  1
  C  C9  1  0.75000000  0.88950500  0.69637100  1
  C  C10  1  0.75000000  0.30363500  0.19313800  1
  C  C11  1  0.75000000  0.80686800  0.11049600  1
  C  C12  1  0.25000000  0.09912800  0.28118800  1
  C  C13  1  0.25000000  0.71879700  0.81793100  1
  C  C14  1  0.25000000  0.18206000  0.90087300  1
  C  C15  1  0.75000000  0.13628000  0.60777600  1
  C  C16  1  0.75000000  0.39222100  0.52850400  1
  C  C17  1  0.75000000  0.47149500  0.86372300  1
  C  C18  1  0.25000000  0.86746600  0.39510800  1
  C  C19  1  0.25000000  0.60489300  0.47235900  1
  C  C20  1  0.25000000  0.52764200  0.13253100  1
