# generated using pymatgen
data_Cu3Ni2C5
_symmetry_space_group_name_H-M   'P 1'
_cell_length_a   4.74820200
_cell_length_b   8.80595764
_cell_length_c   11.00904944
_cell_angle_alpha   67.82200596
_cell_angle_beta   77.54633857
_cell_angle_gamma   74.35943395
_symmetry_Int_Tables_number   1
_chemical_formula_structural   Cu3Ni2C5
_chemical_formula_sum   'Cu3 Ni2 C5'
_cell_volume   407.11481706
_cell_formula_units_Z   1
loop_
 _symmetry_equiv_pos_site_id
 _symmetry_equiv_pos_as_xyz
  1  'x, y, z'
loop_
 _atom_site_type_symbol
 _atom_site_label
 _atom_site_symmetry_multiplicity
 _atom_site_fract_x
 _atom_site_fract_y
 _atom_site_fract_z
 _atom_site_occupancy
  Ni  Ni0  1  0.31269800  0.14202400  0.23258000  1
  Ni  Ni1  1  0.68730200  0.85797600  0.76742000  1
  Cu  Cu2  1  0.50000000  0.50000000  0.50000000  1
  Cu  Cu3  1  0.05030600  0.69603900  0.20334900  1
  Cu  Cu4  1  0.94969400  0.30396100  0.79665100  1
  C  C5  1  0.00000000  0.00000000  0.00000000  1
  C  C6  1  0.09938400  0.23622700  0.56500500  1
  C  C7  1  0.90061600  0.76377300  0.43499500  1
  C  C8  1  0.63604000  0.52342000  0.20450000  1
  C  C9  1  0.36396000  0.47658000  0.79550000  1
