# generated using pymatgen
data_CuNiC5
_symmetry_space_group_name_H-M   'P 1'
_cell_length_a   7.40270036
_cell_length_b   7.40270036
_cell_length_c   7.40270036
_cell_angle_alpha   119.77782483
_cell_angle_beta   119.72413410
_cell_angle_gamma   90.43186634
_symmetry_Int_Tables_number   1
_chemical_formula_structural   CuNiC5
_chemical_formula_sum   'Cu2 Ni2 C10'
_cell_volume   287.92118889
_cell_formula_units_Z   2
loop_
 _symmetry_equiv_pos_site_id
 _symmetry_equiv_pos_as_xyz
  1  'x, y, z'
loop_
 _atom_site_type_symbol
 _atom_site_label
 _atom_site_symmetry_multiplicity
 _atom_site_fract_x
 _atom_site_fract_y
 _atom_site_fract_z
 _atom_site_occupancy
  C  C0  1  0.00000000  0.00000000  0.00000000  1
  C  C1  1  0.50000000  0.00000000  0.50000000  1
  Ni  Ni2  1  0.00000000  0.00000000  0.50000000  1
  Ni  Ni3  1  0.00000000  0.50000000  0.00000000  1
  Cu  Cu4  1  0.37956700  0.62956700  0.75000000  1
  Cu  Cu5  1  0.62043300  0.37043300  0.25000000  1
  C  C6  1  0.23403900  0.74965100  0.01561200  1
  C  C7  1  0.76596100  0.78157300  0.51561200  1
  C  C8  1  0.20902100  0.24294800  0.96607300  1
  C  C9  1  0.77687500  0.24294800  0.53392700  1
  C  C10  1  0.79097900  0.75705200  0.03392700  1
  C  C11  1  0.22312500  0.75705200  0.46607300  1
  C  C12  1  0.76596100  0.25034900  0.98438800  1
  C  C13  1  0.23403900  0.21842700  0.48438800  1
