# generated using pymatgen
data_CuNiC
_symmetry_space_group_name_H-M   'P 1'
_cell_length_a   4.17956400
_cell_length_b   4.17956400
_cell_length_c   7.84717723
_cell_angle_alpha   105.44480950
_cell_angle_beta   105.44480950
_cell_angle_gamma   90.00000000
_symmetry_Int_Tables_number   1
_chemical_formula_structural   CuNiC
_chemical_formula_sum   'Cu2 Ni2 C2'
_cell_volume   126.98693255
_cell_formula_units_Z   2
loop_
 _symmetry_equiv_pos_site_id
 _symmetry_equiv_pos_as_xyz
  1  'x, y, z'
loop_
 _atom_site_type_symbol
 _atom_site_label
 _atom_site_symmetry_multiplicity
 _atom_site_fract_x
 _atom_site_fract_y
 _atom_site_fract_z
 _atom_site_occupancy
  C  C0  1  0.17056500  0.17056500  0.34113000  1
  C  C1  1  0.42056500  0.92056500  0.84113000  1
  Ni  Ni2  1  0.58671600  0.58671600  0.17343200  1
  Ni  Ni3  1  0.83671600  0.33671600  0.67343200  1
  Cu  Cu4  1  0.00232000  0.50232000  0.00464000  1
  Cu  Cu5  1  0.75232000  0.75232000  0.50464000  1
