# generated using pymatgen
data_Cu8(Ni2C)3
_symmetry_space_group_name_H-M   'P 1'
_cell_length_a   8.73294400
_cell_length_b   8.73294400
_cell_length_c   11.87686600
_cell_angle_alpha   90.00000000
_cell_angle_beta   90.00000000
_cell_angle_gamma   90.00000000
_symmetry_Int_Tables_number   1
_chemical_formula_structural   Cu8(Ni2C)3
_chemical_formula_sum   'Cu32 Ni24 C12'
_cell_volume   905.78100123
_cell_formula_units_Z   4
loop_
 _symmetry_equiv_pos_site_id
 _symmetry_equiv_pos_as_xyz
  1  'x, y, z'
loop_
 _atom_site_type_symbol
 _atom_site_label
 _atom_site_symmetry_multiplicity
 _atom_site_fract_x
 _atom_site_fract_y
 _atom_site_fract_z
 _atom_site_occupancy
  C  C0  1  0.23054500  0.76945500  0.50000000  1
  C  C1  1  0.76945500  0.23054500  0.50000000  1
  C  C2  1  0.26945500  0.26945500  0.00000000  1
  C  C3  1  0.73054500  0.73054500  0.00000000  1
  C  C4  1  0.64314600  0.64314600  0.50000000  1
  C  C5  1  0.35685400  0.35685400  0.50000000  1
  C  C6  1  0.85685400  0.14314600  0.00000000  1
  C  C7  1  0.14314600  0.85685400  0.00000000  1
  Ni  Ni8  1  0.00000000  0.50000000  0.50000000  1
  Ni  Ni9  1  0.50000000  0.00000000  0.00000000  1
  Ni  Ni10  1  0.50000000  0.00000000  0.50000000  1
  Ni  Ni11  1  0.00000000  0.50000000  0.00000000  1
  Ni  Ni12  1  0.50000000  0.50000000  0.11555500  1
  Ni  Ni13  1  0.00000000  0.00000000  0.61555500  1
  Ni  Ni14  1  0.50000000  0.50000000  0.88444500  1
  Ni  Ni15  1  0.00000000  0.00000000  0.38444500  1
  Ni  Ni16  1  0.93281800  0.72312300  0.37043900  1
  Ni  Ni17  1  0.06718200  0.27687700  0.37043900  1
  Ni  Ni18  1  0.56718200  0.22312300  0.87043900  1
  Ni  Ni19  1  0.43281800  0.77687700  0.87043900  1
  Ni  Ni20  1  0.06718200  0.27687700  0.62956100  1
  Ni  Ni21  1  0.93281800  0.72312300  0.62956100  1
  Ni  Ni22  1  0.43281800  0.77687700  0.12956100  1
  Ni  Ni23  1  0.56718200  0.22312300  0.12956100  1
  Ni  Ni24  1  0.72312300  0.93281800  0.37043900  1
  Ni  Ni25  1  0.27687700  0.06718200  0.37043900  1
  Ni  Ni26  1  0.22312300  0.56718200  0.87043900  1
  Ni  Ni27  1  0.77687700  0.43281800  0.87043900  1
  Ni  Ni28  1  0.27687700  0.06718200  0.62956100  1
  Ni  Ni29  1  0.72312300  0.93281800  0.62956100  1
  Ni  Ni30  1  0.77687700  0.43281800  0.12956100  1
  Ni  Ni31  1  0.22312300  0.56718200  0.12956100  1
  Cu  Cu32  1  0.18230600  0.81769400  0.25144200  1
  Cu  Cu33  1  0.81769400  0.18230600  0.25144200  1
  Cu  Cu34  1  0.31769400  0.31769400  0.75144200  1
  Cu  Cu35  1  0.68230600  0.68230600  0.75144200  1
  Cu  Cu36  1  0.81769400  0.18230600  0.74855800  1
  Cu  Cu37  1  0.18230600  0.81769400  0.74855800  1
  Cu  Cu38  1  0.68230600  0.68230600  0.24855800  1
  Cu  Cu39  1  0.31769400  0.31769400  0.24855800  1
  Cu  Cu40  1  0.40038700  0.59961300  0.29069400  1
  Cu  Cu41  1  0.59961300  0.40038700  0.29069400  1
  Cu  Cu42  1  0.09961300  0.09961300  0.79069400  1
  Cu  Cu43  1  0.90038700  0.90038700  0.79069400  1
  Cu  Cu44  1  0.59961300  0.40038700  0.70930600  1
  Cu  Cu45  1  0.40038700  0.59961300  0.70930600  1
  Cu  Cu46  1  0.90038700  0.90038700  0.20930600  1
  Cu  Cu47  1  0.09961300  0.09961300  0.20930600  1
  Cu  Cu48  1  0.14063400  0.53592500  0.32129400  1
  Cu  Cu49  1  0.85936600  0.46407500  0.32129400  1
  Cu  Cu50  1  0.35936600  0.03592500  0.82129400  1
  Cu  Cu51  1  0.64063400  0.96407500  0.82129400  1
  Cu  Cu52  1  0.85936600  0.46407500  0.67870600  1
  Cu  Cu53  1  0.14063400  0.53592500  0.67870600  1
  Cu  Cu54  1  0.64063400  0.96407500  0.17870600  1
  Cu  Cu55  1  0.35936600  0.03592500  0.17870600  1
  Cu  Cu56  1  0.53592500  0.14063400  0.32129400  1
  Cu  Cu57  1  0.46407500  0.85936600  0.32129400  1
  Cu  Cu58  1  0.03592500  0.35936600  0.82129400  1
  Cu  Cu59  1  0.96407500  0.64063400  0.82129400  1
  Cu  Cu60  1  0.46407500  0.85936600  0.67870600  1
  Cu  Cu61  1  0.53592500  0.14063400  0.67870600  1
  Cu  Cu62  1  0.96407500  0.64063400  0.17870600  1
  Cu  Cu63  1  0.03592500  0.35936600  0.17870600  1
  C  C64  1  0.87602500  0.87602500  0.50000000  1
  C  C65  1  0.12397500  0.12397500  0.50000000  1
  C  C66  1  0.62397500  0.37602500  0.00000000  1
  C  C67  1  0.37602500  0.62397500  0.00000000  1
