# generated using pymatgen
data_CuNiC5
_symmetry_space_group_name_H-M   'P 1'
_cell_length_a   5.50375200
_cell_length_b   5.50629200
_cell_length_c   12.61420700
_cell_angle_alpha   90.00000000
_cell_angle_beta   90.00000000
_cell_angle_gamma   90.00000000
_symmetry_Int_Tables_number   1
_chemical_formula_structural   CuNiC5
_chemical_formula_sum   'Cu4 Ni4 C20'
_cell_volume   382.27689356
_cell_formula_units_Z   4
loop_
 _symmetry_equiv_pos_site_id
 _symmetry_equiv_pos_as_xyz
  1  'x, y, z'
loop_
 _atom_site_type_symbol
 _atom_site_label
 _atom_site_symmetry_multiplicity
 _atom_site_fract_x
 _atom_site_fract_y
 _atom_site_fract_z
 _atom_site_occupancy
  Ni  Ni0  1  0.50000000  0.00000000  0.85614900  1
  Ni  Ni1  1  0.00000000  0.50000000  0.14348900  1
  Ni  Ni2  1  0.00000000  0.00000000  0.64205100  1
  Ni  Ni3  1  0.00000000  0.00000000  0.35860500  1
  Cu  Cu4  1  0.50000000  0.00000000  0.13882600  1
  Cu  Cu5  1  0.00000000  0.50000000  0.86235000  1
  Cu  Cu6  1  0.50000000  0.50000000  0.64142100  1
  Cu  Cu7  1  0.50000000  0.50000000  0.35987800  1
  C  C8  1  0.50000000  0.50000000  0.99960600  1
  C  C9  1  0.50000000  0.00000000  0.50253800  1
  C  C10  1  0.00000000  0.00000000  0.00003400  1
  C  C11  1  0.00000000  0.50000000  0.49769200  1
  C  C12  1  0.75274800  0.26307900  0.49888100  1
  C  C13  1  0.24725200  0.73692100  0.49888100  1
  C  C14  1  0.24725200  0.26307900  0.49888100  1
  C  C15  1  0.75274800  0.73692100  0.49888100  1
  C  C16  1  0.50000000  0.00000000  0.66664000  1
  C  C17  1  0.50000000  0.00000000  0.32207600  1
  C  C18  1  0.00000000  0.50000000  0.34194600  1
  C  C19  1  0.00000000  0.50000000  0.66894200  1
  C  C20  1  0.50000000  0.50000000  0.82503500  1
  C  C21  1  0.50000000  0.50000000  0.17622300  1
  C  C22  1  0.00000000  0.00000000  0.84217900  1
  C  C23  1  0.00000000  0.00000000  0.15882800  1
  C  C24  1  0.75843600  0.24554100  0.99999200  1
  C  C25  1  0.24156400  0.75445900  0.99999200  1
  C  C26  1  0.24156400  0.24554100  0.99999200  1
  C  C27  1  0.75843600  0.75445900  0.99999200  1
