# generated using pymatgen
data_Cu16Ni2C7
_symmetry_space_group_name_H-M   'P 1'
_cell_length_a   5.66492239
_cell_length_b   11.74040291
_cell_length_c   22.78899840
_cell_angle_alpha   84.84409772
_cell_angle_beta   90.04502114
_cell_angle_gamma   90.00284846
_symmetry_Int_Tables_number   1
_chemical_formula_structural   Cu16Ni2C7
_chemical_formula_sum   'Cu64 Ni8 C28'
_cell_volume   1509.52839874
_cell_formula_units_Z   4
loop_
 _symmetry_equiv_pos_site_id
 _symmetry_equiv_pos_as_xyz
  1  'x, y, z'
loop_
 _atom_site_type_symbol
 _atom_site_label
 _atom_site_symmetry_multiplicity
 _atom_site_fract_x
 _atom_site_fract_y
 _atom_site_fract_z
 _atom_site_occupancy
  C  C0  1  0.10816300  0.00010800  0.50008800  1
  C  C1  1  0.60445100  0.50004900  0.74998400  1
  C  C2  1  0.10686900  0.99976500  0.99989500  1
  C  C3  1  0.65186200  0.50075400  0.24993500  1
  C  C4  1  0.12367900  0.65395700  0.49717300  1
  C  C5  1  0.62500400  0.15395500  0.74693100  1
  C  C6  1  0.12353700  0.65382300  0.99630100  1
  C  C7  1  0.62342400  0.15440400  0.24713200  1
  C  C8  1  0.12325000  0.34636900  0.50372900  1
  C  C9  1  0.62521500  0.84606200  0.75327200  1
  C  C10  1  0.12444400  0.34608300  0.00283500  1
  C  C11  1  0.62384300  0.84593600  0.25281700  1
  C  C12  1  0.62719000  0.52101300  0.58536900  1
  C  C13  1  0.12841700  0.02142500  0.83553500  1
  C  C14  1  0.62584300  0.52173900  0.08569700  1
  C  C15  1  0.12708200  0.02057200  0.33557800  1
  C  C16  1  0.62527900  0.47803900  0.41398100  1
  C  C17  1  0.12806000  0.97840000  0.66452500  1
  C  C18  1  0.62743700  0.47890500  0.91447800  1
  C  C19  1  0.12628700  0.97950300  0.16456900  1
  C  C20  1  0.04866800  0.33804300  0.33574800  1
  C  C21  1  0.54721300  0.83906000  0.58462600  1
  C  C22  1  0.04694000  0.33969600  0.83427400  1
  C  C23  1  0.54652800  0.83965400  0.08443700  1
  C  C24  1  0.04664400  0.66023600  0.66576600  1
  C  C25  1  0.54763700  0.16072700  0.91554000  1
  C  C26  1  0.05019100  0.66208300  0.16410300  1
  C  C27  1  0.54687500  0.16073600  0.41545700  1
  Ni  Ni28  1  0.67536800  0.84907600  0.43316000  1
  Ni  Ni29  1  0.17660800  0.34809300  0.68288400  1
  Ni  Ni30  1  0.67639100  0.84892700  0.93303100  1
  Ni  Ni31  1  0.18050100  0.35420700  0.18535100  1
  Ni  Ni32  1  0.67675500  0.15085300  0.56672400  1
  Ni  Ni33  1  0.17668600  0.65187600  0.81721000  1
  Ni  Ni34  1  0.67667600  0.15143600  0.06679300  1
  Ni  Ni35  1  0.17798800  0.64554800  0.31482700  1
  Cu  Cu36  1  0.87876000  0.50034800  0.50020300  1
  Cu  Cu37  1  0.37982400  0.00006200  0.75008800  1
  Cu  Cu38  1  0.87915900  0.49977600  0.99979600  1
  Cu  Cu39  1  0.37884100  0.00001800  0.24994600  1
  Cu  Cu40  1  0.35939000  0.50012300  0.50016800  1
  Cu  Cu41  1  0.86090500  0.00005300  0.75003800  1
  Cu  Cu42  1  0.36005100  0.50009900  0.99992100  1
  Cu  Cu43  1  0.85904200  0.00000100  0.24982000  1
  Cu  Cu44  1  0.90039600  0.87835200  0.46423100  1
  Cu  Cu45  1  0.40208100  0.37651000  0.71412100  1
  Cu  Cu46  1  0.90287600  0.87701400  0.96386200  1
  Cu  Cu47  1  0.40363100  0.38200000  0.21683400  1
  Cu  Cu48  1  0.90320300  0.12270400  0.53602400  1
  Cu  Cu49  1  0.40208100  0.62335700  0.78607200  1
  Cu  Cu50  1  0.90118600  0.12291500  0.03529800  1
  Cu  Cu51  1  0.40224700  0.61762700  0.28393800  1
  Cu  Cu52  1  0.47121400  0.86518300  0.47383500  1
  Cu  Cu53  1  0.97266700  0.36483500  0.72349100  1
  Cu  Cu54  1  0.47348700  0.86629800  0.97387500  1
  Cu  Cu55  1  0.97181200  0.37387000  0.22491900  1
  Cu  Cu56  1  0.47365900  0.13296700  0.52592800  1
  Cu  Cu57  1  0.97266100  0.63514300  0.77659100  1
  Cu  Cu58  1  0.47165000  0.13501500  0.02637500  1
  Cu  Cu59  1  0.97066600  0.62549900  0.27472500  1
  Cu  Cu60  1  0.69036600  0.72905400  0.41968800  1
  Cu  Cu61  1  0.19011100  0.22806100  0.66936200  1
  Cu  Cu62  1  0.68827700  0.72872300  0.91968100  1
  Cu  Cu63  1  0.18734400  0.23298700  0.17326400  1
  Cu  Cu64  1  0.68824200  0.27124300  0.57976200  1
  Cu  Cu65  1  0.19023700  0.77189600  0.83076000  1
  Cu  Cu66  1  0.69106200  0.27140800  0.08040000  1
  Cu  Cu67  1  0.18358700  0.76685800  0.32666700  1
  Cu  Cu68  1  0.14964500  0.42936300  0.62868400  1
  Cu  Cu69  1  0.64881100  0.92995700  0.87875600  1
  Cu  Cu70  1  0.15509600  0.43333600  0.13015600  1
  Cu  Cu71  1  0.64670100  0.93010900  0.37887900  1
  Cu  Cu72  1  0.15117600  0.56666300  0.37002200  1
  Cu  Cu73  1  0.64941600  0.07022700  0.62114300  1
  Cu  Cu74  1  0.14976800  0.57061300  0.87144800  1
  Cu  Cu75  1  0.65026400  0.07006200  0.12097600  1
  Cu  Cu76  1  0.69986100  0.58509500  0.67740100  1
  Cu  Cu77  1  0.20085700  0.08546900  0.92724600  1
  Cu  Cu78  1  0.69853400  0.58846000  0.17612400  1
  Cu  Cu79  1  0.19988300  0.08528400  0.42704600  1
  Cu  Cu80  1  0.69625900  0.41085600  0.32390500  1
  Cu  Cu81  1  0.19999400  0.91407900  0.57290800  1
  Cu  Cu82  1  0.70005200  0.41491100  0.82262500  1
  Cu  Cu83  1  0.19900300  0.91453600  0.07285300  1
  Cu  Cu84  1  0.88915900  0.66568300  0.57455200  1
  Cu  Cu85  1  0.39003500  0.16598800  0.82429400  1
  Cu  Cu86  1  0.88780400  0.66633200  0.07350900  1
  Cu  Cu87  1  0.38822800  0.16518000  0.32431100  1
  Cu  Cu88  1  0.88723600  0.33363800  0.42653900  1
  Cu  Cu89  1  0.39005600  0.83406600  0.67589300  1
  Cu  Cu90  1  0.88963300  0.33437100  0.92547500  1
  Cu  Cu91  1  0.38856000  0.83488800  0.17557800  1
  Cu  Cu92  1  0.38415800  0.67131300  0.57386700  1
  Cu  Cu93  1  0.88474700  0.17174200  0.82371900  1
  Cu  Cu94  1  0.38243500  0.67188600  0.07344500  1
  Cu  Cu95  1  0.88444900  0.17052200  0.32371200  1
  Cu  Cu96  1  0.38162300  0.32819700  0.42655900  1
  Cu  Cu97  1  0.88463400  0.82820800  0.67648800  1
  Cu  Cu98  1  0.38452300  0.32860400  0.92620900  1
  Cu  Cu99  1  0.88453900  0.82925200  0.17624000  1
