# generated using pymatgen
data_Cu2NiC16
_symmetry_space_group_name_H-M   'P 1'
_cell_length_a   5.82549350
_cell_length_b   6.05055023
_cell_length_c   10.12871077
_cell_angle_alpha   67.95188476
_cell_angle_beta   74.54321759
_cell_angle_gamma   98.42932504
_symmetry_Int_Tables_number   1
_chemical_formula_structural   Cu2NiC16
_chemical_formula_sum   'Cu2 Ni1 C16'
_cell_volume   306.53899350
_cell_formula_units_Z   1
loop_
 _symmetry_equiv_pos_site_id
 _symmetry_equiv_pos_as_xyz
  1  'x, y, z'
loop_
 _atom_site_type_symbol
 _atom_site_label
 _atom_site_symmetry_multiplicity
 _atom_site_fract_x
 _atom_site_fract_y
 _atom_site_fract_z
 _atom_site_occupancy
  C  C0  1  0.10519700  0.63639200  0.79840000  1
  C  C1  1  0.89480300  0.36360800  0.20160000  1
  C  C2  1  0.78150500  0.06598700  0.64730300  1
  C  C3  1  0.21849500  0.93401300  0.35269700  1
  Ni  Ni4  1  0.50000000  0.00000000  0.00000000  1
  C  C5  1  0.50000000  0.50000000  0.00000000  1
  C  C6  1  0.00000000  0.00000000  0.00000000  1
  Cu  Cu7  1  0.60450900  0.65467300  0.54776300  1
  Cu  Cu8  1  0.39549100  0.34532700  0.45223700  1
  C  C9  1  0.23318000  0.14751100  0.08225200  1
  C  C10  1  0.23352500  0.74850100  0.99173800  1
  C  C11  1  0.76647500  0.25149900  0.00826200  1
  C  C12  1  0.76682000  0.85248900  0.91774800  1
  C  C13  1  0.56174100  0.60607200  0.74454400  1
  C  C14  1  0.43825900  0.39392800  0.25545600  1
  C  C15  1  0.20090000  0.02661000  0.57889500  1
  C  C16  1  0.79910000  0.97339000  0.42110500  1
  C  C17  1  0.28092300  0.56081500  0.53533300  1
  C  C18  1  0.71907700  0.43918500  0.46466700  1
