# generated using pymatgen
data_Cu2NiC5
_symmetry_space_group_name_H-M   'P 1'
_cell_length_a   8.48441400
_cell_length_b   9.55368500
_cell_length_c   13.62408745
_cell_angle_alpha   89.79471343
_cell_angle_beta   90.00000000
_cell_angle_gamma   90.00000000
_symmetry_Int_Tables_number   1
_chemical_formula_structural   Cu2NiC5
_chemical_formula_sum   'Cu8 Ni4 C20'
_cell_volume   1104.32627326
_cell_formula_units_Z   4
loop_
 _symmetry_equiv_pos_site_id
 _symmetry_equiv_pos_as_xyz
  1  'x, y, z'
loop_
 _atom_site_type_symbol
 _atom_site_label
 _atom_site_symmetry_multiplicity
 _atom_site_fract_x
 _atom_site_fract_y
 _atom_site_fract_z
 _atom_site_occupancy
  Ni  Ni0  1  0.46072600  0.49438500  0.82885600  1
  Ni  Ni1  1  0.53927400  0.50561500  0.17114400  1
  Ni  Ni2  1  0.96072600  0.50561500  0.67114400  1
  Ni  Ni3  1  0.03927400  0.49438500  0.32885600  1
  Cu  Cu4  1  0.47885500  0.99884500  0.82172300  1
  Cu  Cu5  1  0.52114500  0.00115500  0.17827700  1
  Cu  Cu6  1  0.97885500  0.00115500  0.67827700  1
  Cu  Cu7  1  0.02114500  0.99884500  0.32172300  1
  Cu  Cu8  1  0.43438800  0.75481000  0.50546800  1
  Cu  Cu9  1  0.56561200  0.24519000  0.49453200  1
  Cu  Cu10  1  0.93438800  0.24519000  0.99453200  1
  Cu  Cu11  1  0.06561200  0.75481000  0.00546800  1
  C  C12  1  0.33477600  0.46639100  0.58598300  1
  C  C13  1  0.66522400  0.53360900  0.41401700  1
  C  C14  1  0.83477600  0.53360900  0.91401700  1
  C  C15  1  0.16522400  0.46639100  0.08598300  1
  C  C16  1  0.66730100  0.78663300  0.68245400  1
  C  C17  1  0.33269900  0.21336700  0.31754600  1
  C  C18  1  0.16730100  0.21336700  0.81754600  1
  C  C19  1  0.83269900  0.78663300  0.18245400  1
  C  C20  1  0.19361700  0.77613200  0.78785200  1
  C  C21  1  0.80638300  0.22386800  0.21214800  1
  C  C22  1  0.69361700  0.22386800  0.71214800  1
  C  C23  1  0.30638300  0.77613200  0.28785200  1
  C  C24  1  0.04977000  0.78758800  0.50365600  1
  C  C25  1  0.95023000  0.21241200  0.49634400  1
  C  C26  1  0.54977000  0.21241200  0.99634400  1
  C  C27  1  0.45023000  0.78758800  0.00365600  1
  C  C28  1  0.84077900  0.96055900  0.89745600  1
  C  C29  1  0.15922100  0.03944100  0.10254400  1
  C  C30  1  0.34077900  0.03944100  0.60254400  1
  C  C31  1  0.65922100  0.96055900  0.39745600  1
