# generated using pymatgen
data_Cu9NiC4
_symmetry_space_group_name_H-M   'P 1'
_cell_length_a   6.49230249
_cell_length_b   6.49230249
_cell_length_c   6.49230298
_cell_angle_alpha   106.51377703
_cell_angle_beta   106.51377703
_cell_angle_gamma   106.51377370
_symmetry_Int_Tables_number   1
_chemical_formula_structural   Cu9NiC4
_chemical_formula_sum   'Cu9 Ni1 C4'
_cell_volume   230.85485183
_cell_formula_units_Z   1
loop_
 _symmetry_equiv_pos_site_id
 _symmetry_equiv_pos_as_xyz
  1  'x, y, z'
loop_
 _atom_site_type_symbol
 _atom_site_label
 _atom_site_symmetry_multiplicity
 _atom_site_fract_x
 _atom_site_fract_y
 _atom_site_fract_z
 _atom_site_occupancy
  C  C0  1  0.00000000  0.00000000  0.00000000  1
  C  C1  1  0.07306100  0.92693900  0.50000000  1
  C  C2  1  0.92693900  0.50000000  0.07306100  1
  C  C3  1  0.50000000  0.07306100  0.92693900  1
  Ni  Ni4  1  0.50000000  0.50000000  0.50000000  1
  Cu  Cu5  1  0.65391300  0.34608700  0.00000000  1
  Cu  Cu6  1  0.34608700  0.00000000  0.65391300  1
  Cu  Cu7  1  0.00000000  0.65391300  0.34608700  1
  Cu  Cu8  1  0.06502200  0.35040300  0.06438200  1
  Cu  Cu9  1  0.35040300  0.06438200  0.06502200  1
  Cu  Cu10  1  0.93497800  0.93561800  0.64959700  1
  Cu  Cu11  1  0.06438200  0.06502200  0.35040300  1
  Cu  Cu12  1  0.64959700  0.93497800  0.93561800  1
  Cu  Cu13  1  0.93561800  0.64959700  0.93497800  1
