# generated using pymatgen
data_CuNi14C17
_symmetry_space_group_name_H-M   'P 1'
_cell_length_a   8.72507472
_cell_length_b   8.81600164
_cell_length_c   4.39750087
_cell_angle_alpha   90.00000000
_cell_angle_beta   90.00000000
_cell_angle_gamma   90.00000000
_symmetry_Int_Tables_number   1
_chemical_formula_structural   CuNi14C17
_chemical_formula_sum   'Cu1 Ni14 C17'
_cell_volume   338.25696762
_cell_formula_units_Z   1
loop_
 _symmetry_equiv_pos_site_id
 _symmetry_equiv_pos_as_xyz
  1  'x, y, z'
loop_
 _atom_site_type_symbol
 _atom_site_label
 _atom_site_symmetry_multiplicity
 _atom_site_fract_x
 _atom_site_fract_y
 _atom_site_fract_z
 _atom_site_occupancy
  Ni  Ni0  1  0.50000000  -0.00000000  -0.00000000  1
  Ni  Ni1  1  0.50000000  0.50000000  -0.00000000  1
  Ni  Ni2  1  0.00000000  0.25339346  0.50000000  1
  Ni  Ni3  1  0.00000000  0.74660654  0.50000000  1
  Ni  Ni4  1  0.50000000  0.25089301  0.50000000  1
  Ni  Ni5  1  0.50000000  0.74910699  0.50000000  1
  Ni  Ni6  1  0.25985879  -0.00000000  0.50000000  1
  Ni  Ni7  1  0.25573948  0.50000000  0.50000000  1
  Ni  Ni8  1  0.74014121  -0.00000000  0.50000000  1
  Ni  Ni9  1  0.74426052  0.50000000  0.50000000  1
  Ni  Ni10  1  0.25750125  0.25188818  0.00000000  1
  Ni  Ni11  1  0.25750125  0.74811182  0.00000000  1
  Ni  Ni12  1  0.74249875  0.25188818  -0.00000000  1
  Ni  Ni13  1  0.74249875  0.74811182  -0.00000000  1
  Cu  Cu14  1  0.00000000  0.50000000  -0.00000000  1
  C  C15  1  0.00000000  -0.00000000  -0.00000000  1
  C  C16  1  0.27330393  -0.00000000  -0.00000000  1
  C  C17  1  0.26262909  0.50000000  -0.00000000  1
  C  C18  1  0.72669607  -0.00000000  0.00000000  1
  C  C19  1  0.73737091  0.50000000  0.00000000  1
  C  C20  1  0.24979305  0.25032558  0.50000000  1
  C  C21  1  0.24979305  0.74967442  0.50000000  1
  C  C22  1  0.75020695  0.25032558  0.50000000  1
  C  C23  1  0.75020695  0.74967442  0.50000000  1
  C  C24  1  0.00000000  -0.00000000  0.50000000  1
  C  C25  1  0.00000000  0.50000000  0.50000000  1
  C  C26  1  0.50000000  -0.00000000  0.50000000  1
  C  C27  1  0.50000000  0.50000000  0.50000000  1
  C  C28  1  0.00000000  0.25740271  -0.00000000  1
  C  C29  1  0.00000000  0.74259729  -0.00000000  1
  C  C30  1  0.50000000  0.25347674  -0.00000000  1
  C  C31  1  0.50000000  0.74652326  0.00000000  1
