# generated using pymatgen
data_Cu3(Ni5C31)2
_symmetry_space_group_name_H-M   'P 1'
_cell_length_a   14.34246095
_cell_length_b   14.93967016
_cell_length_c   15.00902321
_cell_angle_alpha   110.70107214
_cell_angle_beta   110.44435613
_cell_angle_gamma   109.41824045
_symmetry_Int_Tables_number   1
_chemical_formula_structural   Cu3(Ni5C31)2
_chemical_formula_sum   'Cu6 Ni20 C124'
_cell_volume   2407.50604296
_cell_formula_units_Z   2
loop_
 _symmetry_equiv_pos_site_id
 _symmetry_equiv_pos_as_xyz
  1  'x, y, z'
loop_
 _atom_site_type_symbol
 _atom_site_label
 _atom_site_symmetry_multiplicity
 _atom_site_fract_x
 _atom_site_fract_y
 _atom_site_fract_z
 _atom_site_occupancy
  C  C0  1  0.23785562  0.02308597  0.03572335  1
  C  C1  1  0.13227416  0.60437300  0.72788813  1
  C  C2  1  0.07517839  0.04693180  0.84770202  1
  C  C3  1  0.98059467  0.48856544  0.22937433  1
  C  C4  1  0.04850149  0.76171229  0.04694457  1
  C  C5  1  0.25120849  0.78131920  0.28330386  1
  C  C6  1  0.37188230  0.61994339  0.51182679  1
  C  C7  1  0.48890512  0.75174013  0.91454606  1
  C  C8  1  0.25277003  0.22883049  0.76464115  1
  C  C9  1  0.27298870  0.48705940  0.20556866  1
  C  C10  1  0.25154062  0.22357900  0.35319830  1
  C  C11  1  0.42153713  0.41083454  0.75444143  1
  C  C12  1  0.23125028  0.99900260  0.47230846  1
  C  C13  1  0.51427276  0.76338717  0.46018149  1
  C  C14  1  0.71150268  0.98824850  0.77253223  1
  C  C15  1  0.25584474  0.47075722  0.95577494  1
  C  C16  1  0.53542724  0.22523889  0.77663448  1
  C  C17  1  0.76749015  0.69472540  0.97306529  1
  C  C18  1  0.49341984  0.97839265  0.79511406  1
  C  C19  1  0.70059906  0.72320821  0.64691535  1
  C  C20  1  0.68232932  0.96386435  0.44514166  1
  C  C21  1  0.54966124  0.23505647  0.53435912  1
  C  C22  1  0.53354947  0.54170740  0.27799125  1
  C  C23  1  0.26594845  0.85552116  0.84603170  1
  C  C24  1  0.50469190  0.52225280  0.65277696  1
  C  C25  1  0.45910892  0.97543011  0.28213914  1
  C  C26  1  0.47543731  0.35434585  0.04980061  1
  C  C27  1  0.79500045  0.81618250  0.30538228  1
  C  C28  1  0.74101563  0.52101035  0.54874354  1
  C  C29  1  0.79077720  0.27458381  0.75494838  1
  C  C30  1  0.78068872  0.36987083  0.38593501  1
  C  C31  1  0.08362741  0.14609116  0.08939225  1
  C  C32  1  0.55769462  0.67544136  0.08498081  1
  C  C33  1  0.14842968  0.48206490  0.48402618  1
  C  C34  1  0.96399437  0.26879142  0.00467230  1
  C  C35  1  0.96177777  0.53448780  0.81024816  1
  C  C36  1  0.00124799  0.96790634  0.22462440  1
  C  C37  1  0.75811809  0.22001836  0.17138729  1
  C  C38  1  0.91797488  0.00191737  0.61837451  1
  C  C39  1  0.48750992  0.15120672  0.99801862  1
  C  C40  1  0.84824950  0.49273529  0.00969407  1
  C  C41  1  0.75775407  0.99390764  0.02254422  1
  C  C42  1  0.01342645  0.80249622  0.49413550  1
  C  C43  1  0.97911116  0.28247622  0.55420465  1
  Ni  Ni44  1  0.00106580  0.57694732  0.50312084  1
  Ni  Ni45  1  0.24254707  0.98915876  0.72954544  1
  Ni  Ni46  1  0.99737010  0.07190390  0.48894345  1
  Ni  Ni47  1  0.24728523  0.47320077  0.73143865  1
  Ni  Ni48  1  0.00582450  0.22051252  0.23989806  1
  Ni  Ni49  1  0.06520711  0.50596690  0.02287202  1
  Ni  Ni50  1  0.52986832  0.77224969  0.74231051  1
  Ni  Ni51  1  0.48382162  0.98919377  0.06210188  1
  Ni  Ni52  1  0.43541340  0.45566061  0.42152421  1
  Ni  Ni53  1  0.46521878  0.72777096  0.22584933  1
  Ni  Ni54  1  0.24697469  0.28643242  0.01559106  1
  Ni  Ni55  1  0.27104434  0.02529370  0.26968605  1
  Ni  Ni56  1  0.92357119  0.90391271  0.93146184  1
  Ni  Ni57  1  0.52733844  0.01394910  0.57693982  1
  Ni  Ni58  1  0.72184394  0.23047596  0.95808780  1
  Ni  Ni59  1  0.74843762  0.50811065  0.77967416  1
  Ni  Ni60  1  0.77917268  0.75105164  0.49168691  1
  Ni  Ni61  1  0.58280155  0.48679867  0.97861114  1
  Ni  Ni62  1  0.76271461  0.23302340  0.48985092  1
  Ni  Ni63  1  0.98962334  0.74208442  0.26346594  1
  Cu  Cu64  1  0.11302539  0.73886456  0.87847193  1
  Cu  Cu65  1  0.22454602  0.60960564  0.34990347  1
  Cu  Cu66  1  0.38620928  0.23520983  0.59840532  1
  Cu  Cu67  1  0.71951769  0.84266556  0.10054868  1
  Cu  Cu68  1  0.61521568  0.34036923  0.20991820  1
  Cu  Cu69  1  0.90591712  0.11340707  0.78711634  1
  C  C70  1  0.04205793  0.97592826  0.95313147  1
  C  C71  1  0.16273160  0.96937968  0.77134907  1
  C  C72  1  0.17184006  0.93498222  0.60244168  1
  C  C73  1  0.11638088  0.43242539  0.66423008  1
  C  C74  1  0.11835894  0.80788071  0.33564555  1
  C  C75  1  0.12666986  0.62656574  0.58538871  1
  C  C76  1  0.31270112  0.93778465  0.75620429  1
  C  C77  1  0.01291776  0.17541480  0.48476896  1
  C  C78  1  0.43178592  0.86923334  0.97643007  1
  C  C79  1  0.07158456  0.10645578  0.60712698  1
  C  C80  1  0.30137528  0.59109839  0.82056628  1
  C  C81  1  0.20654357  0.27494768  0.90362945  1
  C  C82  1  0.06887327  0.31025003  0.35840877  1
  C  C83  1  0.26190252  0.40492206  0.78117881  1
  C  C84  1  0.24120809  0.90657194  0.20640677  1
  C  C85  1  0.02402550  0.26777078  0.17028427  1
  C  C86  1  0.09599871  0.62457398  0.07152640  1
  C  C87  1  0.99666327  0.45091084  0.06348702  1
  C  C88  1  0.29195624  0.46270199  0.65570452  1
  C  C89  1  0.02817814  0.01304823  0.41370446  1
  C  C90  1  0.41033080  0.95182410  0.47478479  1
  C  C91  1  0.40371901  0.73203743  0.68610712  1
  C  C92  1  0.05276087  0.14301959  0.23028348  1
  C  C93  1  0.59752254  0.89091950  0.83788457  1
  C  C94  1  0.17049179  0.49708975  0.05490035  1
  C  C95  1  0.32167117  0.11039983  0.77997931  1
  C  C96  1  0.55399560  0.70061413  0.78357314  1
  C  C97  1  0.48012795  0.36713633  0.89481022  1
  C  C98  1  0.56611094  0.55835241  0.93202316  1
  C  C99  1  0.42313643  0.80313033  0.26533971  1
  C  C100  1  0.15662007  0.27638641  0.04495095  1
  C  C101  1  0.59141907  0.95247045  0.56102401  1
  C  C102  1  0.36435726  0.45569618  0.47624527  1
  C  C103  1  0.20548259  0.03450235  0.32794502  1
  C  C104  1  0.56645722  0.76783223  0.65799020  1
  C  C105  1  0.36855282  0.34936946  0.31334841  1
  C  C106  1  0.46174276  0.55366644  0.40557682  1
  C  C107  1  0.45027259  0.65385882  0.27290230  1
  C  C108  1  0.23775779  0.06485103  0.19218204  1
  C  C109  1  0.35474629  0.40064332  0.10157197  1
  C  C110  1  0.40269389  0.65763701  0.10151102  1
  C  C111  1  0.66158743  0.54261916  0.77403910  1
  C  C112  1  0.59512117  0.17978027  0.92030210  1
  C  C113  1  0.59274075  0.79784328  0.27046523  1
  C  C114  1  0.27407400  0.19718805  0.01165550  1
  C  C115  1  0.54787141  0.47424819  0.50256812  1
  C  C116  1  0.73363305  0.82304734  0.53452133  1
  C  C117  1  0.39890741  0.09721019  0.35303339  1
  C  C118  1  0.51885202  0.02594035  0.67639118  1
  C  C119  1  0.84916095  0.80819682  0.81472962  1
  C  C120  1  0.59845062  0.12903713  0.60222168  1
  C  C121  1  0.69666907  0.38704754  0.74118914  1
  C  C122  1  0.76423762  0.67103867  0.52923090  1
  C  C123  1  0.84919236  0.57810558  0.89976199  1
  C  C124  1  0.74273248  0.28470210  0.89493316  1
  C  C125  1  0.72209409  0.69265306  0.36885827  1
  C  C126  1  0.58099360  0.52907813  0.08420786  1
  C  C127  1  0.79450745  0.52903574  0.70960056  1
  C  C128  1  0.75024652  0.14019846  0.93323639  1
  C  C129  1  0.87262900  0.99937910  0.45180494  1
  C  C130  1  0.39023958  0.01743892  0.02455816  1
  C  C131  1  0.70419567  0.29760077  0.49102342  1
  C  C132  1  0.90863400  0.83261716  0.54554836  1
  C  C133  1  0.52305014  0.01070543  0.17520725  1
  C  C134  1  0.68198115  0.11345887  0.43573360  1
  C  C135  1  0.69059499  0.48908932  0.99759134  1
  C  C136  1  0.86101486  0.27974972  0.60876394  1
  C  C137  1  0.99094037  0.44295027  0.89660300  1
  C  C138  1  0.94234713  0.77284564  0.34031166  1
  C  C139  1  0.58194142  0.06083759  0.05707327  1
  C  C140  1  0.87424315  0.97783462  0.95207867  1
  C  C141  1  0.93055673  0.53941095  0.55047767  1
  C  C142  1  0.83050743  0.25430141  0.43238513  1
  C  C143  1  0.98165327  0.65883526  0.47818014  1
  C  C144  1  0.96290801  0.47729917  0.39614501  1
  C  C145  1  0.93797576  0.86427087  0.01150170  1
  C  C146  1  0.94729281  0.77278840  0.17953587  1
  C  C147  1  0.79504534  0.31416789  0.08117941  1
  C  C148  1  0.94447572  0.62090681  0.20762214  1
  C  C149  1  0.87893430  0.15484069  0.19532181  1
