# generated using pymatgen
data_Cu10NiC2
_symmetry_space_group_name_H-M   'P 1'
_cell_length_a   4.14364100
_cell_length_b   5.55272800
_cell_length_c   11.08668300
_cell_angle_alpha   90.00000000
_cell_angle_beta   90.00000000
_cell_angle_gamma   90.00000000
_symmetry_Int_Tables_number   1
_chemical_formula_structural   Cu10NiC2
_chemical_formula_sum   'Cu20 Ni2 C4'
_cell_volume   255.08807222
_cell_formula_units_Z   2
loop_
 _symmetry_equiv_pos_site_id
 _symmetry_equiv_pos_as_xyz
  1  'x, y, z'
loop_
 _atom_site_type_symbol
 _atom_site_label
 _atom_site_symmetry_multiplicity
 _atom_site_fract_x
 _atom_site_fract_y
 _atom_site_fract_z
 _atom_site_occupancy
  C  C0  1  0.50000000  0.19296600  0.36358200  1
  C  C1  1  0.50000000  0.80703400  0.63641800  1
  C  C2  1  0.50000000  0.30703400  0.86358200  1
  C  C3  1  0.50000000  0.69296600  0.13641800  1
  Ni  Ni4  1  0.00000000  0.00000000  0.00000000  1
  Ni  Ni5  1  0.00000000  0.50000000  0.50000000  1
  Cu  Cu6  1  0.00000000  0.37486000  0.04094400  1
  Cu  Cu7  1  0.00000000  0.62514000  0.95905600  1
  Cu  Cu8  1  0.00000000  0.12514000  0.54094400  1
  Cu  Cu9  1  0.00000000  0.87486000  0.45905600  1
  Cu  Cu10  1  0.00000000  0.34592200  0.19736700  1
  Cu  Cu11  1  0.00000000  0.65407800  0.80263300  1
  Cu  Cu12  1  0.00000000  0.15407800  0.69736700  1
  Cu  Cu13  1  0.00000000  0.84592200  0.30263300  1
  Cu  Cu14  1  0.00000000  0.03543900  0.18780500  1
  Cu  Cu15  1  0.00000000  0.96456100  0.81219500  1
  Cu  Cu16  1  0.00000000  0.46456100  0.68780500  1
  Cu  Cu17  1  0.00000000  0.53543900  0.31219500  1
  Cu  Cu18  1  0.30073300  0.20368600  0.11400200  1
  Cu  Cu19  1  0.69926700  0.79631400  0.88599800  1
  Cu  Cu20  1  0.30073300  0.79631400  0.88599800  1
  Cu  Cu21  1  0.69926700  0.29631400  0.61400200  1
  Cu  Cu22  1  0.69926700  0.20368600  0.11400200  1
  Cu  Cu23  1  0.30073300  0.70368600  0.38599800  1
  Cu  Cu24  1  0.69926700  0.70368600  0.38599800  1
  Cu  Cu25  1  0.30073300  0.29631400  0.61400200  1
