# generated using pymatgen
data_CuNiC8
_symmetry_space_group_name_H-M   'P 1'
_cell_length_a   6.00320231
_cell_length_b   6.06989656
_cell_length_c   8.52283832
_cell_angle_alpha   90.34732937
_cell_angle_beta   90.34316328
_cell_angle_gamma   90.21830755
_symmetry_Int_Tables_number   1
_chemical_formula_structural   CuNiC8
_chemical_formula_sum   'Cu2 Ni2 C16'
_cell_volume   310.54857210
_cell_formula_units_Z   2
loop_
 _symmetry_equiv_pos_site_id
 _symmetry_equiv_pos_as_xyz
  1  'x, y, z'
loop_
 _atom_site_type_symbol
 _atom_site_label
 _atom_site_symmetry_multiplicity
 _atom_site_fract_x
 _atom_site_fract_y
 _atom_site_fract_z
 _atom_site_occupancy
  C  C0  1  0.50644592  0.53044252  0.25040918  1
  C  C1  1  0.49355408  0.46955748  0.74959082  1
  Ni  Ni2  1  0.99147581  0.03925713  0.25129422  1
  Ni  Ni3  1  0.00852419  0.96074287  0.74870578  1
  Cu  Cu4  1  -0.00000000  0.50000000  -0.00000000  1
  Cu  Cu5  1  0.50000000  -0.00000000  0.50000000  1
  C  C6  1  0.50000000  -0.00000000  -0.00000000  1
  C  C7  1  -0.00000000  0.50000000  0.50000000  1
  C  C8  1  0.23193506  0.19449651  0.95624580  1
  C  C9  1  0.26557099  0.69983805  0.53296977  1
  C  C10  1  0.76806494  0.80550349  0.04375420  1
  C  C11  1  0.73442901  0.30016195  0.46703023  1
  C  C12  1  0.30085575  0.73525626  0.96101154  1
  C  C13  1  0.19043117  0.22770344  0.54265772  1
  C  C14  1  0.69914425  0.26474374  0.03898846  1
  C  C15  1  0.80956883  0.77229656  0.45734228  1
  C  C16  1  0.41656160  0.99181615  0.23196350  1
  C  C17  1  0.06434096  0.46762757  0.26762109  1
  C  C18  1  0.58343840  0.00818385  0.76803650  1
  C  C19  1  0.93565904  0.53237243  0.73237891  1
