# generated using pymatgen
data_CuNiC4
_symmetry_space_group_name_H-M   'P 1'
_cell_length_a   5.85393900
_cell_length_b   5.85393900
_cell_length_c   20.45404100
_cell_angle_alpha   90.00000000
_cell_angle_beta   90.00000000
_cell_angle_gamma   90.00000000
_symmetry_Int_Tables_number   1
_chemical_formula_structural   CuNiC4
_chemical_formula_sum   'Cu8 Ni8 C32'
_cell_volume   700.93138655
_cell_formula_units_Z   8
loop_
 _symmetry_equiv_pos_site_id
 _symmetry_equiv_pos_as_xyz
  1  'x, y, z'
loop_
 _atom_site_type_symbol
 _atom_site_label
 _atom_site_symmetry_multiplicity
 _atom_site_fract_x
 _atom_site_fract_y
 _atom_site_fract_z
 _atom_site_occupancy
  C  C0  1  0.23848200  0.76151800  0.50000000  1
  C  C1  1  0.76151800  0.23848200  0.50000000  1
  C  C2  1  0.26151800  0.26151800  0.00000000  1
  C  C3  1  0.73848200  0.73848200  0.00000000  1
  Ni  Ni4  1  0.22341300  0.77658700  0.31559400  1
  Ni  Ni5  1  0.77658700  0.22341300  0.31559400  1
  Ni  Ni6  1  0.27658700  0.27658700  0.81559400  1
  Ni  Ni7  1  0.72341300  0.72341300  0.81559400  1
  Ni  Ni8  1  0.77658700  0.22341300  0.68440600  1
  Ni  Ni9  1  0.22341300  0.77658700  0.68440600  1
  Ni  Ni10  1  0.72341300  0.72341300  0.18440600  1
  Ni  Ni11  1  0.27658700  0.27658700  0.18440600  1
  Cu  Cu12  1  0.24164200  0.75835800  0.10174700  1
  Cu  Cu13  1  0.75835800  0.24164200  0.10174700  1
  Cu  Cu14  1  0.25835800  0.25835800  0.60174700  1
  Cu  Cu15  1  0.74164200  0.74164200  0.60174700  1
  Cu  Cu16  1  0.75835800  0.24164200  0.89825300  1
  Cu  Cu17  1  0.24164200  0.75835800  0.89825300  1
  Cu  Cu18  1  0.74164200  0.74164200  0.39825300  1
  Cu  Cu19  1  0.25835800  0.25835800  0.39825300  1
  C  C20  1  0.28442700  0.28442700  0.50000000  1
  C  C21  1  0.71557300  0.71557300  0.50000000  1
  C  C22  1  0.21557300  0.78442700  0.00000000  1
  C  C23  1  0.78442700  0.21557300  0.00000000  1
  C  C24  1  0.31443500  0.68556500  0.20981400  1
  C  C25  1  0.68556500  0.31443500  0.20981400  1
  C  C26  1  0.18556500  0.18556500  0.70981400  1
  C  C27  1  0.81443500  0.81443500  0.70981400  1
  C  C28  1  0.68556500  0.31443500  0.79018600  1
  C  C29  1  0.31443500  0.68556500  0.79018600  1
  C  C30  1  0.81443500  0.81443500  0.29018600  1
  C  C31  1  0.18556500  0.18556500  0.29018600  1
  C  C32  1  0.00000000  0.50000000  0.38631400  1
  C  C33  1  0.50000000  0.00000000  0.88631400  1
  C  C34  1  0.00000000  0.50000000  0.61368600  1
  C  C35  1  0.50000000  0.00000000  0.11368600  1
  C  C36  1  0.50000000  0.00000000  0.38631400  1
  C  C37  1  0.00000000  0.50000000  0.88631400  1
  C  C38  1  0.50000000  0.00000000  0.61368600  1
  C  C39  1  0.00000000  0.50000000  0.11368600  1
  C  C40  1  0.50000000  0.50000000  0.37000900  1
  C  C41  1  0.00000000  0.00000000  0.87000900  1
  C  C42  1  0.50000000  0.50000000  0.62999100  1
  C  C43  1  0.00000000  0.00000000  0.12999100  1
  C  C44  1  0.50000000  0.50000000  0.09353200  1
  C  C45  1  0.00000000  0.00000000  0.59353200  1
  C  C46  1  0.50000000  0.50000000  0.90646800  1
  C  C47  1  0.00000000  0.00000000  0.40646800  1
