# generated using pymatgen
data_Cu3Ni2
_symmetry_space_group_name_H-M   'P 1'
_cell_length_a   6.53807200
_cell_length_b   6.53807200
_cell_length_c   3.36409200
_cell_angle_alpha   90.00000000
_cell_angle_beta   90.00000000
_cell_angle_gamma   90.00000000
_symmetry_Int_Tables_number   1
_chemical_formula_structural   Cu3Ni2
_chemical_formula_sum   'Cu6 Ni4'
_cell_volume   143.80277341
_cell_formula_units_Z   2
loop_
 _symmetry_equiv_pos_site_id
 _symmetry_equiv_pos_as_xyz
  1  'x, y, z'
loop_
 _atom_site_type_symbol
 _atom_site_label
 _atom_site_symmetry_multiplicity
 _atom_site_fract_x
 _atom_site_fract_y
 _atom_site_fract_z
 _atom_site_occupancy
  Ni  Ni0  1  0.88674400  0.38674400  0.00000000  1
  Ni  Ni1  1  0.38674400  0.11325600  0.00000000  1
  Ni  Ni2  1  0.61325600  0.88674400  0.00000000  1
  Ni  Ni3  1  0.11325600  0.61325600  0.00000000  1
  Cu  Cu4  1  0.00000000  0.00000000  0.00000000  1
  Cu  Cu5  1  0.50000000  0.50000000  0.00000000  1
  Cu  Cu6  1  0.67924200  0.17924200  0.50000000  1
  Cu  Cu7  1  0.17924200  0.32075800  0.50000000  1
  Cu  Cu8  1  0.82075800  0.67924200  0.50000000  1
  Cu  Cu9  1  0.32075800  0.82075800  0.50000000  1
