# generated using pymatgen
data_Cu5Ni2C7
_symmetry_space_group_name_H-M   'P 1'
_cell_length_a   6.29966694
_cell_length_b   13.96365041
_cell_length_c   17.60430685
_cell_angle_alpha   90.00000000
_cell_angle_beta   90.00000000
_cell_angle_gamma   90.00000000
_symmetry_Int_Tables_number   1
_chemical_formula_structural   Cu5Ni2C7
_chemical_formula_sum   'Cu20 Ni8 C28'
_cell_volume   1548.58656241
_cell_formula_units_Z   4
loop_
 _symmetry_equiv_pos_site_id
 _symmetry_equiv_pos_as_xyz
  1  'x, y, z'
loop_
 _atom_site_type_symbol
 _atom_site_label
 _atom_site_symmetry_multiplicity
 _atom_site_fract_x
 _atom_site_fract_y
 _atom_site_fract_z
 _atom_site_occupancy
  Ni  Ni0  1  0.41661727  0.23163004  0.01990811  1
  Ni  Ni1  1  0.08338273  0.76836996  0.51990811  1
  Ni  Ni2  1  0.58338273  0.73163004  0.48009189  1
  Ni  Ni3  1  0.91661727  0.26836996  0.98009189  1
  Ni  Ni4  1  0.12216253  0.76832651  0.22957669  1
  Ni  Ni5  1  0.37783747  0.23167349  0.72957669  1
  Ni  Ni6  1  0.87783747  0.26832651  0.27042331  1
  Ni  Ni7  1  0.62216253  0.73167349  0.77042331  1
  Cu  Cu8  1  0.36079490  0.18104968  0.54205550  1
  Cu  Cu9  1  0.13920510  0.81895032  0.04205550  1
  Cu  Cu10  1  0.63920510  0.68104968  0.95794450  1
  Cu  Cu11  1  0.86079490  0.31895032  0.45794450  1
  Cu  Cu12  1  0.63605419  0.00226123  0.01709295  1
  Cu  Cu13  1  0.86394581  0.99773877  0.51709295  1
  Cu  Cu14  1  0.36394581  0.50226123  0.48290705  1
  Cu  Cu15  1  0.13605419  0.49773877  0.98290705  1
  Cu  Cu16  1  0.14165805  0.49649682  0.26303545  1
  Cu  Cu17  1  0.35834195  0.50350318  0.76303545  1
  Cu  Cu18  1  0.85834195  0.99649682  0.23696455  1
  Cu  Cu19  1  0.64165805  0.00350318  0.73696455  1
  Cu  Cu20  1  0.64792214  0.42513025  0.12264663  1
  Cu  Cu21  1  0.85207786  0.57486975  0.62264663  1
  Cu  Cu22  1  0.35207786  0.92513025  0.37735337  1
  Cu  Cu23  1  0.14792214  0.07486975  0.87735337  1
  Cu  Cu24  1  0.36292949  0.17676149  0.21608965  1
  Cu  Cu25  1  0.13707051  0.82323851  0.71608965  1
  Cu  Cu26  1  0.63707051  0.67676149  0.28391035  1
  Cu  Cu27  1  0.86292949  0.32323851  0.78391035  1
  C  C28  1  0.13668393  0.06188343  0.06638118  1
  C  C29  1  0.36331607  0.93811657  0.56638118  1
  C  C30  1  0.86331607  0.56188343  0.43361882  1
  C  C31  1  0.63668393  0.43811657  0.93361882  1
  C  C32  1  0.09722873  0.12165224  0.37880921  1
  C  C33  1  0.40277127  0.87834776  0.87880921  1
  C  C34  1  0.90277127  0.62165224  0.12119079  1
  C  C35  1  0.59722873  0.37834776  0.62119079  1
  C  C36  1  0.15010252  0.05621708  0.68804892  1
  C  C37  1  0.34989748  0.94378292  0.18804892  1
  C  C38  1  0.84989748  0.55621708  0.81195108  1
  C  C39  1  0.65010252  0.44378292  0.31195108  1
  C  C40  1  0.19580480  0.68973834  0.37264444  1
  C  C41  1  0.30419520  0.31026166  0.87264444  1
  C  C42  1  0.80419520  0.18973834  0.12735556  1
  C  C43  1  0.69580480  0.81026166  0.62735556  1
  C  C44  1  0.13313697  0.34722100  0.12112092  1
  C  C45  1  0.36686303  0.65277900  0.62112092  1
  C  C46  1  0.86686303  0.84722100  0.37887908  1
  C  C47  1  0.63313697  0.15277900  0.87887908  1
  C  C48  1  0.32959524  0.31159875  0.37718751  1
  C  C49  1  0.17040476  0.68840125  0.87718751  1
  C  C50  1  0.67040476  0.81159875  0.12281249  1
  C  C51  1  0.82959524  0.18840125  0.62281249  1
  C  C52  1  0.61336537  0.12714932  0.37903974  1
  C  C53  1  0.88663463  0.87285068  0.87903974  1
  C  C54  1  0.38663463  0.62714932  0.12096026  1
  C  C55  1  0.11336537  0.37285068  0.62096026  1
