# generated using pymatgen
data_CuNiC7
_symmetry_space_group_name_H-M   'P 1'
_cell_length_a   5.49698900
_cell_length_b   5.68900100
_cell_length_c   14.68715600
_cell_angle_alpha   90.00000000
_cell_angle_beta   90.00000000
_cell_angle_gamma   90.00000000
_symmetry_Int_Tables_number   1
_chemical_formula_structural   CuNiC7
_chemical_formula_sum   'Cu4 Ni4 C28'
_cell_volume   459.30226360
_cell_formula_units_Z   4
loop_
 _symmetry_equiv_pos_site_id
 _symmetry_equiv_pos_as_xyz
  1  'x, y, z'
loop_
 _atom_site_type_symbol
 _atom_site_label
 _atom_site_symmetry_multiplicity
 _atom_site_fract_x
 _atom_site_fract_y
 _atom_site_fract_z
 _atom_site_occupancy
  C  C0  1  0.02173400  0.52500800  0.60671000  1
  C  C1  1  0.97826600  0.47499200  0.39329000  1
  C  C2  1  0.47826600  0.02500800  0.39329000  1
  C  C3  1  0.97826600  0.47499200  0.10671000  1
  C  C4  1  0.52173400  0.97499200  0.60671000  1
  C  C5  1  0.02173400  0.52500800  0.89329000  1
  C  C6  1  0.52173400  0.97499200  0.89329000  1
  C  C7  1  0.47826600  0.02500800  0.10671000  1
  Ni  Ni8  1  0.00000000  0.00000000  0.50000000  1
  Ni  Ni9  1  0.50000000  0.50000000  0.50000000  1
  Ni  Ni10  1  0.00000000  0.00000000  0.00000000  1
  Ni  Ni11  1  0.50000000  0.50000000  0.00000000  1
  Cu  Cu12  1  0.05421700  0.06906100  0.75000000  1
  Cu  Cu13  1  0.94578300  0.93093900  0.25000000  1
  Cu  Cu14  1  0.44578300  0.56906100  0.25000000  1
  Cu  Cu15  1  0.55421700  0.43093900  0.75000000  1
  C  C16  1  0.02786000  0.07526600  0.13953500  1
  C  C17  1  0.97214000  0.92473400  0.86046500  1
  C  C18  1  0.47214000  0.57526600  0.86046500  1
  C  C19  1  0.97214000  0.92473400  0.63953500  1
  C  C20  1  0.52786000  0.42473400  0.13953500  1
  C  C21  1  0.02786000  0.07526600  0.36046500  1
  C  C22  1  0.52786000  0.42473400  0.36046500  1
  C  C23  1  0.47214000  0.57526600  0.63953500  1
  C  C24  1  0.26517700  0.23496000  0.51898200  1
  C  C25  1  0.73482300  0.76504000  0.48101800  1
  C  C26  1  0.23482300  0.73496000  0.48101800  1
  C  C27  1  0.73482300  0.76504000  0.01898200  1
  C  C28  1  0.76517700  0.26504000  0.51898200  1
  C  C29  1  0.26517700  0.23496000  0.98101800  1
  C  C30  1  0.76517700  0.26504000  0.98101800  1
  C  C31  1  0.23482300  0.73496000  0.01898200  1
  C  C32  1  0.40783500  0.11986300  0.75000000  1
  C  C33  1  0.59216500  0.88013700  0.25000000  1
  C  C34  1  0.09216500  0.61986300  0.25000000  1
  C  C35  1  0.90783500  0.38013700  0.75000000  1
