# generated using pymatgen
data_Cu23(Ni2C)3
_symmetry_space_group_name_H-M   'P 1'
_cell_length_a   6.54740762
_cell_length_b   6.54740762
_cell_length_c   10.57711916
_cell_angle_alpha   85.73447902
_cell_angle_beta   85.73447902
_cell_angle_gamma   82.54144696
_symmetry_Int_Tables_number   1
_chemical_formula_structural   Cu23(Ni2C)3
_chemical_formula_sum   'Cu23 Ni6 C3'
_cell_volume   447.38244083
_cell_formula_units_Z   1
loop_
 _symmetry_equiv_pos_site_id
 _symmetry_equiv_pos_as_xyz
  1  'x, y, z'
loop_
 _atom_site_type_symbol
 _atom_site_label
 _atom_site_symmetry_multiplicity
 _atom_site_fract_x
 _atom_site_fract_y
 _atom_site_fract_z
 _atom_site_occupancy
  C  C0  1  0.17197900  0.17197900  0.40674700  1
  C  C1  1  0.82802100  0.82802100  0.59325300  1
  C  C2  1  0.00000000  0.00000000  0.00000000  1
  Ni  Ni3  1  0.28191500  0.28191500  0.86136400  1
  Ni  Ni4  1  0.71808500  0.71808500  0.13863600  1
  Ni  Ni5  1  0.34566400  0.65433600  0.00000000  1
  Ni  Ni6  1  0.65433600  0.34566400  0.00000000  1
  Ni  Ni7  1  0.53067300  0.53067300  0.73726300  1
  Ni  Ni8  1  0.46932700  0.46932700  0.26273700  1
  Cu  Cu9  1  0.72907200  0.72907200  0.88711500  1
  Cu  Cu10  1  0.27092800  0.27092800  0.11288500  1
  Cu  Cu11  1  0.69228600  0.12656000  0.79891300  1
  Cu  Cu12  1  0.30771400  0.87344000  0.20108700  1
  Cu  Cu13  1  0.87344000  0.30771400  0.20108700  1
  Cu  Cu14  1  0.12656000  0.69228600  0.79891300  1
  Cu  Cu15  1  0.31293900  0.81497400  0.59280700  1
  Cu  Cu16  1  0.68706100  0.18502600  0.40719300  1
  Cu  Cu17  1  0.18502600  0.68706100  0.40719300  1
  Cu  Cu18  1  0.81497400  0.31293900  0.59280700  1
  Cu  Cu19  1  0.09298900  0.09298900  0.70413000  1
  Cu  Cu20  1  0.90701100  0.90701100  0.29587000  1
  Cu  Cu21  1  0.50000000  0.00000000  0.00000000  1
  Cu  Cu22  1  0.00000000  0.50000000  0.00000000  1
  Cu  Cu23  1  0.46020800  0.16931000  0.61920900  1
  Cu  Cu24  1  0.53979200  0.83069000  0.38079100  1
  Cu  Cu25  1  0.83069000  0.53979200  0.38079100  1
  Cu  Cu26  1  0.16931000  0.46020800  0.61920900  1
  Cu  Cu27  1  0.40935800  0.90666200  0.79643300  1
  Cu  Cu28  1  0.59064200  0.09333800  0.20356700  1
  Cu  Cu29  1  0.09333800  0.59064200  0.20356700  1
  Cu  Cu30  1  0.90666200  0.40935800  0.79643300  1
  Cu  Cu31  1  0.50000000  0.50000000  0.50000000  1
