# generated using pymatgen
data_Cu9NiC5
_symmetry_space_group_name_H-M   'P 1'
_cell_length_a   10.13370914
_cell_length_b   10.13370914
_cell_length_c   13.82777377
_cell_angle_alpha   90.00000000
_cell_angle_beta   90.00000000
_cell_angle_gamma   90.62304208
_symmetry_Int_Tables_number   1
_chemical_formula_structural   Cu9NiC5
_chemical_formula_sum   'Cu36 Ni4 C20'
_cell_volume   1419.91863286
_cell_formula_units_Z   4
loop_
 _symmetry_equiv_pos_site_id
 _symmetry_equiv_pos_as_xyz
  1  'x, y, z'
loop_
 _atom_site_type_symbol
 _atom_site_label
 _atom_site_symmetry_multiplicity
 _atom_site_fract_x
 _atom_site_fract_y
 _atom_site_fract_z
 _atom_site_occupancy
  C  C0  1  0.78045165  0.00184068  0.81487751  1
  C  C1  1  0.99815932  0.21954835  0.18512249  1
  C  C2  1  0.28045165  0.50184068  0.68512249  1
  C  C3  1  0.49815932  0.71954835  0.31487751  1
  C  C4  1  0.73146339  0.92512170  0.10010763  1
  C  C5  1  0.07487830  0.26853661  0.89989237  1
  C  C6  1  0.23146339  0.42512170  0.39989237  1
  C  C7  1  0.57487830  0.76853661  0.60010763  1
  C  C8  1  0.78249180  0.55063239  0.82032243  1
  C  C9  1  0.44936761  0.21750820  0.17967757  1
  C  C10  1  0.28249180  0.05063239  0.67967757  1
  C  C11  1  0.94936761  0.71750820  0.32032243  1
  C  C12  1  0.72909792  0.04458033  0.39643062  1
  C  C13  1  0.95541967  0.27090208  0.60356938  1
  C  C14  1  0.22909792  0.54458033  0.10356938  1
  C  C15  1  0.45541967  0.77090208  0.89643062  1
  C  C16  1  0.73167506  0.47583687  0.09334495  1
  C  C17  1  0.52416313  0.26832494  0.90665505  1
  C  C18  1  0.23167506  0.97583687  0.40665505  1
  C  C19  1  0.02416313  0.76832494  0.59334495  1
  Ni  Ni20  1  0.58110595  0.26519594  0.61515735  1
  Ni  Ni21  1  0.73480406  0.41889405  0.38484265  1
  Ni  Ni22  1  0.08110595  0.76519594  0.88484265  1
  Ni  Ni23  1  0.23480406  0.91889405  0.11515735  1
  Cu  Cu24  1  0.53935733  0.46064267  0.00000000  1
  Cu  Cu25  1  0.03935733  0.96064267  0.50000000  1
  Cu  Cu26  1  0.91780106  0.46739615  0.99784417  1
  Cu  Cu27  1  0.53260385  0.08219894  0.00215583  1
  Cu  Cu28  1  0.41780106  0.96739615  0.50215583  1
  Cu  Cu29  1  0.03260385  0.58219894  0.49784417  1
  Cu  Cu30  1  0.72786806  0.66301810  0.18997810  1
  Cu  Cu31  1  0.33698190  0.27213194  0.81002190  1
  Cu  Cu32  1  0.22786806  0.16301810  0.31002190  1
  Cu  Cu33  1  0.83698190  0.77213194  0.68997810  1
  Cu  Cu34  1  0.70068315  0.27572171  0.79876042  1
  Cu  Cu35  1  0.72427829  0.29931685  0.20123958  1
  Cu  Cu36  1  0.20068315  0.77572171  0.70123958  1
  Cu  Cu37  1  0.22427829  0.79931685  0.29876042  1
  Cu  Cu38  1  0.54896985  0.98154502  0.25118354  1
  Cu  Cu39  1  0.01845498  0.45103015  0.74881646  1
  Cu  Cu40  1  0.04896985  0.48154502  0.24881646  1
  Cu  Cu41  1  0.51845498  0.95103015  0.75118354  1
  Cu  Cu42  1  0.55082005  0.26103133  0.42069588  1
  Cu  Cu43  1  0.73896867  0.44917995  0.57930412  1
  Cu  Cu44  1  0.05082005  0.76103133  0.07930412  1
  Cu  Cu45  1  0.23896867  0.94917995  0.92069588  1
  Cu  Cu46  1  0.74247473  0.08125668  0.59987096  1
  Cu  Cu47  1  0.91874332  0.25752527  0.40012904  1
  Cu  Cu48  1  0.24247473  0.58125668  0.90012904  1
  Cu  Cu49  1  0.41874332  0.75752527  0.09987096  1
  Cu  Cu50  1  0.72655968  0.77708504  0.93146722  1
  Cu  Cu51  1  0.22291496  0.27344032  0.06853278  1
  Cu  Cu52  1  0.22655968  0.27708504  0.56853278  1
  Cu  Cu53  1  0.72291496  0.77344032  0.43146722  1
  Cu  Cu54  1  0.90932820  0.97429242  0.25081863  1
  Cu  Cu55  1  0.02570758  0.09067180  0.74918137  1
  Cu  Cu56  1  0.40932820  0.47429242  0.24918137  1
  Cu  Cu57  1  0.52570758  0.59067180  0.75081863  1
  Cu  Cu58  1  0.90671647  0.09328353  0.00000000  1
  Cu  Cu59  1  0.40671647  0.59328353  0.50000000  1
