# generated using pymatgen
data_Cu12Ni3C4
_symmetry_space_group_name_H-M   'P 1'
_cell_length_a   10.14991807
_cell_length_b   10.14991807
_cell_length_c   10.14991807
_cell_angle_alpha   90.00000000
_cell_angle_beta   90.00000000
_cell_angle_gamma   90.00000000
_symmetry_Int_Tables_number   1
_chemical_formula_structural   Cu12Ni3C4
_chemical_formula_sum   'Cu48 Ni12 C16'
_cell_volume   1045.65305330
_cell_formula_units_Z   4
loop_
 _symmetry_equiv_pos_site_id
 _symmetry_equiv_pos_as_xyz
  1  'x, y, z'
loop_
 _atom_site_type_symbol
 _atom_site_label
 _atom_site_symmetry_multiplicity
 _atom_site_fract_x
 _atom_site_fract_y
 _atom_site_fract_z
 _atom_site_occupancy
  C  C0  1  0.04787068  0.04787068  0.04787068  1
  C  C1  1  0.45212932  0.95212932  0.54787068  1
  C  C2  1  0.95212932  0.54787068  0.45212932  1
  C  C3  1  0.54787068  0.45212932  0.95212932  1
  C  C4  1  0.81669985  0.81669985  0.81669985  1
  C  C5  1  0.68330015  0.18330015  0.31669985  1
  C  C6  1  0.18330015  0.31669985  0.68330015  1
  C  C7  1  0.31669985  0.68330015  0.18330015  1
  C  C8  1  0.33504344  0.33504344  0.33504344  1
  C  C9  1  0.16495656  0.66495656  0.83504344  1
  C  C10  1  0.66495656  0.83504344  0.16495656  1
  C  C11  1  0.83504344  0.16495656  0.66495656  1
  C  C12  1  0.59865654  0.59865654  0.59865654  1
  C  C13  1  0.90134346  0.40134346  0.09865654  1
  C  C14  1  0.40134346  0.09865654  0.90134346  1
  C  C15  1  0.09865654  0.90134346  0.40134346  1
  Ni  Ni16  1  0.01845088  0.21590252  0.37581940  1
  Ni  Ni17  1  0.48154912  0.78409748  0.87581940  1
  Ni  Ni18  1  0.98154912  0.71590252  0.12418060  1
  Ni  Ni19  1  0.37581940  0.01845088  0.21590252  1
  Ni  Ni20  1  0.51845088  0.28409748  0.62418060  1
  Ni  Ni21  1  0.87581940  0.48154912  0.78409748  1
  Ni  Ni22  1  0.12418060  0.98154912  0.71590252  1
  Ni  Ni23  1  0.62418060  0.51845088  0.28409748  1
  Ni  Ni24  1  0.21590252  0.37581940  0.01845088  1
  Ni  Ni25  1  0.71590252  0.12418060  0.98154912  1
  Ni  Ni26  1  0.28409748  0.62418060  0.51845088  1
  Ni  Ni27  1  0.78409748  0.87581940  0.48154912  1
  Cu  Cu28  1  0.01040032  0.07634167  0.33133793  1
  Cu  Cu29  1  0.48959968  0.92365833  0.83133793  1
  Cu  Cu30  1  0.98959968  0.57634167  0.16866207  1
  Cu  Cu31  1  0.33133793  0.01040032  0.07634167  1
  Cu  Cu32  1  0.51040032  0.42365833  0.66866207  1
  Cu  Cu33  1  0.83133793  0.48959968  0.92365833  1
  Cu  Cu34  1  0.16866207  0.98959968  0.57634167  1
  Cu  Cu35  1  0.66866207  0.51040032  0.42365833  1
  Cu  Cu36  1  0.07634167  0.33133793  0.01040032  1
  Cu  Cu37  1  0.57634167  0.16866207  0.98959968  1
  Cu  Cu38  1  0.42365833  0.66866207  0.51040032  1
  Cu  Cu39  1  0.92365833  0.83133793  0.48959968  1
  Cu  Cu40  1  0.26623554  0.50040801  0.44146325  1
  Cu  Cu41  1  0.23376446  0.49959199  0.94146325  1
  Cu  Cu42  1  0.73376446  0.00040801  0.05853675  1
  Cu  Cu43  1  0.44146325  0.26623554  0.50040801  1
  Cu  Cu44  1  0.76623554  0.99959199  0.55853675  1
  Cu  Cu45  1  0.94146325  0.23376446  0.49959199  1
  Cu  Cu46  1  0.05853675  0.73376446  0.00040801  1
  Cu  Cu47  1  0.55853675  0.76623554  0.99959199  1
  Cu  Cu48  1  0.50040801  0.44146325  0.26623554  1
  Cu  Cu49  1  0.00040801  0.05853675  0.73376446  1
  Cu  Cu50  1  0.99959199  0.55853675  0.76623554  1
  Cu  Cu51  1  0.49959199  0.94146325  0.23376446  1
  Cu  Cu52  1  0.04124198  0.80258509  0.22602032  1
  Cu  Cu53  1  0.45875802  0.19741491  0.72602032  1
  Cu  Cu54  1  0.95875802  0.30258509  0.27397968  1
  Cu  Cu55  1  0.22602032  0.04124198  0.80258509  1
  Cu  Cu56  1  0.54124198  0.69741491  0.77397968  1
  Cu  Cu57  1  0.72602032  0.45875802  0.19741491  1
  Cu  Cu58  1  0.27397968  0.95875802  0.30258509  1
  Cu  Cu59  1  0.77397968  0.54124198  0.69741491  1
  Cu  Cu60  1  0.80258509  0.22602032  0.04124198  1
  Cu  Cu61  1  0.30258509  0.27397968  0.95875802  1
  Cu  Cu62  1  0.69741491  0.77397968  0.54124198  1
  Cu  Cu63  1  0.19741491  0.72602032  0.45875802  1
  Cu  Cu64  1  0.15722884  0.25384652  0.40055955  1
  Cu  Cu65  1  0.34277116  0.74615348  0.90055955  1
  Cu  Cu66  1  0.84277116  0.75384652  0.09944045  1
  Cu  Cu67  1  0.40055955  0.15722884  0.25384652  1
  Cu  Cu68  1  0.65722884  0.24615348  0.59944045  1
  Cu  Cu69  1  0.90055955  0.34277116  0.74615348  1
  Cu  Cu70  1  0.09944045  0.84277116  0.75384652  1
  Cu  Cu71  1  0.59944045  0.65722884  0.24615348  1
  Cu  Cu72  1  0.25384652  0.40055955  0.15722884  1
  Cu  Cu73  1  0.75384652  0.09944045  0.84277116  1
  Cu  Cu74  1  0.24615348  0.59944045  0.65722884  1
  Cu  Cu75  1  0.74615348  0.90055955  0.34277116  1
