# generated using pymatgen
data_Cu8Ni6C5
_symmetry_space_group_name_H-M   'P 1'
_cell_length_a   5.77486381
_cell_length_b   10.64431714
_cell_length_c   9.77694800
_cell_angle_alpha   90.00000000
_cell_angle_beta   90.00000000
_cell_angle_gamma   106.61410571
_symmetry_Int_Tables_number   1
_chemical_formula_structural   Cu8Ni6C5
_chemical_formula_sum   'Cu16 Ni12 C10'
_cell_volume   575.89417721
_cell_formula_units_Z   2
loop_
 _symmetry_equiv_pos_site_id
 _symmetry_equiv_pos_as_xyz
  1  'x, y, z'
loop_
 _atom_site_type_symbol
 _atom_site_label
 _atom_site_symmetry_multiplicity
 _atom_site_fract_x
 _atom_site_fract_y
 _atom_site_fract_z
 _atom_site_occupancy
  C  C0  1  0.77359000  0.58733500  0.85870100  1
  C  C1  1  0.22641000  0.41266500  0.14129900  1
  C  C2  1  0.22641000  0.91266500  0.35870100  1
  C  C3  1  0.77359000  0.08733500  0.64129900  1
  C  C4  1  0.84291900  0.61223000  0.21541300  1
  C  C5  1  0.15708100  0.38777000  0.78458700  1
  C  C6  1  0.15708100  0.88777000  0.71541300  1
  C  C7  1  0.84291900  0.11223000  0.28458700  1
  C  C8  1  0.50000000  0.00000000  0.00000000  1
  C  C9  1  0.50000000  0.50000000  0.50000000  1
  Ni  Ni10  1  0.76381600  0.93019600  0.97122000  1
  Ni  Ni11  1  0.23618400  0.06980400  0.02878000  1
  Ni  Ni12  1  0.23618400  0.56980400  0.47122000  1
  Ni  Ni13  1  0.76381600  0.43019600  0.52878000  1
  Ni  Ni14  1  0.35467600  0.62220400  0.58111900  1
  Ni  Ni15  1  0.64532400  0.37779600  0.41888100  1
  Ni  Ni16  1  0.64532400  0.87779600  0.08111900  1
  Ni  Ni17  1  0.35467600  0.12220400  0.91888100  1
  Ni  Ni18  1  0.33418800  0.86670700  0.89389500  1
  Ni  Ni19  1  0.66581200  0.13329300  0.10610500  1
  Ni  Ni20  1  0.66581200  0.63329300  0.39389500  1
  Ni  Ni21  1  0.33418800  0.36670700  0.60610500  1
  Cu  Cu22  1  0.91076000  0.67623100  0.74029900  1
  Cu  Cu23  1  0.08924000  0.32376900  0.25970100  1
  Cu  Cu24  1  0.08924000  0.82376900  0.24029900  1
  Cu  Cu25  1  0.91076000  0.17623100  0.75970100  1
  Cu  Cu26  1  0.84816500  0.66084600  0.99948100  1
  Cu  Cu27  1  0.15183500  0.33915400  0.00051900  1
  Cu  Cu28  1  0.15183500  0.83915400  0.49948100  1
  Cu  Cu29  1  0.84816500  0.16084600  0.50051900  1
  Cu  Cu30  1  0.85004600  0.95470500  0.64710200  1
  Cu  Cu31  1  0.14995400  0.04529500  0.35289800  1
  Cu  Cu32  1  0.14995400  0.54529500  0.14710200  1
  Cu  Cu33  1  0.85004600  0.45470500  0.85289800  1
  Cu  Cu34  1  0.49635200  0.55546600  0.84339200  1
  Cu  Cu35  1  0.50364800  0.44453400  0.15660800  1
  Cu  Cu36  1  0.50364800  0.94453400  0.34339200  1
  Cu  Cu37  1  0.49635200  0.05546600  0.65660800  1
