# generated using pymatgen
data_Cu2NiC11
_symmetry_space_group_name_H-M   'P 1'
_cell_length_a   7.77941115
_cell_length_b   7.77941115
_cell_length_c   13.14556407
_cell_angle_alpha   61.48985970
_cell_angle_beta   61.48985970
_cell_angle_gamma   21.42172292
_symmetry_Int_Tables_number   1
_chemical_formula_structural   Cu2NiC11
_chemical_formula_sum   'Cu4 Ni2 C22'
_cell_volume   253.97513335
_cell_formula_units_Z   2
loop_
 _symmetry_equiv_pos_site_id
 _symmetry_equiv_pos_as_xyz
  1  'x, y, z'
loop_
 _atom_site_type_symbol
 _atom_site_label
 _atom_site_symmetry_multiplicity
 _atom_site_fract_x
 _atom_site_fract_y
 _atom_site_fract_z
 _atom_site_occupancy
  C  C0  1  0.64241900  0.64241900  0.77706300  1
  C  C1  1  0.93387600  0.93387600  0.35728900  1
  C  C2  1  0.21837300  0.21837300  0.93061200  1
  C  C3  1  0.07714600  0.07714600  0.63676900  1
  C  C4  1  0.35199300  0.35199300  0.22300100  1
  C  C5  1  0.50111400  0.50111400  0.48897500  1
  C  C6  1  0.78173000  0.78173000  0.08299500  1
  C  C7  1  0.14097600  0.14097600  0.28852200  1
  Ni  Ni8  1  0.00062400  0.00062400  0.00070500  1
  Ni  Ni9  1  0.57155300  0.57155300  0.15420900  1
  Cu  Cu10  1  0.28508800  0.28508800  0.56751700  1
  Cu  Cu11  1  0.85648900  0.85648900  0.71215800  1
  Cu  Cu12  1  0.42762400  0.42762400  0.85499400  1
  Cu  Cu13  1  0.71335700  0.71335700  0.41301900  1
  C  C14  1  0.59632500  0.59632500  0.97879800  1
  C  C15  1  0.88640400  0.88640400  0.53567500  1
  C  C16  1  0.16758200  0.16758200  0.11119400  1
  C  C17  1  0.02899000  0.02899000  0.82237500  1
  C  C18  1  0.30669000  0.30669000  0.40120200  1
  C  C19  1  0.44989700  0.44989700  0.68713300  1
  C  C20  1  0.75055500  0.75055500  0.25943000  1
  C  C21  1  0.68680700  0.68680700  0.60391900  1
  C  C22  1  0.97630300  0.97630300  0.17765600  1
  C  C23  1  0.26166100  0.26166100  0.74168800  1
  C  C24  1  0.11622100  0.11622100  0.46291800  1
  C  C25  1  0.40343900  0.40343900  0.03072100  1
  C  C26  1  0.53853300  0.53853300  0.30747900  1
  C  C27  1  0.82823500  0.82823500  0.89198500  1
