# generated using pymatgen
data_Cu2Ni4C
_symmetry_space_group_name_H-M   'P 1'
_cell_length_a   7.69296289
_cell_length_b   7.69296289
_cell_length_c   7.69296289
_cell_angle_alpha   119.63966685
_cell_angle_beta   119.63966685
_cell_angle_gamma   90.62525668
_symmetry_Int_Tables_number   1
_chemical_formula_structural   Cu2Ni4C
_chemical_formula_sum   'Cu8 Ni16 C4'
_cell_volume   323.66583026
_cell_formula_units_Z   4
loop_
 _symmetry_equiv_pos_site_id
 _symmetry_equiv_pos_as_xyz
  1  'x, y, z'
loop_
 _atom_site_type_symbol
 _atom_site_label
 _atom_site_symmetry_multiplicity
 _atom_site_fract_x
 _atom_site_fract_y
 _atom_site_fract_z
 _atom_site_occupancy
  Ni  Ni0  1  0.12365700  0.37140600  0.24774900  1
  Ni  Ni1  1  0.12409300  0.87634300  0.24774900  1
  Ni  Ni2  1  0.62859400  0.87634300  0.75225100  1
  Ni  Ni3  1  0.12365700  0.87590700  0.75225100  1
  Ni  Ni4  1  0.91882700  0.75650300  0.83767600  1
  Ni  Ni5  1  0.91884900  0.08117300  0.83767600  1
  Ni  Ni6  1  0.24349700  0.08117300  0.16232400  1
  Ni  Ni7  1  0.91882700  0.08115100  0.16232400  1
  Ni  Ni8  1  0.33481100  0.99982700  0.66501600  1
  Ni  Ni9  1  0.33020600  0.66518900  0.66501600  1
  Ni  Ni10  1  0.00017300  0.66518900  0.33498400  1
  Ni  Ni11  1  0.33481100  0.66979400  0.33498400  1
  Ni  Ni12  1  0.69505000  0.69505000  0.39009900  1
  Ni  Ni13  1  0.30495000  0.30495000  0.60990100  1
  Ni  Ni14  1  0.30495000  0.69505000  0.00000000  1
  Ni  Ni15  1  0.69505000  0.30495000  0.00000000  1
  Cu  Cu16  1  0.30637700  0.30637700  0.00000000  1
  Cu  Cu17  1  0.69362300  0.69362300  0.00000000  1
  Cu  Cu18  1  0.55167300  0.05167300  0.10334500  1
  Cu  Cu19  1  0.94832700  0.44832700  0.89665500  1
  Cu  Cu20  1  0.94832700  0.05167300  0.50000000  1
  Cu  Cu21  1  0.55167300  0.44832700  0.50000000  1
  Cu  Cu22  1  0.94716200  0.44716200  0.50000000  1
  Cu  Cu23  1  0.55283800  0.05283800  0.50000000  1
  C  C24  1  0.61792700  0.86495600  0.24702900  1
  C  C25  1  0.62910200  0.38207300  0.24702900  1
  C  C26  1  0.13504400  0.38207300  0.75297100  1
  C  C27  1  0.61792700  0.37089800  0.75297100  1
