# generated using pymatgen
data_Cu4NiC18
_symmetry_space_group_name_H-M   'P 1'
_cell_length_a   12.82905500
_cell_length_b   12.82905500
_cell_length_c   4.06111100
_cell_angle_alpha   90.00000000
_cell_angle_beta   90.00000000
_cell_angle_gamma   90.00000000
_symmetry_Int_Tables_number   1
_chemical_formula_structural   Cu4NiC18
_chemical_formula_sum   'Cu8 Ni2 C36'
_cell_volume   668.39654145
_cell_formula_units_Z   2
loop_
 _symmetry_equiv_pos_site_id
 _symmetry_equiv_pos_as_xyz
  1  'x, y, z'
loop_
 _atom_site_type_symbol
 _atom_site_label
 _atom_site_symmetry_multiplicity
 _atom_site_fract_x
 _atom_site_fract_y
 _atom_site_fract_z
 _atom_site_occupancy
  C  C0  1  0.33082400  0.83082400  0.38510500  1
  C  C1  1  0.66917600  0.16917600  0.38510500  1
  C  C2  1  0.83082400  0.66917600  0.38510500  1
  C  C3  1  0.16917600  0.33082400  0.38510500  1
  C  C4  1  0.50000000  0.50000000  0.38611800  1
  C  C5  1  0.00000000  0.00000000  0.38611800  1
  Ni  Ni6  1  0.50000000  0.00000000  0.86728300  1
  Ni  Ni7  1  0.00000000  0.50000000  0.86728300  1
  Cu  Cu8  1  0.42508800  0.28706500  0.89756300  1
  Cu  Cu9  1  0.57491200  0.71293500  0.89756300  1
  Cu  Cu10  1  0.92508800  0.21293500  0.89756300  1
  Cu  Cu11  1  0.07491200  0.78706500  0.89756300  1
  Cu  Cu12  1  0.71293500  0.42508800  0.89756300  1
  Cu  Cu13  1  0.28706500  0.57491200  0.89756300  1
  Cu  Cu14  1  0.78706500  0.92508800  0.89756300  1
  Cu  Cu15  1  0.21293500  0.07491200  0.89756300  1
  C  C16  1  0.21620800  0.71620800  0.87386600  1
  C  C17  1  0.78379200  0.28379200  0.87386600  1
  C  C18  1  0.71620800  0.78379200  0.87386600  1
  C  C19  1  0.28379200  0.21620800  0.87386600  1
  C  C20  1  0.41970500  0.29519700  0.37308100  1
  C  C21  1  0.58029500  0.70480300  0.37308100  1
  C  C22  1  0.91970500  0.20480300  0.37308100  1
  C  C23  1  0.08029500  0.79519700  0.37308100  1
  C  C24  1  0.70480300  0.41970500  0.37308100  1
  C  C25  1  0.29519700  0.58029500  0.37308100  1
  C  C26  1  0.79519700  0.91970500  0.37308100  1
  C  C27  1  0.20480300  0.08029500  0.37308100  1
  C  C28  1  0.16493900  0.48944700  0.86764600  1
  C  C29  1  0.83506100  0.51055300  0.86764600  1
  C  C30  1  0.66493900  0.01055300  0.86764600  1
  C  C31  1  0.33506100  0.98944700  0.86764600  1
  C  C32  1  0.51055300  0.16493900  0.86764600  1
  C  C33  1  0.48944700  0.83506100  0.86764600  1
  C  C34  1  0.98944700  0.66493900  0.86764600  1
  C  C35  1  0.01055300  0.33506100  0.86764600  1
  C  C36  1  0.50000000  0.00000000  0.36674500  1
  C  C37  1  0.00000000  0.50000000  0.36674500  1
  C  C38  1  0.36223100  0.43353400  0.87443700  1
  C  C39  1  0.63776900  0.56646600  0.87443700  1
  C  C40  1  0.86223100  0.06646600  0.87443700  1
  C  C41  1  0.13776900  0.93353400  0.87443700  1
  C  C42  1  0.56646600  0.36223100  0.87443700  1
  C  C43  1  0.43353400  0.63776900  0.87443700  1
  C  C44  1  0.93353400  0.86223100  0.87443700  1
  C  C45  1  0.06646600  0.13776900  0.87443700  1
