# generated using pymatgen
data_CuNi14C
_symmetry_space_group_name_H-M   'P 1'
_cell_length_a   6.46870203
_cell_length_b   6.34477422
_cell_length_c   10.29135417
_cell_angle_alpha   90.00000000
_cell_angle_beta   90.00000000
_cell_angle_gamma   119.36825976
_symmetry_Int_Tables_number   1
_chemical_formula_structural   CuNi14C
_chemical_formula_sum   'Cu1 Ni14 C1'
_cell_volume   368.10021493
_cell_formula_units_Z   1
loop_
 _symmetry_equiv_pos_site_id
 _symmetry_equiv_pos_as_xyz
  1  'x, y, z'
loop_
 _atom_site_type_symbol
 _atom_site_label
 _atom_site_symmetry_multiplicity
 _atom_site_fract_x
 _atom_site_fract_y
 _atom_site_fract_z
 _atom_site_occupancy
  C  C0  1  0.16410818  0.33205359  0.12500000  1
  Ni  Ni1  1  0.16659886  0.33329893  0.62500000  1
  Ni  Ni2  1  0.16442628  0.83221264  0.62500000  1
  Ni  Ni3  1  0.66216606  0.32802461  0.12500000  1
  Ni  Ni4  1  0.66556493  0.33434513  0.62500000  1
  Ni  Ni5  1  0.66216606  0.83414046  0.12500000  1
  Ni  Ni6  1  0.66556493  0.83121880  0.62500000  1
  Ni  Ni7  1  0.33309225  0.15828426  0.37617173  1
  Ni  Ni8  1  0.33309225  0.15828426  0.87382827  1
  Ni  Ni9  1  0.33309225  0.67480900  0.37617173  1
  Ni  Ni10  1  0.33309225  0.67480900  0.87382827  1
  Ni  Ni11  1  0.83078958  0.16539529  0.38061588  1
  Ni  Ni12  1  0.83078958  0.16539529  0.86938412  1
  Ni  Ni13  1  0.84257341  0.67128720  0.36701508  1
  Ni  Ni14  1  0.84257341  0.67128720  0.88298492  1
  Cu  Cu15  1  0.17030971  0.83515436  0.12500000  1
