# generated using pymatgen
data_Cu2NiC9
_symmetry_space_group_name_H-M   'P 1'
_cell_length_a   5.87427100
_cell_length_b   5.87427100
_cell_length_c   20.13909900
_cell_angle_alpha   90.00000000
_cell_angle_beta   90.00000000
_cell_angle_gamma   90.00000000
_symmetry_Int_Tables_number   1
_chemical_formula_structural   Cu2NiC9
_chemical_formula_sum   'Cu8 Ni4 C36'
_cell_volume   694.94109314
_cell_formula_units_Z   4
loop_
 _symmetry_equiv_pos_site_id
 _symmetry_equiv_pos_as_xyz
  1  'x, y, z'
loop_
 _atom_site_type_symbol
 _atom_site_label
 _atom_site_symmetry_multiplicity
 _atom_site_fract_x
 _atom_site_fract_y
 _atom_site_fract_z
 _atom_site_occupancy
  Ni  Ni0  1  0.23784200  0.76215800  0.50000000  1
  Ni  Ni1  1  0.76215800  0.23784200  0.50000000  1
  Ni  Ni2  1  0.26215800  0.26215800  0.00000000  1
  Ni  Ni3  1  0.73784200  0.73784200  0.00000000  1
  Cu  Cu4  1  0.21429400  0.78570600  0.31481900  1
  Cu  Cu5  1  0.78570600  0.21429400  0.31481900  1
  Cu  Cu6  1  0.28570600  0.28570600  0.81481900  1
  Cu  Cu7  1  0.71429400  0.71429400  0.81481900  1
  Cu  Cu8  1  0.78570600  0.21429400  0.68518100  1
  Cu  Cu9  1  0.21429400  0.78570600  0.68518100  1
  Cu  Cu10  1  0.71429400  0.71429400  0.18518100  1
  Cu  Cu11  1  0.28570600  0.28570600  0.18518100  1
  C  C12  1  0.23643500  0.76356500  0.10378700  1
  C  C13  1  0.76356500  0.23643500  0.10378700  1
  C  C14  1  0.26356500  0.26356500  0.60378700  1
  C  C15  1  0.73643500  0.73643500  0.60378700  1
  C  C16  1  0.76356500  0.23643500  0.89621300  1
  C  C17  1  0.23643500  0.76356500  0.89621300  1
  C  C18  1  0.73643500  0.73643500  0.39621300  1
  C  C19  1  0.26356500  0.26356500  0.39621300  1
  C  C20  1  0.28481900  0.28481900  0.50000000  1
  C  C21  1  0.71518100  0.71518100  0.50000000  1
  C  C22  1  0.21518100  0.78481900  0.00000000  1
  C  C23  1  0.78481900  0.21518100  0.00000000  1
  C  C24  1  0.31890800  0.68109200  0.21091100  1
  C  C25  1  0.68109200  0.31890800  0.21091100  1
  C  C26  1  0.18109200  0.18109200  0.71091100  1
  C  C27  1  0.81890800  0.81890800  0.71091100  1
  C  C28  1  0.68109200  0.31890800  0.78908900  1
  C  C29  1  0.31890800  0.68109200  0.78908900  1
  C  C30  1  0.81890800  0.81890800  0.28908900  1
  C  C31  1  0.18109200  0.18109200  0.28908900  1
  C  C32  1  0.00000000  0.50000000  0.38653200  1
  C  C33  1  0.50000000  0.00000000  0.88653200  1
  C  C34  1  0.00000000  0.50000000  0.61346800  1
  C  C35  1  0.50000000  0.00000000  0.11346800  1
  C  C36  1  0.50000000  0.00000000  0.38653200  1
  C  C37  1  0.00000000  0.50000000  0.88653200  1
  C  C38  1  0.50000000  0.00000000  0.61346800  1
  C  C39  1  0.00000000  0.50000000  0.11346800  1
  C  C40  1  0.50000000  0.50000000  0.36840700  1
  C  C41  1  0.00000000  0.00000000  0.86840700  1
  C  C42  1  0.50000000  0.50000000  0.63159300  1
  C  C43  1  0.00000000  0.00000000  0.13159300  1
  C  C44  1  0.50000000  0.50000000  0.09553300  1
  C  C45  1  0.00000000  0.00000000  0.59553300  1
  C  C46  1  0.50000000  0.50000000  0.90446700  1
  C  C47  1  0.00000000  0.00000000  0.40446700  1
