# generated using pymatgen
data_Cu6Ni2C
_symmetry_space_group_name_H-M   'P 1'
_cell_length_a   14.55934977
_cell_length_b   14.55934977
_cell_length_c   14.55934951
_cell_angle_alpha   43.13335219
_cell_angle_beta   43.13335219
_cell_angle_gamma   43.13335245
_symmetry_Int_Tables_number   1
_chemical_formula_structural   Cu6Ni2C
_chemical_formula_sum   'Cu72 Ni24 C12'
_cell_volume   1307.95989351
_cell_formula_units_Z   12
loop_
 _symmetry_equiv_pos_site_id
 _symmetry_equiv_pos_as_xyz
  1  'x, y, z'
loop_
 _atom_site_type_symbol
 _atom_site_label
 _atom_site_symmetry_multiplicity
 _atom_site_fract_x
 _atom_site_fract_y
 _atom_site_fract_z
 _atom_site_occupancy
  C  C0  1  0.00000000  0.50000000  0.50000000  1
  C  C1  1  0.50000000  0.50000000  0.00000000  1
  C  C2  1  0.50000000  0.00000000  0.50000000  1
  C  C3  1  0.00000000  0.00000000  0.00000000  1
  C  C4  1  0.72360700  0.22218200  0.72804600  1
  C  C5  1  0.22218200  0.72804600  0.72360700  1
  C  C6  1  0.72804600  0.72360700  0.22218200  1
  C  C7  1  0.27639300  0.77781800  0.27195400  1
  C  C8  1  0.77781800  0.27195400  0.27639300  1
  C  C9  1  0.27195400  0.27639300  0.77781800  1
  C  C10  1  0.21242700  0.21242700  0.21242700  1
  C  C11  1  0.78757300  0.78757300  0.78757300  1
  Ni  Ni12  1  0.65159400  0.65159400  0.65159400  1
  Ni  Ni13  1  0.34840600  0.34840600  0.34840600  1
  Ni  Ni14  1  0.91626900  0.24168500  0.73446100  1
  Ni  Ni15  1  0.24168500  0.73446100  0.91626900  1
  Ni  Ni16  1  0.73446100  0.91626900  0.24168500  1
  Ni  Ni17  1  0.08373100  0.75831500  0.26553900  1
  Ni  Ni18  1  0.75831500  0.26553900  0.08373100  1
  Ni  Ni19  1  0.26553900  0.08373100  0.75831500  1
  Ni  Ni20  1  0.89509100  0.89509100  0.89509100  1
  Ni  Ni21  1  0.10490900  0.10490900  0.10490900  1
  Ni  Ni22  1  0.55397700  0.55397700  0.55397700  1
  Ni  Ni23  1  0.44602300  0.44602300  0.44602300  1
  Ni  Ni24  1  0.00499200  0.47515200  0.30109100  1
  Ni  Ni25  1  0.47515200  0.30109100  0.00499200  1
  Ni  Ni26  1  0.30109100  0.00499200  0.47515200  1
  Ni  Ni27  1  0.99500800  0.52484800  0.69890900  1
  Ni  Ni28  1  0.52484800  0.69890900  0.99500800  1
  Ni  Ni29  1  0.69890900  0.99500800  0.52484800  1
  Ni  Ni30  1  0.89957800  0.20038400  0.43235100  1
  Ni  Ni31  1  0.20038400  0.43235100  0.89957800  1
  Ni  Ni32  1  0.43235100  0.89957800  0.20038400  1
  Ni  Ni33  1  0.10042200  0.79961600  0.56764900  1
  Ni  Ni34  1  0.79961600  0.56764900  0.10042200  1
  Ni  Ni35  1  0.56764900  0.10042200  0.79961600  1
  Cu  Cu36  1  0.77216500  0.64539900  0.53627100  1
  Cu  Cu37  1  0.64539900  0.53627100  0.77216500  1
  Cu  Cu38  1  0.53627100  0.77216500  0.64539900  1
  Cu  Cu39  1  0.22783500  0.35460100  0.46372900  1
  Cu  Cu40  1  0.35460100  0.46372900  0.22783500  1
  Cu  Cu41  1  0.46372900  0.22783500  0.35460100  1
  Cu  Cu42  1  0.86773000  0.28557900  0.65819300  1
  Cu  Cu43  1  0.28557900  0.65819300  0.86773000  1
  Cu  Cu44  1  0.65819300  0.86773000  0.28557900  1
  Cu  Cu45  1  0.13227000  0.71442100  0.34180700  1
  Cu  Cu46  1  0.71442100  0.34180700  0.13227000  1
  Cu  Cu47  1  0.34180700  0.13227000  0.71442100  1
  Cu  Cu48  1  0.90813900  0.12844100  0.85592200  1
  Cu  Cu49  1  0.12844100  0.85592200  0.90813900  1
  Cu  Cu50  1  0.85592200  0.90813900  0.12844100  1
  Cu  Cu51  1  0.09186100  0.87155900  0.14407800  1
  Cu  Cu52  1  0.87155900  0.14407800  0.09186100  1
  Cu  Cu53  1  0.14407800  0.09186100  0.87155900  1
  Cu  Cu54  1  0.97357100  0.31050100  0.68956200  1
  Cu  Cu55  1  0.31050100  0.68956200  0.97357100  1
  Cu  Cu56  1  0.68956200  0.97357100  0.31050100  1
  Cu  Cu57  1  0.02642900  0.68949900  0.31043800  1
  Cu  Cu58  1  0.68949900  0.31043800  0.02642900  1
  Cu  Cu59  1  0.31043800  0.02642900  0.68949900  1
  Cu  Cu60  1  0.01101400  0.89924700  0.77522300  1
  Cu  Cu61  1  0.89924700  0.77522300  0.01101400  1
  Cu  Cu62  1  0.77522300  0.01101400  0.89924700  1
  Cu  Cu63  1  0.98898600  0.10075300  0.22477700  1
  Cu  Cu64  1  0.10075300  0.22477700  0.98898600  1
  Cu  Cu65  1  0.22477700  0.98898600  0.10075300  1
  Cu  Cu66  1  0.67198600  0.43612300  0.55374800  1
  Cu  Cu67  1  0.43612300  0.55374800  0.67198600  1
  Cu  Cu68  1  0.55374800  0.67198600  0.43612300  1
  Cu  Cu69  1  0.32801400  0.56387700  0.44625200  1
  Cu  Cu70  1  0.56387700  0.44625200  0.32801400  1
  Cu  Cu71  1  0.44625200  0.32801400  0.56387700  1
  Cu  Cu72  1  0.88305000  0.58877900  0.30687700  1
  Cu  Cu73  1  0.58877900  0.30687700  0.88305000  1
  Cu  Cu74  1  0.30687700  0.88305000  0.58877900  1
  Cu  Cu75  1  0.11695000  0.41122100  0.69312300  1
  Cu  Cu76  1  0.41122100  0.69312300  0.11695000  1
  Cu  Cu77  1  0.69312300  0.11695000  0.41122100  1
  Cu  Cu78  1  0.06135800  0.41297300  0.23045400  1
  Cu  Cu79  1  0.41297300  0.23045400  0.06135800  1
  Cu  Cu80  1  0.23045400  0.06135800  0.41297300  1
  Cu  Cu81  1  0.93864200  0.58702700  0.76954600  1
  Cu  Cu82  1  0.58702700  0.76954600  0.93864200  1
  Cu  Cu83  1  0.76954600  0.93864200  0.58702700  1
  Cu  Cu84  1  0.07025500  0.42511700  0.36516400  1
  Cu  Cu85  1  0.42511700  0.36516400  0.07025500  1
  Cu  Cu86  1  0.36516400  0.07025500  0.42511700  1
  Cu  Cu87  1  0.92974500  0.57488300  0.63483600  1
  Cu  Cu88  1  0.57488300  0.63483600  0.92974500  1
  Cu  Cu89  1  0.63483600  0.92974500  0.57488300  1
  Cu  Cu90  1  0.89634300  0.17158400  0.53981800  1
  Cu  Cu91  1  0.17158400  0.53981800  0.89634300  1
  Cu  Cu92  1  0.53981800  0.89634300  0.17158400  1
  Cu  Cu93  1  0.10365700  0.82841600  0.46018200  1
  Cu  Cu94  1  0.82841600  0.46018200  0.10365700  1
  Cu  Cu95  1  0.46018200  0.10365700  0.82841600  1
  Cu  Cu96  1  0.01438700  0.20379000  0.31140900  1
  Cu  Cu97  1  0.20379000  0.31140900  0.01438700  1
  Cu  Cu98  1  0.31140900  0.01438700  0.20379000  1
  Cu  Cu99  1  0.98561300  0.79621000  0.68859100  1
  Cu  Cu100  1  0.79621000  0.68859100  0.98561300  1
  Cu  Cu101  1  0.68859100  0.98561300  0.79621000  1
  Cu  Cu102  1  0.78827900  0.22430100  0.44532300  1
  Cu  Cu103  1  0.22430100  0.44532300  0.78827900  1
  Cu  Cu104  1  0.44532300  0.78827900  0.22430100  1
  Cu  Cu105  1  0.21172100  0.77569900  0.55467700  1
  Cu  Cu106  1  0.77569900  0.55467700  0.21172100  1
  Cu  Cu107  1  0.55467700  0.21172100  0.77569900  1
