# generated using pymatgen
data_Cu17Ni9C23
_symmetry_space_group_name_H-M   'P 1'
_cell_length_a   12.26964917
_cell_length_b   12.26964917
_cell_length_c   12.26964917
_cell_angle_alpha   109.47122063
_cell_angle_beta   109.47122063
_cell_angle_gamma   109.47122063
_symmetry_Int_Tables_number   1
_chemical_formula_structural   Cu17Ni9C23
_chemical_formula_sum   'Cu34 Ni18 C46'
_cell_volume   1421.91797387
_cell_formula_units_Z   2
loop_
 _symmetry_equiv_pos_site_id
 _symmetry_equiv_pos_as_xyz
  1  'x, y, z'
loop_
 _atom_site_type_symbol
 _atom_site_label
 _atom_site_symmetry_multiplicity
 _atom_site_fract_x
 _atom_site_fract_y
 _atom_site_fract_z
 _atom_site_occupancy
  C  C0  1  0.56584143  0.82147627  -0.00000000  1
  C  C1  1  0.74436516  0.17852373  0.17852373  1
  C  C2  1  0.56584143  -0.00000000  0.82147627  1
  C  C3  1  0.82147627  0.56584143  0.00000000  1
  C  C4  1  0.00000000  0.56584143  0.82147627  1
  C  C5  1  0.17852373  0.74436516  0.17852373  1
  C  C6  1  0.17852373  0.17852373  0.74436516  1
  C  C7  1  -0.00000000  0.82147627  0.56584143  1
  C  C8  1  0.82147627  -0.00000000  0.56584143  1
  C  C9  1  0.43415857  0.43415857  0.25563484  1
  C  C10  1  0.25563484  0.43415857  0.43415857  1
  C  C11  1  0.43415857  0.25563484  0.43415857  1
  C  C12  1  0.43415857  0.17852373  -0.00000000  1
  C  C13  1  0.25563484  0.82147627  0.82147627  1
  C  C14  1  0.43415857  -0.00000000  0.17852373  1
  C  C15  1  0.17852373  0.43415857  0.00000000  1
  C  C16  1  0.00000000  0.43415857  0.17852373  1
  C  C17  1  0.82147627  0.25563484  0.82147627  1
  C  C18  1  0.82147627  0.82147627  0.25563484  1
  C  C19  1  0.00000000  0.17852373  0.43415857  1
  C  C20  1  0.17852373  0.00000000  0.43415857  1
  C  C21  1  0.56584143  0.56584143  0.74436516  1
  C  C22  1  0.74436516  0.56584143  0.56584143  1
  C  C23  1  0.56584143  0.74436516  0.56584143  1
  C  C24  1  0.50000000  0.75000000  0.25000000  1
  C  C25  1  0.75000000  0.50000000  0.25000000  1
  C  C26  1  0.25000000  0.75000000  0.50000000  1
  C  C27  1  0.25000000  0.50000000  0.75000000  1
  C  C28  1  0.50000000  0.25000000  0.75000000  1
  C  C29  1  0.75000000  0.25000000  0.50000000  1
  C  C30  1  -0.00000000  0.50000000  0.50000000  1
  C  C31  1  0.50000000  -0.00000000  0.50000000  1
  C  C32  1  0.50000000  0.50000000  -0.00000000  1
  C  C33  1  0.87272832  -0.00000000  0.12727168  1
  C  C34  1  0.87272832  0.12727168  -0.00000000  1
  C  C35  1  0.74545664  0.87272832  0.87272832  1
  C  C36  1  0.87272832  0.74545664  0.87272832  1
  C  C37  1  0.12727168  0.87272832  -0.00000000  1
  C  C38  1  -0.00000000  0.87272832  0.12727168  1
  C  C39  1  0.12727168  -0.00000000  0.87272832  1
  C  C40  1  0.87272832  0.87272832  0.74545664  1
  C  C41  1  0.00000000  0.12727168  0.87272832  1
  C  C42  1  0.12727168  0.25454336  0.12727168  1
  C  C43  1  0.12727168  0.12727168  0.25454336  1
  C  C44  1  0.25454336  0.12727168  0.12727168  1
  C  C45  1  -0.00000000  -0.00000000  -0.00000000  1
  Ni  Ni46  1  0.40550528  0.70275264  0.70275264  1
  Ni  Ni47  1  0.70275264  0.00000000  0.29724736  1
  Ni  Ni48  1  0.70275264  0.29724736  0.00000000  1
  Ni  Ni49  1  -0.00000000  0.70275264  0.29724736  1
  Ni  Ni50  1  0.70275264  0.40550528  0.70275264  1
  Ni  Ni51  1  0.29724736  0.70275264  -0.00000000  1
  Ni  Ni52  1  0.00000000  0.29724736  0.70275264  1
  Ni  Ni53  1  0.29724736  -0.00000000  0.70275264  1
  Ni  Ni54  1  0.70275264  0.70275264  0.40550528  1
  Ni  Ni55  1  0.59449472  0.29724736  0.29724736  1
  Ni  Ni56  1  0.29724736  0.59449472  0.29724736  1
  Ni  Ni57  1  0.29724736  0.29724736  0.59449472  1
  Ni  Ni58  1  0.00000000  0.21654901  0.21654901  1
  Ni  Ni59  1  0.78345099  -0.00000000  0.78345099  1
  Ni  Ni60  1  0.78345099  0.78345099  -0.00000000  1
  Ni  Ni61  1  -0.00000000  0.78345099  0.78345099  1
  Ni  Ni62  1  0.21654901  0.00000000  0.21654901  1
  Ni  Ni63  1  0.21654901  0.21654901  0.00000000  1
  Cu  Cu64  1  0.55183054  0.77591527  0.77591527  1
  Cu  Cu65  1  0.77591527  -0.00000000  0.22408473  1
  Cu  Cu66  1  0.77591527  0.22408473  0.00000000  1
  Cu  Cu67  1  0.00000000  0.77591527  0.22408473  1
  Cu  Cu68  1  0.77591527  0.55183054  0.77591527  1
  Cu  Cu69  1  0.22408473  0.77591527  0.00000000  1
  Cu  Cu70  1  -0.00000000  0.22408473  0.77591527  1
  Cu  Cu71  1  0.22408473  -0.00000000  0.77591527  1
  Cu  Cu72  1  0.77591527  0.77591527  0.55183054  1
  Cu  Cu73  1  0.44816946  0.22408473  0.22408473  1
  Cu  Cu74  1  0.22408473  0.44816946  0.22408473  1
  Cu  Cu75  1  0.22408473  0.22408473  0.44816946  1
  Cu  Cu76  1  0.25682403  0.62841201  0.62841201  1
  Cu  Cu77  1  0.62841201  0.00000000  0.37158799  1
  Cu  Cu78  1  0.62841201  0.37158799  0.00000000  1
  Cu  Cu79  1  0.00000000  0.62841201  0.37158799  1
  Cu  Cu80  1  0.62841201  0.25682403  0.62841201  1
  Cu  Cu81  1  0.37158799  0.62841201  0.00000000  1
  Cu  Cu82  1  -0.00000000  0.37158799  0.62841201  1
  Cu  Cu83  1  0.37158799  -0.00000000  0.62841201  1
  Cu  Cu84  1  0.62841201  0.62841201  0.25682403  1
  Cu  Cu85  1  0.74317597  0.37158799  0.37158799  1
  Cu  Cu86  1  0.37158799  0.74317597  0.37158799  1
  Cu  Cu87  1  0.37158799  0.37158799  0.74317597  1
  Cu  Cu88  1  -0.00000000  0.32554584  0.32554584  1
  Cu  Cu89  1  0.67445416  0.00000000  0.67445416  1
  Cu  Cu90  1  0.67445416  0.67445416  0.00000000  1
  Cu  Cu91  1  0.00000000  0.67445416  0.67445416  1
  Cu  Cu92  1  0.32554584  -0.00000000  0.32554584  1
  Cu  Cu93  1  0.32554584  0.32554584  -0.00000000  1
  Cu  Cu94  1  0.50000000  0.00000000  -0.00000000  1
  Cu  Cu95  1  -0.00000000  0.50000000  -0.00000000  1
  Cu  Cu96  1  -0.00000000  0.00000000  0.50000000  1
  Cu  Cu97  1  0.50000000  0.50000000  0.50000000  1
