# generated using pymatgen
data_CuNi3
_symmetry_space_group_name_H-M   'P 1'
_cell_length_a   7.00032063
_cell_length_b   7.00032063
_cell_length_c   7.00032063
_cell_angle_alpha   109.47122063
_cell_angle_beta   109.47122063
_cell_angle_gamma   109.47122063
_symmetry_Int_Tables_number   1
_chemical_formula_structural   CuNi3
_chemical_formula_sum   'Cu4 Ni12'
_cell_volume   264.07780744
_cell_formula_units_Z   4
loop_
 _symmetry_equiv_pos_site_id
 _symmetry_equiv_pos_as_xyz
  1  'x, y, z'
loop_
 _atom_site_type_symbol
 _atom_site_label
 _atom_site_symmetry_multiplicity
 _atom_site_fract_x
 _atom_site_fract_y
 _atom_site_fract_z
 _atom_site_occupancy
  Ni  Ni0  1  0.86056300  0.64523700  0.50580000  1
  Ni  Ni1  1  0.86056300  0.35476300  0.21532600  1
  Ni  Ni2  1  0.13943700  0.64523700  0.78467400  1
  Ni  Ni3  1  0.35476300  0.49420000  0.13943700  1
  Ni  Ni4  1  0.13943700  0.35476300  0.49420000  1
  Ni  Ni5  1  0.64523700  0.78467400  0.13943700  1
  Ni  Ni6  1  0.21532600  0.86056300  0.35476300  1
  Ni  Ni7  1  0.64523700  0.50580000  0.86056300  1
  Ni  Ni8  1  0.78467400  0.13943700  0.64523700  1
  Ni  Ni9  1  0.35476300  0.21532600  0.86056300  1
  Ni  Ni10  1  0.50580000  0.86056300  0.64523700  1
  Ni  Ni11  1  0.49420000  0.13943700  0.35476300  1
  Cu  Cu12  1  0.00000000  0.00000000  0.50000000  1
  Cu  Cu13  1  0.00000000  0.50000000  0.00000000  1
  Cu  Cu14  1  0.50000000  0.00000000  0.00000000  1
  Cu  Cu15  1  0.50000000  0.50000000  0.50000000  1
