# generated using pymatgen
data_Cu17(Ni2C3)2
_symmetry_space_group_name_H-M   'P 1'
_cell_length_a   8.19588700
_cell_length_b   10.81275300
_cell_length_c   20.77285900
_cell_angle_alpha   90.00000000
_cell_angle_beta   90.00000000
_cell_angle_gamma   90.00000000
_symmetry_Int_Tables_number   1
_chemical_formula_structural   Cu17(Ni2C3)2
_chemical_formula_sum   'Cu68 Ni16 C24'
_cell_volume   1840.89287815
_cell_formula_units_Z   4
loop_
 _symmetry_equiv_pos_site_id
 _symmetry_equiv_pos_as_xyz
  1  'x, y, z'
loop_
 _atom_site_type_symbol
 _atom_site_label
 _atom_site_symmetry_multiplicity
 _atom_site_fract_x
 _atom_site_fract_y
 _atom_site_fract_z
 _atom_site_occupancy
  C  C0  1  0.75000000  0.00000000  0.96167600  1
  C  C1  1  0.75000000  0.50000000  0.53832400  1
  C  C2  1  0.25000000  0.00000000  0.03832400  1
  C  C3  1  0.25000000  0.50000000  0.46167600  1
  C  C4  1  0.50384400  0.62356600  0.90692200  1
  C  C5  1  0.99615600  0.37643400  0.90692200  1
  C  C6  1  0.50384400  0.87643400  0.59307800  1
  C  C7  1  0.99615600  0.12356600  0.59307800  1
  C  C8  1  0.49615600  0.37643400  0.09307800  1
  C  C9  1  0.00384400  0.62356600  0.09307800  1
  C  C10  1  0.49615600  0.12356600  0.40692200  1
  C  C11  1  0.00384400  0.87643400  0.40692200  1
  C  C12  1  0.65658500  0.25000000  0.75000000  1
  C  C13  1  0.84341500  0.75000000  0.75000000  1
  C  C14  1  0.34341500  0.75000000  0.25000000  1
  C  C15  1  0.15658500  0.25000000  0.25000000  1
  C  C16  1  0.19773200  0.89786900  0.85407800  1
  C  C17  1  0.30226800  0.10213100  0.85407800  1
  C  C18  1  0.19773200  0.60213100  0.64592200  1
  C  C19  1  0.30226800  0.39786900  0.64592200  1
  C  C20  1  0.80226800  0.10213100  0.14592200  1
  C  C21  1  0.69773200  0.89786900  0.14592200  1
  C  C22  1  0.80226800  0.39786900  0.35407800  1
  C  C23  1  0.69773200  0.60213100  0.35407800  1
  Ni  Ni24  1  0.45666800  0.27628800  0.93040100  1
  Ni  Ni25  1  0.04333200  0.72371200  0.93040100  1
  Ni  Ni26  1  0.45666800  0.22371200  0.56959900  1
  Ni  Ni27  1  0.04333200  0.77628800  0.56959900  1
  Ni  Ni28  1  0.54333200  0.72371200  0.06959900  1
  Ni  Ni29  1  0.95666800  0.27628800  0.06959900  1
  Ni  Ni30  1  0.54333200  0.77628800  0.43040100  1
  Ni  Ni31  1  0.95666800  0.22371200  0.43040100  1
  Ni  Ni32  1  0.49026600  0.93361600  0.79775800  1
  Ni  Ni33  1  0.00973400  0.06638400  0.79775800  1
  Ni  Ni34  1  0.49026600  0.56638400  0.70224200  1
  Ni  Ni35  1  0.00973400  0.43361600  0.70224200  1
  Ni  Ni36  1  0.50973400  0.06638400  0.20224200  1
  Ni  Ni37  1  0.99026600  0.93361600  0.20224200  1
  Ni  Ni38  1  0.50973400  0.43361600  0.29775800  1
  Ni  Ni39  1  0.99026600  0.56638400  0.29775800  1
  Cu  Cu40  1  0.75000000  0.00000000  0.10794900  1
  Cu  Cu41  1  0.75000000  0.50000000  0.39205100  1
  Cu  Cu42  1  0.25000000  0.00000000  0.89205100  1
  Cu  Cu43  1  0.25000000  0.50000000  0.60794900  1
  Cu  Cu44  1  0.18465200  0.77806200  0.88457200  1
  Cu  Cu45  1  0.31534800  0.22193800  0.88457200  1
  Cu  Cu46  1  0.18465200  0.72193800  0.61542800  1
  Cu  Cu47  1  0.31534800  0.27806200  0.61542800  1
  Cu  Cu48  1  0.81534800  0.22193800  0.11542800  1
  Cu  Cu49  1  0.68465200  0.77806200  0.11542800  1
  Cu  Cu50  1  0.81534800  0.27806200  0.38457200  1
  Cu  Cu51  1  0.68465200  0.72193800  0.38457200  1
  Cu  Cu52  1  0.46234800  0.07037300  0.81967400  1
  Cu  Cu53  1  0.03765200  0.92962700  0.81967400  1
  Cu  Cu54  1  0.46234800  0.42962700  0.68032600  1
  Cu  Cu55  1  0.03765200  0.57037300  0.68032600  1
  Cu  Cu56  1  0.53765200  0.92962700  0.18032600  1
  Cu  Cu57  1  0.96234800  0.07037300  0.18032600  1
  Cu  Cu58  1  0.53765200  0.57037300  0.31967400  1
  Cu  Cu59  1  0.96234800  0.42962700  0.31967400  1
  Cu  Cu60  1  0.31934500  0.87497700  0.79752800  1
  Cu  Cu61  1  0.18065500  0.12502300  0.79752800  1
  Cu  Cu62  1  0.31934500  0.62502300  0.70247200  1
  Cu  Cu63  1  0.18065500  0.37497700  0.70247200  1
  Cu  Cu64  1  0.68065500  0.12502300  0.20247200  1
  Cu  Cu65  1  0.81934500  0.87497700  0.20247200  1
  Cu  Cu66  1  0.68065500  0.37497700  0.29752800  1
  Cu  Cu67  1  0.81934500  0.62502300  0.29752800  1
  Cu  Cu68  1  0.62212400  0.61346000  0.04263700  1
  Cu  Cu69  1  0.87787600  0.38654000  0.04263700  1
  Cu  Cu70  1  0.62212400  0.88654000  0.45736300  1
  Cu  Cu71  1  0.87787600  0.11346000  0.45736300  1
  Cu  Cu72  1  0.37787600  0.38654000  0.95736300  1
  Cu  Cu73  1  0.12212400  0.61346000  0.95736300  1
  Cu  Cu74  1  0.37787600  0.11346000  0.54263700  1
  Cu  Cu75  1  0.12212400  0.88654000  0.54263700  1
  Cu  Cu76  1  0.50855600  0.81864000  0.02080400  1
  Cu  Cu77  1  0.99144400  0.18136000  0.02080400  1
  Cu  Cu78  1  0.50855600  0.68136000  0.47919600  1
  Cu  Cu79  1  0.99144400  0.31864000  0.47919600  1
  Cu  Cu80  1  0.49144400  0.18136000  0.97919600  1
  Cu  Cu81  1  0.00855600  0.81864000  0.97919600  1
  Cu  Cu82  1  0.49144400  0.31864000  0.52080400  1
  Cu  Cu83  1  0.00855600  0.68136000  0.52080400  1
  Cu  Cu84  1  0.59678100  0.30527000  0.88924900  1
  Cu  Cu85  1  0.90321900  0.69473000  0.88924900  1
  Cu  Cu86  1  0.59678100  0.19473000  0.61075100  1
  Cu  Cu87  1  0.90321900  0.80527000  0.61075100  1
  Cu  Cu88  1  0.40321900  0.69473000  0.11075100  1
  Cu  Cu89  1  0.09678100  0.30527000  0.11075100  1
  Cu  Cu90  1  0.40321900  0.80527000  0.38924900  1
  Cu  Cu91  1  0.09678100  0.19473000  0.38924900  1
  Cu  Cu92  1  0.59561000  0.87227200  0.84416200  1
  Cu  Cu93  1  0.90439000  0.12772800  0.84416200  1
  Cu  Cu94  1  0.59561000  0.62772800  0.65583800  1
  Cu  Cu95  1  0.90439000  0.37227200  0.65583800  1
  Cu  Cu96  1  0.40439000  0.12772800  0.15583800  1
  Cu  Cu97  1  0.09561000  0.87227200  0.15583800  1
  Cu  Cu98  1  0.40439000  0.37227200  0.34416200  1
  Cu  Cu99  1  0.09561000  0.62772800  0.34416200  1
  Cu  Cu100  1  0.55192000  0.56425900  0.76755000  1
  Cu  Cu101  1  0.94808000  0.43574100  0.76755000  1
  Cu  Cu102  1  0.55192000  0.93574100  0.73245000  1
  Cu  Cu103  1  0.94808000  0.06425900  0.73245000  1
  Cu  Cu104  1  0.44808000  0.43574100  0.23245000  1
  Cu  Cu105  1  0.05192000  0.56425900  0.23245000  1
  Cu  Cu106  1  0.44808000  0.06425900  0.26755000  1
  Cu  Cu107  1  0.05192000  0.93574100  0.26755000  1
