# generated using pymatgen
data_Cu(NiC3)2
_symmetry_space_group_name_H-M   'P 1'
_cell_length_a   4.76281300
_cell_length_b   4.76281300
_cell_length_c   8.48714700
_cell_angle_alpha   90.00000000
_cell_angle_beta   90.00000000
_cell_angle_gamma   90.00000000
_symmetry_Int_Tables_number   1
_chemical_formula_structural   Cu(NiC3)2
_chemical_formula_sum   'Cu2 Ni4 C12'
_cell_volume   192.52573279
_cell_formula_units_Z   2
loop_
 _symmetry_equiv_pos_site_id
 _symmetry_equiv_pos_as_xyz
  1  'x, y, z'
loop_
 _atom_site_type_symbol
 _atom_site_label
 _atom_site_symmetry_multiplicity
 _atom_site_fract_x
 _atom_site_fract_y
 _atom_site_fract_z
 _atom_site_occupancy
  Ni  Ni0  1  0.50000000  0.50000000  0.34704400  1
  Ni  Ni1  1  0.50000000  0.50000000  0.65295600  1
  Ni  Ni2  1  0.00000000  0.00000000  0.84704400  1
  Ni  Ni3  1  0.00000000  0.00000000  0.15295600  1
  Cu  Cu4  1  0.50000000  0.50000000  0.00000000  1
  Cu  Cu5  1  0.00000000  0.00000000  0.50000000  1
  C  C6  1  0.21887700  0.78112300  0.00000000  1
  C  C7  1  0.21076800  0.78923200  0.32410500  1
  C  C8  1  0.21076800  0.78923200  0.67589500  1
  C  C9  1  0.78112300  0.21887700  0.00000000  1
  C  C10  1  0.78923200  0.21076800  0.32410500  1
  C  C11  1  0.78923200  0.21076800  0.67589500  1
  C  C12  1  0.28923200  0.28923200  0.17589500  1
  C  C13  1  0.28112300  0.28112300  0.50000000  1
  C  C14  1  0.28923200  0.28923200  0.82410500  1
  C  C15  1  0.71076800  0.71076800  0.17589500  1
  C  C16  1  0.71887700  0.71887700  0.50000000  1
  C  C17  1  0.71076800  0.71076800  0.82410500  1
