# generated using pymatgen
data_CuNiC4
_symmetry_space_group_name_H-M   'P 1'
_cell_length_a   6.18521400
_cell_length_b   7.20586507
_cell_length_c   7.21376916
_cell_angle_alpha   62.55128507
_cell_angle_beta   64.66031928
_cell_angle_gamma   64.69189174
_symmetry_Int_Tables_number   1
_chemical_formula_structural   CuNiC4
_chemical_formula_sum   'Cu3 Ni3 C12'
_cell_volume   247.01925078
_cell_formula_units_Z   3
loop_
 _symmetry_equiv_pos_site_id
 _symmetry_equiv_pos_as_xyz
  1  'x, y, z'
loop_
 _atom_site_type_symbol
 _atom_site_label
 _atom_site_symmetry_multiplicity
 _atom_site_fract_x
 _atom_site_fract_y
 _atom_site_fract_z
 _atom_site_occupancy
  Ni  Ni0  1  0.66603200  0.48867000  0.16030600  1
  Ni  Ni1  1  0.66284800  0.00682300  0.67977300  1
  Ni  Ni2  1  0.33122300  0.42248400  0.91321700  1
  Cu  Cu3  1  0.00193300  0.99656000  0.00051400  1
  Cu  Cu4  1  0.99799800  0.49884600  0.50345300  1
  Cu  Cu5  1  0.33489000  0.92014600  0.41103100  1
  C  C6  1  0.36196600  0.54474100  0.49928500  1
  C  C7  1  0.36436300  0.00581200  0.03517900  1
  C  C8  1  0.59376100  0.70752700  0.65633700  1
  C  C9  1  0.59624600  0.16331700  0.19740300  1
  C  C10  1  0.04382200  0.27885400  0.31600400  1
  C  C11  1  0.04637600  0.82131300  0.77104200  1
  C  C12  1  0.25569900  0.62571700  0.12987000  1
  C  C13  1  0.27744400  0.12831500  0.62680300  1
  C  C14  1  0.98153200  0.37931200  0.88343900  1
  C  C15  1  0.97487100  0.88736100  0.38538300  1
  C  C16  1  0.75444600  0.73372600  0.23314200  1
  C  C17  1  0.75455000  0.24247600  0.74581900  1
