# generated using pymatgen
data_CuNiC5
_symmetry_space_group_name_H-M   'P 1'
_cell_length_a   8.41876700
_cell_length_b   9.10296900
_cell_length_c   18.35716486
_cell_angle_alpha   60.47996427
_cell_angle_beta   90.00000000
_cell_angle_gamma   90.00000000
_symmetry_Int_Tables_number   1
_chemical_formula_structural   CuNiC5
_chemical_formula_sum   'Cu12 Ni12 C60'
_cell_volume   1224.18761037
_cell_formula_units_Z   12
loop_
 _symmetry_equiv_pos_site_id
 _symmetry_equiv_pos_as_xyz
  1  'x, y, z'
loop_
 _atom_site_type_symbol
 _atom_site_label
 _atom_site_symmetry_multiplicity
 _atom_site_fract_x
 _atom_site_fract_y
 _atom_site_fract_z
 _atom_site_occupancy
  C  C0  1  0.46956900  0.70251000  0.57036900  1
  C  C1  1  0.96956900  0.29749000  0.92963100  1
  C  C2  1  0.53043100  0.29749000  0.42963100  1
  C  C3  1  0.03043100  0.70251000  0.07036900  1
  C  C4  1  0.03722700  0.64807200  0.58803800  1
  C  C5  1  0.53722700  0.35192800  0.91196200  1
  C  C6  1  0.96277300  0.35192800  0.41196200  1
  C  C7  1  0.46277300  0.64807200  0.08803800  1
  C  C8  1  0.04049700  0.00190500  0.75480400  1
  C  C9  1  0.54049700  0.99809500  0.74519600  1
  C  C10  1  0.95950300  0.99809500  0.24519600  1
  C  C11  1  0.45950300  0.00190500  0.25480400  1
  Ni  Ni12  1  0.83686700  0.65684400  0.90786000  1
  Ni  Ni13  1  0.33686700  0.34315600  0.59214000  1
  Ni  Ni14  1  0.16313300  0.34315600  0.09214000  1
  Ni  Ni15  1  0.66313300  0.65684400  0.40786000  1
  Ni  Ni16  1  0.83313900  0.01746500  0.57930500  1
  Ni  Ni17  1  0.33313900  0.98253500  0.92069500  1
  Ni  Ni18  1  0.16686100  0.98253500  0.42069500  1
  Ni  Ni19  1  0.66686100  0.01746500  0.07930500  1
  Ni  Ni20  1  0.32945800  0.67981100  0.74136100  1
  Ni  Ni21  1  0.82945800  0.32018900  0.75863900  1
  Ni  Ni22  1  0.67054200  0.32018900  0.25863900  1
  Ni  Ni23  1  0.17054200  0.67981100  0.24136100  1
  Cu  Cu24  1  0.22935000  0.65025300  0.91087700  1
  Cu  Cu25  1  0.72935000  0.34974700  0.58912300  1
  Cu  Cu26  1  0.77065000  0.34974700  0.08912300  1
  Cu  Cu27  1  0.27065000  0.65025300  0.41087700  1
  Cu  Cu28  1  0.77679700  0.97171700  0.42053200  1
  Cu  Cu29  1  0.27679700  0.02828300  0.07946800  1
  Cu  Cu30  1  0.22320300  0.02828300  0.57946800  1
  Cu  Cu31  1  0.72320300  0.97171700  0.92053200  1
  Cu  Cu32  1  0.72446000  0.68762200  0.73270500  1
  Cu  Cu33  1  0.22446000  0.31237800  0.76729500  1
  Cu  Cu34  1  0.27554000  0.31237800  0.26729500  1
  Cu  Cu35  1  0.77554000  0.68762200  0.23270500  1
  C  C36  1  0.74252300  0.47215800  0.79657600  1
  C  C37  1  0.24252300  0.52784200  0.70342400  1
  C  C38  1  0.25747700  0.52784200  0.20342400  1
  C  C39  1  0.75747700  0.47215800  0.29657600  1
  C  C40  1  0.74538700  0.78130100  0.79429700  1
  C  C41  1  0.24538700  0.21869900  0.70570300  1
  C  C42  1  0.25461300  0.21869900  0.20570300  1
  C  C43  1  0.75461300  0.78130100  0.29429700  1
  C  C44  1  0.73355100  0.43750100  0.98317700  1
  C  C45  1  0.23355100  0.56249900  0.51682300  1
  C  C46  1  0.26644900  0.56249900  0.01682300  1
  C  C47  1  0.76644900  0.43750100  0.48317700  1
  C  C48  1  0.72511400  0.13286500  0.63301500  1
  C  C49  1  0.22511400  0.86713500  0.86698500  1
  C  C50  1  0.27488600  0.86713500  0.36698500  1
  C  C51  1  0.77488600  0.13286500  0.13301500  1
  C  C52  1  0.05071900  0.58022000  0.89361800  1
  C  C53  1  0.55071900  0.41978000  0.60638200  1
  C  C54  1  0.94928100  0.41978000  0.10638200  1
  C  C55  1  0.44928100  0.58022000  0.39361800  1
  C  C56  1  0.95640300  0.86975500  0.45277900  1
  C  C57  1  0.37171900  0.59463100  0.86111700  1
  C  C58  1  0.62828100  0.40536900  0.13888300  1
  C  C59  1  0.12828100  0.59463100  0.36111700  1
  C  C60  1  0.86632100  0.81706000  0.94999500  1
  C  C61  1  0.36632100  0.18294000  0.55000500  1
  C  C62  1  0.13367900  0.18294000  0.05000500  1
  C  C63  1  0.63367900  0.81706000  0.44999500  1
  C  C64  1  0.22032000  0.90109100  0.68688000  1
  C  C65  1  0.72032000  0.09890900  0.81312000  1
  C  C66  1  0.77968000  0.09890900  0.31312000  1
  C  C67  1  0.27968000  0.90109100  0.18688000  1
  C  C68  1  0.73897200  0.09435000  0.46653000  1
  C  C69  1  0.23897200  0.90565000  0.03347000  1
  C  C70  1  0.26102800  0.90565000  0.53347000  1
  C  C71  1  0.76102800  0.09435000  0.96653000  1
  C  C72  1  0.63890100  0.77090900  0.15208100  1
  C  C73  1  0.13890100  0.22909100  0.34791900  1
  C  C74  1  0.36109900  0.22909100  0.84791900  1
  C  C75  1  0.86109900  0.77090900  0.65208100  1
  C  C76  1  0.95890100  0.74366900  0.18492800  1
  C  C77  1  0.45890100  0.25633100  0.31507200  1
  C  C78  1  0.04109900  0.25633100  0.81507200  1
  C  C79  1  0.54109900  0.74366900  0.68492800  1
  C  C80  1  0.54359700  0.86975500  0.95277900  1
  C  C81  1  0.04359700  0.13024500  0.54722100  1
  C  C82  1  0.45640300  0.13024500  0.04722100  1
  C  C83  1  0.87171900  0.40536900  0.63888300  1
