# generated using pymatgen
data_Cu3NiC
_symmetry_space_group_name_H-M   'P 1'
_cell_length_a   13.84484946
_cell_length_b   13.84484946
_cell_length_c   13.84484946
_cell_angle_alpha   109.16578360
_cell_angle_beta   109.16578360
_cell_angle_gamma   110.08383706
_symmetry_Int_Tables_number   1
_chemical_formula_structural   Cu3NiC
_chemical_formula_sum   'Cu48 Ni16 C16'
_cell_volume   2042.70446154
_cell_formula_units_Z   16
loop_
 _symmetry_equiv_pos_site_id
 _symmetry_equiv_pos_as_xyz
  1  'x, y, z'
loop_
 _atom_site_type_symbol
 _atom_site_label
 _atom_site_symmetry_multiplicity
 _atom_site_fract_x
 _atom_site_fract_y
 _atom_site_fract_z
 _atom_site_occupancy
  C  C0  1  0.87490500  0.99387800  0.63230300  1
  C  C1  1  0.36157500  0.24260200  0.36769700  1
  C  C2  1  0.24387800  0.11157500  0.61897300  1
  C  C3  1  0.49260200  0.62490500  0.38102700  1
  C  C4  1  0.37509500  0.75612200  0.86769700  1
  C  C5  1  0.88842500  0.50739800  0.13230300  1
  C  C6  1  0.00612200  0.63842500  0.88102700  1
  C  C7  1  0.75739800  0.12509500  0.11897300  1
  C  C8  1  0.75568800  0.75568800  0.00000000  1
  C  C9  1  0.00568800  0.50568800  0.50000000  1
  C  C10  1  0.49431200  0.99431200  0.50000000  1
  C  C11  1  0.24431200  0.24431200  0.00000000  1
  C  C12  1  0.62500000  0.87500000  0.75000000  1
  C  C13  1  0.12500000  0.87500000  0.25000000  1
  C  C14  1  0.12500000  0.87500000  0.75000000  1
  C  C15  1  0.12500000  0.37500000  0.25000000  1
  Ni  Ni16  1  0.12500000  0.37500000  0.75000000  1
  Ni  Ni17  1  0.62500000  0.37500000  0.25000000  1
  Ni  Ni18  1  0.62500000  0.37500000  0.75000000  1
  Ni  Ni19  1  0.62500000  0.87500000  0.25000000  1
  Ni  Ni20  1  0.00000000  0.00000000  0.00000000  1
  Ni  Ni21  1  0.25000000  0.75000000  0.50000000  1
  Ni  Ni22  1  0.50000000  0.50000000  0.00000000  1
  Ni  Ni23  1  0.75000000  0.25000000  0.50000000  1
  Ni  Ni24  1  0.38368700  0.49701400  0.63263100  1
  Ni  Ni25  1  0.86438400  0.75105600  0.36736900  1
  Ni  Ni26  1  0.74701400  0.61438400  0.61332700  1
  Ni  Ni27  1  0.00105600  0.13368700  0.38667300  1
  Ni  Ni28  1  0.86631300  0.25298600  0.86736900  1
  Ni  Ni29  1  0.38561600  0.99894400  0.13263100  1
  Ni  Ni30  1  0.50298600  0.13561600  0.88667300  1
  Ni  Ni31  1  0.24894400  0.61631300  0.11332700  1
  Cu  Cu32  1  0.53109900  0.69133600  0.79520600  1
  Cu  Cu33  1  0.89613000  0.73589300  0.20479400  1
  Cu  Cu34  1  0.94133600  0.64613000  0.66023700  1
  Cu  Cu35  1  0.98589300  0.28109900  0.33976300  1
  Cu  Cu36  1  0.71890100  0.05866400  0.70479400  1
  Cu  Cu37  1  0.35387000  0.01410700  0.29520600  1
  Cu  Cu38  1  0.30866400  0.10387000  0.83976300  1
  Cu  Cu39  1  0.26410700  0.46890100  0.16023700  1
  Cu  Cu40  1  0.21222300  0.48812600  0.65633200  1
  Cu  Cu41  1  0.83179400  0.55589100  0.34366800  1
  Cu  Cu42  1  0.73812600  0.58179400  0.77590300  1
  Cu  Cu43  1  0.80589100  0.96222300  0.22409700  1
  Cu  Cu44  1  0.03777700  0.26187400  0.84366800  1
  Cu  Cu45  1  0.41820600  0.19410900  0.15633200  1
  Cu  Cu46  1  0.51187400  0.16820600  0.72409700  1
  Cu  Cu47  1  0.44410900  0.78777700  0.27590300  1
  Cu  Cu48  1  0.41381700  0.33018000  0.62617800  1
  Cu  Cu49  1  0.70400200  0.78763900  0.37382200  1
  Cu  Cu50  1  0.58018000  0.45400200  0.41636300  1
  Cu  Cu51  1  0.03763900  0.16381700  0.58363700  1
  Cu  Cu52  1  0.83618300  0.41982000  0.87382200  1
  Cu  Cu53  1  0.54599800  0.96236100  0.12617800  1
  Cu  Cu54  1  0.66982000  0.29599800  0.08363700  1
  Cu  Cu55  1  0.21236100  0.58618300  0.91636300  1
  Cu  Cu56  1  0.34780100  0.46136600  0.44021500  1
  Cu  Cu57  1  0.02115100  0.90758600  0.55978500  1
  Cu  Cu58  1  0.71136600  0.77115100  0.61356500  1
  Cu  Cu59  1  0.15758600  0.09780100  0.38643500  1
  Cu  Cu60  1  0.90219900  0.28863400  0.05978500  1
  Cu  Cu61  1  0.22884900  0.84241400  0.94021500  1
  Cu  Cu62  1  0.53863400  0.97884900  0.88643500  1
  Cu  Cu63  1  0.09241400  0.65219900  0.11356500  1
  Cu  Cu64  1  0.80910600  0.96723200  0.97617800  1
  Cu  Cu65  1  0.99105400  0.83292800  0.02382200  1
  Cu  Cu66  1  0.21723200  0.74105400  0.65812600  1
  Cu  Cu67  1  0.08292800  0.55910600  0.34187400  1
  Cu  Cu68  1  0.44089400  0.78276800  0.52382200  1
  Cu  Cu69  1  0.25894600  0.91707200  0.47617800  1
  Cu  Cu70  1  0.03276800  0.00894600  0.84187400  1
  Cu  Cu71  1  0.16707200  0.19089400  0.15812600  1
  Cu  Cu72  1  0.54312300  0.70061300  0.04286600  1
  Cu  Cu73  1  0.65774700  0.50025600  0.95713400  1
  Cu  Cu74  1  0.95061300  0.40774700  0.65749000  1
  Cu  Cu75  1  0.75025600  0.29312300  0.34251000  1
  Cu  Cu76  1  0.70687700  0.04938700  0.45713400  1
  Cu  Cu77  1  0.59225300  0.24974400  0.54286600  1
  Cu  Cu78  1  0.29938700  0.34225300  0.84251000  1
  Cu  Cu79  1  0.49974400  0.45687700  0.15749000  1
