# generated using pymatgen
data_Cu2NiC11
_symmetry_space_group_name_H-M   'P 1'
_cell_length_a   11.32209200
_cell_length_b   5.53362800
_cell_length_c   5.62764037
_cell_angle_alpha   89.91381664
_cell_angle_beta   90.00000000
_cell_angle_gamma   90.00000000
_symmetry_Int_Tables_number   1
_chemical_formula_structural   Cu2NiC11
_chemical_formula_sum   'Cu4 Ni2 C22'
_cell_volume   352.58390588
_cell_formula_units_Z   2
loop_
 _symmetry_equiv_pos_site_id
 _symmetry_equiv_pos_as_xyz
  1  'x, y, z'
loop_
 _atom_site_type_symbol
 _atom_site_label
 _atom_site_symmetry_multiplicity
 _atom_site_fract_x
 _atom_site_fract_y
 _atom_site_fract_z
 _atom_site_occupancy
  C  C0  1  0.31383900  0.75461700  0.72764300  1
  C  C1  1  0.68616100  0.75461700  0.72764300  1
  C  C2  1  0.68582600  0.25427500  0.27230100  1
  C  C3  1  0.31417400  0.25427500  0.27230100  1
  C  C4  1  0.00000000  0.80394100  0.74431100  1
  C  C5  1  0.00000000  0.30257300  0.25688000  1
  Ni  Ni6  1  0.17491600  0.28323000  0.75808600  1
  Ni  Ni7  1  0.82508400  0.28323000  0.75808600  1
  Cu  Cu8  1  0.82422600  0.78252500  0.23982500  1
  Cu  Cu9  1  0.17577400  0.78252500  0.23982500  1
  Cu  Cu10  1  0.50000000  0.23168100  0.81343800  1
  Cu  Cu11  1  0.50000000  0.73149600  0.18596900  1
  C  C12  1  0.50000000  0.88170900  0.87322600  1
  C  C13  1  0.50000000  0.38204200  0.12662400  1
  C  C14  1  0.35637000  0.31678300  0.66984100  1
  C  C15  1  0.64363000  0.31678300  0.66984100  1
  C  C16  1  0.64305300  0.81808400  0.33074800  1
  C  C17  1  0.35694700  0.81808400  0.33074800  1
  C  C18  1  0.14648800  0.05621700  0.48240400  1
  C  C19  1  0.85351200  0.05621700  0.48240400  1
  C  C20  1  0.85331200  0.55319200  0.52176900  1
  C  C21  1  0.14668800  0.55319200  0.52176900  1
  C  C22  1  0.00000000  0.27549500  0.83018700  1
  C  C23  1  0.00000000  0.77560100  0.17295600  1
  C  C24  1  0.20142500  0.01093300  0.97215700  1
  C  C25  1  0.79857500  0.01093300  0.97215700  1
  C  C26  1  0.79862000  0.50787500  0.02343000  1
  C  C27  1  0.20138000  0.50787500  0.02343000  1
