# generated using pymatgen
data_Cu(NiC2)4
_symmetry_space_group_name_H-M   'P 1'
_cell_length_a   5.91451741
_cell_length_b   5.91451741
_cell_length_c   5.83218060
_cell_angle_alpha   61.20194050
_cell_angle_beta   61.20194050
_cell_angle_gamma   60.80268422
_symmetry_Int_Tables_number   1
_chemical_formula_structural   Cu(NiC2)4
_chemical_formula_sum   'Cu1 Ni4 C8'
_cell_volume   147.72988481
_cell_formula_units_Z   1
loop_
 _symmetry_equiv_pos_site_id
 _symmetry_equiv_pos_as_xyz
  1  'x, y, z'
loop_
 _atom_site_type_symbol
 _atom_site_label
 _atom_site_symmetry_multiplicity
 _atom_site_fract_x
 _atom_site_fract_y
 _atom_site_fract_z
 _atom_site_occupancy
  Ni  Ni0  1  0.38198000  0.38198000  0.88877500  1
  Ni  Ni1  1  0.61802000  0.61802000  0.11122500  1
  Ni  Ni2  1  0.00000000  0.50000000  0.50000000  1
  Ni  Ni3  1  0.50000000  0.00000000  0.50000000  1
  Cu  Cu4  1  0.00000000  0.00000000  0.00000000  1
  C  C5  1  0.25595500  0.25595500  0.29389200  1
  C  C6  1  0.24162700  0.24162700  0.75423600  1
  C  C7  1  0.26246400  0.78296800  0.74064700  1
  C  C8  1  0.78296800  0.26246400  0.74064700  1
  C  C9  1  0.74404500  0.74404500  0.70610800  1
  C  C10  1  0.75837300  0.75837300  0.24576400  1
  C  C11  1  0.73753600  0.21703200  0.25935300  1
  C  C12  1  0.21703200  0.73753600  0.25935300  1
