# generated using pymatgen
data_Cu2Ni2C9
_symmetry_space_group_name_H-M   'P 1'
_cell_length_a   5.14711718
_cell_length_b   5.14711718
_cell_length_c   41.62912600
_cell_angle_alpha   90.00000000
_cell_angle_beta   90.00000000
_cell_angle_gamma   119.99998949
_symmetry_Int_Tables_number   1
_chemical_formula_structural   Cu2Ni2C9
_chemical_formula_sum   'Cu12 Ni12 C54'
_cell_volume   955.11591609
_cell_formula_units_Z   6
loop_
 _symmetry_equiv_pos_site_id
 _symmetry_equiv_pos_as_xyz
  1  'x, y, z'
loop_
 _atom_site_type_symbol
 _atom_site_label
 _atom_site_symmetry_multiplicity
 _atom_site_fract_x
 _atom_site_fract_y
 _atom_site_fract_z
 _atom_site_occupancy
  Ni  Ni0  1  0.69810800  0.28662100  0.69312200  1
  Ni  Ni1  1  0.71337900  0.41148700  0.02645600  1
  Ni  Ni2  1  0.58851300  0.30189200  0.35978900  1
  Ni  Ni3  1  0.30189200  0.71337900  0.19312200  1
  Ni  Ni4  1  0.28662100  0.58851300  0.52645600  1
  Ni  Ni5  1  0.41148700  0.69810800  0.85978900  1
  Ni  Ni6  1  0.28662100  0.69810800  0.64021100  1
  Ni  Ni7  1  0.41148700  0.71337900  0.30687800  1
  Ni  Ni8  1  0.30189200  0.58851300  0.97354400  1
  Ni  Ni9  1  0.71337900  0.30189200  0.14021100  1
  Ni  Ni10  1  0.58851300  0.28662100  0.80687800  1
  Ni  Ni11  1  0.69810800  0.41148700  0.47354400  1
  Cu  Cu12  1  0.96117100  0.96117100  0.66666700  1
  Cu  Cu13  1  0.03882900  0.00000000  0.00000000  1
  Cu  Cu14  1  0.00000000  0.03882900  0.33333300  1
  Cu  Cu15  1  0.03882900  0.03882900  0.16666700  1
  Cu  Cu16  1  0.96117100  0.00000000  0.50000000  1
  Cu  Cu17  1  0.00000000  0.96117100  0.83333300  1
  Cu  Cu18  1  0.96385900  0.92771800  0.75000000  1
  Cu  Cu19  1  0.07228200  0.03614100  0.08333300  1
  Cu  Cu20  1  0.96385900  0.03614100  0.41666700  1
  Cu  Cu21  1  0.03614100  0.07228200  0.25000000  1
  Cu  Cu22  1  0.92771800  0.96385900  0.58333300  1
  Cu  Cu23  1  0.03614100  0.96385900  0.91666700  1
  C  C24  1  0.35367700  0.62664300  0.71249000  1
  C  C25  1  0.37335700  0.72703400  0.04582300  1
  C  C26  1  0.27296600  0.64632300  0.37915600  1
  C  C27  1  0.64632300  0.37335700  0.21249000  1
  C  C28  1  0.62664300  0.27296600  0.54582300  1
  C  C29  1  0.72703400  0.35367700  0.87915600  1
  C  C30  1  0.62664300  0.35367700  0.62084400  1
  C  C31  1  0.72703400  0.37335700  0.28751000  1
  C  C32  1  0.64632300  0.27296600  0.95417700  1
  C  C33  1  0.37335700  0.64632300  0.12084400  1
  C  C34  1  0.27296600  0.62664300  0.78751000  1
  C  C35  1  0.35367700  0.72703400  0.45417700  1
  C  C36  1  0.38818500  0.77637100  0.75000000  1
  C  C37  1  0.22362900  0.61181500  0.08333300  1
  C  C38  1  0.38818500  0.61181500  0.41666700  1
  C  C39  1  0.61181500  0.22362900  0.25000000  1
  C  C40  1  0.77637100  0.38818500  0.58333300  1
  C  C41  1  0.61181500  0.38818500  0.91666700  1
  C  C42  1  0.66625300  0.61928300  0.70771300  1
  C  C43  1  0.38071700  0.04697100  0.04104600  1
  C  C44  1  0.95302900  0.33374700  0.37437900  1
  C  C45  1  0.33374700  0.38071700  0.20771300  1
  C  C46  1  0.61928300  0.95302900  0.54104600  1
  C  C47  1  0.04697100  0.66625300  0.87437900  1
  C  C48  1  0.61928300  0.66625300  0.62562100  1
  C  C49  1  0.04697100  0.38071700  0.29228700  1
  C  C50  1  0.33374700  0.95302900  0.95895400  1
  C  C51  1  0.38071700  0.33374700  0.12562100  1
  C  C52  1  0.95302900  0.61928300  0.79228700  1
  C  C53  1  0.66625300  0.04697100  0.45895400  1
  C  C54  1  0.05852300  0.29153800  0.71145300  1
  C  C55  1  0.70846200  0.76698500  0.04478600  1
  C  C56  1  0.23301500  0.94147700  0.37812000  1
  C  C57  1  0.94147700  0.70846200  0.21145300  1
  C  C58  1  0.29153800  0.23301500  0.54478600  1
  C  C59  1  0.76698500  0.05852300  0.87812000  1
  C  C60  1  0.29153800  0.05852300  0.62188000  1
  C  C61  1  0.76698500  0.70846200  0.28854700  1
  C  C62  1  0.94147700  0.23301500  0.95521400  1
  C  C63  1  0.70846200  0.94147700  0.12188000  1
  C  C64  1  0.23301500  0.29153800  0.78854700  1
  C  C65  1  0.05852300  0.76698500  0.45521400  1
  C  C66  1  0.86795100  0.34463400  0.64553100  1
  C  C67  1  0.65536600  0.52331600  0.97886500  1
  C  C68  1  0.47668400  0.13204900  0.31219800  1
  C  C69  1  0.13204900  0.65536600  0.14553100  1
  C  C70  1  0.34463400  0.47668400  0.47886500  1
  C  C71  1  0.52331600  0.86795100  0.81219800  1
  C  C72  1  0.34463400  0.86795100  0.68780200  1
  C  C73  1  0.52331600  0.65536600  0.35446900  1
  C  C74  1  0.13204900  0.47668400  0.02113500  1
  C  C75  1  0.65536600  0.13204900  0.18780200  1
  C  C76  1  0.47668400  0.34463400  0.85446900  1
  C  C77  1  0.86795100  0.52331600  0.52113500  1
