# generated using pymatgen
data_Cu2Ni12C17
_symmetry_space_group_name_H-M   'P 1'
_cell_length_a   12.78137200
_cell_length_b   6.37694400
_cell_length_c   9.32354241
_cell_angle_alpha   74.75367955
_cell_angle_beta   90.00000000
_cell_angle_gamma   90.00000000
_symmetry_Int_Tables_number   1
_chemical_formula_structural   Cu2Ni12C17
_chemical_formula_sum   'Cu4 Ni24 C34'
_cell_volume   733.17934281
_cell_formula_units_Z   2
loop_
 _symmetry_equiv_pos_site_id
 _symmetry_equiv_pos_as_xyz
  1  'x, y, z'
loop_
 _atom_site_type_symbol
 _atom_site_label
 _atom_site_symmetry_multiplicity
 _atom_site_fract_x
 _atom_site_fract_y
 _atom_site_fract_z
 _atom_site_occupancy
  C  C0  1  0.13900600  0.65425300  0.62078800  1
  C  C1  1  0.63900600  0.34574700  0.87921200  1
  C  C2  1  0.86099400  0.34574700  0.37921200  1
  C  C3  1  0.36099400  0.65425300  0.12078800  1
  C  C4  1  0.50000000  0.00000000  0.50000000  1
  C  C5  1  0.00000000  0.00000000  0.00000000  1
  Ni  Ni6  1  0.40280100  0.67627200  0.71868800  1
  Ni  Ni7  1  0.90280100  0.32372800  0.78131200  1
  Ni  Ni8  1  0.59719900  0.32372800  0.28131200  1
  Ni  Ni9  1  0.09719900  0.67627200  0.21868800  1
  Ni  Ni10  1  0.37216600  0.90674800  0.74590300  1
  Ni  Ni11  1  0.87216600  0.09325200  0.75409700  1
  Ni  Ni12  1  0.62783400  0.09325200  0.25409700  1
  Ni  Ni13  1  0.12783400  0.90674800  0.24590300  1
  Ni  Ni14  1  0.39796700  0.06969100  0.22576900  1
  Ni  Ni15  1  0.89796700  0.93030900  0.27423100  1
  Ni  Ni16  1  0.60203300  0.93030900  0.77423100  1
  Ni  Ni17  1  0.10203300  0.06969100  0.72576900  1
  Ni  Ni18  1  0.31145100  0.00810700  0.35074100  1
  Ni  Ni19  1  0.81145100  0.99189300  0.14925900  1
  Ni  Ni20  1  0.68854900  0.99189300  0.64925900  1
  Ni  Ni21  1  0.18854900  0.00810700  0.85074100  1
  Ni  Ni22  1  0.56422000  0.66007100  0.40133800  1
  Ni  Ni23  1  0.06422000  0.33992900  0.09866200  1
  Ni  Ni24  1  0.43578000  0.33992900  0.59866200  1
  Ni  Ni25  1  0.93578000  0.66007100  0.90133800  1
  Ni  Ni26  1  0.64467000  0.67399400  0.52639000  1
  Ni  Ni27  1  0.14467000  0.32600600  0.97361000  1
  Ni  Ni28  1  0.35533000  0.32600600  0.47361000  1
  Ni  Ni29  1  0.85533000  0.67399400  0.02639000  1
  Cu  Cu30  1  0.36051200  0.26449200  0.90371000  1
  Cu  Cu31  1  0.86051200  0.73550800  0.59629000  1
  Cu  Cu32  1  0.63948800  0.73550800  0.09629000  1
  Cu  Cu33  1  0.13948800  0.26449200  0.40371000  1
  C  C34  1  0.26795400  0.40123200  0.91586000  1
  C  C35  1  0.76795400  0.59876800  0.58414000  1
  C  C36  1  0.73204600  0.59876800  0.08414000  1
  C  C37  1  0.23204600  0.40123200  0.41586000  1
  C  C38  1  0.42441200  0.22067300  0.04237200  1
  C  C39  1  0.92441200  0.77932700  0.45762800  1
  C  C40  1  0.57558800  0.77932700  0.95762800  1
  C  C41  1  0.07558800  0.22067300  0.54237200  1
  C  C42  1  0.42741500  0.38783100  0.77646000  1
  C  C43  1  0.92741500  0.61216900  0.72354000  1
  C  C44  1  0.57258500  0.61216900  0.22354000  1
  C  C45  1  0.07258500  0.38783100  0.27646000  1
  C  C46  1  0.32472500  0.05447100  0.87540900  1
  C  C47  1  0.82472500  0.94552900  0.62459100  1
  C  C48  1  0.67527500  0.94552900  0.12459100  1
  C  C49  1  0.17527500  0.05447100  0.37540900  1
  C  C50  1  0.38817500  0.83118200  0.66840400  1
  C  C51  1  0.88817500  0.16881800  0.83159600  1
  C  C52  1  0.61182500  0.16881800  0.33159600  1
  C  C53  1  0.11182500  0.83118200  0.16840400  1
  C  C54  1  0.38470500  0.97630800  0.32764600  1
  C  C55  1  0.88470500  0.02369200  0.17235400  1
  C  C56  1  0.61529500  0.02369200  0.67235400  1
  C  C57  1  0.11529500  0.97630800  0.82764600  1
  C  C58  1  0.56990500  0.69976300  0.49676900  1
  C  C59  1  0.06990500  0.30023700  0.00323100  1
  C  C60  1  0.43009500  0.30023700  0.50323100  1
  C  C61  1  0.93009500  0.69976300  0.99676900  1
