# generated using pymatgen
data_Cu3NiC8
_symmetry_space_group_name_H-M   'P 1'
_cell_length_a   3.43673541
_cell_length_b   3.43673541
_cell_length_c   39.21362000
_cell_angle_alpha   90.00000000
_cell_angle_beta   90.00000000
_cell_angle_gamma   119.99998863
_symmetry_Int_Tables_number   1
_chemical_formula_structural   Cu3NiC8
_chemical_formula_sum   'Cu3 Ni1 C8'
_cell_volume   401.10660406
_cell_formula_units_Z   1
loop_
 _symmetry_equiv_pos_site_id
 _symmetry_equiv_pos_as_xyz
  1  'x, y, z'
loop_
 _atom_site_type_symbol
 _atom_site_label
 _atom_site_symmetry_multiplicity
 _atom_site_fract_x
 _atom_site_fract_y
 _atom_site_fract_z
 _atom_site_occupancy
  C  C0  1  0.00000000  0.00000000  0.70517900  1
  C  C1  1  0.33333300  0.66666700  0.42224200  1
  C  C2  1  0.33333300  0.66666700  0.51696400  1
  C  C3  1  0.00000000  0.00000000  0.60995800  1
  Ni  Ni4  1  0.00000000  0.00000000  0.46963900  1
  Cu  Cu5  1  0.00000000  0.00000000  0.09391400  1
  Cu  Cu6  1  0.33333300  0.66666700  0.28181300  1
  Cu  Cu7  1  0.33333300  0.66666700  0.65761100  1
  C  C8  1  0.00000000  0.00000000  0.32370300  1
  C  C9  1  0.33333300  0.66666700  0.05204500  1
  C  C10  1  0.33333300  0.66666700  0.13578900  1
  C  C11  1  0.00000000  0.00000000  0.23989000  1
