# generated using pymatgen
data_CuNi6C19
_symmetry_space_group_name_H-M   'P 1'
_cell_length_a   11.43778100
_cell_length_b   6.64331300
_cell_length_c   7.52613353
_cell_angle_alpha   66.35736002
_cell_angle_beta   90.00000000
_cell_angle_gamma   90.00000000
_symmetry_Int_Tables_number   1
_chemical_formula_structural   CuNi6C19
_chemical_formula_sum   'Cu2 Ni12 C38'
_cell_volume   523.87114752
_cell_formula_units_Z   2
loop_
 _symmetry_equiv_pos_site_id
 _symmetry_equiv_pos_as_xyz
  1  'x, y, z'
loop_
 _atom_site_type_symbol
 _atom_site_label
 _atom_site_symmetry_multiplicity
 _atom_site_fract_x
 _atom_site_fract_y
 _atom_site_fract_z
 _atom_site_occupancy
  C  C0  1  0.44395700  0.02173800  0.72814300  1
  C  C1  1  0.94395700  0.97826200  0.27185700  1
  C  C2  1  0.51452000  0.95203100  0.10830500  1
  C  C3  1  0.01452000  0.04796900  0.89169500  1
  C  C4  1  0.54238900  0.16246400  0.19133200  1
  C  C5  1  0.04238900  0.83753600  0.80866800  1
  C  C6  1  0.39632900  0.09013600  0.16607400  1
  C  C7  1  0.89632900  0.90986400  0.83392600  1
  C  C8  1  0.46475100  0.44772500  0.89617300  1
  C  C9  1  0.96475100  0.55227500  0.10382700  1
  C  C10  1  0.57802000  0.30080500  0.83934200  1
  C  C11  1  0.07802000  0.69919500  0.16065800  1
  C  C12  1  0.23544900  0.58622400  0.70417300  1
  C  C13  1  0.73544900  0.41377600  0.29582700  1
  C  C14  1  0.14130400  0.39373100  0.87649200  1
  C  C15  1  0.64130400  0.60626900  0.12350800  1
  C  C16  1  0.27471900  0.46263200  0.95474600  1
  C  C17  1  0.77471900  0.53736800  0.04525400  1
  C  C18  1  0.23609900  0.20629700  0.69475900  1
  C  C19  1  0.73609900  0.79370300  0.30524100  1
  C  C20  1  0.27673300  0.08873000  0.94222600  1
  C  C21  1  0.77673300  0.91127000  0.05777400  1
  C  C22  1  0.25845600  0.51474700  0.41719400  1
  C  C23  1  0.75845600  0.48525300  0.58280600  1
  C  C24  1  0.38096000  0.60150800  0.26204900  1
  C  C25  1  0.88096000  0.39849200  0.73795100  1
  C  C26  1  0.34346000  0.31781700  0.36788700  1
  C  C27  1  0.84346000  0.68218300  0.63211300  1
  C  C28  1  0.52080100  0.43312700  0.51662000  1
  C  C29  1  0.02080100  0.56687300  0.48338000  1
  C  C30  1  0.42431800  0.59635600  0.58873700  1
  C  C31  1  0.92431800  0.40364400  0.41126300  1
  C  C32  1  0.42616600  0.87203400  0.88345900  1
  C  C33  1  0.92616600  0.12796600  0.11654100  1
  C  C34  1  0.38606400  0.01088200  0.59809000  1
  C  C35  1  0.88606400  0.98911800  0.40191000  1
  Ni  Ni36  1  0.48399900  0.11135700  0.10127500  1
  Ni  Ni37  1  0.98399900  0.88864300  0.89872500  1
  Ni  Ni38  1  0.48868700  0.28749200  0.89635000  1
  Ni  Ni39  1  0.98868700  0.71250800  0.10365000  1
  Ni  Ni40  1  0.23324100  0.43282000  0.83566000  1
  Ni  Ni41  1  0.73324100  0.56718000  0.16434000  1
  Ni  Ni42  1  0.28460800  0.23634900  0.80762500  1
  Ni  Ni43  1  0.78460800  0.76365100  0.19237500  1
  Ni  Ni44  1  0.34754800  0.46859100  0.39378200  1
  Ni  Ni45  1  0.84754800  0.53140900  0.60621800  1
  Ni  Ni46  1  0.43029400  0.44811900  0.55818400  1
  Ni  Ni47  1  0.93029400  0.55188100  0.44181600  1
  Cu  Cu48  1  0.41161300  0.25149900  0.74811900  1
  Cu  Cu49  1  0.91161300  0.74850100  0.25188100  1
  C  C50  1  0.60398500  0.01776400  0.66537800  1
  C  C51  1  0.10398500  0.98223600  0.33462200  1
