# generated using pymatgen
data_CuNiC
_symmetry_space_group_name_H-M   'P 1'
_cell_length_a   4.57031261
_cell_length_b   4.57031261
_cell_length_c   7.25051800
_cell_angle_alpha   90.00000000
_cell_angle_beta   90.00000000
_cell_angle_gamma   120.00000884
_symmetry_Int_Tables_number   1
_chemical_formula_structural   CuNiC
_chemical_formula_sum   'Cu2 Ni2 C2'
_cell_volume   131.15699021
_cell_formula_units_Z   2
loop_
 _symmetry_equiv_pos_site_id
 _symmetry_equiv_pos_as_xyz
  1  'x, y, z'
loop_
 _atom_site_type_symbol
 _atom_site_label
 _atom_site_symmetry_multiplicity
 _atom_site_fract_x
 _atom_site_fract_y
 _atom_site_fract_z
 _atom_site_occupancy
  C  C0  1  0.00000000  0.00000000  0.00295400  1
  C  C1  1  0.00000000  0.00000000  0.50295400  1
  Ni  Ni2  1  0.66666700  0.33333300  0.66908900  1
  Ni  Ni3  1  0.33333300  0.66666700  0.16908900  1
  Cu  Cu4  1  0.33333300  0.66666700  0.77095700  1
  Cu  Cu5  1  0.66666700  0.33333300  0.27095700  1
