# generated using pymatgen
data_Cu4Ni12C7
_symmetry_space_group_name_H-M   'P 1'
_cell_length_a   10.92545941
_cell_length_b   10.92545941
_cell_length_c   9.79350427
_cell_angle_alpha   82.15135421
_cell_angle_beta   82.15135421
_cell_angle_gamma   65.61371292
_symmetry_Int_Tables_number   1
_chemical_formula_structural   Cu4Ni12C7
_chemical_formula_sum   'Cu16 Ni48 C28'
_cell_volume   1050.56576345
_cell_formula_units_Z   4
loop_
 _symmetry_equiv_pos_site_id
 _symmetry_equiv_pos_as_xyz
  1  'x, y, z'
loop_
 _atom_site_type_symbol
 _atom_site_label
 _atom_site_symmetry_multiplicity
 _atom_site_fract_x
 _atom_site_fract_y
 _atom_site_fract_z
 _atom_site_occupancy
  C  C0  1  0.86232700  0.13767300  0.75000000  1
  C  C1  1  0.13767300  0.86232700  0.25000000  1
  C  C2  1  0.34536600  0.65463400  0.75000000  1
  C  C3  1  0.65463400  0.34536600  0.25000000  1
  C  C4  1  0.95105900  0.73780600  0.82194900  1
  C  C5  1  0.26219400  0.04894100  0.67805100  1
  C  C6  1  0.04894100  0.26219400  0.17805100  1
  C  C7  1  0.73780600  0.95105900  0.32194900  1
  Ni  Ni8  1  0.63188300  0.18360100  0.83420200  1
  Ni  Ni9  1  0.81639900  0.36811700  0.66579800  1
  Ni  Ni10  1  0.36811700  0.81639900  0.16579800  1
  Ni  Ni11  1  0.18360100  0.63188300  0.33420200  1
  Ni  Ni12  1  0.69928300  0.05504600  0.71398000  1
  Ni  Ni13  1  0.94495400  0.30071700  0.78602000  1
  Ni  Ni14  1  0.30071700  0.94495400  0.28602000  1
  Ni  Ni15  1  0.05504600  0.69928300  0.21398000  1
  Ni  Ni16  1  0.65108600  0.22759400  0.65054500  1
  Ni  Ni17  1  0.77240600  0.34891400  0.84945500  1
  Ni  Ni18  1  0.34891400  0.77240600  0.34945500  1
  Ni  Ni19  1  0.22759400  0.65108600  0.15054500  1
  Ni  Ni20  1  0.58219800  0.61285600  0.74292600  1
  Ni  Ni21  1  0.38714400  0.41780200  0.75707400  1
  Ni  Ni22  1  0.41780200  0.38714400  0.25707400  1
  Ni  Ni23  1  0.61285600  0.58219800  0.24292600  1
  Ni  Ni24  1  0.50146900  0.72420800  0.59910000  1
  Ni  Ni25  1  0.27579200  0.49853100  0.90090000  1
  Ni  Ni26  1  0.49853100  0.27579200  0.40090000  1
  Ni  Ni27  1  0.72420800  0.50146900  0.09910000  1
  Ni  Ni28  1  0.54890800  0.54612300  0.60235200  1
  Ni  Ni29  1  0.45387700  0.45109200  0.89764800  1
  Ni  Ni30  1  0.45109200  0.45387700  0.39764800  1
  Ni  Ni31  1  0.54612300  0.54890800  0.10235200  1
  Ni  Ni32  1  0.09806800  0.52916700  0.72946400  1
  Ni  Ni33  1  0.47083300  0.90193200  0.77053600  1
  Ni  Ni34  1  0.90193200  0.47083300  0.27053600  1
  Ni  Ni35  1  0.52916700  0.09806800  0.22946400  1
  Ni  Ni36  1  0.92467100  0.56144800  0.72382200  1
  Ni  Ni37  1  0.43855200  0.07532900  0.77617800  1
  Ni  Ni38  1  0.07532900  0.43855200  0.27617800  1
  Ni  Ni39  1  0.56144800  0.92467100  0.22382200  1
  Ni  Ni40  1  0.00017600  0.49832200  0.88300400  1
  Ni  Ni41  1  0.50167800  0.99982400  0.61699600  1
  Ni  Ni42  1  0.99982400  0.50167800  0.11699600  1
  Ni  Ni43  1  0.49832200  0.00017600  0.38300400  1
  Ni  Ni44  1  0.75429900  0.88551200  0.95052500  1
  Ni  Ni45  1  0.11448800  0.24570100  0.54947500  1
  Ni  Ni46  1  0.24570100  0.11448800  0.04947500  1
  Ni  Ni47  1  0.88551200  0.75429900  0.45052500  1
  Ni  Ni48  1  0.78190900  0.71286400  0.99420300  1
  Ni  Ni49  1  0.28713600  0.21809100  0.50579700  1
  Ni  Ni50  1  0.21809100  0.28713600  0.00579700  1
  Ni  Ni51  1  0.71286400  0.78190900  0.49420300  1
  Ni  Ni52  1  0.71010400  0.79682500  0.83619800  1
  Ni  Ni53  1  0.20317500  0.28989600  0.66380200  1
  Ni  Ni54  1  0.28989600  0.20317500  0.16380200  1
  Ni  Ni55  1  0.79682500  0.71010400  0.33619800  1
  C  C56  1  0.09987500  0.88826500  0.62555800  1
  C  C57  1  0.11173500  0.90012500  0.87444200  1
  C  C58  1  0.90012500  0.11173500  0.37444200  1
  C  C59  1  0.88826500  0.09987500  0.12555800  1
  Cu  Cu60  1  0.69390500  0.15258900  0.73678600  1
  Cu  Cu61  1  0.84741100  0.30609500  0.76321400  1
  Cu  Cu62  1  0.30609500  0.84741100  0.26321400  1
  Cu  Cu63  1  0.15258900  0.69390500  0.23678600  1
  Cu  Cu64  1  0.51080500  0.63215400  0.66571400  1
  Cu  Cu65  1  0.36784600  0.48919500  0.83428600  1
  Cu  Cu66  1  0.48919500  0.36784600  0.33428600  1
  Cu  Cu67  1  0.63215400  0.51080500  0.16571400  1
  Cu  Cu68  1  0.99843500  0.56452000  0.78761600  1
  Cu  Cu69  1  0.43548000  0.00156500  0.71238400  1
  Cu  Cu70  1  0.00156500  0.43548000  0.21238400  1
  Cu  Cu71  1  0.56452000  0.99843500  0.28761600  1
  Cu  Cu72  1  0.78236000  0.78867200  0.90821500  1
  Cu  Cu73  1  0.21132800  0.21764000  0.59178500  1
  Cu  Cu74  1  0.21764000  0.21132800  0.09178500  1
  Cu  Cu75  1  0.78867200  0.78236000  0.40821500  1
  C  C76  1  0.95316600  0.08636700  0.61554200  1
  C  C77  1  0.91363300  0.04683400  0.88445800  1
  C  C78  1  0.04683400  0.91363300  0.38445800  1
  C  C79  1  0.08636700  0.95316600  0.11554200  1
  C  C80  1  0.24481400  0.68996900  0.63943800  1
  C  C81  1  0.31003100  0.75518600  0.86056200  1
  C  C82  1  0.75518600  0.31003100  0.36056200  1
  C  C83  1  0.68996900  0.24481400  0.13943800  1
  C  C84  1  0.94383700  0.82401100  0.68220100  1
  C  C85  1  0.17598900  0.05616300  0.81779900  1
  C  C86  1  0.05616300  0.17598900  0.31779900  1
  C  C87  1  0.82401100  0.94383700  0.18220100  1
  C  C88  1  0.04810600  0.74082100  0.92101200  1
  C  C89  1  0.25917900  0.95189400  0.57898800  1
  C  C90  1  0.95189400  0.25917900  0.07898800  1
  C  C91  1  0.74082100  0.04810600  0.42101200  1
