# generated using pymatgen
data_CuNi2C3
_symmetry_space_group_name_H-M   'P 1'
_cell_length_a   3.06187900
_cell_length_b   3.06187875
_cell_length_c   26.03080000
_cell_angle_alpha   90.00000000
_cell_angle_beta   90.00000000
_cell_angle_gamma   119.99999187
_symmetry_Int_Tables_number   1
_chemical_formula_structural   CuNi2C3
_chemical_formula_sum   'Cu3 Ni6 C9'
_cell_volume   211.34607943
_cell_formula_units_Z   3
loop_
 _symmetry_equiv_pos_site_id
 _symmetry_equiv_pos_as_xyz
  1  'x, y, z'
loop_
 _atom_site_type_symbol
 _atom_site_label
 _atom_site_symmetry_multiplicity
 _atom_site_fract_x
 _atom_site_fract_y
 _atom_site_fract_z
 _atom_site_occupancy
  Ni  Ni0  1  0.33300000  0.00589700  0.11552000  1
  Ni  Ni1  1  0.67289700  0.66700000  0.78218600  1
  Ni  Ni2  1  0.99410300  0.32710300  0.44885300  1
  Ni  Ni3  1  0.66700000  0.67289700  0.21781400  1
  Ni  Ni4  1  0.00589700  0.33300000  0.88448000  1
  Ni  Ni5  1  0.32710300  0.99410300  0.55114700  1
  Cu  Cu6  1  0.00000000  0.33114700  0.66666700  1
  Cu  Cu7  1  0.33114700  0.00000000  0.33333300  1
  Cu  Cu8  1  0.66885300  0.66885300  0.00000000  1
  C  C9  1  0.00000000  0.33918800  0.16666700  1
  C  C10  1  0.33918800  0.00000000  0.83333300  1
  C  C11  1  0.66081200  0.66081200  0.50000000  1
  C  C12  1  0.32750700  0.99394000  0.41459800  1
  C  C13  1  0.66643300  0.67249300  0.08126400  1
  C  C14  1  0.00606000  0.33356700  0.74793100  1
  C  C15  1  0.67249300  0.66643300  0.91873600  1
  C  C16  1  0.99394000  0.32750700  0.58540200  1
  C  C17  1  0.33356700  0.00606000  0.25206900  1
