# generated using pymatgen
data_CuNiC9
_symmetry_space_group_name_H-M   'P 1'
_cell_length_a   9.48661709
_cell_length_b   9.48661709
_cell_length_c   17.36811200
_cell_angle_alpha   90.00000000
_cell_angle_beta   90.00000000
_cell_angle_gamma   98.57147483
_symmetry_Int_Tables_number   1
_chemical_formula_structural   CuNiC9
_chemical_formula_sum   'Cu8 Ni8 C72'
_cell_volume   1545.60067169
_cell_formula_units_Z   8
loop_
 _symmetry_equiv_pos_site_id
 _symmetry_equiv_pos_as_xyz
  1  'x, y, z'
loop_
 _atom_site_type_symbol
 _atom_site_label
 _atom_site_symmetry_multiplicity
 _atom_site_fract_x
 _atom_site_fract_y
 _atom_site_fract_z
 _atom_site_occupancy
  C  C0  1  0.38079600  0.10711500  0.16801700  1
  C  C1  1  0.10711500  0.38079600  0.83198300  1
  C  C2  1  0.38079600  0.10711500  0.33198300  1
  C  C3  1  0.10711500  0.38079600  0.66801700  1
  C  C4  1  0.61920400  0.89288500  0.83198300  1
  C  C5  1  0.89288500  0.61920400  0.16801700  1
  C  C6  1  0.61920400  0.89288500  0.66801700  1
  C  C7  1  0.89288500  0.61920400  0.33198300  1
  C  C8  1  0.36597800  0.93431900  0.12065200  1
  C  C9  1  0.93431900  0.36597800  0.87934800  1
  C  C10  1  0.36597800  0.93431900  0.37934800  1
  C  C11  1  0.93431900  0.36597800  0.62065200  1
  C  C12  1  0.63402200  0.06568100  0.87934800  1
  C  C13  1  0.06568100  0.63402200  0.12065200  1
  C  C14  1  0.63402200  0.06568100  0.62065200  1
  C  C15  1  0.06568100  0.63402200  0.37934800  1
  C  C16  1  0.28315200  0.06667200  0.93852400  1
  C  C17  1  0.06667200  0.28315200  0.06147600  1
  C  C18  1  0.28315200  0.06667200  0.56147600  1
  C  C19  1  0.06667200  0.28315200  0.43852400  1
  C  C20  1  0.71684800  0.93332800  0.06147600  1
  C  C21  1  0.93332800  0.71684800  0.93852400  1
  C  C22  1  0.71684800  0.93332800  0.43852400  1
  C  C23  1  0.93332800  0.71684800  0.56147600  1
  C  C24  1  0.31304600  0.91463700  0.99106900  1
  C  C25  1  0.91463700  0.31304600  0.00893100  1
  C  C26  1  0.31304600  0.91463700  0.50893100  1
  C  C27  1  0.91463700  0.31304600  0.49106900  1
  C  C28  1  0.68695400  0.08536300  0.00893100  1
  C  C29  1  0.08536300  0.68695400  0.99106900  1
  C  C30  1  0.68695400  0.08536300  0.49106900  1
  C  C31  1  0.08536300  0.68695400  0.50893100  1
  C  C32  1  0.15408900  0.84591100  0.75000000  1
  C  C33  1  0.84591100  0.15408900  0.25000000  1
  Ni  Ni34  1  0.33613800  0.09894000  0.05212800  1
  Ni  Ni35  1  0.09894000  0.33613800  0.94787200  1
  Ni  Ni36  1  0.33613800  0.09894000  0.44787200  1
  Ni  Ni37  1  0.09894000  0.33613800  0.55212800  1
  Ni  Ni38  1  0.66386200  0.90106000  0.94787200  1
  Ni  Ni39  1  0.90106000  0.66386200  0.05212800  1
  Ni  Ni40  1  0.66386200  0.90106000  0.55212800  1
  Ni  Ni41  1  0.90106000  0.66386200  0.44787200  1
  Cu  Cu42  1  0.33246600  0.28658300  0.05539300  1
  Cu  Cu43  1  0.28658300  0.33246600  0.94460700  1
  Cu  Cu44  1  0.33246600  0.28658300  0.44460700  1
  Cu  Cu45  1  0.28658300  0.33246600  0.55539300  1
  Cu  Cu46  1  0.66753400  0.71341700  0.94460700  1
  Cu  Cu47  1  0.71341700  0.66753400  0.05539300  1
  Cu  Cu48  1  0.66753400  0.71341700  0.55539300  1
  Cu  Cu49  1  0.71341700  0.66753400  0.44460700  1
  C  C50  1  0.02941600  0.97058400  0.64928900  1
  C  C51  1  0.97058400  0.02941600  0.35071100  1
  C  C52  1  0.02941600  0.97058400  0.85071100  1
  C  C53  1  0.97058400  0.02941600  0.14928900  1
  C  C54  1  0.35052500  0.04999400  0.75000000  1
  C  C55  1  0.04999400  0.35052500  0.25000000  1
  C  C56  1  0.64947500  0.95000600  0.25000000  1
  C  C57  1  0.95000600  0.64947500  0.75000000  1
  C  C58  1  0.27568900  0.72431100  0.85074200  1
  C  C59  1  0.72431100  0.27568900  0.14925800  1
  C  C60  1  0.27568900  0.72431100  0.64925800  1
  C  C61  1  0.72431100  0.27568900  0.35074200  1
  C  C62  1  0.30728400  0.69271600  0.07845600  1
  C  C63  1  0.69271600  0.30728400  0.92154400  1
  C  C64  1  0.30728400  0.69271600  0.42154400  1
  C  C65  1  0.69271600  0.30728400  0.57845600  1
  C  C66  1  0.36811500  0.04362400  0.11817200  1
  C  C67  1  0.04362400  0.36811500  0.88182800  1
  C  C68  1  0.36811500  0.04362400  0.38182800  1
  C  C69  1  0.04362400  0.36811500  0.61817200  1
  C  C70  1  0.63188500  0.95637600  0.88182800  1
  C  C71  1  0.95637600  0.63188500  0.11817200  1
  C  C72  1  0.63188500  0.95637600  0.61817200  1
  C  C73  1  0.95637600  0.63188500  0.38182800  1
  C  C74  1  0.31311000  0.02287300  0.98842400  1
  C  C75  1  0.02287300  0.31311000  0.01157600  1
  C  C76  1  0.31311000  0.02287300  0.51157600  1
  C  C77  1  0.02287300  0.31311000  0.48842400  1
  C  C78  1  0.68689000  0.97712700  0.01157600  1
  C  C79  1  0.97712700  0.68689000  0.98842400  1
  C  C80  1  0.68689000  0.97712700  0.48842400  1
  C  C81  1  0.97712700  0.68689000  0.51157600  1
  C  C82  1  0.38523900  0.21352600  0.25000000  1
  C  C83  1  0.21352600  0.38523900  0.75000000  1
  C  C84  1  0.61476100  0.78647400  0.75000000  1
  C  C85  1  0.78647400  0.61476100  0.25000000  1
  C  C86  1  0.47240200  0.52759800  0.25000000  1
  C  C87  1  0.52759800  0.47240200  0.75000000  1
