# generated using pymatgen
data_Cu14NiC16
_symmetry_space_group_name_H-M   'P 1'
_cell_length_a   8.65199341
_cell_length_b   8.84995255
_cell_length_c   4.41394248
_cell_angle_alpha   90.00000000
_cell_angle_beta   90.00000000
_cell_angle_gamma   90.00000000
_symmetry_Int_Tables_number   1
_chemical_formula_structural   Cu14NiC16
_chemical_formula_sum   'Cu14 Ni1 C16'
_cell_volume   337.97438897
_cell_formula_units_Z   1
loop_
 _symmetry_equiv_pos_site_id
 _symmetry_equiv_pos_as_xyz
  1  'x, y, z'
loop_
 _atom_site_type_symbol
 _atom_site_label
 _atom_site_symmetry_multiplicity
 _atom_site_fract_x
 _atom_site_fract_y
 _atom_site_fract_z
 _atom_site_occupancy
  C  C0  1  0.02675991  0.00000000  -0.00000000  1
  Ni  Ni1  1  0.99662282  0.50000000  -0.00000000  1
  Cu  Cu2  1  0.49398051  0.00000000  -0.00000000  1
  Cu  Cu3  1  0.50492368  0.50000000  -0.00000000  1
  Cu  Cu4  1  0.99743956  0.23636828  0.50000000  1
  Cu  Cu5  1  0.99743956  0.76363172  0.50000000  1
  Cu  Cu6  1  0.50207666  0.24881861  0.50000000  1
  Cu  Cu7  1  0.50207666  0.75118139  0.50000000  1
  Cu  Cu8  1  0.26138039  0.00000000  0.50000000  1
  Cu  Cu9  1  0.25778609  0.50000000  0.50000000  1
  Cu  Cu10  1  0.74756799  0.00000000  0.50000000  1
  Cu  Cu11  1  0.74193156  0.50000000  0.50000000  1
  Cu  Cu12  1  0.26333289  0.25630162  -0.00000000  1
  Cu  Cu13  1  0.26333289  0.74369838  0.00000000  1
  Cu  Cu14  1  0.74306510  0.23844024  0.00000000  1
  Cu  Cu15  1  0.74306510  0.76155976  -0.00000000  1
  C  C16  1  0.25434450  0.50000000  -0.00000000  1
  C  C17  1  0.72699291  0.00000000  -0.00000000  1
  C  C18  1  0.74626423  0.50000000  -0.00000000  1
  C  C19  1  0.24799237  0.25505960  0.50000000  1
  C  C20  1  0.24799237  0.74494040  0.50000000  1
  C  C21  1  0.74975005  0.25130172  0.50000000  1
  C  C22  1  0.74975005  0.74869828  0.50000000  1
  C  C23  1  0.98735618  0.00000000  0.50000000  1
  C  C24  1  0.99714109  0.50000000  0.50000000  1
  C  C25  1  0.50234542  0.00000000  0.50000000  1
  C  C26  1  0.50048574  0.50000000  0.50000000  1
  C  C27  1  0.99529542  0.27109272  -0.00000000  1
  C  C28  1  0.99529542  0.72890728  -0.00000000  1
  C  C29  1  0.50310647  0.25966252  -0.00000000  1
  C  C30  1  0.50310647  0.74033748  -0.00000000  1
