# generated using pymatgen
data_Cu3Ni6C41
_symmetry_space_group_name_H-M   'P 1'
_cell_length_a   9.56705400
_cell_length_b   9.56705400
_cell_length_c   9.56705357
_cell_angle_alpha   113.73276201
_cell_angle_beta   113.73276201
_cell_angle_gamma   113.73275706
_symmetry_Int_Tables_number   1
_chemical_formula_structural   Cu3Ni6C41
_chemical_formula_sum   'Cu3 Ni6 C41'
_cell_volume   542.38781090
_cell_formula_units_Z   1
loop_
 _symmetry_equiv_pos_site_id
 _symmetry_equiv_pos_as_xyz
  1  'x, y, z'
loop_
 _atom_site_type_symbol
 _atom_site_label
 _atom_site_symmetry_multiplicity
 _atom_site_fract_x
 _atom_site_fract_y
 _atom_site_fract_z
 _atom_site_occupancy
  C  C0  1  0.78164300  0.78164300  0.78164300  1
  C  C1  1  0.43627000  0.09548600  0.65425400  1
  C  C2  1  0.65425400  0.43627000  0.09548600  1
  C  C3  1  0.43627000  0.65425400  0.09548600  1
  C  C4  1  0.65425400  0.09548600  0.43627000  1
  C  C5  1  0.09548600  0.65425400  0.43627000  1
  C  C6  1  0.09548600  0.43627000  0.65425400  1
  C  C7  1  0.45093300  0.24521800  0.45093300  1
  C  C8  1  0.24521800  0.45093300  0.45093300  1
  C  C9  1  0.45093300  0.45093300  0.24521800  1
  Ni  Ni10  1  0.19399500  0.00343500  0.81073100  1
  Ni  Ni11  1  0.81073100  0.19399500  0.00343500  1
  Ni  Ni12  1  0.00343500  0.19399500  0.81073100  1
  Ni  Ni13  1  0.19399500  0.81073100  0.00343500  1
  Ni  Ni14  1  0.81073100  0.00343500  0.19399500  1
  Ni  Ni15  1  0.00343500  0.81073100  0.19399500  1
  Cu  Cu16  1  0.43509100  0.43509100  0.76765900  1
  Cu  Cu17  1  0.43509100  0.76765900  0.43509100  1
  Cu  Cu18  1  0.76765900  0.43509100  0.43509100  1
  C  C19  1  0.34917500  0.82910200  0.49882200  1
  C  C20  1  0.82910200  0.49882200  0.34917500  1
  C  C21  1  0.49882200  0.34917500  0.82910200  1
  C  C22  1  0.49882200  0.82910200  0.34917500  1
  C  C23  1  0.82910200  0.34917500  0.49882200  1
  C  C24  1  0.34917500  0.49882200  0.82910200  1
  C  C25  1  0.63874800  0.21150600  0.92473500  1
  C  C26  1  0.21150600  0.92473500  0.63874800  1
  C  C27  1  0.92473500  0.63874800  0.21150600  1
  C  C28  1  0.92473500  0.21150600  0.63874800  1
  C  C29  1  0.21150600  0.63874800  0.92473500  1
  C  C30  1  0.63874800  0.92473500  0.21150600  1
  C  C31  1  0.03097600  0.41478500  0.22992300  1
  C  C32  1  0.41478500  0.22992300  0.03097600  1
  C  C33  1  0.22992300  0.03097600  0.41478500  1
  C  C34  1  0.22992300  0.41478500  0.03097600  1
  C  C35  1  0.41478500  0.03097600  0.22992300  1
  C  C36  1  0.45432600  0.45432600  0.63762000  1
  C  C37  1  0.63762000  0.45432600  0.45432600  1
  C  C38  1  0.45432600  0.63762000  0.45432600  1
  C  C39  1  0.20811100  0.60805400  0.60805400  1
  C  C40  1  0.60805400  0.20811100  0.60805400  1
  C  C41  1  0.60805400  0.60805400  0.20811100  1
  C  C42  1  0.83356500  0.83356500  0.11329400  1
  C  C43  1  0.11329400  0.83356500  0.83356500  1
  C  C44  1  0.83356500  0.11329400  0.83356500  1
  C  C45  1  0.73853500  0.01237100  0.01237100  1
  C  C46  1  0.01237100  0.73853500  0.01237100  1
  C  C47  1  0.01237100  0.01237100  0.73853500  1
  C  C48  1  0.03097600  0.22992300  0.41478500  1
  C  C49  1  0.23028200  0.23028200  0.23028200  1
