# generated using pymatgen
data_CuNi2C17
_symmetry_space_group_name_H-M   'P 1'
_cell_length_a   7.46869501
_cell_length_b   7.46869501
_cell_length_c   15.26526337
_cell_angle_alpha   88.90137298
_cell_angle_beta   88.90137298
_cell_angle_gamma   42.62591071
_symmetry_Int_Tables_number   1
_chemical_formula_structural   CuNi2C17
_chemical_formula_sum   'Cu2 Ni4 C34'
_cell_volume   576.53321919
_cell_formula_units_Z   2
loop_
 _symmetry_equiv_pos_site_id
 _symmetry_equiv_pos_as_xyz
  1  'x, y, z'
loop_
 _atom_site_type_symbol
 _atom_site_label
 _atom_site_symmetry_multiplicity
 _atom_site_fract_x
 _atom_site_fract_y
 _atom_site_fract_z
 _atom_site_occupancy
  Ni  Ni0  1  0.76219400  0.85749100  0.12060600  1
  Ni  Ni1  1  0.14250900  0.23780600  0.37939400  1
  Ni  Ni2  1  0.23780600  0.14250900  0.87939400  1
  Ni  Ni3  1  0.85749100  0.76219400  0.62060600  1
  Cu  Cu4  1  0.44147400  0.55852600  0.25000000  1
  Cu  Cu5  1  0.55852600  0.44147400  0.75000000  1
  C  C6  1  0.11208500  0.12405900  0.12288500  1
  C  C7  1  0.87594100  0.88791500  0.37711500  1
  C  C8  1  0.88791500  0.87594100  0.87711500  1
  C  C9  1  0.12405900  0.11208500  0.62288500  1
  C  C10  1  0.50000000  0.50000000  0.00000000  1
  C  C11  1  0.50000000  0.50000000  0.50000000  1
  C  C12  1  0.04575000  0.62832700  0.27669900  1
  C  C13  1  0.37167300  0.95425000  0.22330100  1
  C  C14  1  0.95425000  0.37167300  0.72330100  1
  C  C15  1  0.62832700  0.04575000  0.77669900  1
  C  C16  1  0.88665900  0.27551100  0.01388400  1
  C  C17  1  0.72448900  0.11334100  0.48611600  1
  C  C18  1  0.11334100  0.72448900  0.98611600  1
  C  C19  1  0.27551100  0.88665900  0.51388400  1
  C  C20  1  0.83808800  0.41387600  0.20135100  1
  C  C21  1  0.58612400  0.16191200  0.29864900  1
  C  C22  1  0.16191200  0.58612400  0.79864900  1
  C  C23  1  0.41387600  0.83808800  0.70135100  1
  C  C24  1  0.82859500  0.41604400  0.54708500  1
  C  C25  1  0.58395600  0.17140500  0.95291500  1
  C  C26  1  0.17140500  0.58395600  0.45291500  1
  C  C27  1  0.41604400  0.82859500  0.04708500  1
  C  C28  1  0.90371700  0.07430800  0.65893600  1
  C  C29  1  0.92569200  0.09628300  0.84106400  1
  C  C30  1  0.09628300  0.92569200  0.34106400  1
  C  C31  1  0.07430800  0.90371700  0.15893600  1
  C  C32  1  0.19264700  0.30616300  0.08390000  1
  C  C33  1  0.69383700  0.80735300  0.41610000  1
  C  C34  1  0.80735300  0.69383700  0.91610000  1
  C  C35  1  0.30616300  0.19264700  0.58390000  1
  C  C36  1  0.63804300  0.47671000  0.37778900  1
  C  C37  1  0.52329000  0.36195700  0.12221100  1
  C  C38  1  0.36195700  0.52329000  0.62221100  1
  C  C39  1  0.47671000  0.63804300  0.87778900  1
