# generated using pymatgen
data_CuNi2C3
_symmetry_space_group_name_H-M   'P 1'
_cell_length_a   7.42171429
_cell_length_b   7.42171429
_cell_length_c   7.42171405
_cell_angle_alpha   33.42486721
_cell_angle_beta   33.42486721
_cell_angle_gamma   33.42486295
_symmetry_Int_Tables_number   1
_chemical_formula_structural   CuNi2C3
_chemical_formula_sum   'Cu1 Ni2 C3'
_cell_volume   110.46300873
_cell_formula_units_Z   1
loop_
 _symmetry_equiv_pos_site_id
 _symmetry_equiv_pos_as_xyz
  1  'x, y, z'
loop_
 _atom_site_type_symbol
 _atom_site_label
 _atom_site_symmetry_multiplicity
 _atom_site_fract_x
 _atom_site_fract_y
 _atom_site_fract_z
 _atom_site_occupancy
  Ni  Ni0  1  0.00069400  0.00069400  0.00069400  1
  Ni  Ni1  1  0.49886600  0.49886600  0.49886600  1
  C  C2  1  0.74890200  0.74890200  0.74890200  1
  Cu  Cu3  1  0.25117000  0.25117000  0.25117000  1
  C  C4  1  0.12732000  0.12732000  0.12732000  1
  C  C5  1  0.62304900  0.62304900  0.62304900  1
