# generated using pymatgen
data_Cu13Ni10C
_symmetry_space_group_name_H-M   'P 1'
_cell_length_a   7.81242300
_cell_length_b   11.50939800
_cell_length_c   12.76349826
_cell_angle_alpha   64.78757773
_cell_angle_beta   90.00000000
_cell_angle_gamma   90.00000000
_symmetry_Int_Tables_number   1
_chemical_formula_structural   Cu13Ni10C
_chemical_formula_sum   'Cu52 Ni40 C4'
_cell_volume   1038.31550186
_cell_formula_units_Z   4
loop_
 _symmetry_equiv_pos_site_id
 _symmetry_equiv_pos_as_xyz
  1  'x, y, z'
loop_
 _atom_site_type_symbol
 _atom_site_label
 _atom_site_symmetry_multiplicity
 _atom_site_fract_x
 _atom_site_fract_y
 _atom_site_fract_z
 _atom_site_occupancy
  Ni  Ni0  1  0.84703200  0.18409400  0.14247700  1
  Ni  Ni1  1  0.34703200  0.31590600  0.85752300  1
  Ni  Ni2  1  0.15296800  0.81590600  0.85752300  1
  Ni  Ni3  1  0.65296800  0.68409400  0.14247700  1
  Ni  Ni4  1  0.97250600  0.10583800  0.26956600  1
  Ni  Ni5  1  0.47250600  0.39416200  0.73043400  1
  Ni  Ni6  1  0.02749400  0.89416200  0.73043400  1
  Ni  Ni7  1  0.52749400  0.60583800  0.26956600  1
  Ni  Ni8  1  0.76065200  0.15410700  0.28033600  1
  Ni  Ni9  1  0.26065200  0.34589300  0.71966400  1
  Ni  Ni10  1  0.23934800  0.84589300  0.71966400  1
  Ni  Ni11  1  0.73934800  0.65410700  0.28033600  1
  Ni  Ni12  1  0.62269400  0.16438500  0.16634200  1
  Ni  Ni13  1  0.12269400  0.33561500  0.83365800  1
  Ni  Ni14  1  0.37730600  0.83561500  0.83365800  1
  Ni  Ni15  1  0.87730600  0.66438500  0.16634200  1
  Ni  Ni16  1  0.96875400  0.05043000  0.15787200  1
  Ni  Ni17  1  0.46875400  0.44957000  0.84212800  1
  Ni  Ni18  1  0.03124600  0.94957000  0.84212800  1
  Ni  Ni19  1  0.53124600  0.55043000  0.15787200  1
  Ni  Ni20  1  0.98000100  0.94332600  0.30819700  1
  Ni  Ni21  1  0.48000100  0.55667400  0.69180300  1
  Ni  Ni22  1  0.01999900  0.05667400  0.69180300  1
  Ni  Ni23  1  0.51999900  0.44332600  0.30819700  1
  Ni  Ni24  1  0.82767700  0.00129400  0.37854900  1
  Ni  Ni25  1  0.32767700  0.49870600  0.62145100  1
  Ni  Ni26  1  0.17232300  0.99870600  0.62145100  1
  Ni  Ni27  1  0.67232300  0.50129400  0.37854900  1
  Ni  Ni28  1  0.59595800  0.04139100  0.31036300  1
  Ni  Ni29  1  0.09595800  0.45860900  0.68963700  1
  Ni  Ni30  1  0.40404200  0.95860900  0.68963700  1
  Ni  Ni31  1  0.90404200  0.54139100  0.31036300  1
  Ni  Ni32  1  0.55849800  0.01343400  0.18548300  1
  Ni  Ni33  1  0.05849800  0.48656600  0.81451700  1
  Ni  Ni34  1  0.44150200  0.98656600  0.81451700  1
  Ni  Ni35  1  0.94150200  0.51343400  0.18548300  1
  Ni  Ni36  1  0.73543700  0.08678700  0.09126800  1
  Ni  Ni37  1  0.23543700  0.41321300  0.90873200  1
  Ni  Ni38  1  0.26456300  0.91321300  0.90873200  1
  Ni  Ni39  1  0.76456300  0.58678700  0.09126800  1
  Cu  Cu40  1  0.90069300  0.28301800  0.07009400  1
  Cu  Cu41  1  0.40069300  0.21698200  0.92990600  1
  Cu  Cu42  1  0.09930700  0.71698200  0.92990600  1
  Cu  Cu43  1  0.59930700  0.78301800  0.07009400  1
  Cu  Cu44  1  0.09131900  0.15896600  0.28857600  1
  Cu  Cu45  1  0.59131900  0.34103400  0.71142400  1
  Cu  Cu46  1  0.90868100  0.84103400  0.71142400  1
  Cu  Cu47  1  0.40868100  0.65896600  0.28857600  1
  Cu  Cu48  1  0.74353800  0.22767100  0.32336300  1
  Cu  Cu49  1  0.24353800  0.27232900  0.67663700  1
  Cu  Cu50  1  0.25646200  0.77232900  0.67663700  1
  Cu  Cu51  1  0.75646200  0.72767100  0.32336300  1
  Cu  Cu52  1  0.52896500  0.25420400  0.12274800  1
  Cu  Cu53  1  0.02896500  0.24579600  0.87725100  1
  Cu  Cu54  1  0.47103500  0.74579600  0.87725100  1
  Cu  Cu55  1  0.97103500  0.75420400  0.12274800  1
  Cu  Cu56  1  0.08655500  0.05677400  0.09604100  1
  Cu  Cu57  1  0.58655500  0.44322600  0.90395900  1
  Cu  Cu58  1  0.91344500  0.94322600  0.90395900  1
  Cu  Cu59  1  0.41344500  0.55677400  0.09604100  1
  Cu  Cu60  1  0.84032900  0.96861300  0.47991500  1
  Cu  Cu61  1  0.34032900  0.53138700  0.52008500  1
  Cu  Cu62  1  0.15967100  0.03138700  0.52008500  1
  Cu  Cu63  1  0.65967100  0.46861300  0.47991500  1
  Cu  Cu64  1  0.48076000  0.03306900  0.37426500  1
  Cu  Cu65  1  0.98076000  0.46693100  0.62573500  1
  Cu  Cu66  1  0.51924000  0.96693100  0.62573500  1
  Cu  Cu67  1  0.01924000  0.53306900  0.37426500  1
  Cu  Cu68  1  0.42842700  0.97748300  0.16039100  1
  Cu  Cu69  1  0.92842700  0.52251700  0.83960900  1
  Cu  Cu70  1  0.57157300  0.02251700  0.83960900  1
  Cu  Cu71  1  0.07157300  0.47748300  0.16039100  1
  Cu  Cu72  1  0.72278100  0.10813900  0.99140000  1
  Cu  Cu73  1  0.22278100  0.39186100  0.00860000  1
  Cu  Cu74  1  0.27721900  0.89186100  0.00860000  1
  Cu  Cu75  1  0.77721900  0.60813900  0.99140000  1
  Cu  Cu76  1  0.92923400  0.92791400  0.21239200  1
  Cu  Cu77  1  0.42923400  0.57208600  0.78760800  1
  Cu  Cu78  1  0.07076600  0.07208600  0.78760800  1
  Cu  Cu79  1  0.57076600  0.42791400  0.21239200  1
  Cu  Cu80  1  0.82973300  0.89465700  0.36365200  1
  Cu  Cu81  1  0.32973300  0.60534300  0.63634800  1
  Cu  Cu82  1  0.17026700  0.10534300  0.63634800  1
  Cu  Cu83  1  0.67026700  0.39465700  0.36365200  1
  Cu  Cu84  1  0.58746200  0.93331500  0.29697900  1
  Cu  Cu85  1  0.08746200  0.56668500  0.70302100  1
  Cu  Cu86  1  0.41253800  0.06668500  0.70302100  1
  Cu  Cu87  1  0.91253800  0.43331500  0.29697900  1
  Cu  Cu88  1  0.68622500  0.96502500  0.14618000  1
  Cu  Cu89  1  0.18622500  0.53497500  0.85382000  1
  Cu  Cu90  1  0.31377500  0.03497500  0.85382000  1
  Cu  Cu91  1  0.81377500  0.46502500  0.14618000  1
  C  C92  1  0.15561600  0.81682200  0.38509200  1
  C  C93  1  0.65561600  0.68317800  0.61490800  1
  C  C94  1  0.84438400  0.18317800  0.61490800  1
  C  C95  1  0.34438400  0.31682200  0.38509200  1
