# generated using pymatgen
data_Cu7Ni6
_symmetry_space_group_name_H-M   'P 1'
_cell_length_a   9.27353886
_cell_length_b   9.27353886
_cell_length_c   9.27353792
_cell_angle_alpha   30.59235686
_cell_angle_beta   30.59235686
_cell_angle_gamma   30.59235218
_symmetry_Int_Tables_number   1
_chemical_formula_structural   Cu7Ni6
_chemical_formula_sum   'Cu7 Ni6'
_cell_volume   183.12954068
_cell_formula_units_Z   1
loop_
 _symmetry_equiv_pos_site_id
 _symmetry_equiv_pos_as_xyz
  1  'x, y, z'
loop_
 _atom_site_type_symbol
 _atom_site_label
 _atom_site_symmetry_multiplicity
 _atom_site_fract_x
 _atom_site_fract_y
 _atom_site_fract_z
 _atom_site_occupancy
  Ni  Ni0  1  0.83136100  0.83136100  0.83136100  1
  Ni  Ni1  1  0.16863900  0.16863900  0.16863900  1
  Ni  Ni2  1  0.65546400  0.65546400  0.65546400  1
  Ni  Ni3  1  0.34453600  0.34453600  0.34453600  1
  Ni  Ni4  1  0.54929700  0.54929700  0.54929700  1
  Ni  Ni5  1  0.45070300  0.45070300  0.45070300  1
  Cu  Cu6  1  0.00000000  0.00000000  0.00000000  1
  Cu  Cu7  1  0.40884700  0.90944400  0.90944400  1
  Cu  Cu8  1  0.90944400  0.90944400  0.40884700  1
  Cu  Cu9  1  0.90944400  0.40884700  0.90944400  1
  Cu  Cu10  1  0.59115300  0.09055600  0.09055600  1
  Cu  Cu11  1  0.09055600  0.09055600  0.59115300  1
  Cu  Cu12  1  0.09055600  0.59115300  0.09055600  1
