# generated using pymatgen
data_Cu2NiC6
_symmetry_space_group_name_H-M   'P 1'
_cell_length_a   5.25533900
_cell_length_b   5.38590600
_cell_length_c   7.62815200
_cell_angle_alpha   90.00000000
_cell_angle_beta   90.00000000
_cell_angle_gamma   90.00000000
_symmetry_Int_Tables_number   1
_chemical_formula_structural   Cu2NiC6
_chemical_formula_sum   'Cu4 Ni2 C12'
_cell_volume   215.91302573
_cell_formula_units_Z   2
loop_
 _symmetry_equiv_pos_site_id
 _symmetry_equiv_pos_as_xyz
  1  'x, y, z'
loop_
 _atom_site_type_symbol
 _atom_site_label
 _atom_site_symmetry_multiplicity
 _atom_site_fract_x
 _atom_site_fract_y
 _atom_site_fract_z
 _atom_site_occupancy
  Ni  Ni0  1  0.51119000  0.30688100  0.50000000  1
  Ni  Ni1  1  0.01119000  0.69311900  0.00000000  1
  Cu  Cu2  1  0.50154400  0.75281400  0.74965500  1
  Cu  Cu3  1  0.00154400  0.24718600  0.75034500  1
  Cu  Cu4  1  0.00154400  0.24718600  0.24965500  1
  Cu  Cu5  1  0.50154400  0.75281400  0.25034500  1
  C  C6  1  0.67366300  0.07171400  0.31495800  1
  C  C7  1  0.17366300  0.92828600  0.18504200  1
  C  C8  1  0.80770200  0.55111400  0.68903100  1
  C  C9  1  0.30770200  0.44888600  0.81096900  1
  C  C10  1  0.30770200  0.44888600  0.18903100  1
  C  C11  1  0.80770200  0.55111400  0.31096900  1
  C  C12  1  0.17366300  0.92828600  0.81495800  1
  C  C13  1  0.67366300  0.07171400  0.68504200  1
  C  C14  1  0.13458300  0.20851100  0.50000000  1
  C  C15  1  0.63458300  0.79148900  0.00000000  1
  C  C16  1  0.39864300  0.68476600  0.50000000  1
  C  C17  1  0.89864300  0.31523400  0.00000000  1
