# generated using pymatgen
data_Cu(NiC7)2
_symmetry_space_group_name_H-M   'P 1'
_cell_length_a   9.87805500
_cell_length_b   6.30354600
_cell_length_c   6.69661946
_cell_angle_alpha   76.47201534
_cell_angle_beta   90.00000000
_cell_angle_gamma   90.00000000
_symmetry_Int_Tables_number   1
_chemical_formula_structural   Cu(NiC7)2
_chemical_formula_sum   'Cu2 Ni4 C28'
_cell_volume   405.40819390
_cell_formula_units_Z   2
loop_
 _symmetry_equiv_pos_site_id
 _symmetry_equiv_pos_as_xyz
  1  'x, y, z'
loop_
 _atom_site_type_symbol
 _atom_site_label
 _atom_site_symmetry_multiplicity
 _atom_site_fract_x
 _atom_site_fract_y
 _atom_site_fract_z
 _atom_site_occupancy
  C  C0  1  0.61095900  0.41728800  0.16763800  1
  C  C1  1  0.11095900  0.58271200  0.33236200  1
  C  C2  1  0.38904100  0.58271200  0.83236200  1
  C  C3  1  0.88904100  0.41728800  0.66763800  1
  C  C4  1  0.83511900  0.87301100  0.02341500  1
  C  C5  1  0.33511900  0.12698900  0.47658500  1
  C  C6  1  0.16488100  0.12698900  0.97658500  1
  C  C7  1  0.66488100  0.87301100  0.52341500  1
  Ni  Ni8  1  0.39952600  0.66246800  0.37420900  1
  Ni  Ni9  1  0.89952600  0.33753200  0.12579100  1
  Ni  Ni10  1  0.60047400  0.33753200  0.62579100  1
  Ni  Ni11  1  0.10047400  0.66246800  0.87420900  1
  Cu  Cu12  1  0.50000000  0.00000000  0.00000000  1
  Cu  Cu13  1  0.00000000  0.00000000  0.50000000  1
  C  C14  1  0.83022600  0.52455200  0.05070800  1
  C  C15  1  0.33022600  0.47544800  0.44929200  1
  C  C16  1  0.16977400  0.47544800  0.94929200  1
  C  C17  1  0.66977400  0.52455200  0.55070800  1
  C  C18  1  0.65336000  0.99979100  0.18074500  1
  C  C19  1  0.15336000  0.00020900  0.31925500  1
  C  C20  1  0.34664000  0.00020900  0.81925500  1
  C  C21  1  0.84664000  0.99979100  0.68074500  1
  C  C22  1  0.43425100  0.70838900  0.16201700  1
  C  C23  1  0.93425100  0.29161100  0.33798300  1
  C  C24  1  0.56574900  0.29161100  0.83798300  1
  C  C25  1  0.06574900  0.70838900  0.66201700  1
  C  C26  1  0.93782900  0.19485200  0.00849300  1
  C  C27  1  0.43782900  0.80514800  0.49150700  1
  C  C28  1  0.06217100  0.80514800  0.99150700  1
  C  C29  1  0.56217100  0.19485200  0.50849300  1
  C  C30  1  0.38288000  0.16487300  0.13789300  1
  C  C31  1  0.88288000  0.83512700  0.36210700  1
  C  C32  1  0.61712000  0.83512700  0.86210700  1
  C  C33  1  0.11712000  0.16487300  0.63789300  1
