# generated using pymatgen
data_CuNi4C21
_symmetry_space_group_name_H-M   'P 1'
_cell_length_a   12.23851722
_cell_length_b   12.23851722
_cell_length_c   5.50183153
_cell_angle_alpha   77.06818351
_cell_angle_beta   77.06818351
_cell_angle_gamma   25.46827948
_symmetry_Int_Tables_number   1
_chemical_formula_structural   CuNi4C21
_chemical_formula_sum   'Cu1 Ni4 C21'
_cell_volume   344.90719678
_cell_formula_units_Z   1
loop_
 _symmetry_equiv_pos_site_id
 _symmetry_equiv_pos_as_xyz
  1  'x, y, z'
loop_
 _atom_site_type_symbol
 _atom_site_label
 _atom_site_symmetry_multiplicity
 _atom_site_fract_x
 _atom_site_fract_y
 _atom_site_fract_z
 _atom_site_occupancy
  Ni  Ni0  1  0.14825600  0.15238600  0.86407600  1
  Ni  Ni1  1  0.84761400  0.85174400  0.13592400  1
  Ni  Ni2  1  0.34632200  0.35101400  0.66568200  1
  Ni  Ni3  1  0.64898600  0.65367800  0.33431800  1
  Cu  Cu4  1  0.00002100  0.99997900  0.00000000  1
  C  C5  1  0.49996400  0.50003600  0.50000000  1
  C  C6  1  0.70435800  0.79559400  0.68160100  1
  C  C7  1  0.20440600  0.29564200  0.31839900  1
  C  C8  1  0.57338800  0.57313500  0.92638600  1
  C  C9  1  0.42686500  0.42661200  0.07361400  1
  C  C10  1  0.92673600  0.92656300  0.57264100  1
  C  C11  1  0.07343700  0.07326400  0.42735900  1
  C  C12  1  0.85216400  0.64874700  0.36505700  1
  C  C13  1  0.35125300  0.14783600  0.63494300  1
  C  C14  1  0.31661000  0.80910800  0.19130800  1
  C  C15  1  0.19089200  0.68339000  0.80869200  1
  C  C16  1  0.68214900  0.19203600  0.80727200  1
  C  C17  1  0.80796400  0.31785100  0.19272800  1
  C  C18  1  0.19216200  0.16028100  0.27966700  1
  C  C19  1  0.83971900  0.80783800  0.72033300  1
  C  C20  1  0.34035200  0.30717600  0.13332500  1
  C  C21  1  0.69282400  0.65964800  0.86667500  1
  C  C22  1  0.81168300  0.32214200  0.67736800  1
  C  C23  1  0.67785800  0.18831700  0.32263200  1
  C  C24  1  0.18810500  0.67809100  0.32226800  1
  C  C25  1  0.32190900  0.81189500  0.67773200  1
