# generated using pymatgen
data_Cu2Ni
_symmetry_space_group_name_H-M   'P 1'
_cell_length_a   5.58515200
_cell_length_b   6.21426800
_cell_length_c   6.87759285
_cell_angle_alpha   116.85771187
_cell_angle_beta   113.95629890
_cell_angle_gamma   90.00000000
_symmetry_Int_Tables_number   1
_chemical_formula_structural   Cu2Ni
_chemical_formula_sum   'Cu4 Ni2'
_cell_volume   189.62097896
_cell_formula_units_Z   2
loop_
 _symmetry_equiv_pos_site_id
 _symmetry_equiv_pos_as_xyz
  1  'x, y, z'
loop_
 _atom_site_type_symbol
 _atom_site_label
 _atom_site_symmetry_multiplicity
 _atom_site_fract_x
 _atom_site_fract_y
 _atom_site_fract_z
 _atom_site_occupancy
  Ni  Ni0  1  0.75000000  0.00000000  0.00000000  1
  Ni  Ni1  1  0.25000000  0.00000000  0.00000000  1
  Cu  Cu2  1  0.89454700  0.70894700  0.78909500  1
  Cu  Cu3  1  0.10545300  0.29105300  0.21090500  1
  Cu  Cu4  1  0.60545300  0.91985200  0.21090600  1
  Cu  Cu5  1  0.39454700  0.08014800  0.78909400  1
