# generated using pymatgen
data_Cu13NiC4
_symmetry_space_group_name_H-M   'P 1'
_cell_length_a   7.21999500
_cell_length_b   7.21999500
_cell_length_c   6.75411600
_cell_angle_alpha   90.00000000
_cell_angle_beta   90.00000000
_cell_angle_gamma   90.00000000
_symmetry_Int_Tables_number   1
_chemical_formula_structural   Cu13NiC4
_chemical_formula_sum   'Cu26 Ni2 C8'
_cell_volume   352.08077285
_cell_formula_units_Z   2
loop_
 _symmetry_equiv_pos_site_id
 _symmetry_equiv_pos_as_xyz
  1  'x, y, z'
loop_
 _atom_site_type_symbol
 _atom_site_label
 _atom_site_symmetry_multiplicity
 _atom_site_fract_x
 _atom_site_fract_y
 _atom_site_fract_z
 _atom_site_occupancy
  C  C0  1  0.68486700  0.17986800  0.50000000  1
  C  C1  1  0.31513300  0.82013200  0.50000000  1
  C  C2  1  0.18486700  0.32013200  0.00000000  1
  C  C3  1  0.81513300  0.67986800  0.00000000  1
  C  C4  1  0.82013200  0.68486700  0.50000000  1
  C  C5  1  0.17986800  0.31513300  0.50000000  1
  C  C6  1  0.67986800  0.18486700  0.00000000  1
  C  C7  1  0.32013200  0.81513300  0.00000000  1
  Ni  Ni8  1  0.50000000  0.50000000  0.50000000  1
  Ni  Ni9  1  0.00000000  0.00000000  0.00000000  1
  Cu  Cu10  1  0.50000000  0.50000000  0.00000000  1
  Cu  Cu11  1  0.00000000  0.00000000  0.50000000  1
  Cu  Cu12  1  0.90916200  0.40916200  0.25000000  1
  Cu  Cu13  1  0.09083800  0.59083800  0.25000000  1
  Cu  Cu14  1  0.40916200  0.09083800  0.75000000  1
  Cu  Cu15  1  0.59083800  0.90916200  0.75000000  1
  Cu  Cu16  1  0.59083800  0.90916200  0.25000000  1
  Cu  Cu17  1  0.40916200  0.09083800  0.25000000  1
  Cu  Cu18  1  0.90916200  0.40916200  0.75000000  1
  Cu  Cu19  1  0.09083800  0.59083800  0.75000000  1
  Cu  Cu20  1  0.53955900  0.67145900  0.24341000  1
  Cu  Cu21  1  0.46044100  0.32854100  0.24341000  1
  Cu  Cu22  1  0.03955900  0.82854100  0.74341000  1
  Cu  Cu23  1  0.96044100  0.17145900  0.74341000  1
  Cu  Cu24  1  0.32854100  0.53955900  0.24341000  1
  Cu  Cu25  1  0.67145900  0.46044100  0.24341000  1
  Cu  Cu26  1  0.17145900  0.03955900  0.74341000  1
  Cu  Cu27  1  0.82854100  0.96044100  0.74341000  1
  Cu  Cu28  1  0.46044100  0.32854100  0.75659000  1
  Cu  Cu29  1  0.53955900  0.67145900  0.75659000  1
  Cu  Cu30  1  0.96044100  0.17145900  0.25659000  1
  Cu  Cu31  1  0.03955900  0.82854100  0.25659000  1
  Cu  Cu32  1  0.67145900  0.46044100  0.75659000  1
  Cu  Cu33  1  0.32854100  0.53955900  0.75659000  1
  Cu  Cu34  1  0.82854100  0.96044100  0.25659000  1
  Cu  Cu35  1  0.17145900  0.03955900  0.25659000  1
