# generated using pymatgen
data_Cu20Ni5C3
_symmetry_space_group_name_H-M   'P 1'
_cell_length_a   8.81438284
_cell_length_b   11.82741014
_cell_length_c   12.56976600
_cell_angle_alpha   90.00000000
_cell_angle_beta   90.00000000
_cell_angle_gamma   105.01920490
_symmetry_Int_Tables_number   1
_chemical_formula_structural   Cu20Ni5C3
_chemical_formula_sum   'Cu80 Ni20 C12'
_cell_volume   1265.64965787
_cell_formula_units_Z   4
loop_
 _symmetry_equiv_pos_site_id
 _symmetry_equiv_pos_as_xyz
  1  'x, y, z'
loop_
 _atom_site_type_symbol
 _atom_site_label
 _atom_site_symmetry_multiplicity
 _atom_site_fract_x
 _atom_site_fract_y
 _atom_site_fract_z
 _atom_site_occupancy
  C  C0  1  0.42136900  0.65639400  0.04651600  1
  C  C1  1  0.57863100  0.34360600  0.54651600  1
  C  C2  1  0.57863100  0.34360600  0.95348400  1
  C  C3  1  0.42136900  0.65639400  0.45348400  1
  C  C4  1  0.17878600  0.31082700  0.25000000  1
  C  C5  1  0.82121400  0.68917300  0.75000000  1
  C  C6  1  0.00000000  0.00000000  0.00000000  1
  C  C7  1  0.00000000  0.00000000  0.50000000  1
  C  C8  1  0.13119800  0.37261100  0.75000000  1
  C  C9  1  0.86880200  0.62738900  0.25000000  1
  C  C10  1  0.44037900  0.91327100  0.75000000  1
  C  C11  1  0.55962100  0.08672900  0.25000000  1
  Ni  Ni12  1  0.43845000  0.52202800  0.75000000  1
  Ni  Ni13  1  0.56155000  0.47797200  0.25000000  1
  Ni  Ni14  1  0.87900100  0.43190400  0.75000000  1
  Ni  Ni15  1  0.12099900  0.56809600  0.25000000  1
  Ni  Ni16  1  0.04466100  0.15143900  0.75000000  1
  Ni  Ni17  1  0.95533900  0.84856100  0.25000000  1
  Ni  Ni18  1  0.49752000  0.13392800  0.75000000  1
  Ni  Ni19  1  0.50248000  0.86607200  0.25000000  1
  Ni  Ni20  1  0.20453600  0.40637700  0.98003700  1
  Ni  Ni21  1  0.79546400  0.59362300  0.48003700  1
  Ni  Ni22  1  0.79546400  0.59362300  0.01996300  1
  Ni  Ni23  1  0.20453600  0.40637700  0.51996300  1
  Ni  Ni24  1  0.66512000  0.87143700  0.60691700  1
  Ni  Ni25  1  0.33488000  0.12856300  0.10691700  1
  Ni  Ni26  1  0.33488000  0.12856300  0.39308300  1
  Ni  Ni27  1  0.66512000  0.87143700  0.89308300  1
  Ni  Ni28  1  0.21763400  0.83083500  0.60085400  1
  Ni  Ni29  1  0.78236600  0.16916500  0.10085400  1
  Ni  Ni30  1  0.78236600  0.16916500  0.39914600  1
  Ni  Ni31  1  0.21763400  0.83083500  0.89914600  1
  Cu  Cu32  1  0.31583400  0.55494400  0.75000000  1
  Cu  Cu33  1  0.68416600  0.44505600  0.25000000  1
  Cu  Cu34  1  0.40405900  0.41194100  0.75000000  1
  Cu  Cu35  1  0.59594100  0.58805900  0.25000000  1
  Cu  Cu36  1  0.51199900  0.55658700  0.66935000  1
  Cu  Cu37  1  0.48800100  0.44341300  0.16935000  1
  Cu  Cu38  1  0.48800100  0.44341300  0.33065000  1
  Cu  Cu39  1  0.51199900  0.55658700  0.83065000  1
  Cu  Cu40  1  0.75496100  0.45667300  0.75000000  1
  Cu  Cu41  1  0.24503900  0.54332700  0.25000000  1
  Cu  Cu42  1  0.85746300  0.32467100  0.75000000  1
  Cu  Cu43  1  0.14253700  0.67532900  0.25000000  1
  Cu  Cu44  1  0.95894300  0.47114800  0.67057600  1
  Cu  Cu45  1  0.04105700  0.52885200  0.17057600  1
  Cu  Cu46  1  0.04105700  0.52885200  0.32942400  1
  Cu  Cu47  1  0.95894300  0.47114800  0.82942400  1
  Cu  Cu48  1  0.99048100  0.04696600  0.75000000  1
  Cu  Cu49  1  0.00951900  0.95303400  0.25000000  1
  Cu  Cu50  1  0.19007600  0.18339000  0.75000000  1
  Cu  Cu51  1  0.80992400  0.81661000  0.25000000  1
  Cu  Cu52  1  0.99974000  0.19744800  0.67137400  1
  Cu  Cu53  1  0.00026000  0.80255200  0.17137400  1
  Cu  Cu54  1  0.00026000  0.80255200  0.32862600  1
  Cu  Cu55  1  0.99974000  0.19744800  0.82862600  1
  Cu  Cu56  1  0.62155900  0.10437800  0.75000000  1
  Cu  Cu57  1  0.37844100  0.89562200  0.25000000  1
  Cu  Cu58  1  0.51665600  0.23925800  0.75000000  1
  Cu  Cu59  1  0.48334400  0.76074200  0.25000000  1
  Cu  Cu60  1  0.42179900  0.08915400  0.67077300  1
  Cu  Cu61  1  0.57820100  0.91084600  0.17077300  1
  Cu  Cu62  1  0.57820100  0.91084600  0.32922700  1
  Cu  Cu63  1  0.42179900  0.08915400  0.82922700  1
  Cu  Cu64  1  0.15829000  0.49398000  0.99445000  1
  Cu  Cu65  1  0.84171000  0.50602000  0.49445000  1
  Cu  Cu66  1  0.84171000  0.50602000  0.00555000  1
  Cu  Cu67  1  0.15829000  0.49398000  0.50555000  1
  Cu  Cu68  1  0.09796400  0.31744500  0.98630100  1
  Cu  Cu69  1  0.90203600  0.68255500  0.48630100  1
  Cu  Cu70  1  0.90203600  0.68255500  0.01369900  1
  Cu  Cu71  1  0.09796400  0.31744500  0.51369900  1
  Cu  Cu72  1  0.27217100  0.41495300  0.89354300  1
  Cu  Cu73  1  0.72782900  0.58504700  0.39354300  1
  Cu  Cu74  1  0.72782900  0.58504700  0.10645700  1
  Cu  Cu75  1  0.27217100  0.41495300  0.60645700  1
  Cu  Cu76  1  0.31201300  0.40249800  0.04117200  1
  Cu  Cu77  1  0.68798700  0.59750200  0.54117200  1
  Cu  Cu78  1  0.68798700  0.59750200  0.95882800  1
  Cu  Cu79  1  0.31201300  0.40249800  0.45882800  1
  Cu  Cu80  1  0.79771900  0.87902700  0.63935800  1
  Cu  Cu81  1  0.20228100  0.12097300  0.13935800  1
  Cu  Cu82  1  0.20228100  0.12097300  0.36064200  1
  Cu  Cu83  1  0.79771900  0.87902700  0.86064200  1
  Cu  Cu84  1  0.63497600  0.96638600  0.62304300  1
  Cu  Cu85  1  0.36502400  0.03361400  0.12304300  1
  Cu  Cu86  1  0.36502400  0.03361400  0.37695700  1
  Cu  Cu87  1  0.63497600  0.96638600  0.87695700  1
  Cu  Cu88  1  0.65193400  0.85116100  0.51205400  1
  Cu  Cu89  1  0.34806600  0.14883900  0.01205400  1
  Cu  Cu90  1  0.34806600  0.14883900  0.48794600  1
  Cu  Cu91  1  0.65193400  0.85116100  0.98794600  1
  Cu  Cu92  1  0.57354800  0.79126400  0.65676400  1
  Cu  Cu93  1  0.42645200  0.20873600  0.15676400  1
  Cu  Cu94  1  0.42645200  0.20873600  0.34323600  1
  Cu  Cu95  1  0.57354800  0.79126400  0.84323600  1
  Cu  Cu96  1  0.16868300  0.83156000  0.51081900  1
  Cu  Cu97  1  0.83131700  0.16844000  0.01081900  1
  Cu  Cu98  1  0.83131700  0.16844000  0.48918100  1
  Cu  Cu99  1  0.16868300  0.83156000  0.98918100  1
  Cu  Cu100  1  0.22399200  0.92620300  0.64505200  1
  Cu  Cu101  1  0.77600800  0.07379700  0.14505200  1
  Cu  Cu102  1  0.77600800  0.07379700  0.35494800  1
  Cu  Cu103  1  0.22399200  0.92620300  0.85494800  1
  Cu  Cu104  1  0.14118500  0.75054100  0.65460200  1
  Cu  Cu105  1  0.85881500  0.24945900  0.15460200  1
  Cu  Cu106  1  0.85881500  0.24945900  0.34539800  1
  Cu  Cu107  1  0.14118500  0.75054100  0.84539800  1
  Cu  Cu108  1  0.35359500  0.82113000  0.59368000  1
  Cu  Cu109  1  0.64640500  0.17887000  0.09368000  1
  Cu  Cu110  1  0.64640500  0.17887000  0.40632000  1
  Cu  Cu111  1  0.35359500  0.82113000  0.90632000  1
