# generated using pymatgen
data_Cu6Ni4C15
_symmetry_space_group_name_H-M   'P 1'
_cell_length_a   20.73249100
_cell_length_b   9.84267100
_cell_length_c   10.54402364
_cell_angle_alpha   79.37372503
_cell_angle_beta   90.00000000
_cell_angle_gamma   90.00000000
_symmetry_Int_Tables_number   1
_chemical_formula_structural   Cu6Ni4C15
_chemical_formula_sum   'Cu24 Ni16 C60'
_cell_volume   2114.74720496
_cell_formula_units_Z   4
loop_
 _symmetry_equiv_pos_site_id
 _symmetry_equiv_pos_as_xyz
  1  'x, y, z'
loop_
 _atom_site_type_symbol
 _atom_site_label
 _atom_site_symmetry_multiplicity
 _atom_site_fract_x
 _atom_site_fract_y
 _atom_site_fract_z
 _atom_site_occupancy
  C  C0  1  0.34543200  0.85105700  0.14534800  1
  C  C1  1  0.84543200  0.14894300  0.35465200  1
  C  C2  1  0.65456800  0.14894300  0.85465200  1
  C  C3  1  0.15456800  0.85105700  0.64534800  1
  C  C4  1  0.49782700  0.36733900  0.62835000  1
  C  C5  1  0.99782700  0.63266100  0.87165000  1
  C  C6  1  0.50217300  0.63266100  0.37165000  1
  C  C7  1  0.00217300  0.36733900  0.12835000  1
  C  C8  1  0.55929300  0.37893500  0.50757300  1
  C  C9  1  0.05929300  0.62106500  0.99242700  1
  C  C10  1  0.44070700  0.62106500  0.49242700  1
  C  C11  1  0.94070700  0.37893500  0.00757300  1
  C  C12  1  0.47750200  0.34158500  0.46934800  1
  C  C13  1  0.97750200  0.65841500  0.03065200  1
  C  C14  1  0.52249800  0.65841500  0.53065200  1
  C  C15  1  0.02249800  0.34158500  0.96934800  1
  C  C16  1  0.42514700  0.44124100  0.55336100  1
  C  C17  1  0.92514700  0.55875900  0.94663900  1
  C  C18  1  0.57485300  0.55875900  0.44663900  1
  C  C19  1  0.07485300  0.44124100  0.05336100  1
  C  C20  1  0.47485400  0.53917700  0.64311300  1
  C  C21  1  0.97485400  0.46082300  0.85688700  1
  C  C22  1  0.52514600  0.46082300  0.35688700  1
  C  C23  1  0.02514600  0.53917700  0.14311300  1
  C  C24  1  0.55756600  0.50100700  0.61442100  1
  C  C25  1  0.05756600  0.49899300  0.88557900  1
  C  C26  1  0.44243400  0.49899300  0.38557900  1
  C  C27  1  0.94243400  0.50100700  0.11442100  1
  Ni  Ni28  1  0.22708400  0.11888000  0.88616800  1
  Ni  Ni29  1  0.72708400  0.88112000  0.61383200  1
  Ni  Ni30  1  0.77291600  0.88112000  0.11383200  1
  Ni  Ni31  1  0.27291600  0.11888000  0.38616800  1
  Ni  Ni32  1  0.22065500  0.59534600  0.38007500  1
  Ni  Ni33  1  0.72065500  0.40465400  0.11992500  1
  Ni  Ni34  1  0.77934500  0.40465400  0.61992500  1
  Ni  Ni35  1  0.27934500  0.59534600  0.88007500  1
  Ni  Ni36  1  0.41320300  0.24985800  0.05042400  1
  Ni  Ni37  1  0.91320300  0.75014200  0.44957600  1
  Ni  Ni38  1  0.58679700  0.75014200  0.94957600  1
  Ni  Ni39  1  0.08679700  0.24985800  0.55042400  1
  Ni  Ni40  1  0.40137000  0.94186700  0.75695200  1
  Ni  Ni41  1  0.90137000  0.05813300  0.74304800  1
  Ni  Ni42  1  0.59863000  0.05813300  0.24304800  1
  Ni  Ni43  1  0.09863000  0.94186700  0.25695200  1
  Cu  Cu44  1  0.49779400  0.22692300  0.76556400  1
  Cu  Cu45  1  0.99779400  0.77307700  0.73443600  1
  Cu  Cu46  1  0.50220600  0.77307700  0.23443600  1
  Cu  Cu47  1  0.00220600  0.22692300  0.26556400  1
  Cu  Cu48  1  0.62205700  0.25109700  0.51785200  1
  Cu  Cu49  1  0.12205700  0.74890300  0.98214800  1
  Cu  Cu50  1  0.37794300  0.74890300  0.48214800  1
  Cu  Cu51  1  0.87794300  0.25109700  0.01785200  1
  Cu  Cu52  1  0.45425600  0.17645000  0.43623200  1
  Cu  Cu53  1  0.95425600  0.82355000  0.06376800  1
  Cu  Cu54  1  0.54574400  0.82355000  0.56376800  1
  Cu  Cu55  1  0.04574400  0.17645000  0.93623200  1
  Cu  Cu56  1  0.34621900  0.38238200  0.60769500  1
  Cu  Cu57  1  0.84621900  0.61761800  0.89230500  1
  Cu  Cu58  1  0.65378100  0.61761800  0.39230500  1
  Cu  Cu59  1  0.15378100  0.38238200  0.10769500  1
  Cu  Cu60  1  0.44908200  0.57872200  0.79484500  1
  Cu  Cu61  1  0.94908200  0.42127800  0.70515500  1
  Cu  Cu62  1  0.55091800  0.42127800  0.20515500  1
  Cu  Cu63  1  0.05091800  0.57872200  0.29484500  1
  Cu  Cu64  1  0.61834800  0.50051100  0.73625700  1
  Cu  Cu65  1  0.11834800  0.49948900  0.76374300  1
  Cu  Cu66  1  0.38165200  0.49948900  0.26374300  1
  Cu  Cu67  1  0.88165200  0.50051100  0.23625700  1
  C  C68  1  0.25454700  0.00835600  0.98069900  1
  C  C69  1  0.75454700  0.99164400  0.51930100  1
  C  C70  1  0.74545300  0.99164400  0.01930100  1
  C  C71  1  0.24545300  0.00835600  0.48069900  1
  C  C72  1  0.19180900  0.07871800  0.78030500  1
  C  C73  1  0.69180900  0.92128200  0.71969500  1
  C  C74  1  0.80819100  0.92128200  0.21969500  1
  C  C75  1  0.30819100  0.07871800  0.28030500  1
  C  C76  1  0.23490200  0.70652300  0.27247300  1
  C  C77  1  0.73490200  0.29347700  0.22752700  1
  C  C78  1  0.76509800  0.29347700  0.72752700  1
  C  C79  1  0.26509800  0.70652300  0.77247300  1
  C  C80  1  0.19619700  0.63553700  0.49645600  1
  C  C81  1  0.69619700  0.36446300  0.00354400  1
  C  C82  1  0.80380300  0.36446300  0.50354400  1
  C  C83  1  0.30380300  0.63553700  0.99645600  1
  C  C84  1  0.42536300  0.10296200  0.09252900  1
  C  C85  1  0.92536300  0.89703800  0.40747100  1
  C  C86  1  0.57463700  0.89703800  0.90747100  1
  C  C87  1  0.07463700  0.10296200  0.59252900  1
  C  C88  1  0.35067700  0.28845500  0.99347100  1
  C  C89  1  0.85067700  0.71154500  0.50652900  1
  C  C90  1  0.64932300  0.71154500  0.00652900  1
  C  C91  1  0.14932300  0.28845500  0.49347100  1
  C  C92  1  0.40559300  0.89300000  0.89557900  1
  C  C93  1  0.90559300  0.10700000  0.60442100  1
  C  C94  1  0.59440700  0.10700000  0.10442100  1
  C  C95  1  0.09440700  0.89300000  0.39557900  1
  C  C96  1  0.34388100  0.01884800  0.71000400  1
  C  C97  1  0.84388100  0.98115200  0.78999600  1
  C  C98  1  0.65611900  0.98115200  0.28999600  1
  C  C99  1  0.15611900  0.01884800  0.21000400  1
