# generated using pymatgen
data_Cu(NiC2)2
_symmetry_space_group_name_H-M   'P 1'
_cell_length_a   8.09005700
_cell_length_b   5.55075300
_cell_length_c   9.04815730
_cell_angle_alpha   58.69641784
_cell_angle_beta   90.00000000
_cell_angle_gamma   90.00000000
_symmetry_Int_Tables_number   1
_chemical_formula_structural   Cu(NiC2)2
_chemical_formula_sum   'Cu4 Ni8 C16'
_cell_volume   347.16685751
_cell_formula_units_Z   4
loop_
 _symmetry_equiv_pos_site_id
 _symmetry_equiv_pos_as_xyz
  1  'x, y, z'
loop_
 _atom_site_type_symbol
 _atom_site_label
 _atom_site_symmetry_multiplicity
 _atom_site_fract_x
 _atom_site_fract_y
 _atom_site_fract_z
 _atom_site_occupancy
  Ni  Ni0  1  0.88121400  0.24323800  0.90245100  1
  Ni  Ni1  1  0.61878600  0.24323800  0.40245100  1
  Ni  Ni2  1  0.11878600  0.75676200  0.09754900  1
  Ni  Ni3  1  0.38121400  0.75676200  0.59754900  1
  Ni  Ni4  1  0.49168800  0.85941300  0.19063500  1
  Ni  Ni5  1  0.00831200  0.85941300  0.69063500  1
  Ni  Ni6  1  0.50831200  0.14058700  0.80936500  1
  Ni  Ni7  1  0.99168800  0.14058700  0.30936500  1
  Cu  Cu8  1  0.23810800  0.36498900  0.95969600  1
  Cu  Cu9  1  0.26189200  0.36498900  0.45969600  1
  Cu  Cu10  1  0.76189200  0.63501100  0.04030400  1
  Cu  Cu11  1  0.73810800  0.63501100  0.54030400  1
  C  C12  1  0.42724700  0.23430500  0.99522800  1
  C  C13  1  0.07275300  0.23430500  0.49522800  1
  C  C14  1  0.57275300  0.76569500  0.00477200  1
  C  C15  1  0.92724700  0.76569500  0.50477200  1
  C  C16  1  0.23490000  0.69317300  0.79119100  1
  C  C17  1  0.26510000  0.69317300  0.29119100  1
  C  C18  1  0.76510000  0.30682700  0.20880900  1
  C  C19  1  0.73490000  0.30682700  0.70880900  1
  C  C20  1  0.12457500  0.16395200  0.91526700  1
  C  C21  1  0.37542500  0.16395200  0.41526700  1
  C  C22  1  0.87542500  0.83604800  0.08473300  1
  C  C23  1  0.62457500  0.83604800  0.58473300  1
  C  C24  1  0.14732700  0.37984900  0.11929000  1
  C  C25  1  0.35267300  0.37984900  0.61929000  1
  C  C26  1  0.85267300  0.62015100  0.88071000  1
  C  C27  1  0.64732700  0.62015100  0.38071000  1
