# generated using pymatgen
data_Cu(NiC)2
_symmetry_space_group_name_H-M   'P 1'
_cell_length_a   4.07036800
_cell_length_b   7.10226352
_cell_length_c   7.10226352
_cell_angle_alpha   70.73725508
_cell_angle_beta   73.34822228
_cell_angle_gamma   73.34822228
_symmetry_Int_Tables_number   1
_chemical_formula_structural   Cu(NiC)2
_chemical_formula_sum   'Cu1 Ni2 C2'
_cell_volume   181.46187038
_cell_formula_units_Z   1
loop_
 _symmetry_equiv_pos_site_id
 _symmetry_equiv_pos_as_xyz
  1  'x, y, z'
loop_
 _atom_site_type_symbol
 _atom_site_label
 _atom_site_symmetry_multiplicity
 _atom_site_fract_x
 _atom_site_fract_y
 _atom_site_fract_z
 _atom_site_occupancy
  C  C0  1  0.80106500  0.69893500  0.69893500  1
  C  C1  1  0.19893500  0.30106500  0.30106500  1
  Ni  Ni2  1  0.50000000  0.21099400  0.78900600  1
  Ni  Ni3  1  0.50000000  0.78900600  0.21099400  1
  Cu  Cu4  1  0.00000000  0.00000000  0.00000000  1
