# generated using pymatgen
data_CuNi6C
_symmetry_space_group_name_H-M   'P 1'
_cell_length_a   4.86088100
_cell_length_b   6.27387800
_cell_length_c   10.81716400
_cell_angle_alpha   90.00000000
_cell_angle_beta   90.00000000
_cell_angle_gamma   90.00000000
_symmetry_Int_Tables_number   1
_chemical_formula_structural   CuNi6C
_chemical_formula_sum   'Cu2 Ni12 C2'
_cell_volume   329.88644636
_cell_formula_units_Z   2
loop_
 _symmetry_equiv_pos_site_id
 _symmetry_equiv_pos_as_xyz
  1  'x, y, z'
loop_
 _atom_site_type_symbol
 _atom_site_label
 _atom_site_symmetry_multiplicity
 _atom_site_fract_x
 _atom_site_fract_y
 _atom_site_fract_z
 _atom_site_occupancy
  Ni  Ni0  1  0.00000000  0.25755000  0.08596600  1
  Ni  Ni1  1  0.00000000  0.74245000  0.08596600  1
  Ni  Ni2  1  0.00000000  0.50000000  0.83336500  1
  Ni  Ni3  1  0.50000000  0.24614700  0.91789700  1
  Ni  Ni4  1  0.50000000  0.75385300  0.91789700  1
  Ni  Ni5  1  0.50000000  0.50000000  0.66606500  1
  Ni  Ni6  1  0.00000000  0.75755000  0.58596600  1
  Ni  Ni7  1  0.00000000  0.24245000  0.58596600  1
  Ni  Ni8  1  0.00000000  0.00000000  0.33336500  1
  Ni  Ni9  1  0.50000000  0.74614700  0.41789700  1
  Ni  Ni10  1  0.50000000  0.25385300  0.41789700  1
  Ni  Ni11  1  0.50000000  0.00000000  0.16606500  1
  Cu  Cu12  1  0.50000000  0.50000000  0.17478500  1
  Cu  Cu13  1  0.50000000  0.00000000  0.67478500  1
  C  C14  1  0.00000000  0.50000000  0.31806000  1
  C  C15  1  0.00000000  0.00000000  0.81806000  1
