# generated using pymatgen
data_CuNiC8
_symmetry_space_group_name_H-M   'P 1'
_cell_length_a   6.44892300
_cell_length_b   6.44869638
_cell_length_c   6.44868778
_cell_angle_alpha   59.99004825
_cell_angle_beta   59.99201497
_cell_angle_gamma   59.99205093
_symmetry_Int_Tables_number   1
_chemical_formula_structural   CuNiC8
_chemical_formula_sum   'Cu1 Ni1 C8'
_cell_volume   189.59657968
_cell_formula_units_Z   1
loop_
 _symmetry_equiv_pos_site_id
 _symmetry_equiv_pos_as_xyz
  1  'x, y, z'
loop_
 _atom_site_type_symbol
 _atom_site_label
 _atom_site_symmetry_multiplicity
 _atom_site_fract_x
 _atom_site_fract_y
 _atom_site_fract_z
 _atom_site_occupancy
  C  C0  1  0.25000850  0.25000203  0.25000203  1
  C  C1  1  0.74999150  0.74999796  0.74999798  1
  Ni  Ni2  1  0.50000000  0.50000000  0.50000000  1
  Cu  Cu3  1  1.00000000  0.00000000  0.00000000  1
  C  C4  1  0.25018342  0.74979873  0.25019615  1
  C  C5  1  0.74981660  0.74980377  0.25020124  1
  C  C6  1  0.74981658  0.25020127  0.74980385  1
  C  C7  1  0.74981705  0.25018669  0.25018659  1
  C  C8  1  0.25018296  0.74981331  0.74981341  1
  C  C9  1  0.25018340  0.25019623  0.74979876  1
