# generated using pymatgen
data_Cu(Ni3C4)2
_symmetry_space_group_name_H-M   'P 1'
_cell_length_a   10.21057100
_cell_length_b   10.21951500
_cell_length_c   12.08624000
_cell_angle_alpha   90.00000000
_cell_angle_beta   90.00000000
_cell_angle_gamma   90.00000000
_symmetry_Int_Tables_number   1
_chemical_formula_structural   Cu(Ni3C4)2
_chemical_formula_sum   'Cu8 Ni48 C64'
_cell_volume   1261.16389440
_cell_formula_units_Z   8
loop_
 _symmetry_equiv_pos_site_id
 _symmetry_equiv_pos_as_xyz
  1  'x, y, z'
loop_
 _atom_site_type_symbol
 _atom_site_label
 _atom_site_symmetry_multiplicity
 _atom_site_fract_x
 _atom_site_fract_y
 _atom_site_fract_z
 _atom_site_occupancy
  C  C0  1  0.58871800  0.80188300  0.27426600  1
  C  C1  1  0.08871800  0.69811700  0.72573400  1
  C  C2  1  0.41128200  0.30188300  0.22573400  1
  C  C3  1  0.91128200  0.19811700  0.77426600  1
  C  C4  1  0.41128200  0.19811700  0.72573400  1
  C  C5  1  0.91128200  0.30188300  0.27426600  1
  C  C6  1  0.58871800  0.69811700  0.77426600  1
  C  C7  1  0.08871800  0.80188300  0.22573400  1
  Ni  Ni8  1  0.38450200  0.80568900  0.11046500  1
  Ni  Ni9  1  0.88450200  0.69431100  0.88953500  1
  Ni  Ni10  1  0.61549800  0.30568900  0.38953500  1
  Ni  Ni11  1  0.11549800  0.19431100  0.61046500  1
  Ni  Ni12  1  0.61549800  0.19431100  0.88953500  1
  Ni  Ni13  1  0.11549800  0.30568900  0.11046500  1
  Ni  Ni14  1  0.38450200  0.69431100  0.61046500  1
  Ni  Ni15  1  0.88450200  0.80568900  0.38953500  1
  Ni  Ni16  1  0.49786500  0.89480700  0.06600200  1
  Ni  Ni17  1  0.99786500  0.60519300  0.93399800  1
  Ni  Ni18  1  0.50213500  0.39480700  0.43399800  1
  Ni  Ni19  1  0.00213500  0.10519300  0.56600200  1
  Ni  Ni20  1  0.50213500  0.10519300  0.93399800  1
  Ni  Ni21  1  0.00213500  0.39480700  0.06600200  1
  Ni  Ni22  1  0.49786500  0.60519300  0.56600200  1
  Ni  Ni23  1  0.99786500  0.89480700  0.43399800  1
  Ni  Ni24  1  0.36071100  0.66184100  0.32806300  1
  Ni  Ni25  1  0.86071100  0.83815900  0.67193700  1
  Ni  Ni26  1  0.63928900  0.16184100  0.17193700  1
  Ni  Ni27  1  0.13928900  0.33815900  0.82806300  1
  Ni  Ni28  1  0.63928900  0.33815900  0.67193700  1
  Ni  Ni29  1  0.13928900  0.16184100  0.32806300  1
  Ni  Ni30  1  0.36071100  0.83815900  0.82806300  1
  Ni  Ni31  1  0.86071100  0.66184100  0.17193700  1
  Ni  Ni32  1  0.47467600  0.57847300  0.27673900  1
  Ni  Ni33  1  0.97467600  0.92152700  0.72326100  1
  Ni  Ni34  1  0.52532400  0.07847300  0.22326100  1
  Ni  Ni35  1  0.02532400  0.42152700  0.77673900  1
  Ni  Ni36  1  0.52532400  0.42152700  0.72326100  1
  Ni  Ni37  1  0.02532400  0.07847300  0.27673900  1
  Ni  Ni38  1  0.47467600  0.92152700  0.77673900  1
  Ni  Ni39  1  0.97467600  0.57847300  0.22326100  1
  Ni  Ni40  1  0.72705300  0.69210400  0.46936000  1
  Ni  Ni41  1  0.22705300  0.80789600  0.53064000  1
  Ni  Ni42  1  0.27294700  0.19210400  0.03064000  1
  Ni  Ni43  1  0.77294700  0.30789600  0.96936000  1
  Ni  Ni44  1  0.27294700  0.30789600  0.53064000  1
  Ni  Ni45  1  0.77294700  0.19210400  0.46936000  1
  Ni  Ni46  1  0.72705300  0.80789600  0.96936000  1
  Ni  Ni47  1  0.22705300  0.69210400  0.03064000  1
  Ni  Ni48  1  0.70537400  0.84811800  0.47777100  1
  Ni  Ni49  1  0.20537400  0.65188200  0.52222900  1
  Ni  Ni50  1  0.29462600  0.34811800  0.02222900  1
  Ni  Ni51  1  0.79462600  0.15188200  0.97777100  1
  Ni  Ni52  1  0.29462600  0.15188200  0.52222900  1
  Ni  Ni53  1  0.79462600  0.34811800  0.47777100  1
  Ni  Ni54  1  0.70537400  0.65188200  0.97777100  1
  Ni  Ni55  1  0.20537400  0.84811800  0.02222900  1
  Cu  Cu56  1  0.66846000  0.50039000  0.15002100  1
  Cu  Cu57  1  0.16846000  0.99961000  0.84997900  1
  Cu  Cu58  1  0.33154000  0.00039000  0.34997900  1
  Cu  Cu59  1  0.83154000  0.49961000  0.65002100  1
  Cu  Cu60  1  0.33154000  0.49961000  0.84997900  1
  Cu  Cu61  1  0.83154000  0.00039000  0.15002100  1
  Cu  Cu62  1  0.66846000  0.99961000  0.65002100  1
  Cu  Cu63  1  0.16846000  0.50039000  0.34997900  1
  C  C64  1  0.52493200  0.47368600  0.16642200  1
  C  C65  1  0.02493200  0.02631400  0.83357800  1
  C  C66  1  0.47506800  0.97368600  0.33357800  1
  C  C67  1  0.97506800  0.52631400  0.66642200  1
  C  C68  1  0.47506800  0.52631400  0.83357800  1
  C  C69  1  0.97506800  0.97368600  0.16642200  1
  C  C70  1  0.52493200  0.02631400  0.66642200  1
  C  C71  1  0.02493200  0.47368600  0.33357800  1
  C  C72  1  0.74516500  0.41167900  0.22224900  1
  C  C73  1  0.24516500  0.08832100  0.77775100  1
  C  C74  1  0.25483500  0.91167900  0.27775100  1
  C  C75  1  0.75483500  0.58832100  0.72224900  1
  C  C76  1  0.25483500  0.58832100  0.77775100  1
  C  C77  1  0.75483500  0.91167900  0.22224900  1
  C  C78  1  0.74516500  0.08832100  0.72224900  1
  C  C79  1  0.24516500  0.41167900  0.27775100  1
  C  C80  1  0.70734600  0.48449200  0.03262100  1
  C  C81  1  0.20734600  0.01550800  0.96737900  1
  C  C82  1  0.29265400  0.98449200  0.46737900  1
  C  C83  1  0.79265400  0.51550800  0.53262100  1
  C  C84  1  0.29265400  0.51550800  0.96737900  1
  C  C85  1  0.79265400  0.98449200  0.03262100  1
  C  C86  1  0.70734600  0.01550800  0.53262100  1
  C  C87  1  0.20734600  0.48449200  0.46737900  1
  C  C88  1  0.69416800  0.63982600  0.18421600  1
  C  C89  1  0.19416800  0.86017400  0.81578400  1
  C  C90  1  0.30583200  0.13982600  0.31578400  1
  C  C91  1  0.80583200  0.36017400  0.68421600  1
  C  C92  1  0.30583200  0.36017400  0.81578400  1
  C  C93  1  0.80583200  0.13982600  0.18421600  1
  C  C94  1  0.69416800  0.86017400  0.68421600  1
  C  C95  1  0.19416800  0.63982600  0.31578400  1
  C  C96  1  0.48058600  0.82164700  0.11515400  1
  C  C97  1  0.98058600  0.67835300  0.88484600  1
  C  C98  1  0.51941400  0.32164700  0.38484600  1
  C  C99  1  0.01941400  0.17835300  0.61515400  1
  C  C100  1  0.51941400  0.17835300  0.88484600  1
  C  C101  1  0.01941400  0.32164700  0.11515400  1
  C  C102  1  0.48058600  0.67835300  0.61515400  1
  C  C103  1  0.98058600  0.82164700  0.38484600  1
  C  C104  1  0.45776400  0.64895700  0.33154200  1
  C  C105  1  0.95776400  0.85104300  0.66845800  1
  C  C106  1  0.54223600  0.14895700  0.16845800  1
  C  C107  1  0.04223600  0.35104300  0.83154200  1
  C  C108  1  0.54223600  0.35104300  0.66845800  1
  C  C109  1  0.04223600  0.14895700  0.33154200  1
  C  C110  1  0.45776400  0.85104300  0.83154200  1
  C  C111  1  0.95776400  0.64895700  0.16845800  1
  C  C112  1  0.71837100  0.77319300  0.42603400  1
  C  C113  1  0.21837100  0.72680700  0.57396600  1
  C  C114  1  0.28162900  0.27319300  0.07396600  1
  C  C115  1  0.78162900  0.22680700  0.92603400  1
  C  C116  1  0.28162900  0.22680700  0.57396600  1
  C  C117  1  0.78162900  0.27319300  0.42603400  1
  C  C118  1  0.71837100  0.72680700  0.92603400  1
  C  C119  1  0.21837100  0.77319300  0.07396600  1
