# generated using pymatgen
data_Cu3Ni13C9
_symmetry_space_group_name_H-M   'P 1'
_cell_length_a   6.91172333
_cell_length_b   5.67849818
_cell_length_c   6.91166501
_cell_angle_alpha   87.63905114
_cell_angle_beta   94.02681889
_cell_angle_gamma   88.96636799
_symmetry_Int_Tables_number   1
_chemical_formula_structural   Cu3Ni13C9
_chemical_formula_sum   'Cu3 Ni13 C9'
_cell_volume   270.31144389
_cell_formula_units_Z   1
loop_
 _symmetry_equiv_pos_site_id
 _symmetry_equiv_pos_as_xyz
  1  'x, y, z'
loop_
 _atom_site_type_symbol
 _atom_site_label
 _atom_site_symmetry_multiplicity
 _atom_site_fract_x
 _atom_site_fract_y
 _atom_site_fract_z
 _atom_site_occupancy
  C  C0  1  0.62646400  0.09192400  0.88512400  1
  C  C1  1  0.36262400  0.35969900  0.11747500  1
  C  C2  1  0.13139400  0.69781700  0.38176200  1
  C  C3  1  0.89876900  0.17255700  0.15438700  1
  C  C4  1  0.36345500  0.13541400  0.60947400  1
  C  C5  1  0.13239000  0.85671600  0.88106400  1
  C  C6  1  0.63190600  0.85692100  0.37629500  1
  C  C7  1  0.60612100  0.60722000  0.85686000  1
  C  C8  1  0.89184900  0.36955600  0.64080200  1
  Ni  Ni9  1  0.15588200  0.11640500  0.07725000  1
  Ni  Ni10  1  0.16650700  0.62523900  0.10439000  1
  Ni  Ni11  1  0.56139300  0.59621100  0.12777300  1
  Ni  Ni12  1  0.08219900  0.63309400  0.65810100  1
  Ni  Ni13  1  0.35461400  0.89904900  0.41807800  1
  Ni  Ni14  1  0.09435700  0.11596100  0.67367500  1
  Ni  Ni15  1  0.60819300  0.11848100  0.17175500  1
  Ni  Ni16  1  0.41486700  0.87331200  0.81101400  1
  Ni  Ni17  1  0.64669200  0.11751900  0.58521800  1
  Ni  Ni18  1  0.90436900  0.89892400  0.32864300  1
  Ni  Ni19  1  0.42431600  0.35519400  0.83131200  1
  Ni  Ni20  1  0.67785700  0.60322300  0.59308100  1
  Ni  Ni21  1  0.81726000  0.35668600  0.90475100  1
  Cu  Cu22  1  0.32046600  0.39261300  0.41263400  1
  Cu  Cu23  1  0.93312400  0.41359300  0.36243500  1
  Cu  Cu24  1  0.82293200  0.84381400  0.91664500  1
