# generated using pymatgen
data_Cu10NiC4
_symmetry_space_group_name_H-M   'P 1'
_cell_length_a   3.06981408
_cell_length_b   3.06981408
_cell_length_c   17.25912100
_cell_angle_alpha   90.00000000
_cell_angle_beta   90.00000000
_cell_angle_gamma   120.00000170
_symmetry_Int_Tables_number   1
_chemical_formula_structural   Cu10NiC4
_chemical_formula_sum   'Cu10 Ni1 C4'
_cell_volume   140.85538170
_cell_formula_units_Z   1
loop_
 _symmetry_equiv_pos_site_id
 _symmetry_equiv_pos_as_xyz
  1  'x, y, z'
loop_
 _atom_site_type_symbol
 _atom_site_label
 _atom_site_symmetry_multiplicity
 _atom_site_fract_x
 _atom_site_fract_y
 _atom_site_fract_z
 _atom_site_occupancy
  C  C0  1  0.00000000  0.00000000  0.80097500  1
  C  C1  1  0.00000000  0.00000000  0.60007500  1
  C  C2  1  0.00000000  0.00000000  0.39992500  1
  C  C3  1  0.00000000  0.00000000  0.19902500  1
  Ni  Ni4  1  0.00000000  0.00000000  0.00000000  1
  Cu  Cu5  1  0.66666700  0.33333300  0.90836000  1
  Cu  Cu6  1  0.66666700  0.33333300  0.70132100  1
  Cu  Cu7  1  0.66666700  0.33333300  0.50000000  1
  Cu  Cu8  1  0.66666700  0.33333300  0.29867900  1
  Cu  Cu9  1  0.66666700  0.33333300  0.09164000  1
  Cu  Cu10  1  0.33333300  0.66666700  0.90836000  1
  Cu  Cu11  1  0.33333300  0.66666700  0.70132100  1
  Cu  Cu12  1  0.33333300  0.66666700  0.50000000  1
  Cu  Cu13  1  0.33333300  0.66666700  0.29867900  1
  Cu  Cu14  1  0.33333300  0.66666700  0.09164000  1
