# generated using pymatgen
data_CuNi13C9
_symmetry_space_group_name_H-M   'P 1'
_cell_length_a   8.43702400
_cell_length_b   8.43702400
_cell_length_c   18.43685000
_cell_angle_alpha   90.00000000
_cell_angle_beta   90.00000000
_cell_angle_gamma   90.00000000
_symmetry_Int_Tables_number   1
_chemical_formula_structural   CuNi13C9
_chemical_formula_sum   'Cu4 Ni52 C36'
_cell_volume   1312.39718850
_cell_formula_units_Z   4
loop_
 _symmetry_equiv_pos_site_id
 _symmetry_equiv_pos_as_xyz
  1  'x, y, z'
loop_
 _atom_site_type_symbol
 _atom_site_label
 _atom_site_symmetry_multiplicity
 _atom_site_fract_x
 _atom_site_fract_y
 _atom_site_fract_z
 _atom_site_occupancy
  C  C0  1  0.16381400  0.64966100  0.24989000  1
  C  C1  1  0.14966100  0.33618600  0.74989000  1
  C  C2  1  0.33618600  0.14966100  0.25011000  1
  C  C3  1  0.64966100  0.16381400  0.75011000  1
  C  C4  1  0.83618600  0.35033900  0.24989000  1
  C  C5  1  0.85033900  0.66381400  0.74989000  1
  C  C6  1  0.66381400  0.85033900  0.25011000  1
  C  C7  1  0.35033900  0.83618600  0.75011000  1
  C  C8  1  0.00000000  0.00000000  0.50000000  1
  C  C9  1  0.50000000  0.50000000  0.00000000  1
  C  C10  1  0.50000000  0.50000000  0.50000000  1
  C  C11  1  0.00000000  0.00000000  0.00000000  1
  C  C12  1  0.00000000  0.00000000  0.33074200  1
  C  C13  1  0.50000000  0.50000000  0.83074200  1
  C  C14  1  0.50000000  0.50000000  0.33047000  1
  C  C15  1  0.00000000  0.00000000  0.83047000  1
  C  C16  1  0.00000000  0.00000000  0.16953000  1
  C  C17  1  0.50000000  0.50000000  0.66953000  1
  C  C18  1  0.50000000  0.50000000  0.16925800  1
  C  C19  1  0.00000000  0.00000000  0.66925800  1
  C  C20  1  0.34049100  0.82705500  0.40689000  1
  C  C21  1  0.32705500  0.15950900  0.90689000  1
  C  C22  1  0.15908600  0.32801700  0.40757800  1
  C  C23  1  0.82801700  0.34091400  0.90757800  1
  C  C24  1  0.34091400  0.82801700  0.09242200  1
  C  C25  1  0.32801700  0.15908600  0.59242200  1
  C  C26  1  0.15950900  0.32705500  0.09311000  1
  C  C27  1  0.82705500  0.34049100  0.59311000  1
  C  C28  1  0.65908600  0.17198300  0.09242200  1
  C  C29  1  0.67198300  0.84091400  0.59242200  1
  C  C30  1  0.84049100  0.67294500  0.09311000  1
  C  C31  1  0.17294500  0.65950900  0.59311000  1
  C  C32  1  0.65950900  0.17294500  0.40689000  1
  C  C33  1  0.67294500  0.84049100  0.90689000  1
  C  C34  1  0.84091400  0.67198300  0.40757800  1
  C  C35  1  0.17198300  0.65908600  0.90757800  1
  Ni  Ni36  1  0.12352900  0.20972900  0.83625800  1
  Ni  Ni37  1  0.70972900  0.37647100  0.33625800  1
  Ni  Ni38  1  0.37380000  0.70906400  0.83657300  1
  Ni  Ni39  1  0.20906400  0.12620000  0.33657300  1
  Ni  Ni40  1  0.12620000  0.20906400  0.66342700  1
  Ni  Ni41  1  0.70906400  0.37380000  0.16342700  1
  Ni  Ni42  1  0.37647100  0.70972900  0.66374200  1
  Ni  Ni43  1  0.20972900  0.12352900  0.16374200  1
  Ni  Ni44  1  0.87380000  0.79093600  0.66342700  1
  Ni  Ni45  1  0.29093600  0.62620000  0.16342700  1
  Ni  Ni46  1  0.62352900  0.29027100  0.66374200  1
  Ni  Ni47  1  0.79027100  0.87647100  0.16374200  1
  Ni  Ni48  1  0.87647100  0.79027100  0.83625800  1
  Ni  Ni49  1  0.29027100  0.62352900  0.33625800  1
  Ni  Ni50  1  0.62620000  0.29093600  0.83657300  1
  Ni  Ni51  1  0.79093600  0.87380000  0.33657300  1
  Ni  Ni52  1  0.13978000  0.91991700  0.58388000  1
  Ni  Ni53  1  0.41991700  0.36022000  0.08388000  1
  Ni  Ni54  1  0.36044800  0.41952500  0.58390700  1
  Ni  Ni55  1  0.91952500  0.13955200  0.08390700  1
  Ni  Ni56  1  0.13955200  0.91952500  0.91609300  1
  Ni  Ni57  1  0.41952500  0.36044800  0.41609300  1
  Ni  Ni58  1  0.36022000  0.41991700  0.91612000  1
  Ni  Ni59  1  0.91991700  0.13978000  0.41612000  1
  Ni  Ni60  1  0.86044800  0.08047500  0.91609300  1
  Ni  Ni61  1  0.58047500  0.63955200  0.41609300  1
  Ni  Ni62  1  0.63978000  0.58008300  0.91612000  1
  Ni  Ni63  1  0.08008300  0.86022000  0.41612000  1
  Ni  Ni64  1  0.86022000  0.08008300  0.58388000  1
  Ni  Ni65  1  0.58008300  0.63978000  0.08388000  1
  Ni  Ni66  1  0.63955200  0.58047500  0.58390700  1
  Ni  Ni67  1  0.08047500  0.86044800  0.08390700  1
  Ni  Ni68  1  0.40903100  0.36475900  0.24971900  1
  Ni  Ni69  1  0.86475900  0.09096900  0.74971900  1
  Ni  Ni70  1  0.09096900  0.86475900  0.25028100  1
  Ni  Ni71  1  0.36475900  0.40903100  0.75028100  1
  Ni  Ni72  1  0.59096900  0.63524100  0.24971900  1
  Ni  Ni73  1  0.13524100  0.90903100  0.74971900  1
  Ni  Ni74  1  0.90903100  0.13524100  0.25028100  1
  Ni  Ni75  1  0.63524100  0.59096900  0.75028100  1
  Ni  Ni76  1  0.17195500  0.17195500  0.00000000  1
  Ni  Ni77  1  0.67195500  0.32804500  0.50000000  1
  Ni  Ni78  1  0.32830400  0.67169600  0.00000000  1
  Ni  Ni79  1  0.17169600  0.17169600  0.50000000  1
  Ni  Ni80  1  0.67169600  0.32830400  0.00000000  1
  Ni  Ni81  1  0.32804500  0.67195500  0.50000000  1
  Ni  Ni82  1  0.82830400  0.82830400  0.50000000  1
  Ni  Ni83  1  0.82804500  0.82804500  0.00000000  1
  Ni  Ni84  1  0.00000000  0.50000000  0.24981400  1
  Ni  Ni85  1  0.00000000  0.50000000  0.74981400  1
  Ni  Ni86  1  0.50000000  0.00000000  0.25018600  1
  Ni  Ni87  1  0.50000000  0.00000000  0.75018600  1
  Cu  Cu88  1  0.00000000  0.50000000  0.50387800  1
  Cu  Cu89  1  0.00000000  0.50000000  0.00387800  1
  Cu  Cu90  1  0.50000000  0.00000000  0.99612200  1
  Cu  Cu91  1  0.50000000  0.00000000  0.49612200  1
