# generated using pymatgen
data_Cu9(NiC)2
_symmetry_space_group_name_H-M   'P 1'
_cell_length_a   7.03937202
_cell_length_b   7.03937202
_cell_length_c   12.75484900
_cell_angle_alpha   90.00000000
_cell_angle_beta   90.00000000
_cell_angle_gamma   120.00000017
_symmetry_Int_Tables_number   1
_chemical_formula_structural   Cu9(NiC)2
_chemical_formula_sum   'Cu27 Ni6 C6'
_cell_volume   547.36092086
_cell_formula_units_Z   3
loop_
 _symmetry_equiv_pos_site_id
 _symmetry_equiv_pos_as_xyz
  1  'x, y, z'
loop_
 _atom_site_type_symbol
 _atom_site_label
 _atom_site_symmetry_multiplicity
 _atom_site_fract_x
 _atom_site_fract_y
 _atom_site_fract_z
 _atom_site_occupancy
  C  C0  1  0.99947400  0.47511300  0.66997500  1
  C  C1  1  0.47564000  0.00052600  0.00330800  1
  C  C2  1  0.52488700  0.52436000  0.33664100  1
  C  C3  1  0.99389700  0.45968800  0.16913600  1
  C  C4  1  0.46579100  0.00610300  0.50246900  1
  C  C5  1  0.54031200  0.53420900  0.83580200  1
  Ni  Ni6  1  0.45861000  0.99274900  0.25331900  1
  Ni  Ni7  1  0.53413900  0.54139000  0.58665200  1
  Ni  Ni8  1  0.00725100  0.46586100  0.91998500  1
  Ni  Ni9  1  0.46780800  0.00331000  0.75266600  1
  Ni  Ni10  1  0.99669000  0.46449800  0.41933300  1
  Ni  Ni11  1  0.53550200  0.53219200  0.08599900  1
  Cu  Cu12  1  0.40913800  0.13380400  0.32306500  1
  Cu  Cu13  1  0.72466700  0.59086200  0.65639900  1
  Cu  Cu14  1  0.86619600  0.27533300  0.98973200  1
  Cu  Cu15  1  0.27805900  0.85279900  0.68679500  1
  Cu  Cu16  1  0.14720100  0.42526000  0.35346200  1
  Cu  Cu17  1  0.57474000  0.72194100  0.02012900  1
  Cu  Cu18  1  0.52500500  0.86773800  0.32422800  1
  Cu  Cu19  1  0.34273300  0.47499500  0.65756100  1
  Cu  Cu20  1  0.13226200  0.65726700  0.99089400  1
  Cu  Cu21  1  0.64748800  0.14450100  0.67893100  1
  Cu  Cu22  1  0.85549900  0.50298700  0.34559800  1
  Cu  Cu23  1  0.49701300  0.35251200  0.01226500  1
  Cu  Cu24  1  0.26640200  0.84619500  0.18773700  1
  Cu  Cu25  1  0.57979200  0.73359800  0.52107000  1
  Cu  Cu26  1  0.15380500  0.42020800  0.85440300  1
  Cu  Cu27  1  0.41106200  0.13378800  0.82468500  1
  Cu  Cu28  1  0.86621200  0.27727500  0.49135200  1
  Cu  Cu29  1  0.72272500  0.58893800  0.15801900  1
  Cu  Cu30  1  0.63951700  0.13082700  0.17925300  1
  Cu  Cu31  1  0.49131000  0.36048300  0.51258700  1
  Cu  Cu32  1  0.86917300  0.50869000  0.84592000  1
  Cu  Cu33  1  0.53929900  0.87861000  0.82274400  1
  Cu  Cu34  1  0.12139000  0.66068900  0.48941000  1
  Cu  Cu35  1  0.33931100  0.46070100  0.15607700  1
  Cu  Cu36  1  0.03250900  0.11342700  0.12736500  1
  Cu  Cu37  1  0.08091800  0.96749100  0.46069900  1
  Cu  Cu38  1  0.88657300  0.91908200  0.79403200  1
