# generated using pymatgen
data_Cu2Ni2C15
_symmetry_space_group_name_H-M   'P 1'
_cell_length_a   3.96097300
_cell_length_b   3.96097300
_cell_length_c   16.02402300
_cell_angle_alpha   90.00000000
_cell_angle_beta   90.00000000
_cell_angle_gamma   90.00000000
_symmetry_Int_Tables_number   1
_chemical_formula_structural   Cu2Ni2C15
_chemical_formula_sum   'Cu2 Ni2 C15'
_cell_volume   251.40581793
_cell_formula_units_Z   1
loop_
 _symmetry_equiv_pos_site_id
 _symmetry_equiv_pos_as_xyz
  1  'x, y, z'
loop_
 _atom_site_type_symbol
 _atom_site_label
 _atom_site_symmetry_multiplicity
 _atom_site_fract_x
 _atom_site_fract_y
 _atom_site_fract_z
 _atom_site_occupancy
  C  C0  1  0.50000000  0.50000000  0.26564500  1
  C  C1  1  0.50000000  0.50000000  0.73435500  1
  C  C2  1  0.50000000  0.50000000  0.50000000  1
  C  C3  1  0.50000000  0.50000000  0.00000000  1
  Ni  Ni4  1  0.00000000  0.00000000  0.12693500  1
  Ni  Ni5  1  0.00000000  0.00000000  0.87306500  1
  Cu  Cu6  1  0.00000000  0.00000000  0.38907400  1
  Cu  Cu7  1  0.00000000  0.00000000  0.61092600  1
  C  C8  1  0.00000000  0.00000000  0.24308600  1
  C  C9  1  0.00000000  0.00000000  0.75691400  1
  C  C10  1  0.00000000  0.50000000  0.40137900  1
  C  C11  1  0.00000000  0.50000000  0.59862100  1
  C  C12  1  0.50000000  0.00000000  0.40137900  1
  C  C13  1  0.50000000  0.00000000  0.59862100  1
  C  C14  1  0.00000000  0.00000000  0.00000000  1
  C  C15  1  0.00000000  0.50000000  0.11475700  1
  C  C16  1  0.00000000  0.50000000  0.88524300  1
  C  C17  1  0.50000000  0.00000000  0.11475700  1
  C  C18  1  0.50000000  0.00000000  0.88524300  1
