# generated using pymatgen
data_Cu2NiC4
_symmetry_space_group_name_H-M   'P 1'
_cell_length_a   5.86164536
_cell_length_b   5.86164536
_cell_length_c   14.24648921
_cell_angle_alpha   89.70976120
_cell_angle_beta   89.70976120
_cell_angle_gamma   59.38235594
_symmetry_Int_Tables_number   1
_chemical_formula_structural   Cu2NiC4
_chemical_formula_sum   'Cu12 Ni6 C24'
_cell_volume   421.24371720
_cell_formula_units_Z   6
loop_
 _symmetry_equiv_pos_site_id
 _symmetry_equiv_pos_as_xyz
  1  'x, y, z'
loop_
 _atom_site_type_symbol
 _atom_site_label
 _atom_site_symmetry_multiplicity
 _atom_site_fract_x
 _atom_site_fract_y
 _atom_site_fract_z
 _atom_site_occupancy
  Ni  Ni0  1  0.15980000  0.15980000  0.95827300  1
  Ni  Ni1  1  0.83406700  0.83406700  0.66789400  1
  Ni  Ni2  1  0.66685000  0.66685000  0.83309900  1
  Ni  Ni3  1  0.16672600  0.16672600  0.33236000  1
  Ni  Ni4  1  0.00026000  0.00026000  0.50024500  1
  Ni  Ni5  1  0.33333900  0.33333900  0.16605100  1
  Cu  Cu6  1  0.17091500  0.66513400  0.83496700  1
  Cu  Cu7  1  0.49577100  0.49577100  0.62217900  1
  Cu  Cu8  1  0.50023800  0.50023800  0.99873700  1
  Cu  Cu9  1  0.66513400  0.17091500  0.83496700  1
  Cu  Cu10  1  0.49922100  0.99964500  0.50045200  1
  Cu  Cu11  1  0.82867200  0.82867200  0.28943300  1
  Cu  Cu12  1  0.99964500  0.49922100  0.50045200  1
  Cu  Cu13  1  0.83084000  0.33385400  0.16527200  1
  Cu  Cu14  1  0.17172400  0.17172400  0.71232000  1
  Cu  Cu15  1  0.33385400  0.83084000  0.16527200  1
  Cu  Cu16  1  0.50473200  0.50473200  0.37727400  1
  Cu  Cu17  1  0.83839900  0.83839900  0.04127100  1
  C  C18  1  0.34098900  0.79246100  0.91529400  1
  C  C19  1  0.48918700  0.48918700  0.75697900  1
  C  C20  1  0.79246100  0.34098900  0.91529400  1
  C  C21  1  0.35182500  0.35182500  0.91326900  1
  C  C22  1  0.65740300  0.14901200  0.57698400  1
  C  C23  1  0.99477700  0.99477700  0.76168900  1
  C  C24  1  0.82229400  0.82229400  0.42385600  1
  C  C25  1  0.51688800  0.00975700  0.75833600  1
  C  C26  1  0.14901200  0.65740300  0.57698400  1
  C  C27  1  0.84731300  0.84731300  0.90877200  1
  C  C28  1  0.67327500  0.67327500  0.57435900  1
  C  C29  1  0.00975700  0.51688800  0.75833600  1
  C  C30  1  0.98720200  0.48442900  0.24228100  1
  C  C31  1  0.32668700  0.32668700  0.42575500  1
  C  C32  1  0.85113000  0.34175900  0.42325000  1
  C  C33  1  0.48442900  0.98720200  0.24228100  1
  C  C34  1  0.15772400  0.15772400  0.09636700  1
  C  C35  1  0.17741400  0.17741400  0.57628500  1
  C  C36  1  0.00467100  0.00467100  0.23913700  1
  C  C37  1  0.34175900  0.85113000  0.42325000  1
  C  C38  1  0.65124800  0.65124800  0.08556100  1
  C  C39  1  0.19740100  0.66849300  0.08231800  1
  C  C40  1  0.50794100  0.50794100  0.24155400  1
  C  C41  1  0.66849300  0.19740100  0.08231800  1
