# generated using pymatgen
data_CuNiC10
_symmetry_space_group_name_H-M   'P 1'
_cell_length_a   8.09475845
_cell_length_b   8.09475845
_cell_length_c   5.36793700
_cell_angle_alpha   90.00000000
_cell_angle_beta   90.00000000
_cell_angle_gamma   90.27174151
_symmetry_Int_Tables_number   1
_chemical_formula_structural   CuNiC10
_chemical_formula_sum   'Cu2 Ni2 C20'
_cell_volume   351.73073011
_cell_formula_units_Z   2
loop_
 _symmetry_equiv_pos_site_id
 _symmetry_equiv_pos_as_xyz
  1  'x, y, z'
loop_
 _atom_site_type_symbol
 _atom_site_label
 _atom_site_symmetry_multiplicity
 _atom_site_fract_x
 _atom_site_fract_y
 _atom_site_fract_z
 _atom_site_occupancy
  Ni  Ni0  1  0.16155600  0.83844400  0.49017800  1
  Ni  Ni1  1  0.83844400  0.16155600  0.49017800  1
  Cu  Cu2  1  0.66276100  0.66276100  0.51092800  1
  Cu  Cu3  1  0.33723900  0.33723900  0.51092800  1
  C  C4  1  0.35716700  0.64283300  0.03462700  1
  C  C5  1  0.85548500  0.85548500  0.96575700  1
  C  C6  1  0.64283300  0.35716700  0.03462700  1
  C  C7  1  0.14451500  0.14451500  0.96575700  1
  C  C8  1  0.50000000  0.00000000  0.99847600  1
  C  C9  1  0.00000000  0.50000000  0.99847600  1
  C  C10  1  0.00000000  0.00000000  0.81369500  1
  C  C11  1  0.50000000  0.50000000  0.20548900  1
  C  C12  1  0.41887300  0.83516300  0.20502800  1
  C  C13  1  0.90629700  0.65916400  0.79100800  1
  C  C14  1  0.58112700  0.16483700  0.20502800  1
  C  C15  1  0.09370300  0.34083600  0.79100800  1
  C  C16  1  0.34083600  0.09370300  0.79100800  1
  C  C17  1  0.83516300  0.41887300  0.20502800  1
  C  C18  1  0.65916400  0.90629700  0.79100800  1
  C  C19  1  0.16483700  0.58112700  0.20502800  1
  C  C20  1  0.36972900  0.63027100  0.69578000  1
  C  C21  1  0.85058500  0.85058500  0.30258900  1
  C  C22  1  0.63027100  0.36972900  0.69578000  1
  C  C23  1  0.14941500  0.14941500  0.30258900  1
