# generated using pymatgen
data_CuNiC16
_symmetry_space_group_name_H-M   'P 1'
_cell_length_a   5.97616800
_cell_length_b   9.87145600
_cell_length_c   14.64087239
_cell_angle_alpha   89.74116599
_cell_angle_beta   90.00000000
_cell_angle_gamma   90.00000000
_symmetry_Int_Tables_number   1
_chemical_formula_structural   CuNiC16
_chemical_formula_sum   'Cu4 Ni4 C64'
_cell_volume   863.70719159
_cell_formula_units_Z   4
loop_
 _symmetry_equiv_pos_site_id
 _symmetry_equiv_pos_as_xyz
  1  'x, y, z'
loop_
 _atom_site_type_symbol
 _atom_site_label
 _atom_site_symmetry_multiplicity
 _atom_site_fract_x
 _atom_site_fract_y
 _atom_site_fract_z
 _atom_site_occupancy
  Ni  Ni0  1  0.00000000  0.21507600  0.14493800  1
  Ni  Ni1  1  0.00000000  0.21725700  0.47867700  1
  Ni  Ni2  1  0.00000000  0.21329800  0.81027700  1
  Ni  Ni3  1  0.50000000  0.28629800  0.64554700  1
  Cu  Cu4  1  0.50000000  0.27750500  0.31909600  1
  Cu  Cu5  1  0.50000000  0.27662900  0.98558600  1
  Cu  Cu6  1  0.00000000  0.72674200  0.01197900  1
  Cu  Cu7  1  0.00000000  0.72791300  0.34397900  1
  C  C8  1  0.00000000  0.72570400  0.67922800  1
  C  C9  1  0.50000000  0.77089000  0.84272000  1
  C  C10  1  0.50000000  0.77191900  0.17873200  1
  C  C11  1  0.50000000  0.77922100  0.51801900  1
  C  C12  1  0.50000000  0.09528500  0.80427000  1
  C  C13  1  0.50000000  0.09792600  0.47170600  1
  C  C14  1  0.50000000  0.09436500  0.13799500  1
  C  C15  1  0.00000000  0.39935600  0.30500800  1
  C  C16  1  0.00000000  0.39866100  0.97184900  1
  C  C17  1  0.00000000  0.40265300  0.63906600  1
  C  C18  1  0.50000000  0.60211300  0.03045900  1
  C  C19  1  0.50000000  0.60233000  0.36569800  1
  C  C20  1  0.50000000  0.59854800  0.69621300  1
  C  C21  1  0.00000000  0.90279300  0.52713100  1
  C  C22  1  0.00000000  0.89870500  0.86167600  1
  C  C23  1  0.00000000  0.90236000  0.19498700  1
  C  C24  1  0.00000000  0.05451500  0.55152000  1
  C  C25  1  0.00000000  0.05506200  0.21770800  1
  C  C26  1  0.00000000  0.05164100  0.88078600  1
  C  C27  1  0.50000000  0.12213300  0.57519200  1
  C  C28  1  0.50000000  0.11805300  0.90718600  1
  C  C29  1  0.50000000  0.11868800  0.24057700  1
  C  C30  1  0.29845700  0.16631600  0.75474200  1
  C  C31  1  0.70154300  0.16631600  0.75474200  1
  C  C32  1  0.30130200  0.16893300  0.08759600  1
  C  C33  1  0.69869800  0.16893300  0.08759600  1
  C  C34  1  0.30092100  0.17269600  0.42183200  1
  C  C35  1  0.69907900  0.17269600  0.42183200  1
  C  C36  1  0.79574200  0.32761400  0.25897900  1
  C  C37  1  0.20425800  0.32761400  0.25897900  1
  C  C38  1  0.20409500  0.32697200  0.92566600  1
  C  C39  1  0.79590500  0.32697200  0.92566600  1
  C  C40  1  0.79851000  0.33325800  0.58986800  1
  C  C41  1  0.20149000  0.33325800  0.58986800  1
  C  C42  1  0.00000000  0.37943400  0.74295600  1
  C  C43  1  0.00000000  0.37842900  0.07709200  1
  C  C44  1  0.00000000  0.37968200  0.41026200  1
  C  C45  1  0.50000000  0.45031100  0.05024000  1
  C  C46  1  0.50000000  0.44996500  0.38461200  1
  C  C47  1  0.50000000  0.44544000  0.71911500  1
  C  C48  1  0.00000000  0.55182300  0.28640300  1
  C  C49  1  0.00000000  0.55133400  0.95338800  1
  C  C50  1  0.00000000  0.55736800  0.62112100  1
  C  C51  1  0.50000000  0.61722200  0.59215000  1
  C  C52  1  0.50000000  0.62748700  0.92631100  1
  C  C53  1  0.50000000  0.62731400  0.26093200  1
  C  C54  1  0.29741800  0.67523400  0.07817100  1
  C  C55  1  0.70258200  0.67523400  0.07817100  1
  C  C56  1  0.29736300  0.67525300  0.41245100  1
  C  C57  1  0.70263700  0.67525300  0.41245100  1
  C  C58  1  0.29831600  0.67022200  0.74540400  1
  C  C59  1  0.70168400  0.67022200  0.74540400  1
  C  C60  1  0.79648800  0.82870100  0.57567100  1
  C  C61  1  0.20351200  0.82870100  0.57567100  1
  C  C62  1  0.80028400  0.82952100  0.24498400  1
  C  C63  1  0.19971600  0.82952100  0.24498400  1
  C  C64  1  0.79940300  0.82832900  0.91102400  1
  C  C65  1  0.20059700  0.82832900  0.91102400  1
  C  C66  1  0.00000000  0.87477700  0.75699100  1
  C  C67  1  0.00000000  0.88386000  0.09163800  1
  C  C68  1  0.00000000  0.88426100  0.42432100  1
  C  C69  1  0.50000000  0.94103500  0.78406200  1
  C  C70  1  0.50000000  0.94735600  0.44963200  1
  C  C71  1  0.50000000  0.94184600  0.11693100  1
