# generated using pymatgen
data_Cu3(NiC9)2
_symmetry_space_group_name_H-M   'P 1'
_cell_length_a   6.62825832
_cell_length_b   9.91633774
_cell_length_c   9.87782207
_cell_angle_alpha   83.61733394
_cell_angle_beta   70.51936992
_cell_angle_gamma   70.63975069
_symmetry_Int_Tables_number   1
_chemical_formula_structural   Cu3(NiC9)2
_chemical_formula_sum   'Cu6 Ni4 C36'
_cell_volume   577.47150640
_cell_formula_units_Z   2
loop_
 _symmetry_equiv_pos_site_id
 _symmetry_equiv_pos_as_xyz
  1  'x, y, z'
loop_
 _atom_site_type_symbol
 _atom_site_label
 _atom_site_symmetry_multiplicity
 _atom_site_fract_x
 _atom_site_fract_y
 _atom_site_fract_z
 _atom_site_occupancy
  C  C0  1  0.12856000  0.05754000  0.43891300  1
  C  C1  1  0.43222700  0.43938400  0.94121500  1
  C  C2  1  0.81826800  0.55723200  0.06090100  1
  C  C3  1  0.62422700  0.93900900  0.55830700  1
  Ni  Ni4  1  0.24472600  0.19293300  0.07413100  1
  Ni  Ni5  1  0.56740400  0.69271600  0.42512900  1
  Ni  Ni6  1  0.67791500  0.08175900  0.80628900  1
  Ni  Ni7  1  0.73543500  0.58153900  0.69369500  1
  Cu  Cu8  1  0.00183000  0.99955900  0.99645900  1
  Cu  Cu9  1  0.99938900  0.42660300  0.31274300  1
  Cu  Cu10  1  0.24677700  0.50152200  0.50400900  1
  Cu  Cu11  1  0.56311100  0.92692500  0.18741300  1
  Cu  Cu12  1  0.68669800  0.31198100  0.57507700  1
  Cu  Cu13  1  0.51104700  0.81194500  0.92432700  1
  C  C14  1  0.13787700  0.11158200  0.71385900  1
  C  C15  1  0.11497200  0.78378600  0.38541100  1
  C  C16  1  0.10412100  0.61091300  0.78622800  1
  C  C17  1  0.27802800  0.21303300  0.62338200  1
  C  C18  1  0.50781900  0.37498600  0.21347700  1
  C  C19  1  0.15128500  0.71296300  0.87817900  1
  C  C20  1  0.74948500  0.28340500  0.11553600  1
  C  C21  1  0.97232000  0.87595700  0.28638300  1
  C  C22  1  0.02825400  0.13604300  0.05694100  1
  C  C23  1  0.12040400  0.36624800  0.14974800  1
  C  C24  1  0.03137800  0.54206900  0.64885900  1
  C  C25  1  0.36846500  0.07878800  0.19481800  1
  C  C26  1  0.19335900  0.44314000  0.37342800  1
  C  C27  1  0.25059500  0.12246700  0.62089900  1
  C  C28  1  0.12317800  0.62172500  0.87952500  1
  C  C29  1  0.33186800  0.63826200  0.44176200  1
  C  C30  1  0.44495700  0.36343100  0.54020400  1
  C  C31  1  0.62885500  0.37657700  0.12371600  1
  C  C32  1  0.44607900  0.20728700  0.91376300  1
  C  C33  1  0.23470600  0.86051000  0.95954000  1
  C  C34  1  0.55841700  0.81216700  0.07929600  1
  C  C35  1  0.51789100  0.86640000  0.35044900  1
  C  C36  1  0.74049300  0.14439900  0.62483400  1
  C  C37  1  0.61077400  0.70591700  0.58522900  1
  C  C38  1  0.68209400  0.41751200  0.69107500  1
  C  C39  1  0.80960800  0.57719700  0.30487000  1
  C  C40  1  0.61614800  0.64425800  0.87497700  1
  C  C41  1  0.88888700  0.31041700  0.41982100  1
  C  C42  1  0.81941200  0.94102300  0.12805100  1
  C  C43  1  0.61919400  0.91857700  0.80834800  1
  C  C44  1  0.92846100  0.04100000  0.85233200  1
  C  C45  1  0.00299800  0.87731100  0.37645400  1
