# generated using pymatgen
data_CuNiC2
_symmetry_space_group_name_H-M   'P 1'
_cell_length_a   3.71053400
_cell_length_b   6.96873169
_cell_length_c   7.47722060
_cell_angle_alpha   83.91455335
_cell_angle_beta   75.63355820
_cell_angle_gamma   74.56010486
_symmetry_Int_Tables_number   1
_chemical_formula_structural   CuNiC2
_chemical_formula_sum   'Cu2 Ni2 C4'
_cell_volume   180.37285257
_cell_formula_units_Z   2
loop_
 _symmetry_equiv_pos_site_id
 _symmetry_equiv_pos_as_xyz
  1  'x, y, z'
loop_
 _atom_site_type_symbol
 _atom_site_label
 _atom_site_symmetry_multiplicity
 _atom_site_fract_x
 _atom_site_fract_y
 _atom_site_fract_z
 _atom_site_occupancy
  C  C0  1  0.79297700  0.79641100  0.61763500  1
  C  C1  1  0.20702300  0.20358900  0.38236500  1
  C  C2  1  0.44072300  0.25903300  0.85952100  1
  C  C3  1  0.55927700  0.74096700  0.14047900  1
  Ni  Ni4  1  0.07364600  0.96032500  0.89238300  1
  Ni  Ni5  1  0.92635400  0.03967500  0.10761700  1
  Cu  Cu6  1  0.87370100  0.95171000  0.30088800  1
  Cu  Cu7  1  0.12629900  0.04829000  0.69911200  1
