# generated using pymatgen
data_Cu2Ni2C9
_symmetry_space_group_name_H-M   'P 1'
_cell_length_a   5.08775614
_cell_length_b   5.08776561
_cell_length_c   8.25124519
_cell_angle_alpha   107.95700204
_cell_angle_beta   72.04335486
_cell_angle_gamma   120.00029637
_symmetry_Int_Tables_number   1
_chemical_formula_structural   Cu2Ni2C9
_chemical_formula_sum   'Cu2 Ni2 C9'
_cell_volume   172.85266078
_cell_formula_units_Z   1
loop_
 _symmetry_equiv_pos_site_id
 _symmetry_equiv_pos_as_xyz
  1  'x, y, z'
loop_
 _atom_site_type_symbol
 _atom_site_label
 _atom_site_symmetry_multiplicity
 _atom_site_fract_x
 _atom_site_fract_y
 _atom_site_fract_z
 _atom_site_occupancy
  C  C0  1  0.00000100  0.99999900  0.99999800  1
  Ni  Ni1  1  0.57417500  0.42582400  0.27747400  1
  Ni  Ni2  1  0.42581900  0.57417800  0.72252900  1
  Cu  Cu3  1  0.16943000  0.83057200  0.49172300  1
  Cu  Cu4  1  0.83056800  0.16943300  0.50828200  1
  C  C5  1  0.64754200  0.35245800  0.05738200  1
  C  C6  1  0.35246200  0.64753800  0.94261100  1
  C  C7  1  0.56330500  0.12214600  0.34456400  1
  C  C8  1  0.21427100  0.43669500  0.34456500  1
  C  C9  1  0.87785300  0.78572200  0.34456700  1
  C  C10  1  0.43669600  0.87784200  0.65543600  1
  C  C11  1  0.78571500  0.56330400  0.65543600  1
  C  C12  1  0.12216300  0.21429000  0.65543200  1
