# generated using pymatgen
data_CuNiC8
_symmetry_space_group_name_H-M   'P 1'
_cell_length_a   9.44551351
_cell_length_b   9.92652081
_cell_length_c   9.05589717
_cell_angle_alpha   90.00000000
_cell_angle_beta   90.00000000
_cell_angle_gamma   90.00000000
_symmetry_Int_Tables_number   1
_chemical_formula_structural   CuNiC8
_chemical_formula_sum   'Cu4 Ni4 C32'
_cell_volume   849.09075715
_cell_formula_units_Z   4
loop_
 _symmetry_equiv_pos_site_id
 _symmetry_equiv_pos_as_xyz
  1  'x, y, z'
loop_
 _atom_site_type_symbol
 _atom_site_label
 _atom_site_symmetry_multiplicity
 _atom_site_fract_x
 _atom_site_fract_y
 _atom_site_fract_z
 _atom_site_occupancy
  C  C0  1  0.00000000  0.50000000  0.50000000  1
  C  C1  1  0.50000000  0.00000000  0.00000000  1
  C  C2  1  0.00000000  0.50000000  0.00000000  1
  C  C3  1  0.00000000  0.00000000  0.50000000  1
  Ni  Ni4  1  0.24935068  0.25007923  0.24917805  1
  Ni  Ni5  1  0.75064932  0.74992077  0.24917805  1
  Ni  Ni6  1  0.75064932  0.25007923  0.75082195  1
  Ni  Ni7  1  0.24935068  0.74992077  0.75082195  1
  Cu  Cu8  1  0.75043912  0.74963970  0.75036022  1
  Cu  Cu9  1  0.24956088  0.25036030  0.75036022  1
  Cu  Cu10  1  0.24956088  0.74963970  0.24963978  1
  Cu  Cu11  1  0.75043912  0.25036030  0.24963978  1
  C  C12  1  0.50000000  0.00000000  0.50000000  1
  C  C13  1  0.50000000  0.50000000  0.00000000  1
  C  C14  1  0.00000000  0.00000000  0.00000000  1
  C  C15  1  0.50000000  0.50000000  0.50000000  1
  C  C16  1  0.00348976  0.19521690  0.29198723  1
  C  C17  1  0.99651024  0.80478310  0.29198723  1
  C  C18  1  0.99651024  0.19521690  0.70801277  1
  C  C19  1  0.00348976  0.80478310  0.70801277  1
  C  C20  1  0.29223751  0.00561931  0.19533573  1
  C  C21  1  0.29223751  0.99438069  0.80466427  1
  C  C22  1  0.70776249  0.99438069  0.19533573  1
  C  C23  1  0.70776249  0.00561931  0.80466427  1
  C  C24  1  0.19511292  0.29087559  0.00245860  1
  C  C25  1  0.80488708  0.29087559  -0.00245860  1
  C  C26  1  0.19511292  0.70912441  -0.00245860  1
  C  C27  1  0.80488708  0.70912441  0.00245860  1
  C  C28  1  0.49814130  0.30595563  0.20765076  1
  C  C29  1  0.50185870  0.69404437  0.20765076  1
  C  C30  1  0.50185870  0.30595563  0.79234924  1
  C  C31  1  0.49814130  0.69404437  0.79234924  1
  C  C32  1  0.20785429  0.49386388  0.30614325  1
  C  C33  1  0.20785429  0.50613612  0.69385675  1
  C  C34  1  0.79214571  0.50613612  0.30614325  1
  C  C35  1  0.79214571  0.49386388  0.69385675  1
  C  C36  1  0.30601428  0.20690777  0.49872859  1
  C  C37  1  0.69398572  0.20690777  0.50127141  1
  C  C38  1  0.30601428  0.79309223  0.50127141  1
  C  C39  1  0.69398572  0.79309223  0.49872859  1
