# generated using pymatgen
data_Cu6NiC4
_symmetry_space_group_name_H-M   'P 1'
_cell_length_a   10.61132630
_cell_length_b   10.61132630
_cell_length_c   10.61132606
_cell_angle_alpha   89.22572269
_cell_angle_beta   89.22572269
_cell_angle_gamma   89.22572298
_symmetry_Int_Tables_number   1
_chemical_formula_structural   Cu6NiC4
_chemical_formula_sum   'Cu12 Ni2 C8'
_cell_volume   1194.51354473
_cell_formula_units_Z   2
loop_
 _symmetry_equiv_pos_site_id
 _symmetry_equiv_pos_as_xyz
  1  'x, y, z'
loop_
 _atom_site_type_symbol
 _atom_site_label
 _atom_site_symmetry_multiplicity
 _atom_site_fract_x
 _atom_site_fract_y
 _atom_site_fract_z
 _atom_site_occupancy
  C  C0  1  0.25000000  0.25000000  0.25000000  1
  C  C1  1  0.75000000  0.75000000  0.75000000  1
  C  C2  1  0.25000000  0.62586600  0.87413400  1
  C  C3  1  0.87413400  0.25000000  0.62586600  1
  C  C4  1  0.62586600  0.87413400  0.25000000  1
  C  C5  1  0.75000000  0.37413400  0.12586600  1
  C  C6  1  0.12586600  0.75000000  0.37413400  1
  C  C7  1  0.37413400  0.12586600  0.75000000  1
  Ni  Ni8  1  0.00000000  0.00000000  0.00000000  1
  Ni  Ni9  1  0.50000000  0.50000000  0.50000000  1
  Cu  Cu10  1  0.56122900  0.20579200  0.42741000  1
  Cu  Cu11  1  0.42741000  0.56122900  0.20579200  1
  Cu  Cu12  1  0.20579200  0.42741000  0.56122900  1
  Cu  Cu13  1  0.93877100  0.07259000  0.29420800  1
  Cu  Cu14  1  0.29420800  0.93877100  0.07259000  1
  Cu  Cu15  1  0.07259000  0.29420800  0.93877100  1
  Cu  Cu16  1  0.43877100  0.79420800  0.57259000  1
  Cu  Cu17  1  0.57259000  0.43877100  0.79420800  1
  Cu  Cu18  1  0.79420800  0.57259000  0.43877100  1
  Cu  Cu19  1  0.06122900  0.92741000  0.70579200  1
  Cu  Cu20  1  0.92741000  0.70579200  0.06122900  1
  Cu  Cu21  1  0.70579200  0.06122900  0.92741000  1
