# generated using pymatgen
data_CuNi3C
_symmetry_space_group_name_H-M   'P 1'
_cell_length_a   5.90200104
_cell_length_b   5.90200104
_cell_length_c   5.90200104
_cell_angle_alpha   138.68792662
_cell_angle_beta   138.68792662
_cell_angle_gamma   59.85102376
_symmetry_Int_Tables_number   1
_chemical_formula_structural   CuNi3C
_chemical_formula_sum   'Cu1 Ni3 C1'
_cell_volume   88.68806150
_cell_formula_units_Z   1
loop_
 _symmetry_equiv_pos_site_id
 _symmetry_equiv_pos_as_xyz
  1  'x, y, z'
loop_
 _atom_site_type_symbol
 _atom_site_label
 _atom_site_symmetry_multiplicity
 _atom_site_fract_x
 _atom_site_fract_y
 _atom_site_fract_z
 _atom_site_occupancy
  C  C0  1  0.99429500  0.99429500  0.00000000  1
  Ni  Ni1  1  0.40963200  0.40963200  0.00000000  1
  Ni  Ni2  1  0.24610400  0.74610400  0.50000000  1
  Ni  Ni3  1  0.74610400  0.24610400  0.50000000  1
  Cu  Cu4  1  0.63386600  0.63386600  0.00000000  1
