# generated using pymatgen
data_Cu3NiC4
_symmetry_space_group_name_H-M   'P 1'
_cell_length_a   8.30599300
_cell_length_b   17.03139100
_cell_length_c   5.89813900
_cell_angle_alpha   90.00000000
_cell_angle_beta   90.00000000
_cell_angle_gamma   90.00000000
_symmetry_Int_Tables_number   1
_chemical_formula_structural   Cu3NiC4
_chemical_formula_sum   'Cu24 Ni8 C32'
_cell_volume   834.36616319
_cell_formula_units_Z   8
loop_
 _symmetry_equiv_pos_site_id
 _symmetry_equiv_pos_as_xyz
  1  'x, y, z'
loop_
 _atom_site_type_symbol
 _atom_site_label
 _atom_site_symmetry_multiplicity
 _atom_site_fract_x
 _atom_site_fract_y
 _atom_site_fract_z
 _atom_site_occupancy
  C  C0  1  0.10921600  0.83041300  0.13326400  1
  C  C1  1  0.39078400  0.66958700  0.13326400  1
  C  C2  1  0.60921600  0.16958700  0.36673600  1
  C  C3  1  0.89078400  0.33041300  0.36673600  1
  C  C4  1  0.89078400  0.16958700  0.86673600  1
  C  C5  1  0.60921600  0.33041300  0.86673600  1
  C  C6  1  0.39078400  0.83041300  0.63326400  1
  C  C7  1  0.10921600  0.66958700  0.63326400  1
  C  C8  1  0.69071500  0.97119000  0.65883800  1
  C  C9  1  0.80928500  0.52881000  0.65883800  1
  C  C10  1  0.19071500  0.02881000  0.84116200  1
  C  C11  1  0.30928500  0.47119000  0.84116200  1
  C  C12  1  0.30928500  0.02881000  0.34116200  1
  C  C13  1  0.19071500  0.47119000  0.34116200  1
  C  C14  1  0.80928500  0.97119000  0.15883800  1
  C  C15  1  0.69071500  0.52881000  0.15883800  1
  C  C16  1  0.83335300  0.82906400  0.48054600  1
  C  C17  1  0.66664700  0.67093600  0.48054600  1
  C  C18  1  0.33335300  0.17093600  0.01945400  1
  C  C19  1  0.16664700  0.32906400  0.01945400  1
  C  C20  1  0.16664700  0.17093600  0.51945400  1
  C  C21  1  0.33335300  0.32906400  0.51945400  1
  C  C22  1  0.66664700  0.82906400  0.98054600  1
  C  C23  1  0.83335300  0.67093600  0.98054600  1
  C  C24  1  0.03486000  0.88281600  0.63752100  1
  C  C25  1  0.46514000  0.61718400  0.63752100  1
  C  C26  1  0.53486000  0.11718400  0.86247900  1
  C  C27  1  0.96514000  0.38281600  0.86247900  1
  C  C28  1  0.96514000  0.11718400  0.36247900  1
  C  C29  1  0.53486000  0.38281600  0.36247900  1
  C  C30  1  0.46514000  0.88281600  0.13752100  1
  C  C31  1  0.03486000  0.61718400  0.13752100  1
  Ni  Ni32  1  0.91294500  0.87231400  0.43413400  1
  Ni  Ni33  1  0.58705500  0.62768600  0.43413400  1
  Ni  Ni34  1  0.41294500  0.12768600  0.06586600  1
  Ni  Ni35  1  0.08705500  0.37231400  0.06586600  1
  Ni  Ni36  1  0.08705500  0.12768600  0.56586600  1
  Ni  Ni37  1  0.41294500  0.37231400  0.56586600  1
  Ni  Ni38  1  0.58705500  0.87231400  0.93413400  1
  Ni  Ni39  1  0.91294500  0.62768600  0.93413400  1
  Cu  Cu40  1  0.96380400  0.92751000  0.83387000  1
  Cu  Cu41  1  0.53619600  0.57249000  0.83387000  1
  Cu  Cu42  1  0.46380400  0.07249000  0.66613000  1
  Cu  Cu43  1  0.03619600  0.42751000  0.66613000  1
  Cu  Cu44  1  0.03619600  0.07249000  0.16613000  1
  Cu  Cu45  1  0.46380400  0.42751000  0.16613000  1
  Cu  Cu46  1  0.53619600  0.92751000  0.33387000  1
  Cu  Cu47  1  0.96380400  0.57249000  0.33387000  1
  Cu  Cu48  1  0.09397400  0.80525800  0.72760500  1
  Cu  Cu49  1  0.40602600  0.69474200  0.72760500  1
  Cu  Cu50  1  0.59397400  0.19474200  0.77239500  1
  Cu  Cu51  1  0.90602600  0.30525800  0.77239500  1
  Cu  Cu52  1  0.90602600  0.19474200  0.27239500  1
  Cu  Cu53  1  0.59397400  0.30525800  0.27239500  1
  Cu  Cu54  1  0.40602600  0.80525800  0.22760500  1
  Cu  Cu55  1  0.09397400  0.69474200  0.22760500  1
  Cu  Cu56  1  0.17474200  0.92788800  0.54744000  1
  Cu  Cu57  1  0.32525800  0.57211200  0.54744000  1
  Cu  Cu58  1  0.67474200  0.07211200  0.95256000  1
  Cu  Cu59  1  0.82525800  0.42788800  0.95256000  1
  Cu  Cu60  1  0.82525800  0.07211200  0.45256000  1
  Cu  Cu61  1  0.67474200  0.42788800  0.45256000  1
  Cu  Cu62  1  0.32525800  0.92788800  0.04744000  1
  Cu  Cu63  1  0.17474200  0.57211200  0.04744000  1
