# generated using pymatgen
data_Cu(NiC3)2
_symmetry_space_group_name_H-M   'P 1'
_cell_length_a   7.05287100
_cell_length_b   7.02956700
_cell_length_c   10.53714764
_cell_angle_alpha   71.83490716
_cell_angle_beta   90.00000000
_cell_angle_gamma   90.00000000
_symmetry_Int_Tables_number   1
_chemical_formula_structural   Cu(NiC3)2
_chemical_formula_sum   'Cu4 Ni8 C24'
_cell_volume   496.38118634
_cell_formula_units_Z   4
loop_
 _symmetry_equiv_pos_site_id
 _symmetry_equiv_pos_as_xyz
  1  'x, y, z'
loop_
 _atom_site_type_symbol
 _atom_site_label
 _atom_site_symmetry_multiplicity
 _atom_site_fract_x
 _atom_site_fract_y
 _atom_site_fract_z
 _atom_site_occupancy
  Ni  Ni0  1  0.89713600  0.74626900  0.97402700  1
  Ni  Ni1  1  0.39713600  0.25373100  0.52597300  1
  Ni  Ni2  1  0.10286400  0.25373100  0.02597300  1
  Ni  Ni3  1  0.60286400  0.74626900  0.47402700  1
  Ni  Ni4  1  0.37686100  0.60493400  0.18208600  1
  Ni  Ni5  1  0.87686100  0.39506600  0.31791400  1
  Ni  Ni6  1  0.62313900  0.39506600  0.81791400  1
  Ni  Ni7  1  0.12313900  0.60493400  0.68208600  1
  Cu  Cu8  1  0.06900900  0.86955800  0.33082800  1
  Cu  Cu9  1  0.56900900  0.13044200  0.16917200  1
  Cu  Cu10  1  0.93099100  0.13044200  0.66917200  1
  Cu  Cu11  1  0.43099100  0.86955800  0.83082800  1
  C  C12  1  0.07028500  0.49107500  0.12044100  1
  C  C13  1  0.57028500  0.50892500  0.37955900  1
  C  C14  1  0.92971500  0.50892500  0.87955900  1
  C  C15  1  0.42971500  0.49107500  0.62044100  1
  C  C16  1  0.70634100  0.57839000  0.13839400  1
  C  C17  1  0.20634100  0.42161000  0.36160600  1
  C  C18  1  0.29365900  0.42161000  0.86160600  1
  C  C19  1  0.79365900  0.57839000  0.63839400  1
  C  C20  1  0.14777400  0.83340200  0.20202100  1
  C  C21  1  0.64777400  0.16659800  0.29797900  1
  C  C22  1  0.85222600  0.16659800  0.79797900  1
  C  C23  1  0.35222600  0.83340200  0.70202100  1
  C  C24  1  0.20707000  0.81510500  0.45189400  1
  C  C25  1  0.70707000  0.18489500  0.04810600  1
  C  C26  1  0.79293000  0.18489500  0.54810600  1
  C  C27  1  0.29293000  0.81510500  0.95189400  1
  C  C28  1  0.89236900  0.72813700  0.37212000  1
  C  C29  1  0.39236900  0.27186300  0.12788000  1
  C  C30  1  0.10763100  0.27186300  0.62788000  1
  C  C31  1  0.60763100  0.72813700  0.87212000  1
  C  C32  1  0.01778300  0.09416500  0.28608900  1
  C  C33  1  0.51778300  0.90583500  0.21391100  1
  C  C34  1  0.98221700  0.90583500  0.71391100  1
  C  C35  1  0.48221700  0.09416500  0.78608900  1
