# generated using pymatgen
data_Cu4NiC7
_symmetry_space_group_name_H-M   'P 1'
_cell_length_a   8.42086900
_cell_length_b   8.91336500
_cell_length_c   14.35463900
_cell_angle_alpha   90.00000000
_cell_angle_beta   90.00000000
_cell_angle_gamma   90.00000000
_symmetry_Int_Tables_number   1
_chemical_formula_structural   Cu4NiC7
_chemical_formula_sum   'Cu32 Ni8 C56'
_cell_volume   1077.43449921
_cell_formula_units_Z   8
loop_
 _symmetry_equiv_pos_site_id
 _symmetry_equiv_pos_as_xyz
  1  'x, y, z'
loop_
 _atom_site_type_symbol
 _atom_site_label
 _atom_site_symmetry_multiplicity
 _atom_site_fract_x
 _atom_site_fract_y
 _atom_site_fract_z
 _atom_site_occupancy
  Ni  Ni0  1  0.62613100  0.11066500  0.38608700  1
  Ni  Ni1  1  0.12613100  0.38933500  0.61391300  1
  Ni  Ni2  1  0.37386900  0.61066500  0.11391300  1
  Ni  Ni3  1  0.87386900  0.88933500  0.88608700  1
  Ni  Ni4  1  0.37386900  0.88933500  0.61391300  1
  Ni  Ni5  1  0.87386900  0.61066500  0.38608700  1
  Ni  Ni6  1  0.62613100  0.38933500  0.88608700  1
  Ni  Ni7  1  0.12613100  0.11066500  0.11391300  1
  Cu  Cu8  1  0.20433000  0.14803600  0.45514800  1
  Cu  Cu9  1  0.70433000  0.35196400  0.54485200  1
  Cu  Cu10  1  0.79567000  0.64803600  0.04485200  1
  Cu  Cu11  1  0.29567000  0.85196400  0.95514800  1
  Cu  Cu12  1  0.79567000  0.85196400  0.54485200  1
  Cu  Cu13  1  0.29567000  0.64803600  0.45514800  1
  Cu  Cu14  1  0.20433000  0.35196400  0.95514800  1
  Cu  Cu15  1  0.70433000  0.14803600  0.04485200  1
  Cu  Cu16  1  0.00924500  0.06892000  0.33752300  1
  Cu  Cu17  1  0.50924500  0.43108000  0.66247700  1
  Cu  Cu18  1  0.99075500  0.56892000  0.16247700  1
  Cu  Cu19  1  0.49075500  0.93108000  0.83752300  1
  Cu  Cu20  1  0.99075500  0.93108000  0.66247700  1
  Cu  Cu21  1  0.49075500  0.56892000  0.33752300  1
  Cu  Cu22  1  0.00924500  0.43108000  0.83752300  1
  Cu  Cu23  1  0.50924500  0.06892000  0.16247700  1
  Cu  Cu24  1  0.01551000  0.33229400  0.26592000  1
  Cu  Cu25  1  0.51551000  0.16770600  0.73408000  1
  Cu  Cu26  1  0.98449000  0.83229400  0.23408000  1
  Cu  Cu27  1  0.48449000  0.66770600  0.76592000  1
  Cu  Cu28  1  0.98449000  0.66770600  0.73408000  1
  Cu  Cu29  1  0.48449000  0.83229400  0.26592000  1
  Cu  Cu30  1  0.01551000  0.16770600  0.76592000  1
  Cu  Cu31  1  0.51551000  0.33229400  0.23408000  1
  Cu  Cu32  1  0.94481800  0.28311500  0.43513800  1
  Cu  Cu33  1  0.44481800  0.21688500  0.56486200  1
  Cu  Cu34  1  0.05518200  0.78311500  0.06486200  1
  Cu  Cu35  1  0.55518200  0.71688500  0.93513800  1
  Cu  Cu36  1  0.05518200  0.71688500  0.56486200  1
  Cu  Cu37  1  0.55518200  0.78311500  0.43513800  1
  Cu  Cu38  1  0.94481800  0.21688500  0.93513800  1
  Cu  Cu39  1  0.44481800  0.28311500  0.06486200  1
  C  C40  1  0.16322000  0.05544000  0.38423400  1
  C  C41  1  0.66322000  0.44456000  0.61576600  1
  C  C42  1  0.83678000  0.55544000  0.11576600  1
  C  C43  1  0.33678000  0.94456000  0.88423400  1
  C  C44  1  0.83678000  0.94456000  0.61576600  1
  C  C45  1  0.33678000  0.55544000  0.38423400  1
  C  C46  1  0.16322000  0.44456000  0.88423400  1
  C  C47  1  0.66322000  0.05544000  0.11576600  1
  C  C48  1  0.10094700  0.26129400  0.48326500  1
  C  C49  1  0.60094700  0.23870600  0.51673500  1
  C  C50  1  0.89905300  0.76129400  0.01673500  1
  C  C51  1  0.39905300  0.73870600  0.98326500  1
  C  C52  1  0.89905300  0.73870600  0.51673500  1
  C  C53  1  0.39905300  0.76129400  0.48326500  1
  C  C54  1  0.10094700  0.23870600  0.98326500  1
  C  C55  1  0.60094700  0.26129400  0.01673500  1
  C  C56  1  0.03242500  0.17806300  0.25451600  1
  C  C57  1  0.53242500  0.32193700  0.74548400  1
  C  C58  1  0.96757500  0.67806300  0.24548400  1
  C  C59  1  0.46757500  0.82193700  0.75451600  1
  C  C60  1  0.96757500  0.82193700  0.74548400  1
  C  C61  1  0.46757500  0.67806300  0.25451600  1
  C  C62  1  0.03242500  0.32193700  0.75451600  1
  C  C63  1  0.53242500  0.17806300  0.24548400  1
  C  C64  1  0.96915000  0.38575100  0.35230000  1
  C  C65  1  0.46915000  0.11424900  0.64770000  1
  C  C66  1  0.03085000  0.88575100  0.14770000  1
  C  C67  1  0.53085000  0.61424900  0.85230000  1
  C  C68  1  0.03085000  0.61424900  0.64770000  1
  C  C69  1  0.53085000  0.88575100  0.35230000  1
  C  C70  1  0.96915000  0.11424900  0.85230000  1
  C  C71  1  0.46915000  0.38575100  0.14770000  1
  C  C72  1  0.84800400  0.36874200  0.50002700  1
  C  C73  1  0.34800400  0.13125800  0.49997300  1
  C  C74  1  0.15199600  0.86874200  0.99997300  1
  C  C75  1  0.65199600  0.63125800  0.00002700  1
  C  C76  1  0.15199600  0.63125800  0.49997300  1
  C  C77  1  0.65199600  0.86874200  0.50002700  1
  C  C78  1  0.84800400  0.13125800  0.00002700  1
  C  C79  1  0.34800400  0.36874200  0.99997300  1
  C  C80  1  0.88889000  0.13898700  0.40023300  1
  C  C81  1  0.38889000  0.36101300  0.59976700  1
  C  C82  1  0.11111000  0.63898700  0.09976700  1
  C  C83  1  0.61111000  0.86101300  0.90023300  1
  C  C84  1  0.11111000  0.86101300  0.59976700  1
  C  C85  1  0.61111000  0.63898700  0.40023300  1
  C  C86  1  0.88889000  0.36101300  0.90023300  1
  C  C87  1  0.38889000  0.13898700  0.09976700  1
  C  C88  1  0.54735200  0.42317600  0.30764300  1
  C  C89  1  0.04735200  0.07682400  0.69235700  1
  C  C90  1  0.45264800  0.92317600  0.19235700  1
  C  C91  1  0.95264800  0.57682400  0.80764300  1
  C  C92  1  0.45264800  0.57682400  0.69235700  1
  C  C93  1  0.95264800  0.92317600  0.30764300  1
  C  C94  1  0.54735200  0.07682400  0.80764300  1
  C  C95  1  0.04735200  0.42317600  0.19235700  1
