# generated using pymatgen
data_CuNiC6
_symmetry_space_group_name_H-M   'P 1'
_cell_length_a   6.35765800
_cell_length_b   7.26720600
_cell_length_c   11.30188400
_cell_angle_alpha   90.00000000
_cell_angle_beta   90.00000000
_cell_angle_gamma   90.00000000
_symmetry_Int_Tables_number   1
_chemical_formula_structural   CuNiC6
_chemical_formula_sum   'Cu4 Ni4 C24'
_cell_volume   522.17428245
_cell_formula_units_Z   4
loop_
 _symmetry_equiv_pos_site_id
 _symmetry_equiv_pos_as_xyz
  1  'x, y, z'
loop_
 _atom_site_type_symbol
 _atom_site_label
 _atom_site_symmetry_multiplicity
 _atom_site_fract_x
 _atom_site_fract_y
 _atom_site_fract_z
 _atom_site_occupancy
  C  C0  1  0.38792800  0.75000000  0.50000000  1
  C  C1  1  0.38792800  0.75000000  0.00000000  1
  C  C2  1  0.61207200  0.25000000  0.50000000  1
  C  C3  1  0.61207200  0.25000000  0.00000000  1
  C  C4  1  0.88724500  0.96107800  0.75000000  1
  C  C5  1  0.88724500  0.53892200  0.25000000  1
  C  C6  1  0.11275500  0.46107800  0.75000000  1
  C  C7  1  0.11275500  0.03892200  0.25000000  1
  Ni  Ni8  1  0.11427200  0.25000000  0.00000000  1
  Ni  Ni9  1  0.88572800  0.75000000  0.00000000  1
  Ni  Ni10  1  0.88572800  0.75000000  0.50000000  1
  Ni  Ni11  1  0.11427200  0.25000000  0.50000000  1
  Cu  Cu12  1  0.59608900  0.57916400  0.75000000  1
  Cu  Cu13  1  0.59608900  0.92083600  0.25000000  1
  Cu  Cu14  1  0.40391100  0.07916400  0.75000000  1
  Cu  Cu15  1  0.40391100  0.42083600  0.25000000  1
  C  C16  1  0.26952700  0.07711700  0.46437300  1
  C  C17  1  0.26952700  0.42288300  0.53562700  1
  C  C18  1  0.73047300  0.57711700  0.03562700  1
  C  C19  1  0.73047300  0.92288300  0.96437300  1
  C  C20  1  0.73047300  0.92288300  0.53562700  1
  C  C21  1  0.73047300  0.57711700  0.46437300  1
  C  C22  1  0.26952700  0.42288300  0.96437300  1
  C  C23  1  0.26952700  0.07711700  0.03562700  1
  C  C24  1  0.04785400  0.76930000  0.38482900  1
  C  C25  1  0.04785400  0.76930000  0.11517100  1
  C  C26  1  0.95214600  0.26930000  0.11517100  1
  C  C27  1  0.95214600  0.23070000  0.88482900  1
  C  C28  1  0.95214600  0.23070000  0.61517100  1
  C  C29  1  0.95214600  0.26930000  0.38482900  1
  C  C30  1  0.04785400  0.73070000  0.88482900  1
  C  C31  1  0.04785400  0.73070000  0.61517100  1
