# generated using pymatgen
data_CuNiC5
_symmetry_space_group_name_H-M   'P 1'
_cell_length_a   4.79560800
_cell_length_b   6.01790700
_cell_length_c   10.23055100
_cell_angle_alpha   90.00000000
_cell_angle_beta   90.00000000
_cell_angle_gamma   90.00000000
_symmetry_Int_Tables_number   1
_chemical_formula_structural   CuNiC5
_chemical_formula_sum   'Cu4 Ni4 C20'
_cell_volume   295.24882140
_cell_formula_units_Z   4
loop_
 _symmetry_equiv_pos_site_id
 _symmetry_equiv_pos_as_xyz
  1  'x, y, z'
loop_
 _atom_site_type_symbol
 _atom_site_label
 _atom_site_symmetry_multiplicity
 _atom_site_fract_x
 _atom_site_fract_y
 _atom_site_fract_z
 _atom_site_occupancy
  C  C0  1  0.50000000  0.00000000  0.50000000  1
  C  C1  1  0.00000000  0.50000000  0.00000000  1
  C  C2  1  0.50000000  0.50000000  0.50000000  1
  C  C3  1  0.00000000  0.00000000  0.00000000  1
  Ni  Ni4  1  0.92796700  0.75000000  0.59435800  1
  Ni  Ni5  1  0.57203300  0.75000000  0.09435800  1
  Ni  Ni6  1  0.07203300  0.25000000  0.40564200  1
  Ni  Ni7  1  0.42796700  0.25000000  0.90564200  1
  Cu  Cu8  1  0.49243200  0.75000000  0.77434100  1
  Cu  Cu9  1  0.00756800  0.75000000  0.27434100  1
  Cu  Cu10  1  0.50756800  0.25000000  0.22565900  1
  Cu  Cu11  1  0.99243200  0.25000000  0.72565900  1
  C  C12  1  0.71978700  0.75000000  0.94599300  1
  C  C13  1  0.78021300  0.75000000  0.44599300  1
  C  C14  1  0.28021300  0.25000000  0.05400700  1
  C  C15  1  0.21978700  0.25000000  0.55400700  1
  C  C16  1  0.26760300  0.75000000  0.59223100  1
  C  C17  1  0.23239700  0.75000000  0.09223100  1
  C  C18  1  0.73239700  0.25000000  0.40776900  1
  C  C19  1  0.76760300  0.25000000  0.90776900  1
  C  C20  1  0.77482100  0.96882400  0.66249200  1
  C  C21  1  0.72517900  0.53117600  0.16249200  1
  C  C22  1  0.22517900  0.46882400  0.33750800  1
  C  C23  1  0.27482100  0.03117600  0.83750800  1
  C  C24  1  0.22517900  0.03117600  0.33750800  1
  C  C25  1  0.27482100  0.46882400  0.83750800  1
  C  C26  1  0.77482100  0.53117600  0.66249200  1
  C  C27  1  0.72517900  0.96882400  0.16249200  1
