# generated using pymatgen
data_Cu3NiC14
_symmetry_space_group_name_H-M   'P 1'
_cell_length_a   8.40025376
_cell_length_b   8.40025316
_cell_length_c   8.40025381
_cell_angle_alpha   64.63108249
_cell_angle_beta   64.63108687
_cell_angle_gamma   64.63109322
_symmetry_Int_Tables_number   1
_chemical_formula_structural   Cu3NiC14
_chemical_formula_sum   'Cu6 Ni2 C28'
_cell_volume   461.66647460
_cell_formula_units_Z   2
loop_
 _symmetry_equiv_pos_site_id
 _symmetry_equiv_pos_as_xyz
  1  'x, y, z'
loop_
 _atom_site_type_symbol
 _atom_site_label
 _atom_site_symmetry_multiplicity
 _atom_site_fract_x
 _atom_site_fract_y
 _atom_site_fract_z
 _atom_site_occupancy
  C  C0  1  0.99319100  0.99319100  0.99319100  1
  C  C1  1  0.49319100  0.49319100  0.49319100  1
  C  C2  1  0.14900100  0.14900100  0.14900100  1
  C  C3  1  0.64900100  0.64900100  0.64900100  1
  Ni  Ni4  1  0.33220500  0.33220500  0.33220500  1
  Ni  Ni5  1  0.83220500  0.83220500  0.83220500  1
  Cu  Cu6  1  0.06529700  0.42887800  0.76007300  1
  Cu  Cu7  1  0.42887800  0.76007300  0.06529700  1
  Cu  Cu8  1  0.76007300  0.06529700  0.42887800  1
  Cu  Cu9  1  0.26007300  0.92887800  0.56529700  1
  Cu  Cu10  1  0.56529700  0.26007300  0.92887800  1
  Cu  Cu11  1  0.92887800  0.56529700  0.26007300  1
  C  C12  1  0.05819700  0.56333800  0.34323300  1
  C  C13  1  0.34323300  0.05819700  0.56333800  1
  C  C14  1  0.06913600  0.23525800  0.90621900  1
  C  C15  1  0.56333800  0.34323300  0.05819700  1
  C  C16  1  0.06333800  0.55819700  0.84323300  1
  C  C17  1  0.24318100  0.41751400  0.59331000  1
  C  C18  1  0.23525800  0.90621900  0.06913600  1
  C  C19  1  0.41751400  0.59331000  0.24318100  1
  C  C20  1  0.20667900  0.00678800  0.37850200  1
  C  C21  1  0.59331000  0.24318100  0.41751400  1
  C  C22  1  0.09331000  0.91751400  0.74318100  1
  C  C23  1  0.37850200  0.20667900  0.00678800  1
  C  C24  1  0.55819700  0.84323300  0.06333800  1
  C  C25  1  0.90621900  0.06913600  0.23525800  1
  C  C26  1  0.40621900  0.73525800  0.56913600  1
  C  C27  1  0.84323300  0.06333800  0.55819700  1
  C  C28  1  0.56913600  0.40621900  0.73525800  1
  C  C29  1  0.74318100  0.09331000  0.91751400  1
  C  C30  1  0.73525800  0.56913600  0.40621900  1
  C  C31  1  0.00678800  0.37850200  0.20667900  1
  C  C32  1  0.50678800  0.70667900  0.87850200  1
  C  C33  1  0.91751400  0.74318100  0.09331000  1
  C  C34  1  0.70667900  0.87850200  0.50678800  1
  C  C35  1  0.87850200  0.50678800  0.70667900  1
