# generated using pymatgen
data_Cu18NiC18
_symmetry_space_group_name_H-M   'P 1'
_cell_length_a   17.91138400
_cell_length_b   17.91138400
_cell_length_c   2.87947000
_cell_angle_alpha   90.00000000
_cell_angle_beta   90.00000000
_cell_angle_gamma   90.00000000
_symmetry_Int_Tables_number   1
_chemical_formula_structural   Cu18NiC18
_chemical_formula_sum   'Cu36 Ni2 C36'
_cell_volume   923.78487580
_cell_formula_units_Z   2
loop_
 _symmetry_equiv_pos_site_id
 _symmetry_equiv_pos_as_xyz
  1  'x, y, z'
loop_
 _atom_site_type_symbol
 _atom_site_label
 _atom_site_symmetry_multiplicity
 _atom_site_fract_x
 _atom_site_fract_y
 _atom_site_fract_z
 _atom_site_occupancy
  C  C0  1  0.55025500  0.05025500  0.50000000  1
  C  C1  1  0.44974500  0.94974500  0.50000000  1
  C  C2  1  0.05025500  0.44974500  0.50000000  1
  C  C3  1  0.94974500  0.55025500  0.50000000  1
  C  C4  1  0.20907500  0.70907500  0.50000000  1
  C  C5  1  0.79092500  0.29092500  0.50000000  1
  C  C6  1  0.70907500  0.79092500  0.50000000  1
  C  C7  1  0.29092500  0.20907500  0.50000000  1
  C  C8  1  0.81239800  0.03208800  0.50000000  1
  C  C9  1  0.18760200  0.96791200  0.50000000  1
  C  C10  1  0.31239800  0.46791200  0.50000000  1
  C  C11  1  0.68760200  0.53208800  0.50000000  1
  C  C12  1  0.96791200  0.81239800  0.50000000  1
  C  C13  1  0.03208800  0.18760200  0.50000000  1
  C  C14  1  0.53208800  0.31239800  0.50000000  1
  C  C15  1  0.46791200  0.68760200  0.50000000  1
  C  C16  1  0.66898600  0.16898600  0.50000000  1
  C  C17  1  0.33101400  0.83101400  0.50000000  1
  C  C18  1  0.16898600  0.33101400  0.50000000  1
  C  C19  1  0.83101400  0.66898600  0.50000000  1
  Ni  Ni20  1  0.50000000  0.50000000  0.50000000  1
  Ni  Ni21  1  0.00000000  0.00000000  0.50000000  1
  C  C22  1  0.16551000  0.53840100  0.50000000  1
  C  C23  1  0.83449000  0.46159900  0.50000000  1
  C  C24  1  0.66551000  0.96159900  0.50000000  1
  C  C25  1  0.33449000  0.03840100  0.50000000  1
  C  C26  1  0.46159900  0.16551000  0.50000000  1
  C  C27  1  0.53840100  0.83449000  0.50000000  1
  C  C28  1  0.03840100  0.66551000  0.50000000  1
  C  C29  1  0.96159900  0.33449000  0.50000000  1
  C  C30  1  0.33355100  0.62376900  0.50000000  1
  C  C31  1  0.66644900  0.37623100  0.50000000  1
  C  C32  1  0.83355100  0.87623100  0.50000000  1
  C  C33  1  0.16644900  0.12376900  0.50000000  1
  C  C34  1  0.37623100  0.33355100  0.50000000  1
  C  C35  1  0.62376900  0.66644900  0.50000000  1
  C  C36  1  0.12376900  0.83355100  0.50000000  1
  C  C37  1  0.87623100  0.16644900  0.50000000  1
  Cu  Cu38  1  0.24388500  0.58763700  0.00000000  1
  Cu  Cu39  1  0.75611500  0.41236300  0.00000000  1
  Cu  Cu40  1  0.74388500  0.91236300  0.00000000  1
  Cu  Cu41  1  0.25611500  0.08763700  0.00000000  1
  Cu  Cu42  1  0.41236300  0.24388500  0.00000000  1
  Cu  Cu43  1  0.58763700  0.75611500  0.00000000  1
  Cu  Cu44  1  0.08763700  0.74388500  0.00000000  1
  Cu  Cu45  1  0.91236300  0.25611500  0.00000000  1
  Cu  Cu46  1  0.08180700  0.58180700  0.00000000  1
  Cu  Cu47  1  0.91819300  0.41819300  0.00000000  1
  Cu  Cu48  1  0.58180700  0.91819300  0.00000000  1
  Cu  Cu49  1  0.41819300  0.08180700  0.00000000  1
  Cu  Cu50  1  0.67396900  0.04817800  0.00000000  1
  Cu  Cu51  1  0.32603100  0.95182200  0.00000000  1
  Cu  Cu52  1  0.17396900  0.45182200  0.00000000  1
  Cu  Cu53  1  0.82603100  0.54817800  0.00000000  1
  Cu  Cu54  1  0.95182200  0.67396900  0.00000000  1
  Cu  Cu55  1  0.04817800  0.32603100  0.00000000  1
  Cu  Cu56  1  0.54817800  0.17396900  0.00000000  1
  Cu  Cu57  1  0.45182200  0.82603100  0.00000000  1
  Cu  Cu58  1  0.40086600  0.56668500  0.00000000  1
  Cu  Cu59  1  0.59913400  0.43331500  0.00000000  1
  Cu  Cu60  1  0.90086600  0.93331500  0.00000000  1
  Cu  Cu61  1  0.09913400  0.06668500  0.00000000  1
  Cu  Cu62  1  0.43331500  0.40086600  0.00000000  1
  Cu  Cu63  1  0.56668500  0.59913400  0.00000000  1
  Cu  Cu64  1  0.06668500  0.90086600  0.00000000  1
  Cu  Cu65  1  0.93331500  0.09913400  0.00000000  1
  Cu  Cu66  1  0.33919800  0.71106200  0.00000000  1
  Cu  Cu67  1  0.66080200  0.28893800  0.00000000  1
  Cu  Cu68  1  0.83919800  0.78893800  0.00000000  1
  Cu  Cu69  1  0.16080200  0.21106200  0.00000000  1
  Cu  Cu70  1  0.28893800  0.33919800  0.00000000  1
  Cu  Cu71  1  0.71106200  0.66080200  0.00000000  1
  Cu  Cu72  1  0.21106200  0.83919800  0.00000000  1
  Cu  Cu73  1  0.78893800  0.16080200  0.00000000  1
