# generated using pymatgen
data_Cu(NiC9)2
_symmetry_space_group_name_H-M   'P 1'
_cell_length_a   9.22945300
_cell_length_b   11.50348500
_cell_length_c   12.65698900
_cell_angle_alpha   90.00000000
_cell_angle_beta   90.00000000
_cell_angle_gamma   90.00000000
_symmetry_Int_Tables_number   1
_chemical_formula_structural   Cu(NiC9)2
_chemical_formula_sum   'Cu4 Ni8 C72'
_cell_volume   1343.80358616
_cell_formula_units_Z   4
loop_
 _symmetry_equiv_pos_site_id
 _symmetry_equiv_pos_as_xyz
  1  'x, y, z'
loop_
 _atom_site_type_symbol
 _atom_site_label
 _atom_site_symmetry_multiplicity
 _atom_site_fract_x
 _atom_site_fract_y
 _atom_site_fract_z
 _atom_site_occupancy
  Ni  Ni0  1  0.52635500  0.27559600  0.18289800  1
  Ni  Ni1  1  0.52635500  0.22440400  0.81710200  1
  Ni  Ni2  1  0.97364500  0.77559600  0.31710200  1
  Ni  Ni3  1  0.97364500  0.72440400  0.68289800  1
  Ni  Ni4  1  0.47364500  0.72440400  0.81710200  1
  Ni  Ni5  1  0.47364500  0.77559600  0.18289800  1
  Ni  Ni6  1  0.02635500  0.22440400  0.68289800  1
  Ni  Ni7  1  0.02635500  0.27559600  0.31710200  1
  Cu  Cu8  1  0.62811800  0.25000000  0.50000000  1
  Cu  Cu9  1  0.87188200  0.75000000  0.00000000  1
  Cu  Cu10  1  0.37188200  0.75000000  0.50000000  1
  Cu  Cu11  1  0.12811800  0.25000000  0.00000000  1
  C  C12  1  0.75106900  0.51818000  0.37704500  1
  C  C13  1  0.75106900  0.98182000  0.62295500  1
  C  C14  1  0.74893100  0.01818000  0.12295500  1
  C  C15  1  0.74893100  0.48182000  0.87704500  1
  C  C16  1  0.24893100  0.48182000  0.62295500  1
  C  C17  1  0.24893100  0.01818000  0.37704500  1
  C  C18  1  0.25106900  0.98182000  0.87704500  1
  C  C19  1  0.25106900  0.51818000  0.12295500  1
  C  C20  1  0.63520000  0.99604700  0.36845500  1
  C  C21  1  0.63520000  0.50395300  0.63154500  1
  C  C22  1  0.86480000  0.49604700  0.13154500  1
  C  C23  1  0.86480000  0.00395300  0.86845500  1
  C  C24  1  0.36480000  0.00395300  0.63154500  1
  C  C25  1  0.36480000  0.49604700  0.36845500  1
  C  C26  1  0.13520000  0.50395300  0.86845500  1
  C  C27  1  0.13520000  0.99604700  0.13154500  1
  C  C28  1  0.64181500  0.13109700  0.36890300  1
  C  C29  1  0.64181500  0.36890300  0.63109700  1
  C  C30  1  0.85818500  0.63109700  0.13109700  1
  C  C31  1  0.85818500  0.86890300  0.86890300  1
  C  C32  1  0.35818500  0.86890300  0.63109700  1
  C  C33  1  0.35818500  0.63109700  0.36890300  1
  C  C34  1  0.14181500  0.36890300  0.86890300  1
  C  C35  1  0.14181500  0.13109700  0.13109700  1
  C  C36  1  0.52070300  0.44952500  0.36072300  1
  C  C37  1  0.52070300  0.05047500  0.63927700  1
  C  C38  1  0.97929700  0.94952500  0.13927700  1
  C  C39  1  0.97929700  0.55047500  0.86072300  1
  C  C40  1  0.47929700  0.55047500  0.63927700  1
  C  C41  1  0.47929700  0.94952500  0.36072300  1
  C  C42  1  0.02070300  0.05047500  0.86072300  1
  C  C43  1  0.02070300  0.44952500  0.13927700  1
  C  C44  1  0.70623700  0.55413100  0.53021100  1
  C  C45  1  0.70623700  0.94586900  0.46978900  1
  C  C46  1  0.79376300  0.05413100  0.96978900  1
  C  C47  1  0.79376300  0.44586900  0.03021100  1
  C  C48  1  0.31271400  0.34637500  0.66467000  1
  C  C49  1  0.29376300  0.44586900  0.46978900  1
  C  C50  1  0.20623700  0.94586900  0.03021100  1
  C  C51  1  0.20623700  0.55413100  0.96978900  1
  C  C52  1  0.68728600  0.65362500  0.33533000  1
  C  C53  1  0.68728600  0.84637500  0.66467000  1
  C  C54  1  0.81271400  0.15362500  0.16467000  1
  C  C55  1  0.81271400  0.34637500  0.83533000  1
  C  C56  1  0.26461600  0.34259000  0.07312900  1
  C  C57  1  0.26461600  0.15741000  0.92687100  1
  C  C58  1  0.23538400  0.84259000  0.42687100  1
  C  C59  1  0.23538400  0.65741000  0.57312900  1
  C  C60  1  0.73538400  0.65741000  0.92687100  1
  C  C61  1  0.73538400  0.84259000  0.07312900  1
  C  C62  1  0.76461600  0.15741000  0.57312900  1
  C  C63  1  0.76461600  0.34259000  0.42687100  1
  C  C64  1  0.27313600  0.45074700  0.27294900  1
  C  C65  1  0.27313600  0.04925300  0.72705100  1
  C  C66  1  0.22686400  0.95074700  0.22705100  1
  C  C67  1  0.22686400  0.54925300  0.77294900  1
  C  C68  1  0.72686400  0.54925300  0.72705100  1
  C  C69  1  0.72686400  0.95074700  0.27294900  1
  C  C70  1  0.77313600  0.04925300  0.77294900  1
  C  C71  1  0.77313600  0.45074700  0.22705100  1
  C  C72  1  0.43655400  0.54259200  0.11307200  1
  C  C73  1  0.43655400  0.95740800  0.88692800  1
  C  C74  1  0.06344600  0.04259200  0.38692800  1
  C  C75  1  0.06344600  0.45740800  0.61307200  1
  C  C76  1  0.56344600  0.45740800  0.88692800  1
  C  C77  1  0.56344600  0.04259200  0.11307200  1
  C  C78  1  0.93655400  0.95740800  0.61307200  1
  C  C79  1  0.93655400  0.54259200  0.38692800  1
  C  C80  1  0.18728600  0.65362500  0.16467000  1
  C  C81  1  0.18728600  0.84637500  0.83533000  1
  C  C82  1  0.31271400  0.15362500  0.33533000  1
  C  C83  1  0.29376300  0.05413100  0.53021100  1
