# generated using pymatgen
data_CuNi8C17
_symmetry_space_group_name_H-M   'P 1'
_cell_length_a   7.83289050
_cell_length_b   7.83289050
_cell_length_c   10.29335202
_cell_angle_alpha   80.27407212
_cell_angle_beta   80.27407212
_cell_angle_gamma   64.10447373
_symmetry_Int_Tables_number   1
_chemical_formula_structural   CuNi8C17
_chemical_formula_sum   'Cu1 Ni8 C17'
_cell_volume   556.72870642
_cell_formula_units_Z   1
loop_
 _symmetry_equiv_pos_site_id
 _symmetry_equiv_pos_as_xyz
  1  'x, y, z'
loop_
 _atom_site_type_symbol
 _atom_site_label
 _atom_site_symmetry_multiplicity
 _atom_site_fract_x
 _atom_site_fract_y
 _atom_site_fract_z
 _atom_site_occupancy
  Ni  Ni0  1  0.81796800  0.30138500  0.29863500  1
  Ni  Ni1  1  0.30138500  0.81796800  0.29863500  1
  Ni  Ni2  1  0.18203200  0.69861500  0.70136500  1
  Ni  Ni3  1  0.69861500  0.18203200  0.70136500  1
  Ni  Ni4  1  0.79658000  0.79658000  0.45631300  1
  Ni  Ni5  1  0.20342000  0.20342000  0.54368700  1
  Ni  Ni6  1  0.31766300  0.31766300  0.01640200  1
  Ni  Ni7  1  0.68233700  0.68233700  0.98359800  1
  Cu  Cu8  1  0.00000000  0.00000000  0.00000000  1
  C  C9  1  0.17946000  0.56683000  0.46487400  1
  C  C10  1  0.56683000  0.17946000  0.46487400  1
  C  C11  1  0.82054000  0.43317000  0.53512600  1
  C  C12  1  0.43317000  0.82054000  0.53512600  1
  C  C13  1  0.94209700  0.32736100  0.03392300  1
  C  C14  1  0.32736100  0.94209700  0.03392300  1
  C  C15  1  0.05790300  0.67263900  0.96607700  1
  C  C16  1  0.67263900  0.05790300  0.96607700  1
  C  C17  1  0.94153300  0.94153300  0.22807000  1
  C  C18  1  0.05846700  0.05846700  0.77193000  1
  C  C19  1  0.78804600  0.78804600  0.72014300  1
  C  C20  1  0.21195400  0.21195400  0.27985700  1
  C  C21  1  0.69846600  0.69846600  0.24458400  1
  C  C22  1  0.30153400  0.30153400  0.75541600  1
  C  C23  1  0.47834000  0.47834000  0.17003700  1
  C  C24  1  0.52166000  0.52166000  0.82996300  1
  C  C25  1  0.00000000  0.00000000  0.50000000  1
