# generated using pymatgen
data_Cu4NiC8
_symmetry_space_group_name_H-M   'P 1'
_cell_length_a   7.15822744
_cell_length_b   7.15822743
_cell_length_c   7.15822918
_cell_angle_alpha   56.93656052
_cell_angle_beta   56.93655060
_cell_angle_gamma   56.93656018
_symmetry_Int_Tables_number   1
_chemical_formula_structural   Cu4NiC8
_chemical_formula_sum   'Cu4 Ni1 C8'
_cell_volume   241.03333830
_cell_formula_units_Z   1
loop_
 _symmetry_equiv_pos_site_id
 _symmetry_equiv_pos_as_xyz
  1  'x, y, z'
loop_
 _atom_site_type_symbol
 _atom_site_label
 _atom_site_symmetry_multiplicity
 _atom_site_fract_x
 _atom_site_fract_y
 _atom_site_fract_z
 _atom_site_occupancy
  Ni  Ni0  1  0.50000000  0.50000100  0.49999900  1
  Cu  Cu1  1  0.50000100  0.99999900  0.50000100  1
  Cu  Cu2  1  0.99999900  0.50000000  0.50000100  1
  Cu  Cu3  1  0.50000000  0.50000000  0.00000000  1
  Cu  Cu4  1  0.00000000  0.00000000  0.00000000  1
  C  C5  1  0.75907500  0.25695100  0.75907500  1
  C  C6  1  0.24092400  0.24092500  0.74304900  1
  C  C7  1  0.24092400  0.74305000  0.24092400  1
  C  C8  1  0.74304800  0.24092500  0.24092500  1
  C  C9  1  0.25954900  0.25955000  0.25954900  1
  C  C10  1  0.74045100  0.74045100  0.74045100  1
  C  C11  1  0.25695200  0.75907600  0.75907500  1
  C  C12  1  0.75907600  0.75907600  0.25695100  1
