# generated using pymatgen
data_Cu(NiC4)2
_symmetry_space_group_name_H-M   'P 1'
_cell_length_a   5.75169400
_cell_length_b   6.03547349
_cell_length_c   5.07276730
_cell_angle_alpha   102.81877700
_cell_angle_beta   90.00000000
_cell_angle_gamma   118.45644314
_symmetry_Int_Tables_number   1
_chemical_formula_structural   Cu(NiC4)2
_chemical_formula_sum   'Cu1 Ni2 C8'
_cell_volume   149.80998042
_cell_formula_units_Z   1
loop_
 _symmetry_equiv_pos_site_id
 _symmetry_equiv_pos_as_xyz
  1  'x, y, z'
loop_
 _atom_site_type_symbol
 _atom_site_label
 _atom_site_symmetry_multiplicity
 _atom_site_fract_x
 _atom_site_fract_y
 _atom_site_fract_z
 _atom_site_occupancy
  Ni  Ni0  1  0.62894400  0.25788800  0.86355400  1
  Ni  Ni1  1  0.33537100  0.67074100  0.24967700  1
  Cu  Cu2  1  0.79465200  0.58930300  0.49584800  1
  C  C3  1  0.01517900  0.03035900  0.48487300  1
  C  C4  1  0.00482000  0.00963900  0.98367500  1
  C  C5  1  0.85710600  0.16065100  0.27318300  1
  C  C6  1  0.72245700  0.86625400  0.68603100  1
  C  C7  1  0.15880300  0.31760400  0.78708500  1
  C  C8  1  0.85824400  0.71648800  0.19130700  1
  C  C9  1  0.14379700  0.86625400  0.68603100  1
  C  C10  1  0.30354400  0.16065100  0.27318300  1
