# generated using pymatgen
data_Cu2NiC3
_symmetry_space_group_name_H-M   'P 1'
_cell_length_a   5.39651014
_cell_length_b   5.40140306
_cell_length_c   4.80548900
_cell_angle_alpha   90.00000000
_cell_angle_beta   90.00000000
_cell_angle_gamma   120.02999428
_symmetry_Int_Tables_number   1
_chemical_formula_structural   Cu2NiC3
_chemical_formula_sum   'Cu4 Ni2 C6'
_cell_volume   121.27086093
_cell_formula_units_Z   2
loop_
 _symmetry_equiv_pos_site_id
 _symmetry_equiv_pos_as_xyz
  1  'x, y, z'
loop_
 _atom_site_type_symbol
 _atom_site_label
 _atom_site_symmetry_multiplicity
 _atom_site_fract_x
 _atom_site_fract_y
 _atom_site_fract_z
 _atom_site_occupancy
  Ni  Ni0  1  0.00000000  0.60493400  0.47685700  1
  Ni  Ni1  1  0.00000000  0.39506600  0.97685700  1
  Cu  Cu2  1  0.33355600  0.32405100  0.49992700  1
  Cu  Cu3  1  0.66644400  0.99049400  0.49992700  1
  Cu  Cu4  1  0.66644400  0.67594900  0.99992700  1
  Cu  Cu5  1  0.33355600  0.00950600  0.99992700  1
  C  C6  1  0.39658200  0.34344200  0.86260600  1
  C  C7  1  0.60341800  0.94686000  0.86260600  1
  C  C8  1  0.60341800  0.65655800  0.36260600  1
  C  C9  1  0.39658200  0.05314000  0.36260600  1
  C  C10  1  0.00000000  0.76187200  0.88607700  1
  C  C11  1  0.00000000  0.23812800  0.38607800  1
