# generated using pymatgen
data_Cu3NiC3
_symmetry_space_group_name_H-M   'P 1'
_cell_length_a   7.60327417
_cell_length_b   7.60327417
_cell_length_c   7.60327403
_cell_angle_alpha   106.89475806
_cell_angle_beta   106.89475806
_cell_angle_gamma   106.89475975
_symmetry_Int_Tables_number   1
_chemical_formula_structural   Cu3NiC3
_chemical_formula_sum   'Cu6 Ni2 C6'
_cell_volume   367.10193292
_cell_formula_units_Z   2
loop_
 _symmetry_equiv_pos_site_id
 _symmetry_equiv_pos_as_xyz
  1  'x, y, z'
loop_
 _atom_site_type_symbol
 _atom_site_label
 _atom_site_symmetry_multiplicity
 _atom_site_fract_x
 _atom_site_fract_y
 _atom_site_fract_z
 _atom_site_occupancy
  C  C0  1  0.95320600  0.46008400  0.88052100  1
  C  C1  1  0.38052100  0.96008400  0.45320600  1
  C  C2  1  0.88052100  0.95320600  0.46008400  1
  C  C3  1  0.45320600  0.38052100  0.96008400  1
  C  C4  1  0.46008400  0.88052100  0.95320600  1
  C  C5  1  0.96008400  0.45320600  0.38052100  1
  Ni  Ni6  1  0.40170000  0.40170000  0.40170000  1
  Ni  Ni7  1  0.90170000  0.90170000  0.90170000  1
  Cu  Cu8  1  0.68254700  0.57450900  0.32273300  1
  Cu  Cu9  1  0.82273300  0.07450900  0.18254700  1
  Cu  Cu10  1  0.32273300  0.68254700  0.57450900  1
  Cu  Cu11  1  0.18254700  0.82273300  0.07450900  1
  Cu  Cu12  1  0.57450900  0.32273300  0.68254700  1
  Cu  Cu13  1  0.07450900  0.18254700  0.82273300  1
