# generated using pymatgen
data_Cu6NiC16
_symmetry_space_group_name_H-M   'P 1'
_cell_length_a   11.32072300
_cell_length_b   8.05537500
_cell_length_c   12.15139877
_cell_angle_alpha   90.00000000
_cell_angle_beta   115.27213303
_cell_angle_gamma   90.00000000
_symmetry_Int_Tables_number   1
_chemical_formula_structural   Cu6NiC16
_chemical_formula_sum   'Cu24 Ni4 C64'
_cell_volume   1002.06079490
_cell_formula_units_Z   4
loop_
 _symmetry_equiv_pos_site_id
 _symmetry_equiv_pos_as_xyz
  1  'x, y, z'
loop_
 _atom_site_type_symbol
 _atom_site_label
 _atom_site_symmetry_multiplicity
 _atom_site_fract_x
 _atom_site_fract_y
 _atom_site_fract_z
 _atom_site_occupancy
  Ni  Ni0  1  0.28691700  0.46317300  0.77413800  1
  Ni  Ni1  1  0.28691700  0.03682700  0.27413800  1
  Ni  Ni2  1  0.71308300  0.53682700  0.22586200  1
  Ni  Ni3  1  0.71308300  0.96317300  0.72586200  1
  Cu  Cu4  1  0.16853800  0.27094900  0.73139600  1
  Cu  Cu5  1  0.16853800  0.22905100  0.23139600  1
  Cu  Cu6  1  0.83146200  0.72905100  0.26860400  1
  Cu  Cu7  1  0.83146200  0.77094900  0.76860400  1
  Cu  Cu8  1  0.11904600  0.28440100  0.85551900  1
  Cu  Cu9  1  0.11904600  0.21559900  0.35551900  1
  Cu  Cu10  1  0.88095400  0.71559900  0.14448100  1
  Cu  Cu11  1  0.88095400  0.78440100  0.64448100  1
  Cu  Cu12  1  0.28981700  0.27846400  0.88199000  1
  Cu  Cu13  1  0.28981700  0.22153600  0.38199000  1
  Cu  Cu14  1  0.71018300  0.72153600  0.11801000  1
  Cu  Cu15  1  0.71018300  0.77846400  0.61801000  1
  Cu  Cu16  1  0.30018200  0.70556600  0.76809600  1
  Cu  Cu17  1  0.30018200  0.79443400  0.26809600  1
  Cu  Cu18  1  0.69981800  0.29443400  0.23190400  1
  Cu  Cu19  1  0.69981800  0.20556600  0.73190400  1
  Cu  Cu20  1  0.27513200  0.72149200  0.61021100  1
  Cu  Cu21  1  0.27513200  0.77850800  0.11021100  1
  Cu  Cu22  1  0.72486800  0.27850800  0.38978900  1
  Cu  Cu23  1  0.72486800  0.22149200  0.88978900  1
  Cu  Cu24  1  0.40099200  0.59049400  0.71971200  1
  Cu  Cu25  1  0.40099200  0.90950600  0.21971200  1
  Cu  Cu26  1  0.59900800  0.40950600  0.28028800  1
  Cu  Cu27  1  0.59900800  0.09049400  0.78028800  1
  C  C28  1  0.17209300  0.14949500  0.67655900  1
  C  C29  1  0.17209300  0.35050500  0.17655900  1
  C  C30  1  0.82790700  0.85050500  0.32344100  1
  C  C31  1  0.82790700  0.64949500  0.82344100  1
  C  C32  1  0.07839000  0.15803000  0.87936400  1
  C  C33  1  0.07839000  0.34197000  0.37936400  1
  C  C34  1  0.92161000  0.84197000  0.12063600  1
  C  C35  1  0.92161000  0.65803000  0.62063600  1
  C  C36  1  0.36059300  0.16089900  0.91211300  1
  C  C37  1  0.36059300  0.33910100  0.41211300  1
  C  C38  1  0.63940700  0.83910100  0.08788700  1
  C  C39  1  0.63940700  0.66089900  0.58788700  1
  C  C40  1  0.07477100  0.41358600  0.86972800  1
  C  C41  1  0.07477100  0.08641400  0.36972800  1
  C  C42  1  0.92522900  0.58641400  0.13027200  1
  C  C43  1  0.92522900  0.91358600  0.63027200  1
  C  C44  1  0.05416500  0.27846500  0.72533600  1
  C  C45  1  0.05416500  0.22153500  0.22533600  1
  C  C46  1  0.94583500  0.72153500  0.27466400  1
  C  C47  1  0.94583500  0.77846500  0.77466400  1
  C  C48  1  0.24286100  0.29461300  0.95904600  1
  C  C49  1  0.24286100  0.20538700  0.45904600  1
  C  C50  1  0.75713900  0.70538700  0.04095400  1
  C  C51  1  0.75713900  0.79461300  0.54095400  1
  C  C52  1  0.35550800  0.41022900  0.90979400  1
  C  C53  1  0.35550800  0.08977100  0.40979400  1
  C  C54  1  0.64449200  0.58977100  0.09020600  1
  C  C55  1  0.64449200  0.91022900  0.59020600  1
  C  C56  1  0.15830900  0.39983200  0.66981500  1
  C  C57  1  0.15830900  0.10016800  0.16981500  1
  C  C58  1  0.84169100  0.60016800  0.33018500  1
  C  C59  1  0.84169100  0.89983200  0.83018500  1
  C  C60  1  0.36004900  0.79795100  0.85016400  1
  C  C61  1  0.36004900  0.70204900  0.35016400  1
  C  C62  1  0.63995100  0.20204900  0.14983600  1
  C  C63  1  0.63995100  0.29795100  0.64983600  1
  C  C64  1  0.31247000  0.84673100  0.58168200  1
  C  C65  1  0.31247000  0.65326900  0.08168200  1
  C  C66  1  0.68753000  0.15326900  0.41831800  1
  C  C67  1  0.68753000  0.34673100  0.91831800  1
  C  C68  1  0.51465200  0.62204500  0.77410300  1
  C  C69  1  0.51465200  0.87795500  0.27410300  1
  C  C70  1  0.48534800  0.37795500  0.22589700  1
  C  C71  1  0.48534800  0.12204500  0.72589700  1
  C  C72  1  0.18014500  0.65400800  0.53503600  1
  C  C73  1  0.18014500  0.84599200  0.03503600  1
  C  C74  1  0.81985500  0.34599200  0.46496400  1
  C  C75  1  0.81985500  0.15400800  0.96496400  1
  C  C76  1  0.21694700  0.79202400  0.68382100  1
  C  C77  1  0.21694700  0.70797600  0.18382100  1
  C  C78  1  0.78305300  0.20797600  0.31617900  1
  C  C79  1  0.78305300  0.29202400  0.81617900  1
  C  C80  1  0.37258200  0.60990100  0.60814100  1
  C  C81  1  0.37258200  0.89009900  0.10814100  1
  C  C82  1  0.62741800  0.39009900  0.39185900  1
  C  C83  1  0.62741800  0.10990100  0.89185900  1
  C  C84  1  0.38306300  0.43641600  0.71500700  1
  C  C85  1  0.38306300  0.06358400  0.21500700  1
  C  C86  1  0.61693700  0.56358400  0.28499300  1
  C  C87  1  0.61693700  0.93641600  0.78499300  1
  C  C88  1  0.21906700  0.62251200  0.79011200  1
  C  C89  1  0.21906700  0.87748800  0.29011200  1
  C  C90  1  0.78093300  0.37748800  0.20988800  1
  C  C91  1  0.78093300  0.12251200  0.70988800  1
