# generated using pymatgen
data_Cu9(Ni2C)2
_symmetry_space_group_name_H-M   'P 1'
_cell_length_a   12.01747086
_cell_length_b   12.04059581
_cell_length_c   27.11330801
_cell_angle_alpha   90.00000000
_cell_angle_beta   90.00000000
_cell_angle_gamma   90.00000000
_symmetry_Int_Tables_number   1
_chemical_formula_structural   Cu9(Ni2C)2
_chemical_formula_sum   'Cu72 Ni32 C16'
_cell_volume   3923.22813749
_cell_formula_units_Z   8
loop_
 _symmetry_equiv_pos_site_id
 _symmetry_equiv_pos_as_xyz
  1  'x, y, z'
loop_
 _atom_site_type_symbol
 _atom_site_label
 _atom_site_symmetry_multiplicity
 _atom_site_fract_x
 _atom_site_fract_y
 _atom_site_fract_z
 _atom_site_occupancy
  C  C0  1  0.30669135  0.47854514  0.48341387  1
  C  C1  1  0.69330865  0.02145486  0.98341387  1
  C  C2  1  0.19330865  0.97854514  0.51658613  1
  C  C3  1  0.80669135  0.52145486  0.01658613  1
  C  C4  1  0.69189303  0.42328477  0.71935973  1
  C  C5  1  0.30810697  0.07671523  0.21935973  1
  C  C6  1  0.80810697  0.92328477  0.28064027  1
  C  C7  1  0.19189303  0.57671523  0.78064027  1
  C  C8  1  0.80236816  0.55163006  0.53857659  1
  C  C9  1  0.19763184  0.94836994  0.03857659  1
  C  C10  1  0.69763184  0.05163006  0.46142341  1
  C  C11  1  0.30236816  0.44836994  0.96142341  1
  C  C12  1  0.71694609  0.95071664  0.76426507  1
  C  C13  1  0.28305391  0.54928336  0.26426507  1
  C  C14  1  0.78305391  0.45071664  0.23573493  1
  C  C15  1  0.21694609  0.04928336  0.73573493  1
  Ni  Ni16  1  0.54019229  0.18287718  0.61049959  1
  Ni  Ni17  1  0.45980771  0.31712282  0.11049959  1
  Ni  Ni18  1  0.95980771  0.68287718  0.38950041  1
  Ni  Ni19  1  0.04019229  0.81712282  0.88950041  1
  Ni  Ni20  1  0.84179039  0.20354720  0.60841083  1
  Ni  Ni21  1  0.15820961  0.29645280  0.10841083  1
  Ni  Ni22  1  0.65820961  0.70354720  0.39158917  1
  Ni  Ni23  1  0.34179039  0.79645280  0.89158917  1
  Ni  Ni24  1  0.52103789  0.86824051  0.58551405  1
  Ni  Ni25  1  0.47896211  0.63175949  0.08551405  1
  Ni  Ni26  1  0.97896211  0.36824051  0.41448595  1
  Ni  Ni27  1  0.02103789  0.13175949  0.91448595  1
  Ni  Ni28  1  0.33580115  0.68656463  0.63804077  1
  Ni  Ni29  1  0.66419885  0.81343537  0.13804077  1
  Ni  Ni30  1  0.16419885  0.18656463  0.36195923  1
  Ni  Ni31  1  0.83580115  0.31343537  0.86195923  1
  Ni  Ni32  1  0.03550474  0.39358647  0.65520665  1
  Ni  Ni33  1  0.96449526  0.10641353  0.15520665  1
  Ni  Ni34  1  0.46449526  0.89358647  0.34479335  1
  Ni  Ni35  1  0.53550474  0.60641353  0.84479335  1
  Ni  Ni36  1  0.03856159  0.70469399  0.63918740  1
  Ni  Ni37  1  0.96143841  0.79530601  0.13918740  1
  Ni  Ni38  1  0.46143841  0.20469399  0.36081260  1
  Ni  Ni39  1  0.53856159  0.29530601  0.86081260  1
  Ni  Ni40  1  0.35718492  0.36953923  0.66303085  1
  Ni  Ni41  1  0.64281508  0.13046077  0.16303085  1
  Ni  Ni42  1  0.14281508  0.86953923  0.33696915  1
  Ni  Ni43  1  0.85718492  0.63046077  0.83696915  1
  Ni  Ni44  1  0.84409736  0.89760883  0.59265672  1
  Ni  Ni45  1  0.15590264  0.60239117  0.09265672  1
  Ni  Ni46  1  0.65590264  0.39760883  0.40734328  1
  Ni  Ni47  1  0.34409736  0.10239117  0.90734328  1
  Cu  Cu48  1  0.91967718  0.06193356  0.55168317  1
  Cu  Cu49  1  0.08032282  0.43806644  0.05168317  1
  Cu  Cu50  1  0.58032282  0.56193356  0.44831683  1
  Cu  Cu51  1  0.41967718  0.93806644  0.94831683  1
  Cu  Cu52  1  0.37693614  0.31192068  0.57925624  1
  Cu  Cu53  1  0.62306386  0.18807932  0.07925624  1
  Cu  Cu54  1  0.12306386  0.81192068  0.42074376  1
  Cu  Cu55  1  0.87693614  0.68807932  0.92074376  1
  Cu  Cu56  1  0.94235874  0.55929360  0.68736006  1
  Cu  Cu57  1  0.05764126  0.94070640  0.18736006  1
  Cu  Cu58  1  0.55764126  0.05929360  0.31263994  1
  Cu  Cu59  1  0.44235874  0.44070640  0.81263994  1
  Cu  Cu60  1  0.18802579  0.32965718  0.70912872  1
  Cu  Cu61  1  0.81197421  0.17034282  0.20912872  1
  Cu  Cu62  1  0.31197421  0.82965718  0.29087128  1
  Cu  Cu63  1  0.68802579  0.67034282  0.79087128  1
  Cu  Cu64  1  0.43639164  0.54681258  0.68793953  1
  Cu  Cu65  1  0.56360836  0.95318742  0.18793953  1
  Cu  Cu66  1  0.06360836  0.04681258  0.31206047  1
  Cu  Cu67  1  0.93639164  0.45318742  0.81206047  1
  Cu  Cu68  1  0.89350239  0.84516458  0.67530945  1
  Cu  Cu69  1  0.10649761  0.65483542  0.17530945  1
  Cu  Cu70  1  0.60649761  0.34516458  0.32469055  1
  Cu  Cu71  1  0.39350239  0.15483542  0.82469055  1
  Cu  Cu72  1  0.98825388  0.34171942  0.57202740  1
  Cu  Cu73  1  0.01174612  0.15828058  0.07202740  1
  Cu  Cu74  1  0.51174612  0.84171942  0.42797260  1
  Cu  Cu75  1  0.48825388  0.65828058  0.92797260  1
  Cu  Cu76  1  0.48753166  0.82826718  0.67037388  1
  Cu  Cu77  1  0.51246834  0.67173282  0.17037388  1
  Cu  Cu78  1  0.01246834  0.32826718  0.32962612  1
  Cu  Cu79  1  0.98753166  0.17173282  0.82962612  1
  Cu  Cu80  1  0.69212353  0.81395410  0.54420443  1
  Cu  Cu81  1  0.30787647  0.68604590  0.04420443  1
  Cu  Cu82  1  0.80787647  0.31395410  0.45579557  1
  Cu  Cu83  1  0.19212353  0.18604590  0.95579557  1
  Cu  Cu84  1  0.18029565  0.55553110  0.60557896  1
  Cu  Cu85  1  0.81970435  0.94446890  0.10557896  1
  Cu  Cu86  1  0.31970435  0.05553110  0.39442104  1
  Cu  Cu87  1  0.68029565  0.44446890  0.89442104  1
  Cu  Cu88  1  0.48209872  0.22463313  0.69653338  1
  Cu  Cu89  1  0.51790128  0.27536687  0.19653338  1
  Cu  Cu90  1  0.01790128  0.72463313  0.30346662  1
  Cu  Cu91  1  0.98209872  0.77536687  0.80346662  1
  Cu  Cu92  1  0.38054355  0.73941923  0.55191308  1
  Cu  Cu93  1  0.61945645  0.76058077  0.05191308  1
  Cu  Cu94  1  0.11945645  0.23941923  0.44808692  1
  Cu  Cu95  1  0.88054355  0.26058077  0.94808692  1
  Cu  Cu96  1  0.90770125  0.24758535  0.69155485  1
  Cu  Cu97  1  0.09229875  0.25241465  0.19155485  1
  Cu  Cu98  1  0.59229875  0.74758535  0.30844515  1
  Cu  Cu99  1  0.40770125  0.75241465  0.80844515  1
  Cu  Cu100  1  0.19354959  0.79238701  0.68381966  1
  Cu  Cu101  1  0.80645041  0.70761299  0.18381966  1
  Cu  Cu102  1  0.30645041  0.29238701  0.31618034  1
  Cu  Cu103  1  0.69354959  0.20761299  0.81618034  1
  Cu  Cu104  1  0.69955160  0.05444514  0.64213588  1
  Cu  Cu105  1  0.30044840  0.44555486  0.14213588  1
  Cu  Cu106  1  0.80044840  0.55444514  0.35786412  1
  Cu  Cu107  1  0.19955160  0.94555486  0.85786412  1
  Cu  Cu108  1  0.68094695  0.31201230  0.57845474  1
  Cu  Cu109  1  0.31905305  0.18798770  0.07845474  1
  Cu  Cu110  1  0.81905305  0.81201230  0.42154526  1
  Cu  Cu111  1  0.18094695  0.68798770  0.92154526  1
  Cu  Cu112  1  0.46183424  0.04610104  0.55177998  1
  Cu  Cu113  1  0.53816576  0.45389896  0.05177998  1
  Cu  Cu114  1  0.03816576  0.54610104  0.44822002  1
  Cu  Cu115  1  0.96183424  0.95389896  0.94822002  1
  Cu  Cu116  1  0.98788402  0.76598546  0.55599358  1
  Cu  Cu117  1  0.01211598  0.73401454  0.05599358  1
  Cu  Cu118  1  0.51211598  0.26598546  0.44400642  1
  Cu  Cu119  1  0.48788402  0.23401454  0.94400642  1
