# generated using pymatgen
data_Cu2(NiC2)3
_symmetry_space_group_name_H-M   'P 1'
_cell_length_a   14.30259942
_cell_length_b   14.30259942
_cell_length_c   14.30259914
_cell_angle_alpha   13.88129827
_cell_angle_beta   13.88129827
_cell_angle_gamma   13.88129588
_symmetry_Int_Tables_number   1
_chemical_formula_structural   Cu2(NiC2)3
_chemical_formula_sum   'Cu2 Ni3 C6'
_cell_volume   146.55325756
_cell_formula_units_Z   1
loop_
 _symmetry_equiv_pos_site_id
 _symmetry_equiv_pos_as_xyz
  1  'x, y, z'
loop_
 _atom_site_type_symbol
 _atom_site_label
 _atom_site_symmetry_multiplicity
 _atom_site_fract_x
 _atom_site_fract_y
 _atom_site_fract_z
 _atom_site_occupancy
  Ni  Ni0  1  0.26264000  0.26264000  0.26264000  1
  Ni  Ni1  1  0.73843600  0.73843600  0.73843600  1
  Ni  Ni2  1  0.13122600  0.13122600  0.13122600  1
  Cu  Cu3  1  0.00069700  0.00069700  0.00069700  1
  Cu  Cu4  1  0.86316200  0.86316200  0.86316200  1
  C  C5  1  0.91505300  0.91505300  0.91505300  1
  C  C6  1  0.08397100  0.08397100  0.08397100  1
  C  C7  1  0.19414200  0.19414200  0.19414200  1
  C  C8  1  0.81042000  0.81042000  0.81042000  1
  C  C9  1  0.30897700  0.30897700  0.30897700  1
  C  C10  1  0.69132200  0.69132200  0.69132200  1
