# generated using pymatgen
data_Cu2NiC5
_symmetry_space_group_name_H-M   'P 1'
_cell_length_a   9.29768000
_cell_length_b   5.39771000
_cell_length_c   17.12345775
_cell_angle_alpha   90.00000000
_cell_angle_beta   110.68903863
_cell_angle_gamma   90.00000000
_symmetry_Int_Tables_number   1
_chemical_formula_structural   Cu2NiC5
_chemical_formula_sum   'Cu16 Ni8 C40'
_cell_volume   803.94215855
_cell_formula_units_Z   8
loop_
 _symmetry_equiv_pos_site_id
 _symmetry_equiv_pos_as_xyz
  1  'x, y, z'
loop_
 _atom_site_type_symbol
 _atom_site_label
 _atom_site_symmetry_multiplicity
 _atom_site_fract_x
 _atom_site_fract_y
 _atom_site_fract_z
 _atom_site_occupancy
  C  C0  1  0.76079900  0.24702300  0.01381900  1
  C  C1  1  0.76079900  0.25297700  0.51381900  1
  C  C2  1  0.23920100  0.75297700  0.98618100  1
  C  C3  1  0.23920100  0.74702300  0.48618100  1
  Ni  Ni4  1  0.99829000  0.74823700  0.10953500  1
  Ni  Ni5  1  0.99829000  0.75176300  0.60953500  1
  Ni  Ni6  1  0.00171000  0.25176300  0.89046500  1
  Ni  Ni7  1  0.00171000  0.24823700  0.39046500  1
  Ni  Ni8  1  0.46774900  0.25669000  0.09920700  1
  Ni  Ni9  1  0.46774900  0.24331000  0.59920700  1
  Ni  Ni10  1  0.53225100  0.74331000  0.90079300  1
  Ni  Ni11  1  0.53225100  0.75669000  0.40079300  1
  Cu  Cu12  1  0.15658200  0.59039100  0.22637100  1
  Cu  Cu13  1  0.15658200  0.90960900  0.72637100  1
  Cu  Cu14  1  0.84341800  0.40960900  0.77362900  1
  Cu  Cu15  1  0.84341800  0.09039100  0.27362900  1
  Cu  Cu16  1  0.42454400  0.27080000  0.21786500  1
  Cu  Cu17  1  0.42454400  0.22920000  0.71786500  1
  Cu  Cu18  1  0.57545600  0.72920000  0.78213500  1
  Cu  Cu19  1  0.57545600  0.77080000  0.28213500  1
  Cu  Cu20  1  0.80459800  0.65085000  0.25517200  1
  Cu  Cu21  1  0.80459800  0.84915000  0.75517200  1
  Cu  Cu22  1  0.19540200  0.34915000  0.74482800  1
  Cu  Cu23  1  0.19540200  0.15085000  0.24482800  1
  Cu  Cu24  1  0.70020000  0.80901000  0.18099300  1
  Cu  Cu25  1  0.70020000  0.69099000  0.68099300  1
  Cu  Cu26  1  0.29980000  0.19099000  0.81900700  1
  Cu  Cu27  1  0.29980000  0.30901000  0.31900700  1
  C  C28  1  0.10566200  0.70961400  0.06008000  1
  C  C29  1  0.10566200  0.79038600  0.56008000  1
  C  C30  1  0.89433800  0.29038600  0.93992000  1
  C  C31  1  0.89433800  0.20961400  0.43992000  1
  C  C32  1  0.92326900  0.00486600  0.09441000  1
  C  C33  1  0.92326900  0.49513400  0.59441000  1
  C  C34  1  0.07673100  0.99513400  0.90559000  1
  C  C35  1  0.07673100  0.50486600  0.40559000  1
  C  C36  1  0.87658900  0.54231900  0.08987900  1
  C  C37  1  0.87658900  0.95768100  0.58987900  1
  C  C38  1  0.12341100  0.45768100  0.91012100  1
  C  C39  1  0.12341100  0.04231900  0.41012100  1
  C  C40  1  0.09709700  0.74640900  0.20641100  1
  C  C41  1  0.09709700  0.75359100  0.70641100  1
  C  C42  1  0.90290300  0.25359100  0.79358900  1
  C  C43  1  0.90290300  0.24640900  0.29358900  1
  C  C44  1  0.34884400  0.05357500  0.05979300  1
  C  C45  1  0.34884400  0.44642500  0.55979300  1
  C  C46  1  0.65115600  0.94642500  0.94020700  1
  C  C47  1  0.65115600  0.55357500  0.44020700  1
  C  C48  1  0.40382900  0.51201700  0.06484300  1
  C  C49  1  0.40382900  0.98798300  0.56484300  1
  C  C50  1  0.59617100  0.48798300  0.93515700  1
  C  C51  1  0.59617100  0.01201700  0.43515700  1
  C  C52  1  0.51146200  0.25306600  0.19722400  1
  C  C53  1  0.51146200  0.24693400  0.69722400  1
  C  C54  1  0.48853800  0.74693400  0.80277600  1
  C  C55  1  0.48853800  0.75306600  0.30277600  1
  C  C56  1  0.62087000  0.20323100  0.08688100  1
  C  C57  1  0.62087000  0.29676900  0.58688100  1
  C  C58  1  0.37913000  0.79676900  0.91311900  1
  C  C59  1  0.37913000  0.70323100  0.41311900  1
  C  C60  1  0.74044500  0.80052300  0.24198900  1
  C  C61  1  0.74044500  0.69947700  0.74198900  1
  C  C62  1  0.25955500  0.19947700  0.75801100  1
  C  C63  1  0.25955500  0.30052300  0.25801100  1
