# generated using pymatgen
data_Cu2Ni2C9
_symmetry_space_group_name_H-M   'P 1'
_cell_length_a   8.75677800
_cell_length_b   9.57694000
_cell_length_c   19.53207500
_cell_angle_alpha   90.00000000
_cell_angle_beta   90.00000000
_cell_angle_gamma   90.00000000
_symmetry_Int_Tables_number   1
_chemical_formula_structural   Cu2Ni2C9
_chemical_formula_sum   'Cu16 Ni16 C72'
_cell_volume   1638.02109137
_cell_formula_units_Z   8
loop_
 _symmetry_equiv_pos_site_id
 _symmetry_equiv_pos_as_xyz
  1  'x, y, z'
loop_
 _atom_site_type_symbol
 _atom_site_label
 _atom_site_symmetry_multiplicity
 _atom_site_fract_x
 _atom_site_fract_y
 _atom_site_fract_z
 _atom_site_occupancy
  C  C0  1  0.48581400  0.86647800  0.12762600  1
  C  C1  1  0.98581400  0.63352200  0.87237400  1
  C  C2  1  0.51418600  0.36647800  0.37237400  1
  C  C3  1  0.01418600  0.13352200  0.62762600  1
  C  C4  1  0.51418600  0.13352200  0.87237400  1
  C  C5  1  0.01418600  0.36647800  0.12762600  1
  C  C6  1  0.48581400  0.63352200  0.62762600  1
  C  C7  1  0.98581400  0.86647800  0.37237400  1
  Ni  Ni8  1  0.76283000  0.09547500  0.03346000  1
  Ni  Ni9  1  0.26283000  0.40452500  0.96654000  1
  Ni  Ni10  1  0.23717000  0.59547500  0.46654000  1
  Ni  Ni11  1  0.73717000  0.90452500  0.53346000  1
  Ni  Ni12  1  0.23717000  0.90452500  0.96654000  1
  Ni  Ni13  1  0.73717000  0.59547500  0.03346000  1
  Ni  Ni14  1  0.76283000  0.40452500  0.53346000  1
  Ni  Ni15  1  0.26283000  0.09547500  0.46654000  1
  Ni  Ni16  1  0.08550100  0.98616000  0.18726300  1
  Ni  Ni17  1  0.58550100  0.51384000  0.81273700  1
  Ni  Ni18  1  0.91449900  0.48616000  0.31273700  1
  Ni  Ni19  1  0.41449900  0.01384000  0.68726300  1
  Ni  Ni20  1  0.91449900  0.01384000  0.81273700  1
  Ni  Ni21  1  0.41449900  0.48616000  0.18726300  1
  Ni  Ni22  1  0.08550100  0.51384000  0.68726300  1
  Ni  Ni23  1  0.58550100  0.98616000  0.31273700  1
  Cu  Cu24  1  0.86450700  0.99296100  0.00828100  1
  Cu  Cu25  1  0.36450700  0.50703900  0.99171900  1
  Cu  Cu26  1  0.13549300  0.49296100  0.49171900  1
  Cu  Cu27  1  0.63549300  0.00703900  0.50828100  1
  Cu  Cu28  1  0.13549300  0.00703900  0.99171900  1
  Cu  Cu29  1  0.63549300  0.49296100  0.00828100  1
  Cu  Cu30  1  0.86450700  0.50703900  0.50828100  1
  Cu  Cu31  1  0.36450700  0.99296100  0.49171900  1
  Cu  Cu32  1  0.97915800  0.91892100  0.14427300  1
  Cu  Cu33  1  0.47915800  0.58107900  0.85572700  1
  Cu  Cu34  1  0.02084200  0.41892100  0.35572700  1
  Cu  Cu35  1  0.52084200  0.08107900  0.64427300  1
  Cu  Cu36  1  0.02084200  0.08107900  0.85572700  1
  Cu  Cu37  1  0.52084200  0.41892100  0.14427300  1
  Cu  Cu38  1  0.97915800  0.58107900  0.64427300  1
  Cu  Cu39  1  0.47915800  0.91892100  0.35572700  1
  C  C40  1  0.44308800  0.12247100  0.10044800  1
  C  C41  1  0.94308800  0.37752900  0.89955200  1
  C  C42  1  0.55691200  0.62247100  0.39955200  1
  C  C43  1  0.05691200  0.87752900  0.60044800  1
  C  C44  1  0.55691200  0.87752900  0.89955200  1
  C  C45  1  0.05691200  0.62247100  0.10044800  1
  C  C46  1  0.44308800  0.37752900  0.60044800  1
  C  C47  1  0.94308800  0.12247100  0.39955200  1
  C  C48  1  0.68796000  0.74033200  0.19152600  1
  C  C49  1  0.18796000  0.75966800  0.80847400  1
  C  C50  1  0.31204000  0.24033200  0.30847400  1
  C  C51  1  0.81204000  0.25966800  0.69152600  1
  C  C52  1  0.31204000  0.25966800  0.80847400  1
  C  C53  1  0.81204000  0.24033200  0.19152600  1
  C  C54  1  0.68796000  0.75966800  0.69152600  1
  C  C55  1  0.18796000  0.74033200  0.30847400  1
  C  C56  1  0.35305400  0.87317500  0.02341100  1
  C  C57  1  0.85305400  0.62682500  0.97658900  1
  C  C58  1  0.64694600  0.37317500  0.47658900  1
  C  C59  1  0.14694600  0.12682500  0.52341100  1
  C  C60  1  0.64694600  0.12682500  0.97658900  1
  C  C61  1  0.14694600  0.37317500  0.02341100  1
  C  C62  1  0.35305400  0.62682500  0.52341100  1
  C  C63  1  0.85305400  0.87317500  0.47658900  1
  C  C64  1  0.68493200  0.02158200  0.09523300  1
  C  C65  1  0.18493200  0.47841800  0.90476700  1
  C  C66  1  0.31506800  0.52158200  0.40476700  1
  C  C67  1  0.81506800  0.97841800  0.59523300  1
  C  C68  1  0.31506800  0.97841800  0.90476700  1
  C  C69  1  0.81506800  0.52158200  0.09523300  1
  C  C70  1  0.68493200  0.47841800  0.59523300  1
  C  C71  1  0.18493200  0.02158200  0.40476700  1
  C  C72  1  0.85571500  0.22257900  0.05483800  1
  C  C73  1  0.35571500  0.27742100  0.94516200  1
  C  C74  1  0.14428500  0.72257900  0.44516200  1
  C  C75  1  0.64428500  0.77742100  0.55483800  1
  C  C76  1  0.14428500  0.77742100  0.94516200  1
  C  C77  1  0.64428500  0.72257900  0.05483800  1
  C  C78  1  0.85571500  0.27742100  0.55483800  1
  C  C79  1  0.35571500  0.22257900  0.44516200  1
  C  C80  1  0.43060000  0.64456200  0.17162300  1
  C  C81  1  0.93060000  0.85543800  0.82837700  1
  C  C82  1  0.56940000  0.14456200  0.32837700  1
  C  C83  1  0.06940000  0.35543800  0.67162300  1
  C  C84  1  0.56940000  0.35543800  0.82837700  1
  C  C85  1  0.06940000  0.14456200  0.17162300  1
  C  C86  1  0.43060000  0.85543800  0.67162300  1
  C  C87  1  0.93060000  0.64456200  0.32837700  1
  C  C88  1  0.24379200  0.93463300  0.16719800  1
  C  C89  1  0.74379200  0.56536700  0.83280200  1
  C  C90  1  0.75620800  0.43463300  0.33280200  1
  C  C91  1  0.25620800  0.06536700  0.66719800  1
  C  C92  1  0.75620800  0.06536700  0.83280200  1
  C  C93  1  0.25620800  0.43463300  0.16719800  1
  C  C94  1  0.24379200  0.56536700  0.66719800  1
  C  C95  1  0.74379200  0.93463300  0.33280200  1
  C  C96  1  0.04403900  0.95266500  0.26183100  1
  C  C97  1  0.54403900  0.54733500  0.73816900  1
  C  C98  1  0.95596100  0.45266500  0.23816900  1
  C  C99  1  0.45596100  0.04733500  0.76183100  1
  C  C100  1  0.95596100  0.04733500  0.73816900  1
  C  C101  1  0.45596100  0.45266500  0.26183100  1
  C  C102  1  0.04403900  0.54733500  0.76183100  1
  C  C103  1  0.54403900  0.95266500  0.23816900  1
