# generated using pymatgen
data_Cu2NiC2
_symmetry_space_group_name_H-M   'P 1'
_cell_length_a   3.20069000
_cell_length_b   4.52552071
_cell_length_c   4.52552071
_cell_angle_alpha   60.93038237
_cell_angle_beta   69.29069792
_cell_angle_gamma   69.29069792
_symmetry_Int_Tables_number   1
_chemical_formula_structural   Cu2NiC2
_chemical_formula_sum   'Cu2 Ni1 C2'
_cell_volume   52.24983048
_cell_formula_units_Z   1
loop_
 _symmetry_equiv_pos_site_id
 _symmetry_equiv_pos_as_xyz
  1  'x, y, z'
loop_
 _atom_site_type_symbol
 _atom_site_label
 _atom_site_symmetry_multiplicity
 _atom_site_fract_x
 _atom_site_fract_y
 _atom_site_fract_z
 _atom_site_occupancy
  Ni  Ni0  1  0.00000000  0.00000000  0.00000000  1
  C  C1  1  0.50000000  0.70215100  0.29784900  1
  C  C2  1  0.50000000  0.29784900  0.70215100  1
  Cu  Cu3  1  0.80019600  0.69980400  0.69980400  1
  Cu  Cu4  1  0.19980400  0.30019600  0.30019600  1
