# generated using pymatgen
data_CuNi9C5
_symmetry_space_group_name_H-M   'P 1'
_cell_length_a   6.52246800
_cell_length_b   6.86002262
_cell_length_c   16.15618559
_cell_angle_alpha   92.40963332
_cell_angle_beta   90.00000000
_cell_angle_gamma   118.38520014
_symmetry_Int_Tables_number   1
_chemical_formula_structural   CuNi9C5
_chemical_formula_sum   'Cu4 Ni36 C20'
_cell_volume   635.25733299
_cell_formula_units_Z   4
loop_
 _symmetry_equiv_pos_site_id
 _symmetry_equiv_pos_as_xyz
  1  'x, y, z'
loop_
 _atom_site_type_symbol
 _atom_site_label
 _atom_site_symmetry_multiplicity
 _atom_site_fract_x
 _atom_site_fract_y
 _atom_site_fract_z
 _atom_site_occupancy
  C  C0  1  0.50000000  0.00000000  0.00000000  1
  C  C1  1  0.50000000  0.00000000  0.50000000  1
  Ni  Ni2  1  0.72521900  0.44994600  0.95717400  1
  Ni  Ni3  1  0.27527400  0.55005400  0.54282600  1
  Ni  Ni4  1  0.27478100  0.55005400  0.04282600  1
  Ni  Ni5  1  0.72472600  0.44994600  0.45717400  1
  Ni  Ni6  1  0.72832900  0.43723800  0.05511800  1
  Ni  Ni7  1  0.29109100  0.56276200  0.44488200  1
  Ni  Ni8  1  0.27167100  0.56276200  0.94488200  1
  Ni  Ni9  1  0.70890900  0.43723800  0.55511800  1
  Ni  Ni10  1  0.82493100  0.61615800  0.82538400  1
  Ni  Ni11  1  0.20877300  0.38384200  0.67461600  1
  Ni  Ni12  1  0.17506900  0.38384200  0.17461600  1
  Ni  Ni13  1  0.79122700  0.61615800  0.32538400  1
  Ni  Ni14  1  0.52548300  0.97185600  0.83132300  1
  Ni  Ni15  1  0.55362700  0.02814400  0.66867700  1
  Ni  Ni16  1  0.47451700  0.02814400  0.16867700  1
  Ni  Ni17  1  0.44637300  0.97185600  0.33132300  1
  Ni  Ni18  1  0.06872600  0.86446600  0.92646200  1
  Ni  Ni19  1  0.20426000  0.13553400  0.57353800  1
  Ni  Ni20  1  0.93127400  0.13553400  0.07353800  1
  Ni  Ni21  1  0.79574000  0.86446600  0.42646200  1
  Ni  Ni22  1  0.78743400  0.09291900  0.86480900  1
  Ni  Ni23  1  0.69451500  0.90708100  0.63519100  1
  Ni  Ni24  1  0.21256600  0.90708100  0.13519100  1
  Ni  Ni25  1  0.30548500  0.09291900  0.36480900  1
  Ni  Ni26  1  0.33017700  0.12251700  0.76681600  1
  Ni  Ni27  1  0.20766000  0.87748300  0.73318400  1
  Ni  Ni28  1  0.66982300  0.87748300  0.23318400  1
  Ni  Ni29  1  0.79234000  0.12251700  0.26681600  1
  Ni  Ni30  1  0.21491700  0.12235900  0.91738100  1
  Ni  Ni31  1  0.09255800  0.87764100  0.58261900  1
  Ni  Ni32  1  0.78508300  0.87764100  0.08261900  1
  Ni  Ni33  1  0.90744200  0.12235900  0.41738100  1
  Ni  Ni34  1  0.71226100  0.72688700  0.88172200  1
  Ni  Ni35  1  0.98537400  0.27311300  0.61827800  1
  Ni  Ni36  1  0.28773900  0.27311300  0.11827800  1
  Ni  Ni37  1  0.01462600  0.72688700  0.38172200  1
  Cu  Cu38  1  0.83322100  0.65555300  0.17786400  1
  Cu  Cu39  1  0.17766900  0.34444700  0.32213600  1
  Cu  Cu40  1  0.16677900  0.34444700  0.82213600  1
  Cu  Cu41  1  0.82233100  0.65555300  0.67786400  1
  C  C42  1  0.21125300  0.99904600  0.94775900  1
  C  C43  1  0.21220700  0.00095400  0.55224100  1
  C  C44  1  0.78874700  0.00095400  0.05224100  1
  C  C45  1  0.78779300  0.99904600  0.44775900  1
  C  C46  1  0.67970000  0.34554200  0.00276800  1
  C  C47  1  0.33415800  0.65445800  0.49723200  1
  C  C48  1  0.32030000  0.65445800  0.99723200  1
  C  C49  1  0.66584200  0.34554200  0.50276800  1
  C  C50  1  0.62818900  0.97898700  0.87856900  1
  C  C51  1  0.64920100  0.02101300  0.62143100  1
  C  C52  1  0.37181100  0.02101300  0.12143100  1
  C  C53  1  0.35079900  0.97898700  0.37856900  1
  C  C54  1  0.81063200  0.65399300  0.88409800  1
  C  C55  1  0.15663900  0.34600700  0.61590200  1
  C  C56  1  0.18936800  0.34600700  0.11590200  1
  C  C57  1  0.84336100  0.65399300  0.38409800  1
  C  C58  1  0.36360600  0.00000000  0.75000000  1
  C  C59  1  0.63639400  0.00000000  0.25000000  1
