# generated using pymatgen
data_CuNiC13
_symmetry_space_group_name_H-M   'P 1'
_cell_length_a   8.16778825
_cell_length_b   4.67603832
_cell_length_c   4.67603832
_cell_angle_alpha   90.00000000
_cell_angle_beta   90.00000000
_cell_angle_gamma   90.00000000
_symmetry_Int_Tables_number   1
_chemical_formula_structural   CuNiC13
_chemical_formula_sum   'Cu1 Ni1 C13'
_cell_volume   178.59142115
_cell_formula_units_Z   1
loop_
 _symmetry_equiv_pos_site_id
 _symmetry_equiv_pos_as_xyz
  1  'x, y, z'
loop_
 _atom_site_type_symbol
 _atom_site_label
 _atom_site_symmetry_multiplicity
 _atom_site_fract_x
 _atom_site_fract_y
 _atom_site_fract_z
 _atom_site_occupancy
  Ni  Ni0  1  0.43025229  0.00000000  -0.00000000  1
  Cu  Cu1  1  0.99614528  -0.00000000  -0.00000000  1
  C  C2  1  0.00449666  0.50000000  0.50000000  1
  C  C3  1  0.51305575  0.50000000  0.50000000  1
  C  C4  1  0.25463335  0.00000000  0.50000000  1
  C  C5  1  0.75037296  0.00000000  0.50000000  1
  C  C6  1  0.25463335  0.50000000  0.00000000  1
  C  C7  1  0.75037296  0.50000000  -0.00000000  1
  C  C8  1  0.73987846  -0.00000000  -0.00000000  1
  C  C9  1  0.25920361  0.50000000  0.50000000  1
  C  C10  1  0.75871041  0.50000000  0.50000000  1
  C  C11  1  0.02056026  0.00000000  0.50000000  1
  C  C12  1  0.49856220  -0.00000000  0.50000000  1
  C  C13  1  0.02056026  0.50000000  -0.00000000  1
  C  C14  1  0.49856220  0.50000000  -0.00000000  1
