# generated using pymatgen
data_Cu12Ni3C
_symmetry_space_group_name_H-M   'P 1'
_cell_length_a   7.01452148
_cell_length_b   7.67238612
_cell_length_c   6.27161818
_cell_angle_alpha   93.81977566
_cell_angle_beta   81.62032477
_cell_angle_gamma   117.20192368
_symmetry_Int_Tables_number   1
_chemical_formula_structural   Cu12Ni3C
_chemical_formula_sum   'Cu12 Ni3 C1'
_cell_volume   296.99170665
_cell_formula_units_Z   1
loop_
 _symmetry_equiv_pos_site_id
 _symmetry_equiv_pos_as_xyz
  1  'x, y, z'
loop_
 _atom_site_type_symbol
 _atom_site_label
 _atom_site_symmetry_multiplicity
 _atom_site_fract_x
 _atom_site_fract_y
 _atom_site_fract_z
 _atom_site_occupancy
  C  C0  1  0.00000000  0.00000000  0.00000000  1
  Ni  Ni1  1  0.00000000  0.00000000  0.50000000  1
  Ni  Ni2  1  0.50000000  0.50000000  0.00000000  1
  Ni  Ni3  1  0.00000000  0.50000000  0.00000000  1
  Cu  Cu4  1  0.68585100  0.81915200  0.01440100  1
  Cu  Cu5  1  0.31414900  0.18084800  0.98559900  1
  Cu  Cu6  1  0.88692300  0.47189100  0.79244100  1
  Cu  Cu7  1  0.13330000  0.81915200  0.98559900  1
  Cu  Cu8  1  0.11307700  0.52810900  0.20755900  1
  Cu  Cu9  1  0.86670000  0.18084800  0.01440100  1
  Cu  Cu10  1  0.89140700  0.82941900  0.29517400  1
  Cu  Cu11  1  0.58496800  0.47189100  0.20755900  1
  Cu  Cu12  1  0.10859300  0.17058100  0.70482600  1
  Cu  Cu13  1  0.41503200  0.52810900  0.79244100  1
  Cu  Cu14  1  0.93801100  0.82941900  0.70482600  1
  Cu  Cu15  1  0.06198900  0.17058100  0.29517400  1
