# generated using pymatgen
data_CuNi3C8
_symmetry_space_group_name_H-M   'P 1'
_cell_length_a   3.27367550
_cell_length_b   3.27367550
_cell_length_c   38.68924600
_cell_angle_alpha   90.00000000
_cell_angle_beta   90.00000000
_cell_angle_gamma   119.99998985
_symmetry_Int_Tables_number   1
_chemical_formula_structural   CuNi3C8
_chemical_formula_sum   'Cu1 Ni3 C8'
_cell_volume   359.08081143
_cell_formula_units_Z   1
loop_
 _symmetry_equiv_pos_site_id
 _symmetry_equiv_pos_as_xyz
  1  'x, y, z'
loop_
 _atom_site_type_symbol
 _atom_site_label
 _atom_site_symmetry_multiplicity
 _atom_site_fract_x
 _atom_site_fract_y
 _atom_site_fract_z
 _atom_site_occupancy
  C  C0  1  0.00000000  0.00000000  0.70919500  1
  C  C1  1  0.00000000  0.00000000  0.60974200  1
  Ni  Ni2  1  0.00000000  0.00000000  0.09346100  1
  Ni  Ni3  1  0.33333300  0.66666700  0.28208800  1
  Ni  Ni4  1  0.33333300  0.66666700  0.65947300  1
  Cu  Cu5  1  0.00000000  0.00000000  0.46792600  1
  C  C6  1  0.00000000  0.00000000  0.32184400  1
  C  C7  1  0.33333300  0.66666700  0.05370800  1
  C  C8  1  0.33333300  0.66666700  0.42797900  1
  C  C9  1  0.33333300  0.66666700  0.13320200  1
  C  C10  1  0.33333300  0.66666700  0.50787100  1
  C  C11  1  0.00000000  0.00000000  0.24226100  1
