# generated using pymatgen
data_CuNiC5
_symmetry_space_group_name_H-M   'P 1'
_cell_length_a   7.77095191
_cell_length_b   7.61805506
_cell_length_c   7.62326098
_cell_angle_alpha   58.64585132
_cell_angle_beta   59.35434415
_cell_angle_gamma   59.33748486
_symmetry_Int_Tables_number   1
_chemical_formula_structural   CuNiC5
_chemical_formula_sum   'Cu2 Ni2 C10'
_cell_volume   312.62537723
_cell_formula_units_Z   2
loop_
 _symmetry_equiv_pos_site_id
 _symmetry_equiv_pos_as_xyz
  1  'x, y, z'
loop_
 _atom_site_type_symbol
 _atom_site_label
 _atom_site_symmetry_multiplicity
 _atom_site_fract_x
 _atom_site_fract_y
 _atom_site_fract_z
 _atom_site_occupancy
  C  C0  1  0.50000200  0.50001500  0.49998000  1
  C  C1  1  0.99999900  0.49999300  0.50001100  1
  Ni  Ni2  1  0.87708800  0.87284800  0.87297200  1
  Ni  Ni3  1  0.12291300  0.12715900  0.12703100  1
  Cu  Cu4  1  0.50000000  0.49999500  0.99999900  1
  Cu  Cu5  1  0.50000000  0.99999600  0.50000500  1
  C  C6  1  0.72042500  0.75340200  0.75340800  1
  C  C7  1  0.26816300  0.23229700  0.73149900  1
  C  C8  1  0.26802800  0.73149000  0.23234700  1
  C  C9  1  0.72721900  0.24652900  0.24665300  1
  C  C10  1  0.73195800  0.26851000  0.76764300  1
  C  C11  1  0.27278400  0.75346600  0.75334300  1
  C  C12  1  0.27957200  0.24658800  0.24660800  1
  C  C13  1  0.73185400  0.76770900  0.26850100  1
