# generated using pymatgen
data_Cu4NiC4
_symmetry_space_group_name_H-M   'P 1'
_cell_length_a   9.49033196
_cell_length_b   9.49033196
_cell_length_c   9.49033196
_cell_angle_alpha   146.43358283
_cell_angle_beta   103.46652533
_cell_angle_gamma   86.20868328
_symmetry_Int_Tables_number   1
_chemical_formula_structural   Cu4NiC4
_chemical_formula_sum   'Cu8 Ni2 C8'
_cell_volume   446.41016545
_cell_formula_units_Z   2
loop_
 _symmetry_equiv_pos_site_id
 _symmetry_equiv_pos_as_xyz
  1  'x, y, z'
loop_
 _atom_site_type_symbol
 _atom_site_label
 _atom_site_symmetry_multiplicity
 _atom_site_fract_x
 _atom_site_fract_y
 _atom_site_fract_z
 _atom_site_occupancy
  C  C0  1  0.62433300  0.77164700  0.39597900  1
  C  C1  1  0.87566700  0.27164700  0.14731400  1
  C  C2  1  0.12433300  0.72835300  0.85268600  1
  C  C3  1  0.37566700  0.22835300  0.60402100  1
  C  C4  1  0.02454000  0.75000000  0.27454000  1
  C  C5  1  0.47546000  0.75000000  0.72546000  1
  C  C6  1  0.97546000  0.25000000  0.72546000  1
  C  C7  1  0.52454000  0.25000000  0.27454000  1
  Ni  Ni8  1  0.75000000  0.75000000  0.00000000  1
  Ni  Ni9  1  0.25000000  0.25000000  0.00000000  1
  Cu  Cu10  1  0.71899300  0.62155300  0.63819000  1
  Cu  Cu11  1  0.78100700  0.41919700  0.90256000  1
  Cu  Cu12  1  0.51663700  0.87844700  0.09744000  1
  Cu  Cu13  1  0.98336300  0.08080300  0.36181000  1
  Cu  Cu14  1  0.28100700  0.37844700  0.36181000  1
  Cu  Cu15  1  0.21899300  0.58080300  0.09744000  1
  Cu  Cu16  1  0.01663700  0.91919700  0.63819000  1
  Cu  Cu17  1  0.48336300  0.12155300  0.90256000  1
