# generated using pymatgen
data_CuNi6C
_symmetry_space_group_name_H-M   'P 1'
_cell_length_a   4.96177000
_cell_length_b   6.41667500
_cell_length_c   10.66558600
_cell_angle_alpha   90.00000000
_cell_angle_beta   90.00000000
_cell_angle_gamma   90.00000000
_symmetry_Int_Tables_number   1
_chemical_formula_structural   CuNi6C
_chemical_formula_sum   'Cu2 Ni12 C2'
_cell_volume   339.57162582
_cell_formula_units_Z   2
loop_
 _symmetry_equiv_pos_site_id
 _symmetry_equiv_pos_as_xyz
  1  'x, y, z'
loop_
 _atom_site_type_symbol
 _atom_site_label
 _atom_site_symmetry_multiplicity
 _atom_site_fract_x
 _atom_site_fract_y
 _atom_site_fract_z
 _atom_site_occupancy
  C  C0  1  0.50000000  0.00000000  0.83591100  1
  C  C1  1  0.50000000  0.50000000  0.33591100  1
  Ni  Ni2  1  0.50000000  0.25503500  0.58225700  1
  Ni  Ni3  1  0.50000000  0.74496500  0.58225700  1
  Ni  Ni4  1  0.00000000  0.24375600  0.41137000  1
  Ni  Ni5  1  0.00000000  0.75624400  0.41137000  1
  Ni  Ni6  1  0.00000000  0.00000000  0.66802500  1
  Ni  Ni7  1  0.00000000  0.00000000  0.17259100  1
  Ni  Ni8  1  0.50000000  0.75503500  0.08225700  1
  Ni  Ni9  1  0.50000000  0.24496500  0.08225700  1
  Ni  Ni10  1  0.00000000  0.74375600  0.91137000  1
  Ni  Ni11  1  0.00000000  0.25624400  0.91137000  1
  Ni  Ni12  1  0.00000000  0.50000000  0.16802500  1
  Ni  Ni13  1  0.00000000  0.50000000  0.67259100  1
  Cu  Cu14  1  0.50000000  0.00000000  0.33622300  1
  Cu  Cu15  1  0.50000000  0.50000000  0.83622300  1
