# generated using pymatgen
data_CuNiC8
_symmetry_space_group_name_H-M   'P 1'
_cell_length_a   8.20295924
_cell_length_b   8.22846378
_cell_length_c   8.17386073
_cell_angle_alpha   90.00000000
_cell_angle_beta   90.00000000
_cell_angle_gamma   90.00000000
_symmetry_Int_Tables_number   1
_chemical_formula_structural   CuNiC8
_chemical_formula_sum   'Cu4 Ni4 C32'
_cell_volume   551.71723257
_cell_formula_units_Z   4
loop_
 _symmetry_equiv_pos_site_id
 _symmetry_equiv_pos_as_xyz
  1  'x, y, z'
loop_
 _atom_site_type_symbol
 _atom_site_label
 _atom_site_symmetry_multiplicity
 _atom_site_fract_x
 _atom_site_fract_y
 _atom_site_fract_z
 _atom_site_occupancy
  Ni  Ni0  1  -0.00000000  0.00000000  -0.00000000  1
  Ni  Ni1  1  0.50000000  0.50000000  0.50000000  1
  Ni  Ni2  1  0.50000000  0.00000000  0.50000000  1
  Ni  Ni3  1  -0.00000000  0.50000000  -0.00000000  1
  Cu  Cu4  1  -0.00000000  0.50000000  0.50000000  1
  Cu  Cu5  1  0.50000000  0.50000000  0.00000000  1
  Cu  Cu6  1  0.50000000  0.00000000  0.00000000  1
  Cu  Cu7  1  -0.00000000  0.00000000  0.50000000  1
  C  C8  1  0.25000000  0.25000000  0.25000000  1
  C  C9  1  0.75000000  0.75000000  0.25000000  1
  C  C10  1  0.75000000  0.25000000  0.75000000  1
  C  C11  1  0.25000000  0.75000000  0.75000000  1
  C  C12  1  0.75000000  0.75000000  0.75000000  1
  C  C13  1  0.25000000  0.25000000  0.75000000  1
  C  C14  1  0.25000000  0.75000000  0.25000000  1
  C  C15  1  0.75000000  0.25000000  0.25000000  1
  C  C16  1  0.02005699  0.23205569  0.26340229  1
  C  C17  1  0.97994301  0.76794431  0.26340229  1
  C  C18  1  0.97994301  0.23205569  0.73659771  1
  C  C19  1  0.02005699  0.76794431  0.73659771  1
  C  C20  1  0.26694137  0.01997925  0.23167693  1
  C  C21  1  0.26694137  0.98002075  0.76832307  1
  C  C22  1  0.73305863  0.98002075  0.23167693  1
  C  C23  1  0.73305863  0.01997925  0.76832307  1
  C  C24  1  0.23132831  0.26445939  0.01876550  1
  C  C25  1  0.76867169  0.26445939  0.98123450  1
  C  C26  1  0.23132831  0.73554061  0.98123450  1
  C  C27  1  0.76867169  0.73554061  0.01876550  1
  C  C28  1  0.47994301  0.26794431  0.23659771  1
  C  C29  1  0.52005699  0.73205569  0.23659771  1
  C  C30  1  0.52005699  0.26794431  0.76340229  1
  C  C31  1  0.47994301  0.73205569  0.76340229  1
  C  C32  1  0.23305863  0.48002075  0.26832307  1
  C  C33  1  0.23305863  0.51997925  0.73167693  1
  C  C34  1  0.76694137  0.51997925  0.26832307  1
  C  C35  1  0.76694137  0.48002075  0.73167693  1
  C  C36  1  0.26867169  0.23554061  0.48123450  1
  C  C37  1  0.73132831  0.23554061  0.51876550  1
  C  C38  1  0.26867169  0.76445939  0.51876550  1
  C  C39  1  0.73132831  0.76445939  0.48123450  1
