# generated using pymatgen
data_Cu2NiC10
_symmetry_space_group_name_H-M   'P 1'
_cell_length_a   8.27364214
_cell_length_b   9.48408720
_cell_length_c   9.41141824
_cell_angle_alpha   97.96524094
_cell_angle_beta   115.92886184
_cell_angle_gamma   76.28393070
_symmetry_Int_Tables_number   1
_chemical_formula_structural   Cu2NiC10
_chemical_formula_sum   'Cu8 Ni4 C40'
_cell_volume   644.70124134
_cell_formula_units_Z   4
loop_
 _symmetry_equiv_pos_site_id
 _symmetry_equiv_pos_as_xyz
  1  'x, y, z'
loop_
 _atom_site_type_symbol
 _atom_site_label
 _atom_site_symmetry_multiplicity
 _atom_site_fract_x
 _atom_site_fract_y
 _atom_site_fract_z
 _atom_site_occupancy
  C  C0  1  0.52384700  0.27539900  0.05044600  1
  C  C1  1  0.02385600  0.77541700  0.05046500  1
  C  C2  1  0.47614300  0.72459500  0.94952700  1
  C  C3  1  0.97611600  0.22457500  0.94949400  1
  Ni  Ni4  1  0.68601000  0.69386700  0.64561600  1
  Ni  Ni5  1  0.18598900  0.19388800  0.64559900  1
  Ni  Ni6  1  0.31395800  0.30614900  0.35440000  1
  Ni  Ni7  1  0.81401400  0.80612600  0.35441200  1
  C  C8  1  0.23970000  0.60831900  0.55946000  1
  C  C9  1  0.26034300  0.89166800  0.44058100  1
  C  C10  1  0.73969300  0.10831000  0.55938700  1
  C  C11  1  0.76028800  0.39167900  0.44052700  1
  Cu  Cu12  1  0.40919500  0.01451000  0.23402400  1
  Cu  Cu13  1  0.90922500  0.51451000  0.23403500  1
  Cu  Cu14  1  0.59080300  0.98550400  0.76597900  1
  Cu  Cu15  1  0.09076700  0.48549700  0.76596500  1
  Cu  Cu16  1  0.43263000  0.58996800  0.30091800  1
  Cu  Cu17  1  0.93264100  0.08993900  0.30091600  1
  Cu  Cu18  1  0.56736900  0.41002000  0.69907800  1
  Cu  Cu19  1  0.06739100  0.91006300  0.69910600  1
  C  C20  1  0.68257400  0.87312500  0.89614200  1
  C  C21  1  0.18259500  0.37312200  0.89612200  1
  C  C22  1  0.31742700  0.12689400  0.10387800  1
  C  C23  1  0.81738700  0.62687100  0.10386100  1
  C  C24  1  0.56992100  0.90444600  0.21091000  1
  C  C25  1  0.06989700  0.40441000  0.21087100  1
  C  C26  1  0.43009400  0.09556900  0.78911900  1
  C  C27  1  0.93009600  0.59559900  0.78913600  1
  C  C28  1  0.72814700  0.06931800  0.76329600  1
  C  C29  1  0.22812900  0.56931400  0.76331100  1
  C  C30  1  0.27185200  0.93067700  0.23669200  1
  C  C31  1  0.77187300  0.43067800  0.23667800  1
  C  C32  1  0.53359100  0.58170200  0.69674900  1
  C  C33  1  0.03363500  0.08174200  0.69680600  1
  C  C34  1  0.46642400  0.41828700  0.30326000  1
  C  C35  1  0.96643900  0.91825100  0.30322400  1
  C  C36  1  0.87541300  0.87451600  0.57973100  1
  C  C37  1  0.37540100  0.37445600  0.57975800  1
  C  C38  1  0.12459300  0.12553300  0.42025500  1
  C  C39  1  0.62458400  0.62555700  0.42025000  1
  C  C40  1  0.62913600  0.36732900  0.86774600  1
  C  C41  1  0.12918200  0.86730100  0.86775800  1
  C  C42  1  0.37085300  0.63266100  0.13224800  1
  C  C43  1  0.87084900  0.13269100  0.13226400  1
  C  C44  1  0.48061000  0.10861100  0.39459600  1
  C  C45  1  0.98067400  0.60861100  0.39460900  1
  C  C46  1  0.51934500  0.89140400  0.60540600  1
  C  C47  1  0.01931600  0.39138500  0.60539900  1
  C  C48  1  0.78616200  0.16384700  0.36556000  1
  C  C49  1  0.28613800  0.66386900  0.36555100  1
  C  C50  1  0.21384600  0.83614200  0.63445100  1
  C  C51  1  0.71384100  0.33608000  0.63442800  1
