# generated using pymatgen
data_Cu5(NiC10)3
_symmetry_space_group_name_H-M   'P 1'
_cell_length_a   10.93182188
_cell_length_b   15.70662822
_cell_length_c   10.90314767
_cell_angle_alpha   89.97727978
_cell_angle_beta   90.86181009
_cell_angle_gamma   90.35188257
_symmetry_Int_Tables_number   1
_chemical_formula_structural   Cu5(NiC10)3
_chemical_formula_sum   'Cu20 Ni12 C120'
_cell_volume   1871.84577765
_cell_formula_units_Z   4
loop_
 _symmetry_equiv_pos_site_id
 _symmetry_equiv_pos_as_xyz
  1  'x, y, z'
loop_
 _atom_site_type_symbol
 _atom_site_label
 _atom_site_symmetry_multiplicity
 _atom_site_fract_x
 _atom_site_fract_y
 _atom_site_fract_z
 _atom_site_occupancy
  Ni  Ni0  1  0.00042163  0.11531081  0.49851847  1
  Ni  Ni1  1  0.00041436  0.11557295  0.99819809  1
  Ni  Ni2  1  0.00773697  0.62696893  0.49754221  1
  Ni  Ni3  1  0.49939153  0.38792209  0.00202652  1
  Ni  Ni4  1  0.49834033  0.38766421  0.50250001  1
  Ni  Ni5  1  0.49941624  0.86278561  0.00092254  1
  Ni  Ni6  1  0.23972922  0.38928360  0.25627430  1
  Ni  Ni7  1  0.23924741  0.38889968  0.75496975  1
  Ni  Ni8  1  0.23365909  0.87130206  0.25197317  1
  Ni  Ni9  1  0.23233382  0.11374791  0.24456394  1
  Ni  Ni10  1  0.23115938  0.11492522  0.74740430  1
  Ni  Ni11  1  0.26123414  0.62873603  0.25418158  1
  Cu  Cu12  1  0.01462655  0.62695749  0.99583576  1
  Cu  Cu13  1  0.53895296  0.12707232  0.48576688  1
  Cu  Cu14  1  0.54031374  0.12677750  0.98597807  1
  Cu  Cu15  1  0.51938079  0.62512757  0.49713225  1
  Cu  Cu16  1  0.52114762  0.62524379  0.99830482  1
  Cu  Cu17  1  0.49577600  0.85595332  0.50203731  1
  Cu  Cu18  1  0.96508112  0.38749079  0.99859697  1
  Cu  Cu19  1  0.96559883  0.38816680  0.49573813  1
  Cu  Cu20  1  0.97403610  0.87136307  0.00889063  1
  Cu  Cu21  1  0.97194262  0.87135820  0.50643140  1
  Cu  Cu22  1  0.22284277  0.87023329  0.74994662  1
  Cu  Cu23  1  0.74779457  0.39408357  0.25450048  1
  Cu  Cu24  1  0.74681184  0.39340344  0.75164475  1
  Cu  Cu25  1  0.75012997  0.85935042  0.25470620  1
  Cu  Cu26  1  0.74572944  0.85981313  0.75137055  1
  Cu  Cu27  1  0.26989598  0.62858846  0.75919738  1
  Cu  Cu28  1  0.77729121  0.11683234  0.24991511  1
  Cu  Cu29  1  0.77794259  0.11716296  0.75248579  1
  Cu  Cu30  1  0.76363527  0.62585269  0.25248235  1
  Cu  Cu31  1  0.76842954  0.62560184  0.75461632  1
  C  C32  1  0.99226144  0.99169902  0.25412448  1
  C  C33  1  0.99086038  0.99001905  0.75378410  1
  C  C34  1  -0.00045377  0.50245504  0.24622664  1
  C  C35  1  0.00140944  0.50307758  0.74953654  1
  C  C36  1  0.51419019  0.98415835  0.23560999  1
  C  C37  1  0.51079410  0.98324842  0.73159065  1
  C  C38  1  0.49980362  0.50631605  0.25049705  1
  C  C39  1  0.49975527  0.50702750  0.75010601  1
  C  C40  1  0.24172786  0.99430151  0.00740226  1
  C  C41  1  0.24349398  0.99420887  0.51350949  1
  C  C42  1  0.24907806  0.50705809  0.00207092  1
  C  C43  1  0.24825246  0.50795496  0.50566208  1
  C  C44  1  0.74793915  0.99817862  0.99647039  1
  C  C45  1  0.74390022  0.99762807  0.49651596  1
  C  C46  1  0.74959099  0.50513094  0.00157877  1
  C  C47  1  0.74773075  0.50454028  0.50215181  1
  C  C48  1  0.26283814  0.24079987  0.96397697  1
  C  C49  1  0.26338832  0.23905944  0.46417159  1
  C  C50  1  0.25059441  0.75066314  0.99990158  1
  C  C51  1  0.25020076  0.75198959  0.50784041  1
  C  C52  1  0.75234483  0.25090498  0.00551328  1
  C  C53  1  0.75144812  0.25024728  0.50648050  1
  C  C54  1  0.75224784  0.74706250  0.00091075  1
  C  C55  1  0.74869315  0.74765158  0.50128868  1
  C  C56  1  0.98515528  0.25495865  0.25960317  1
  C  C57  1  0.98519152  0.25625296  0.75956356  1
  C  C58  1  0.00007651  0.74906286  0.24981042  1
  C  C59  1  0.00163806  0.74850127  0.75220099  1
  C  C60  1  0.52786646  0.25813612  0.25789493  1
  C  C61  1  0.52710195  0.25859723  0.75841505  1
  C  C62  1  0.50158508  0.74591564  0.25329535  1
  C  C63  1  0.50061207  0.74541219  0.75203759  1
  C  C64  1  0.10799163  0.77070289  0.10411516  1
  C  C65  1  0.10765062  0.77600400  0.60864111  1
  C  C66  1  0.58574486  0.25037477  0.09832441  1
  C  C67  1  0.58456652  0.25034038  0.59892130  1
  C  C68  1  0.61770967  0.76333122  0.11807889  1
  C  C69  1  0.61114641  0.76200303  0.61122195  1
  C  C70  1  0.40493970  0.21144192  0.35814667  1
  C  C71  1  0.40520029  0.21248277  0.86045863  1
  C  C72  1  0.39714763  0.73210191  0.39848682  1
  C  C73  1  0.39775002  0.72804113  0.89447223  1
  C  C74  1  0.89804514  0.24342311  0.41579706  1
  C  C75  1  0.89905050  0.24404750  0.91581329  1
  C  C76  1  0.88409480  0.73515580  0.38524761  1
  C  C77  1  0.89291098  0.73051927  0.89279242  1
  C  C78  1  0.14778138  0.24417722  0.33307938  1
  C  C79  1  0.14777745  0.24625788  0.83189743  1
  C  C80  1  0.14076990  0.73971549  0.36116466  1
  C  C81  1  0.14880208  0.73698409  0.85128470  1
  C  C82  1  0.65515182  0.21692695  0.35421468  1
  C  C83  1  0.65552595  0.21727792  0.85396282  1
  C  C84  1  0.64118388  0.72665778  0.36118621  1
  C  C85  1  0.64380213  0.72722367  0.85909363  1
  C  C86  1  0.36260848  0.76637277  0.14224299  1
  C  C87  1  0.35786154  0.77138959  0.64959579  1
  C  C88  1  0.84708425  0.27622611  0.15098377  1
  C  C89  1  0.84788988  0.27672297  0.65097258  1
  C  C90  1  0.86315277  0.76847320  0.13705352  1
  C  C91  1  0.86178810  0.76675943  0.63921612  1
  C  C92  1  0.36152869  0.49173399  0.13877116  1
  C  C93  1  0.36063531  0.49112741  0.64099839  1
  C  C94  1  0.36163767  0.99624141  0.15235821  1
  C  C95  1  0.35268248  0.99294805  0.66555731  1
  C  C96  1  0.86091345  0.48269864  0.13663811  1
  C  C97  1  0.86153757  0.48442757  0.63757354  1
  C  C98  1  0.84917178  0.97835961  0.14358467  1
  C  C99  1  0.84540813  0.97754851  0.64435722  1
  C  C100  1  0.13999780  0.00825189  0.36952426  1
  C  C101  1  0.13733005  0.00800033  0.86669322  1
  C  C102  1  0.13989544  0.51312391  0.36058605  1
  C  C103  1  0.14549777  0.51723242  0.85467360  1
  C  C104  1  0.62691784  0.02963533  0.34765050  1
  C  C105  1  0.62322980  0.02786495  0.84651264  1
  C  C106  1  0.63880163  0.52018283  0.36129753  1
  C  C107  1  0.64139963  0.52110089  0.85962549  1
  C  C108  1  0.39013275  0.51528604  0.39157835  1
  C  C109  1  0.39227231  0.51746889  0.89113067  1
  C  C110  1  0.87940504  0.01287274  0.38881042  1
  C  C111  1  0.87994427  0.01307622  0.88740898  1
  C  C112  1  0.88438036  0.51008976  0.38552692  1
  C  C113  1  0.89162352  0.51579764  0.89259923  1
  C  C114  1  0.10734226  0.48208360  0.10465880  1
  C  C115  1  0.10635387  0.48001886  0.60708068  1
  C  C116  1  0.10090316  0.98312175  0.12002657  1
  C  C117  1  0.09850343  0.98010626  0.61987033  1
  C  C118  1  0.61655180  0.49032380  0.11650047  1
  C  C119  1  0.61531318  0.49089821  0.61601948  1
  C  C120  1  0.59852116  0.99915063  0.08787858  1
  C  C121  1  0.58698884  0.99368458  0.57923367  1
  C  C122  1  0.00415009  0.37723779  0.27741020  1
  C  C123  1  0.00210653  0.37934788  0.78219004  1
  C  C124  1  0.99372958  0.87200306  0.28797253  1
  C  C125  1  0.99737930  0.86980788  0.79177985  1
  C  C126  1  0.49987006  0.37820569  0.26722132  1
  C  C127  1  0.50053106  0.37891319  0.76762432  1
  C  C128  1  0.51249173  0.87045453  0.28834160  1
  C  C129  1  0.52019787  0.86848668  0.77772600  1
  C  C130  1  0.49600550  0.62688503  0.21431116  1
  C  C131  1  0.48942363  0.62689478  0.71201113  1
  C  C132  1  0.99383150  0.13087686  0.22665908  1
  C  C133  1  0.99396635  0.13223481  0.72587873  1
  C  C134  1  0.99359774  0.62437623  0.21695645  1
  C  C135  1  0.99225668  0.62478087  0.72382038  1
  C  C136  1  0.24921370  0.12655609  0.01830059  1
  C  C137  1  0.25399876  0.12539875  0.52183010  1
  C  C138  1  0.23545170  0.63068953  0.02573544  1
  C  C139  1  0.24095216  0.63236833  0.53886310  1
  C  C140  1  0.75493415  0.12570742  0.03560722  1
  C  C141  1  0.75125743  0.12429499  0.53921814  1
  C  C142  1  0.74680241  0.62544857  0.03634670  1
  C  C143  1  0.74895372  0.62562172  0.53539866  1
  C  C144  1  0.26925815  0.35218283  0.50417942  1
  C  C145  1  0.26891471  0.35486166  0.00185207  1
  C  C146  1  0.28214777  0.88119939  0.47513145  1
  C  C147  1  0.27303356  0.87986780  0.96392391  1
  C  C148  1  0.74033422  0.37454653  0.47055919  1
  C  C149  1  0.74183551  0.37591895  0.96759822  1
  C  C150  1  0.74461017  0.87376910  0.46774687  1
  C  C151  1  0.74751461  0.87341783  0.96597263  1
