# generated using pymatgen
data_Cu3Ni9C52
_symmetry_space_group_name_H-M   'P 1'
_cell_length_a   16.58052478
_cell_length_b   16.58052478
_cell_length_c   10.92708419
_cell_angle_alpha   80.51630013
_cell_angle_beta   80.51630013
_cell_angle_gamma   18.96994685
_symmetry_Int_Tables_number   1
_chemical_formula_structural   Cu3Ni9C52
_chemical_formula_sum   'Cu3 Ni9 C52'
_cell_volume   962.79704776
_cell_formula_units_Z   1
loop_
 _symmetry_equiv_pos_site_id
 _symmetry_equiv_pos_as_xyz
  1  'x, y, z'
loop_
 _atom_site_type_symbol
 _atom_site_label
 _atom_site_symmetry_multiplicity
 _atom_site_fract_x
 _atom_site_fract_y
 _atom_site_fract_z
 _atom_site_occupancy
  Ni  Ni0  1  0.11066300  0.11066300  0.94478700  1
  Ni  Ni1  1  0.61152300  0.61152300  0.69513400  1
  Ni  Ni2  1  0.11176800  0.11176800  0.44395500  1
  Ni  Ni3  1  0.61150600  0.61150600  0.19337800  1
  Ni  Ni4  1  0.38849400  0.38849400  0.80662200  1
  Ni  Ni5  1  0.88823200  0.88823200  0.55604500  1
  Ni  Ni6  1  0.38847700  0.38847700  0.30486600  1
  Ni  Ni7  1  0.88933700  0.88933700  0.05521300  1
  Ni  Ni8  1  0.00000000  0.00000000  0.00000000  1
  Cu  Cu9  1  0.50003500  0.50003500  0.24704000  1
  Cu  Cu10  1  0.00000000  0.00000000  0.50000000  1
  Cu  Cu11  1  0.49996500  0.49996500  0.75296000  1
  C  C12  1  0.05524300  0.05524300  0.72313200  1
  C  C13  1  0.55515000  0.55515000  0.47252300  1
  C  C14  1  0.05529300  0.05529300  0.22158000  1
  C  C15  1  0.55538000  0.55538000  0.97220100  1
  C  C16  1  0.44485000  0.44485000  0.52747700  1
  C  C17  1  0.94475700  0.94475700  0.27686800  1
  C  C18  1  0.44462000  0.44462000  0.02779900  1
  C  C19  1  0.94470700  0.94470700  0.77842000  1
  C  C20  1  0.24999500  0.24999500  0.87506300  1
  C  C21  1  0.75005400  0.75005400  0.62500900  1
  C  C22  1  0.24994600  0.24994600  0.37499100  1
  C  C23  1  0.75000500  0.75000500  0.12493700  1
  C  C24  1  0.19417300  0.19417300  0.65302200  1
  C  C25  1  0.69416700  0.69416700  0.40275500  1
  C  C26  1  0.19421000  0.19421000  0.15255200  1
  C  C27  1  0.69425900  0.69425900  0.90271200  1
  C  C28  1  0.30583300  0.30583300  0.59724500  1
  C  C29  1  0.80582700  0.80582700  0.34697800  1
  C  C30  1  0.30574100  0.30574100  0.09728800  1
  C  C31  1  0.80579000  0.80579000  0.84744800  1
  C  C32  1  0.29742600  0.79979600  0.60051400  1
  C  C33  1  0.79964900  0.29759000  0.35096200  1
  C  C34  1  0.30802400  0.79345800  0.10284600  1
  C  C35  1  0.79366300  0.30782700  0.84630000  1
  C  C36  1  0.20020400  0.70257400  0.39948600  1
  C  C37  1  0.69217300  0.20633700  0.15370000  1
  C  C38  1  0.20654200  0.69197600  0.89715400  1
  C  C39  1  0.70241000  0.20035100  0.64903800  1
  C  C40  1  0.70257400  0.20020400  0.39948600  1
  C  C41  1  0.20633700  0.69217300  0.15370000  1
  C  C42  1  0.69197600  0.20654200  0.89715400  1
  C  C43  1  0.20035100  0.70241000  0.64903800  1
  C  C44  1  0.79979600  0.29742600  0.60051400  1
  C  C45  1  0.29759000  0.79964900  0.35096200  1
  C  C46  1  0.79345800  0.30802400  0.10284600  1
  C  C47  1  0.30782700  0.79366300  0.84630000  1
  C  C48  1  0.19239500  0.19239500  0.90381300  1
  C  C49  1  0.69250600  0.69250600  0.65360900  1
  C  C50  1  0.19237500  0.19237500  0.40376000  1
  C  C51  1  0.69244500  0.69244500  0.15397100  1
  C  C52  1  0.30755500  0.30755500  0.84602900  1
  C  C53  1  0.80762500  0.80762500  0.59624000  1
  C  C54  1  0.30749400  0.30749400  0.34639100  1
  C  C55  1  0.80760500  0.80760500  0.09618700  1
  C  C56  1  0.12669100  0.12669100  0.68577500  1
  C  C57  1  0.62644200  0.62644200  0.43671500  1
  C  C58  1  0.12666300  0.12666300  0.18737200  1
  C  C59  1  0.62695300  0.62695300  0.93645800  1
  C  C60  1  0.37355800  0.37355800  0.56328500  1
  C  C61  1  0.87330900  0.87330900  0.31422500  1
  C  C62  1  0.37304700  0.37304700  0.06354200  1
  C  C63  1  0.87333700  0.87333700  0.81262800  1
