# generated using pymatgen
data_Cu30Ni7C4
_symmetry_space_group_name_H-M   'P 1'
_cell_length_a   7.22545041
_cell_length_b   12.95505974
_cell_length_c   12.95505974
_cell_angle_alpha   90.00000000
_cell_angle_beta   90.00000000
_cell_angle_gamma   90.00000000
_symmetry_Int_Tables_number   1
_chemical_formula_structural   Cu30Ni7C4
_chemical_formula_sum   'Cu60 Ni14 C8'
_cell_volume   1212.67315788
_cell_formula_units_Z   2
loop_
 _symmetry_equiv_pos_site_id
 _symmetry_equiv_pos_as_xyz
  1  'x, y, z'
loop_
 _atom_site_type_symbol
 _atom_site_label
 _atom_site_symmetry_multiplicity
 _atom_site_fract_x
 _atom_site_fract_y
 _atom_site_fract_z
 _atom_site_occupancy
  C  C0  1  0.59248851  0.80099900  0.30099900  1
  C  C1  1  0.40751149  0.69900100  0.80099900  1
  C  C2  1  0.59248851  0.19900100  0.69900100  1
  C  C3  1  0.40751149  0.30099900  0.19900100  1
  C  C4  1  0.98290118  0.63785371  0.13785371  1
  C  C5  1  0.01709882  0.86214629  0.63785371  1
  C  C6  1  0.98290118  0.36214629  0.86214629  1
  C  C7  1  0.01709882  0.13785371  0.36214629  1
  Ni  Ni8  1  0.34534797  0.50000000  -0.00000000  1
  Ni  Ni9  1  0.65465203  -0.00000000  0.50000000  1
  Ni  Ni10  1  0.89644263  0.37683917  0.12316083  1
  Ni  Ni11  1  0.10355737  0.12316083  0.62316083  1
  Ni  Ni12  1  0.89644263  0.62316083  0.87683917  1
  Ni  Ni13  1  0.10355737  0.87683917  0.37683917  1
  Ni  Ni14  1  0.29447947  0.56455986  0.32398206  1
  Ni  Ni15  1  0.70552053  0.93544014  0.82398206  1
  Ni  Ni16  1  0.29447947  0.43544014  0.67601794  1
  Ni  Ni17  1  0.70552053  0.06455986  0.17601794  1
  Ni  Ni18  1  0.70552053  0.67601794  0.56455986  1
  Ni  Ni19  1  0.29447947  0.82398206  0.06455986  1
  Ni  Ni20  1  0.70552053  0.32398206  0.43544014  1
  Ni  Ni21  1  0.29447947  0.17601794  0.93544014  1
  Cu  Cu22  1  0.79274845  0.69943960  0.19943960  1
  Cu  Cu23  1  0.20725155  0.80056040  0.69943960  1
  Cu  Cu24  1  0.79274845  0.30056040  0.80056040  1
  Cu  Cu25  1  0.20725155  0.19943960  0.30056040  1
  Cu  Cu26  1  0.45860762  0.56687600  0.93312400  1
  Cu  Cu27  1  0.54139238  0.93312400  0.43312400  1
  Cu  Cu28  1  0.45860762  0.43312400  0.06687600  1
  Cu  Cu29  1  0.54139238  0.06687600  0.56687600  1
  Cu  Cu30  1  0.22474773  0.56595324  0.06595324  1
  Cu  Cu31  1  0.77525227  0.93404676  0.56595324  1
  Cu  Cu32  1  0.22474773  0.43404676  0.93404676  1
  Cu  Cu33  1  0.77525227  0.06595324  0.43404676  1
  Cu  Cu34  1  0.07883100  0.34339832  0.15660168  1
  Cu  Cu35  1  0.92116900  0.15660168  0.65660168  1
  Cu  Cu36  1  0.07883100  0.65660168  0.84339832  1
  Cu  Cu37  1  0.92116900  0.84339832  0.34339832  1
  Cu  Cu38  1  0.74343685  0.32506915  0.17493085  1
  Cu  Cu39  1  0.25656315  0.17493085  0.67493085  1
  Cu  Cu40  1  0.74343685  0.67493085  0.82506915  1
  Cu  Cu41  1  0.25656315  0.82506915  0.32506915  1
  Cu  Cu42  1  0.87418309  0.49121533  0.14125653  1
  Cu  Cu43  1  0.12581691  0.00878467  0.64125653  1
  Cu  Cu44  1  0.87418309  0.50878467  0.85874347  1
  Cu  Cu45  1  0.12581691  0.99121533  0.35874347  1
  Cu  Cu46  1  0.12581691  0.85874347  0.49121533  1
  Cu  Cu47  1  0.87418309  0.64125653  0.99121533  1
  Cu  Cu48  1  0.12581691  0.14125653  0.50878467  1
  Cu  Cu49  1  0.87418309  0.35874347  0.00878467  1
  Cu  Cu50  1  0.45000193  0.63029331  0.29096954  1
  Cu  Cu51  1  0.54999807  0.86970669  0.79096954  1
  Cu  Cu52  1  0.45000193  0.36970669  0.70903046  1
  Cu  Cu53  1  0.54999807  0.13029331  0.20903046  1
  Cu  Cu54  1  0.54999807  0.70903046  0.63029331  1
  Cu  Cu55  1  0.45000193  0.79096954  0.13029331  1
  Cu  Cu56  1  0.54999807  0.29096954  0.36970669  1
  Cu  Cu57  1  0.45000193  0.20903046  0.86970669  1
  Cu  Cu58  1  0.32105370  0.45695643  0.29204876  1
  Cu  Cu59  1  0.67894630  0.04304357  0.79204876  1
  Cu  Cu60  1  0.32105370  0.54304357  0.70795124  1
  Cu  Cu61  1  0.67894630  0.95695643  0.20795124  1
  Cu  Cu62  1  0.67894630  0.70795124  0.45695643  1
  Cu  Cu63  1  0.32105370  0.79204876  0.95695643  1
  Cu  Cu64  1  0.67894630  0.29204876  0.54304357  1
  Cu  Cu65  1  0.32105370  0.20795124  0.04304357  1
  Cu  Cu66  1  0.26208691  0.57527347  0.43498048  1
  Cu  Cu67  1  0.73791309  0.92472653  0.93498048  1
  Cu  Cu68  1  0.26208691  0.42472653  0.56501952  1
  Cu  Cu69  1  0.73791309  0.07527347  0.06501952  1
  Cu  Cu70  1  0.73791309  0.56501952  0.57527347  1
  Cu  Cu71  1  0.26208691  0.93498048  0.07527347  1
  Cu  Cu72  1  0.73791309  0.43498048  0.42472653  1
  Cu  Cu73  1  0.26208691  0.06501952  0.92472653  1
  Cu  Cu74  1  0.12013978  0.60566493  0.26874163  1
  Cu  Cu75  1  0.87986022  0.89433507  0.76874163  1
  Cu  Cu76  1  0.12013978  0.39433507  0.73125837  1
  Cu  Cu77  1  0.87986022  0.10566493  0.23125837  1
  Cu  Cu78  1  0.87986022  0.73125837  0.60566493  1
  Cu  Cu79  1  0.12013978  0.76874163  0.10566493  1
  Cu  Cu80  1  0.87986022  0.26874163  0.39433507  1
  Cu  Cu81  1  0.12013978  0.23125837  0.89433507  1
