# generated using pymatgen
data_Cu3NiC16
_symmetry_space_group_name_H-M   'P 1'
_cell_length_a   7.75068900
_cell_length_b   7.71479900
_cell_length_c   7.71669960
_cell_angle_alpha   89.95294093
_cell_angle_beta   90.00000000
_cell_angle_gamma   90.00000000
_symmetry_Int_Tables_number   1
_chemical_formula_structural   Cu3NiC16
_chemical_formula_sum   'Cu6 Ni2 C32'
_cell_volume   461.41995689
_cell_formula_units_Z   2
loop_
 _symmetry_equiv_pos_site_id
 _symmetry_equiv_pos_as_xyz
  1  'x, y, z'
loop_
 _atom_site_type_symbol
 _atom_site_label
 _atom_site_symmetry_multiplicity
 _atom_site_fract_x
 _atom_site_fract_y
 _atom_site_fract_z
 _atom_site_occupancy
  C  C0  1  0.00000000  0.24688800  0.75381500  1
  C  C1  1  0.00000000  0.75319000  0.75388100  1
  C  C2  1  0.50000000  0.75344800  0.75373800  1
  C  C3  1  0.50000000  0.24656600  0.24608300  1
  C  C4  1  0.00000000  0.24524100  0.24539800  1
  C  C5  1  0.00000000  0.75475200  0.24538400  1
  C  C6  1  0.50000000  0.24564200  0.75449100  1
  C  C7  1  0.50000000  0.75422100  0.24528200  1
  Ni  Ni8  1  0.25001100  0.50000100  0.49726900  1
  Ni  Ni9  1  0.74998900  0.50000100  0.49726900  1
  Cu  Cu10  1  0.25010400  0.00011200  0.00110200  1
  Cu  Cu11  1  0.25008200  0.49995700  0.00076500  1
  Cu  Cu12  1  0.25008200  0.00006900  0.49845700  1
  Cu  Cu13  1  0.74989600  0.00011200  0.00110200  1
  Cu  Cu14  1  0.74991800  0.49995700  0.00076500  1
  Cu  Cu15  1  0.74991800  0.00006900  0.49845700  1
  C  C16  1  0.00000000  0.00001500  0.00704100  1
  C  C17  1  0.00000000  0.49995000  0.00750000  1
  C  C18  1  0.00000000  0.00005000  0.49277200  1
  C  C19  1  0.00000000  0.49998800  0.49610100  1
  C  C20  1  0.50000000  0.99992100  0.00100900  1
  C  C21  1  0.50000000  0.50004700  0.00066900  1
  C  C22  1  0.50000000  0.99996100  0.49925300  1
  C  C23  1  0.50000000  0.50006000  0.49852600  1
  C  C24  1  0.25298100  0.00311700  0.75019500  1
  C  C25  1  0.25179000  0.49824900  0.75334200  1
  C  C26  1  0.24711600  0.99699200  0.24984800  1
  C  C27  1  0.24838800  0.50155400  0.24674100  1
  C  C28  1  0.74701900  0.00311700  0.75019500  1
  C  C29  1  0.74821000  0.49824900  0.75334200  1
  C  C30  1  0.75288400  0.99699200  0.24984800  1
  C  C31  1  0.75161200  0.50155400  0.24674100  1
  C  C32  1  0.24994000  0.24980700  0.00084900  1
  C  C33  1  0.25002600  0.75014700  0.00699300  1
  C  C34  1  0.24993700  0.24674400  0.49861600  1
  C  C35  1  0.25004100  0.75328100  0.49535300  1
  C  C36  1  0.75006000  0.24980700  0.00084900  1
  C  C37  1  0.74997400  0.75014700  0.00699300  1
  C  C38  1  0.75006300  0.24674400  0.49861600  1
  C  C39  1  0.74995900  0.75328100  0.49535300  1
