# generated using pymatgen
data_Cu(NiC10)2
_symmetry_space_group_name_H-M   'P 1'
_cell_length_a   5.54538500
_cell_length_b   7.27996428
_cell_length_c   14.72483025
_cell_angle_alpha   92.13210205
_cell_angle_beta   95.52129543
_cell_angle_gamma   90.44571748
_symmetry_Int_Tables_number   1
_chemical_formula_structural   Cu(NiC10)2
_chemical_formula_sum   'Cu2 Ni4 C40'
_cell_volume   591.23831454
_cell_formula_units_Z   2
loop_
 _symmetry_equiv_pos_site_id
 _symmetry_equiv_pos_as_xyz
  1  'x, y, z'
loop_
 _atom_site_type_symbol
 _atom_site_label
 _atom_site_symmetry_multiplicity
 _atom_site_fract_x
 _atom_site_fract_y
 _atom_site_fract_z
 _atom_site_occupancy
  C  C0  1  0.37616100  0.12427400  0.44207400  1
  C  C1  1  0.87362900  0.38526200  0.44159100  1
  C  C2  1  0.38194600  0.65236400  0.43990500  1
  C  C3  1  0.16912200  0.87103300  0.19680700  1
  C  C4  1  0.69075000  0.37993800  0.07803800  1
  C  C5  1  0.57649600  0.88753100  0.67533700  1
  C  C6  1  0.04212300  0.86491300  0.83745400  1
  C  C7  1  0.90143300  0.88684700  0.43232700  1
  C  C8  1  0.17800000  0.37566200  0.22924900  1
  C  C9  1  0.56976300  0.39513900  0.65240900  1
  Ni  Ni10  1  0.69149500  0.66341500  0.24699400  1
  Ni  Ni11  1  0.67754700  0.08879500  0.25372600  1
  Ni  Ni12  1  0.06664300  0.68383700  0.62627600  1
  Ni  Ni13  1  0.05800900  0.10611300  0.63399200  1
  Cu  Cu14  1  0.56641700  0.62453000  0.87728500  1
  Cu  Cu15  1  0.18446500  0.14995800  0.00308100  1
  C  C16  1  0.92638800  0.57543900  0.20163300  1
  C  C17  1  0.67125400  0.87561400  0.20857500  1
  C  C18  1  0.71407400  0.67513200  0.35787200  1
  C  C19  1  0.41405700  0.17185100  0.21721100  1
  C  C20  1  0.03256600  0.09207400  0.52288900  1
  C  C21  1  0.71187800  0.08656700  0.36441600  1
  C  C22  1  0.31228700  0.20834200  0.67431600  1
  C  C23  1  0.20024600  0.39373200  0.35103800  1
  C  C24  1  0.07538200  0.89504100  0.67554700  1
  C  C25  1  0.89509700  0.19741500  0.21057000  1
  C  C26  1  0.03321100  0.69075400  0.51576900  1
  C  C27  1  0.44228700  0.55597900  0.20340700  1
  C  C28  1  0.11031800  0.96672800  0.04433800  1
  C  C29  1  0.13345400  0.88690200  0.36259500  1
  C  C30  1  0.81985000  0.19378500  0.67681100  1
  C  C31  1  0.54679300  0.37845400  0.53024100  1
  C  C32  1  0.12265100  0.31850000  0.06378300  1
  C  C33  1  0.32831200  0.59763400  0.66148500  1
  C  C34  1  0.46614600  0.14940500  0.99787300  1
  C  C35  1  0.05178100  0.15435100  0.90405500  1
  C  C36  1  0.69884000  0.60943600  0.97584300  1
  C  C37  1  0.62448400  0.44777300  0.81853700  1
  C  C38  1  0.84008200  0.58239400  0.66674200  1
  C  C39  1  0.63699900  0.79602300  0.82985800  1
  C  C40  1  0.28465800  0.62819600  0.88555900  1
  C  C41  1  0.11708800  0.61871100  0.01131900  1
  C  C42  1  0.05156200  0.38398200  0.81458900  1
  C  C43  1  0.63321200  0.15577600  0.86967300  1
  C  C44  1  0.71054600  0.89712500  0.04350600  1
  C  C45  1  0.59669700  0.88737300  0.51710200  1
