# generated using pymatgen
data_Cu4NiC5
_symmetry_space_group_name_H-M   'P 1'
_cell_length_a   16.17724000
_cell_length_b   4.43773400
_cell_length_c   8.45806157
_cell_angle_alpha   79.06165462
_cell_angle_beta   90.00000000
_cell_angle_gamma   90.00000000
_symmetry_Int_Tables_number   1
_chemical_formula_structural   Cu4NiC5
_chemical_formula_sum   'Cu16 Ni4 C20'
_cell_volume   596.17490850
_cell_formula_units_Z   4
loop_
 _symmetry_equiv_pos_site_id
 _symmetry_equiv_pos_as_xyz
  1  'x, y, z'
loop_
 _atom_site_type_symbol
 _atom_site_label
 _atom_site_symmetry_multiplicity
 _atom_site_fract_x
 _atom_site_fract_y
 _atom_site_fract_z
 _atom_site_occupancy
  C  C0  1  0.43389500  0.29400000  0.75860000  1
  C  C1  1  0.93389500  0.70600000  0.74140000  1
  C  C2  1  0.56610500  0.70600000  0.24140000  1
  C  C3  1  0.06610500  0.29400000  0.25860000  1
  Ni  Ni4  1  0.23782100  0.49971600  0.52060000  1
  Ni  Ni5  1  0.73782100  0.50028400  0.97940000  1
  Ni  Ni6  1  0.76217900  0.50028400  0.47940000  1
  Ni  Ni7  1  0.26217900  0.49971600  0.02060000  1
  Cu  Cu8  1  0.21010700  0.14552600  0.70067300  1
  Cu  Cu9  1  0.71010700  0.85447400  0.79932700  1
  Cu  Cu10  1  0.78989300  0.85447400  0.29932700  1
  Cu  Cu11  1  0.28989300  0.14552600  0.20067300  1
  Cu  Cu12  1  0.22227500  0.89885500  0.83578000  1
  Cu  Cu13  1  0.72227500  0.10114500  0.66422000  1
  Cu  Cu14  1  0.77772500  0.10114500  0.16422000  1
  Cu  Cu15  1  0.27772500  0.89885500  0.33578000  1
  Cu  Cu16  1  0.13121300  0.88409600  0.86468200  1
  Cu  Cu17  1  0.63121300  0.11590400  0.63531800  1
  Cu  Cu18  1  0.86878700  0.11590400  0.13531800  1
  Cu  Cu19  1  0.36878700  0.88409600  0.36468200  1
  Cu  Cu20  1  0.12027500  0.12948900  0.71680500  1
  Cu  Cu21  1  0.62027500  0.87051100  0.78319500  1
  Cu  Cu22  1  0.87972500  0.87051100  0.28319500  1
  Cu  Cu23  1  0.37972500  0.12948900  0.21680500  1
  C  C24  1  0.26356700  0.31006800  0.60562000  1
  C  C25  1  0.76356700  0.68993200  0.89438000  1
  C  C26  1  0.73643300  0.68993200  0.39438000  1
  C  C27  1  0.23643300  0.31006800  0.10562000  1
  C  C28  1  0.28561200  0.75403400  0.90021900  1
  C  C29  1  0.78561200  0.24596600  0.59978100  1
  C  C30  1  0.71438800  0.24596600  0.09978100  1
  C  C31  1  0.21438800  0.75403400  0.40021900  1
  C  C32  1  0.08302500  0.73798600  0.96490000  1
  C  C33  1  0.58302500  0.26201400  0.53510000  1
  C  C34  1  0.91697500  0.26201400  0.03510000  1
  C  C35  1  0.41697500  0.73798600  0.46490000  1
  C  C36  1  0.05923000  0.25384700  0.64016700  1
  C  C37  1  0.55923000  0.74615300  0.85983300  1
  C  C38  1  0.94077000  0.74615300  0.35983300  1
  C  C39  1  0.44077000  0.25384700  0.14016700  1
