# generated using pymatgen
data_Cu3(NiC4)2
_symmetry_space_group_name_H-M   'P 1'
_cell_length_a   4.43480700
_cell_length_b   7.76057100
_cell_length_c   17.93222800
_cell_angle_alpha   90.00000000
_cell_angle_beta   90.00000000
_cell_angle_gamma   90.00000000
_symmetry_Int_Tables_number   1
_chemical_formula_structural   Cu3(NiC4)2
_chemical_formula_sum   'Cu12 Ni8 C32'
_cell_volume   617.16693855
_cell_formula_units_Z   4
loop_
 _symmetry_equiv_pos_site_id
 _symmetry_equiv_pos_as_xyz
  1  'x, y, z'
loop_
 _atom_site_type_symbol
 _atom_site_label
 _atom_site_symmetry_multiplicity
 _atom_site_fract_x
 _atom_site_fract_y
 _atom_site_fract_z
 _atom_site_occupancy
  C  C0  1  0.94791300  0.50000000  0.35765400  1
  C  C1  1  0.44791300  0.00000000  0.64234600  1
  C  C2  1  0.92527700  0.00000000  0.14967400  1
  C  C3  1  0.42527700  0.50000000  0.85032600  1
  Ni  Ni4  1  0.43108600  0.18704900  0.45953400  1
  Ni  Ni5  1  0.43108600  0.81295100  0.45953400  1
  Ni  Ni6  1  0.93108600  0.31295100  0.54046600  1
  Ni  Ni7  1  0.93108600  0.68704900  0.54046600  1
  Ni  Ni8  1  0.35797900  0.32447100  0.03691000  1
  Ni  Ni9  1  0.35797900  0.67552900  0.03691000  1
  Ni  Ni10  1  0.85797900  0.17552900  0.96309000  1
  Ni  Ni11  1  0.85797900  0.82447100  0.96309000  1
  Cu  Cu12  1  0.93271300  0.00000000  0.48112000  1
  Cu  Cu13  1  0.43271300  0.50000000  0.51888000  1
  Cu  Cu14  1  0.86153300  0.50000000  0.00864000  1
  Cu  Cu15  1  0.36153300  0.00000000  0.99136000  1
  Cu  Cu16  1  0.51794200  0.15806900  0.31769900  1
  Cu  Cu17  1  0.51794200  0.84193100  0.31769900  1
  Cu  Cu18  1  0.01794200  0.34193100  0.68230100  1
  Cu  Cu19  1  0.01794200  0.65806900  0.68230100  1
  Cu  Cu20  1  0.42636600  0.33558000  0.19365900  1
  Cu  Cu21  1  0.42636600  0.66442000  0.19365900  1
  Cu  Cu22  1  0.92636600  0.16442000  0.80634100  1
  Cu  Cu23  1  0.92636600  0.83558000  0.80634100  1
  C  C24  1  0.24417100  0.00000000  0.47378300  1
  C  C25  1  0.74417100  0.50000000  0.52621700  1
  C  C26  1  0.78166600  0.15622400  0.48791500  1
  C  C27  1  0.78166600  0.84377600  0.48791500  1
  C  C28  1  0.28166600  0.34377600  0.51208500  1
  C  C29  1  0.28166600  0.65622400  0.51208500  1
  C  C30  1  0.17260700  0.50000000  0.01025000  1
  C  C31  1  0.67260700  0.00000000  0.98975000  1
  C  C32  1  0.20773100  0.15480400  0.99378100  1
  C  C33  1  0.20773100  0.84519600  0.99378100  1
  C  C34  1  0.70773100  0.34519600  0.00621900  1
  C  C35  1  0.70773100  0.65480400  0.00621900  1
  C  C36  1  0.42121700  0.25609400  0.37428000  1
  C  C37  1  0.42121700  0.74390600  0.37428000  1
  C  C38  1  0.92121700  0.24390600  0.62572000  1
  C  C39  1  0.92121700  0.75609400  0.62572000  1
  C  C40  1  0.66019900  0.00000000  0.33210000  1
  C  C41  1  0.16019900  0.50000000  0.66790000  1
  C  C42  1  0.48953000  0.19797900  0.24207300  1
  C  C43  1  0.48953000  0.80202100  0.24207300  1
  C  C44  1  0.98953000  0.30202100  0.75792700  1
  C  C45  1  0.98953000  0.69797900  0.75792700  1
  C  C46  1  0.45777800  0.50000000  0.22519900  1
  C  C47  1  0.95777800  0.00000000  0.77480100  1
  C  C48  1  0.35024300  0.29575200  0.12406300  1
  C  C49  1  0.35024300  0.70424800  0.12406300  1
  C  C50  1  0.85024300  0.20424800  0.87593700  1
  C  C51  1  0.85024300  0.79575200  0.87593700  1
