# generated using pymatgen
data_CuNiC5
_symmetry_space_group_name_H-M   'P 1'
_cell_length_a   6.00236713
_cell_length_b   6.01056108
_cell_length_c   8.51024000
_cell_angle_alpha   90.00001905
_cell_angle_beta   90.00001907
_cell_angle_gamma   90.00001349
_symmetry_Int_Tables_number   1
_chemical_formula_structural   CuNiC5
_chemical_formula_sum   'Cu4 Ni4 C20'
_cell_volume   307.02898583
_cell_formula_units_Z   4
loop_
 _symmetry_equiv_pos_site_id
 _symmetry_equiv_pos_as_xyz
  1  'x, y, z'
loop_
 _atom_site_type_symbol
 _atom_site_label
 _atom_site_symmetry_multiplicity
 _atom_site_fract_x
 _atom_site_fract_y
 _atom_site_fract_z
 _atom_site_occupancy
  Ni  Ni0  1  0.00000000  0.24999900  0.12417500  1
  Ni  Ni1  1  0.50000000  0.75000000  0.62417500  1
  Ni  Ni2  1  0.50000000  0.25000000  0.37582500  1
  Ni  Ni3  1  0.00000000  0.75000000  0.87582500  1
  Cu  Cu4  1  0.75000000  0.75000100  0.25000000  1
  Cu  Cu5  1  0.25000000  0.24999900  0.75000000  1
  Cu  Cu6  1  0.25000000  0.75000100  0.25000000  1
  Cu  Cu7  1  0.75000000  0.24999900  0.75000000  1
  C  C8  1  0.00000200  0.50000000  0.50000100  1
  C  C9  1  0.50000000  0.50000100  0.00000000  1
  C  C10  1  0.50000000  0.00000100  0.00000000  1
  C  C11  1  0.99999800  0.00000100  0.49999900  1
  C  C12  1  0.22967800  0.75000200  0.48753700  1
  C  C13  1  0.72967800  0.24999800  0.98753700  1
  C  C14  1  0.77032200  0.75000200  0.48753700  1
  C  C15  1  0.27032200  0.24999800  0.98753700  1
  C  C16  1  0.27032200  0.75000200  0.01246300  1
  C  C17  1  0.77032200  0.24999800  0.51246300  1
  C  C18  1  0.72967800  0.75000200  0.01246300  1
  C  C19  1  0.22967800  0.24999800  0.51246300  1
  C  C20  1  0.00000000  0.97554200  0.25976900  1
  C  C21  1  0.50000000  0.47554200  0.75976900  1
  C  C22  1  0.00000000  0.52445800  0.25976900  1
  C  C23  1  0.50000000  0.02445700  0.75976900  1
  C  C24  1  0.50000000  0.52445800  0.24023200  1
  C  C25  1  0.00000000  0.02445800  0.74023000  1
  C  C26  1  0.50000000  0.97554200  0.24023100  1
  C  C27  1  0.00000000  0.47554200  0.74023100  1
