# generated using pymatgen
data_CuNi20C11
_symmetry_space_group_name_H-M   'P 1'
_cell_length_a   9.55241160
_cell_length_b   9.55241160
_cell_length_c   18.69211200
_cell_angle_alpha   90.00000000
_cell_angle_beta   90.00000000
_cell_angle_gamma   119.99999724
_symmetry_Int_Tables_number   1
_chemical_formula_structural   CuNi20C11
_chemical_formula_sum   'Cu2 Ni40 C22'
_cell_volume   1477.11760120
_cell_formula_units_Z   2
loop_
 _symmetry_equiv_pos_site_id
 _symmetry_equiv_pos_as_xyz
  1  'x, y, z'
loop_
 _atom_site_type_symbol
 _atom_site_label
 _atom_site_symmetry_multiplicity
 _atom_site_fract_x
 _atom_site_fract_y
 _atom_site_fract_z
 _atom_site_occupancy
  C  C0  1  0.33333300  0.66666700  0.25000000  1
  C  C1  1  0.66666700  0.33333300  0.75000000  1
  C  C2  1  0.65777200  0.65777200  0.00000000  1
  C  C3  1  0.34222800  0.00000000  0.00000000  1
  C  C4  1  0.00000000  0.34222800  0.00000000  1
  C  C5  1  0.34222800  0.34222800  0.50000000  1
  C  C6  1  0.65777200  0.00000000  0.50000000  1
  C  C7  1  0.00000000  0.65777200  0.50000000  1
  C  C8  1  0.00000000  0.00000000  0.25000000  1
  C  C9  1  0.00000000  0.00000000  0.75000000  1
  C  C10  1  0.66719500  0.13654400  0.17941800  1
  C  C11  1  0.86345600  0.53065200  0.17941800  1
  C  C12  1  0.46934800  0.33280500  0.17941800  1
  C  C13  1  0.13654400  0.66719500  0.82058200  1
  C  C14  1  0.53065200  0.86345600  0.82058200  1
  C  C15  1  0.33280500  0.46934800  0.82058200  1
  C  C16  1  0.33280500  0.86345600  0.67941800  1
  C  C17  1  0.13654400  0.46934800  0.67941800  1
  C  C18  1  0.53065200  0.66719500  0.67941800  1
  C  C19  1  0.86345600  0.33280500  0.32058200  1
  C  C20  1  0.46934800  0.13654400  0.32058200  1
  C  C21  1  0.66719500  0.53065200  0.32058200  1
  Ni  Ni22  1  0.54380400  0.89769800  0.10942100  1
  Ni  Ni23  1  0.10230200  0.64610600  0.10942100  1
  Ni  Ni24  1  0.35389400  0.45619600  0.10942100  1
  Ni  Ni25  1  0.89769800  0.54380400  0.89057900  1
  Ni  Ni26  1  0.64610600  0.10230200  0.89057900  1
  Ni  Ni27  1  0.45619600  0.35389400  0.89057900  1
  Ni  Ni28  1  0.45619600  0.10230200  0.60942100  1
  Ni  Ni29  1  0.89769800  0.35389400  0.60942100  1
  Ni  Ni30  1  0.64610600  0.54380400  0.60942100  1
  Ni  Ni31  1  0.10230200  0.45619600  0.39057900  1
  Ni  Ni32  1  0.35389400  0.89769800  0.39057900  1
  Ni  Ni33  1  0.54380400  0.64610600  0.39057900  1
  Ni  Ni34  1  0.66666700  0.33333300  0.09224200  1
  Ni  Ni35  1  0.33333300  0.66666700  0.90775800  1
  Ni  Ni36  1  0.33333300  0.66666700  0.59224200  1
  Ni  Ni37  1  0.66666700  0.33333300  0.40775800  1
  Ni  Ni38  1  0.79389500  0.02454800  0.10751900  1
  Ni  Ni39  1  0.97545200  0.76934700  0.10751900  1
  Ni  Ni40  1  0.23065300  0.20610500  0.10751900  1
  Ni  Ni41  1  0.02454800  0.79389500  0.89248100  1
  Ni  Ni42  1  0.76934700  0.97545200  0.89248100  1
  Ni  Ni43  1  0.20610500  0.23065300  0.89248100  1
  Ni  Ni44  1  0.20610500  0.97545200  0.60751900  1
  Ni  Ni45  1  0.02454800  0.23065300  0.60751900  1
  Ni  Ni46  1  0.76934700  0.79389500  0.60751900  1
  Ni  Ni47  1  0.97545200  0.20610500  0.39248100  1
  Ni  Ni48  1  0.23065300  0.02454800  0.39248100  1
  Ni  Ni49  1  0.79389500  0.76934700  0.39248100  1
  Ni  Ni50  1  0.96322900  0.33222000  0.20353300  1
  Ni  Ni51  1  0.66778000  0.63101000  0.20353300  1
  Ni  Ni52  1  0.36899000  0.03677100  0.20353300  1
  Ni  Ni53  1  0.33222000  0.96322900  0.79646700  1
  Ni  Ni54  1  0.63101000  0.66778000  0.79646700  1
  Ni  Ni55  1  0.03677100  0.36899000  0.79646700  1
  Ni  Ni56  1  0.03677100  0.66778000  0.70353300  1
  Ni  Ni57  1  0.33222000  0.36899000  0.70353300  1
  Ni  Ni58  1  0.63101000  0.96322900  0.70353300  1
  Ni  Ni59  1  0.66778000  0.03677100  0.29646700  1
  Ni  Ni60  1  0.36899000  0.33222000  0.29646700  1
  Ni  Ni61  1  0.96322900  0.63101000  0.29646700  1
  Cu  Cu62  1  0.66666700  0.33333300  0.25000000  1
  Cu  Cu63  1  0.33333300  0.66666700  0.75000000  1
