# generated using pymatgen
data_CuNiC8
_symmetry_space_group_name_H-M   'P 1'
_cell_length_a   5.89005702
_cell_length_b   6.08225445
_cell_length_c   8.46081121
_cell_angle_alpha   89.78754349
_cell_angle_beta   89.42071875
_cell_angle_gamma   90.06830465
_symmetry_Int_Tables_number   1
_chemical_formula_structural   CuNiC8
_chemical_formula_sum   'Cu2 Ni2 C16'
_cell_volume   303.08928088
_cell_formula_units_Z   2
loop_
 _symmetry_equiv_pos_site_id
 _symmetry_equiv_pos_as_xyz
  1  'x, y, z'
loop_
 _atom_site_type_symbol
 _atom_site_label
 _atom_site_symmetry_multiplicity
 _atom_site_fract_x
 _atom_site_fract_y
 _atom_site_fract_z
 _atom_site_occupancy
  C  C0  1  0.51405205  0.55273188  0.25038651  1
  C  C1  1  0.48594795  0.44726812  0.74961349  1
  Ni  Ni2  1  0.50000000  0.00000000  -0.00000000  1
  Ni  Ni3  1  0.00000000  0.50000000  0.50000000  1
  Cu  Cu4  1  0.98357885  0.05552909  0.24865494  1
  Cu  Cu5  1  0.01642115  0.94447091  0.75134506  1
  C  C6  1  0.00000000  0.50000000  -0.00000000  1
  C  C7  1  0.50000000  0.00000000  0.50000000  1
  C  C8  1  0.17333112  0.21816690  0.94123483  1
  C  C9  1  0.32379418  0.72133506  0.55757955  1
  C  C10  1  0.82666888  0.78183310  0.05876517  1
  C  C11  1  0.67620582  0.27866494  0.44242045  1
  C  C12  1  0.27869266  0.68267541  0.94603396  1
  C  C13  1  0.22046724  0.18073009  0.55716605  1
  C  C14  1  0.72130734  0.31732459  0.05396604  1
  C  C15  1  0.77953276  0.81926991  0.44283395  1
  C  C16  1  0.38973717  0.96663194  0.27243042  1
  C  C17  1  0.10237901  0.46056965  0.22799546  1
  C  C18  1  0.61026283  0.03336806  0.72756958  1
  C  C19  1  0.89762099  0.53943035  0.77200454  1
