# generated using pymatgen
data_Cu2Ni10C
_symmetry_space_group_name_H-M   'P 1'
_cell_length_a   6.96198208
_cell_length_b   6.96198208
_cell_length_c   26.99943500
_cell_angle_alpha   90.00000000
_cell_angle_beta   90.00000000
_cell_angle_gamma   96.00472403
_symmetry_Int_Tables_number   1
_chemical_formula_structural   Cu2Ni10C
_chemical_formula_sum   'Cu12 Ni60 C6'
_cell_volume   1301.46071224
_cell_formula_units_Z   6
loop_
 _symmetry_equiv_pos_site_id
 _symmetry_equiv_pos_as_xyz
  1  'x, y, z'
loop_
 _atom_site_type_symbol
 _atom_site_label
 _atom_site_symmetry_multiplicity
 _atom_site_fract_x
 _atom_site_fract_y
 _atom_site_fract_z
 _atom_site_occupancy
  C  C0  1  0.87591300  0.12408700  0.58474900  1
  C  C1  1  0.12408700  0.87591300  0.41525100  1
  C  C2  1  0.12408700  0.87591300  0.08474900  1
  C  C3  1  0.87591300  0.12408700  0.91525100  1
  C  C4  1  0.61867500  0.38132500  0.75000000  1
  C  C5  1  0.38132500  0.61867500  0.25000000  1
  Ni  Ni6  1  0.59546400  0.40453600  0.63312500  1
  Ni  Ni7  1  0.40453600  0.59546400  0.36687500  1
  Ni  Ni8  1  0.40453600  0.59546400  0.13312500  1
  Ni  Ni9  1  0.59546400  0.40453600  0.86687500  1
  Ni  Ni10  1  0.17988200  0.40302300  0.75000000  1
  Ni  Ni11  1  0.82011800  0.59697700  0.25000000  1
  Ni  Ni12  1  0.59697700  0.82011800  0.75000000  1
  Ni  Ni13  1  0.40302300  0.17988200  0.25000000  1
  Ni  Ni14  1  0.87500900  0.12499100  0.14586800  1
  Ni  Ni15  1  0.12499100  0.87500900  0.85413200  1
  Ni  Ni16  1  0.12499100  0.87500900  0.64586800  1
  Ni  Ni17  1  0.87500900  0.12499100  0.35413200  1
  Ni  Ni18  1  0.36993500  0.63006500  0.67746100  1
  Ni  Ni19  1  0.63006500  0.36993500  0.32253900  1
  Ni  Ni20  1  0.63006500  0.36993500  0.17746100  1
  Ni  Ni21  1  0.36993500  0.63006500  0.82253900  1
  Ni  Ni22  1  0.22805400  0.47152700  0.58068500  1
  Ni  Ni23  1  0.77194600  0.52847300  0.41931500  1
  Ni  Ni24  1  0.77194600  0.52847300  0.08068500  1
  Ni  Ni25  1  0.52847300  0.77194600  0.91931500  1
  Ni  Ni26  1  0.22805400  0.47152700  0.91931500  1
  Ni  Ni27  1  0.47152700  0.22805400  0.08068500  1
  Ni  Ni28  1  0.47152700  0.22805400  0.41931500  1
  Ni  Ni29  1  0.52847300  0.77194600  0.58068500  1
  Ni  Ni30  1  0.96170000  0.73982400  0.75000000  1
  Ni  Ni31  1  0.03830000  0.26017600  0.25000000  1
  Ni  Ni32  1  0.26017600  0.03830000  0.75000000  1
  Ni  Ni33  1  0.73982400  0.96170000  0.25000000  1
  Ni  Ni34  1  0.62233400  0.37766600  0.52194500  1
  Ni  Ni35  1  0.37766600  0.62233400  0.47805500  1
  Ni  Ni36  1  0.37766600  0.62233400  0.02194500  1
  Ni  Ni37  1  0.62233400  0.37766600  0.97805500  1
  Ni  Ni38  1  0.96950800  0.47512700  0.67108600  1
  Ni  Ni39  1  0.03049200  0.52487300  0.32891400  1
  Ni  Ni40  1  0.03049200  0.52487300  0.17108600  1
  Ni  Ni41  1  0.52487300  0.03049200  0.82891400  1
  Ni  Ni42  1  0.96950800  0.47512700  0.82891400  1
  Ni  Ni43  1  0.47512700  0.96950800  0.17108600  1
  Ni  Ni44  1  0.47512700  0.96950800  0.32891400  1
  Ni  Ni45  1  0.52487300  0.03049200  0.67108600  1
  Ni  Ni46  1  0.90755700  0.09244300  0.69995100  1
  Ni  Ni47  1  0.09244300  0.90755700  0.30004900  1
  Ni  Ni48  1  0.09244300  0.90755700  0.19995100  1
  Ni  Ni49  1  0.90755700  0.09244300  0.80004900  1
  Ni  Ni50  1  0.87632300  0.62077500  0.58303700  1
  Ni  Ni51  1  0.12367700  0.37922500  0.41696300  1
  Ni  Ni52  1  0.12367700  0.37922500  0.08303700  1
  Ni  Ni53  1  0.37922500  0.12367700  0.91696300  1
  Ni  Ni54  1  0.87632300  0.62077500  0.91696300  1
  Ni  Ni55  1  0.62077500  0.87632300  0.08303700  1
  Ni  Ni56  1  0.62077500  0.87632300  0.41696300  1
  Ni  Ni57  1  0.37922500  0.12367700  0.58303700  1
  Ni  Ni58  1  0.20717200  0.20717200  0.50000000  1
  Ni  Ni59  1  0.79282800  0.79282800  0.50000000  1
  Ni  Ni60  1  0.79282800  0.79282800  0.00000000  1
  Ni  Ni61  1  0.20717200  0.20717200  0.00000000  1
  Ni  Ni62  1  0.83455100  0.16544900  0.03415700  1
  Ni  Ni63  1  0.16544900  0.83455100  0.96584300  1
  Ni  Ni64  1  0.16544900  0.83455100  0.53415700  1
  Ni  Ni65  1  0.83455100  0.16544900  0.46584300  1
  Cu  Cu66  1  0.24941100  0.25504600  0.66320600  1
  Cu  Cu67  1  0.75058900  0.74495400  0.33679400  1
  Cu  Cu68  1  0.75058900  0.74495400  0.16320600  1
  Cu  Cu69  1  0.74495400  0.75058900  0.83679400  1
  Cu  Cu70  1  0.24941100  0.25504600  0.83679400  1
  Cu  Cu71  1  0.25504600  0.24941100  0.16320600  1
  Cu  Cu72  1  0.25504600  0.24941100  0.33679400  1
  Cu  Cu73  1  0.74495400  0.75058900  0.66320600  1
  Cu  Cu74  1  0.00000000  0.50000000  0.50000000  1
  Cu  Cu75  1  0.00000000  0.50000000  0.00000000  1
  Cu  Cu76  1  0.50000000  0.00000000  0.00000000  1
  Cu  Cu77  1  0.50000000  0.00000000  0.50000000  1
