# generated using pymatgen
data_Cu2(Ni2C3)3
_symmetry_space_group_name_H-M   'P 1'
_cell_length_a   9.79266800
_cell_length_b   9.79266800
_cell_length_c   9.49648900
_cell_angle_alpha   90.00000000
_cell_angle_beta   90.00000000
_cell_angle_gamma   90.00000000
_symmetry_Int_Tables_number   1
_chemical_formula_structural   Cu2(Ni2C3)3
_chemical_formula_sum   'Cu8 Ni24 C36'
_cell_volume   910.67860023
_cell_formula_units_Z   4
loop_
 _symmetry_equiv_pos_site_id
 _symmetry_equiv_pos_as_xyz
  1  'x, y, z'
loop_
 _atom_site_type_symbol
 _atom_site_label
 _atom_site_symmetry_multiplicity
 _atom_site_fract_x
 _atom_site_fract_y
 _atom_site_fract_z
 _atom_site_occupancy
  C  C0  1  0.00000000  0.00000000  0.50000000  1
  C  C1  1  0.50000000  0.50000000  0.00000000  1
  Ni  Ni2  1  0.58186300  0.15124700  0.76674300  1
  Ni  Ni3  1  0.08186300  0.34875300  0.73325700  1
  Ni  Ni4  1  0.41813700  0.84875300  0.76674300  1
  Ni  Ni5  1  0.91813700  0.65124700  0.73325700  1
  Ni  Ni6  1  0.84875300  0.58186300  0.23325700  1
  Ni  Ni7  1  0.65124700  0.08186300  0.26674300  1
  Ni  Ni8  1  0.15124700  0.41813700  0.23325700  1
  Ni  Ni9  1  0.34875300  0.91813700  0.26674300  1
  Ni  Ni10  1  0.57875300  0.13460600  0.95474800  1
  Ni  Ni11  1  0.07875300  0.36539400  0.54525200  1
  Ni  Ni12  1  0.42124700  0.86539400  0.95474800  1
  Ni  Ni13  1  0.92124700  0.63460600  0.54525200  1
  Ni  Ni14  1  0.86539400  0.57875300  0.04525200  1
  Ni  Ni15  1  0.63460600  0.07875300  0.45474800  1
  Ni  Ni16  1  0.13460600  0.42124700  0.04525200  1
  Ni  Ni17  1  0.36539400  0.92124700  0.45474800  1
  Ni  Ni18  1  0.65979200  0.00403200  0.84902900  1
  Ni  Ni19  1  0.15979200  0.49596800  0.65097100  1
  Ni  Ni20  1  0.34020800  0.99596800  0.84902900  1
  Ni  Ni21  1  0.84020800  0.50403200  0.65097100  1
  Ni  Ni22  1  0.99596800  0.65979200  0.15097100  1
  Ni  Ni23  1  0.50403200  0.15979200  0.34902900  1
  Ni  Ni24  1  0.00403200  0.34020800  0.15097100  1
  Ni  Ni25  1  0.49596800  0.84020800  0.34902900  1
  C  C26  1  0.00000000  0.00000000  0.00000000  1
  C  C27  1  0.50000000  0.50000000  0.50000000  1
  Cu  Cu28  1  0.63732700  0.11315400  0.85894900  1
  Cu  Cu29  1  0.13732700  0.38684600  0.64105100  1
  Cu  Cu30  1  0.36267300  0.88684600  0.85894900  1
  Cu  Cu31  1  0.86267300  0.61315400  0.64105100  1
  Cu  Cu32  1  0.88684600  0.63732700  0.14105100  1
  Cu  Cu33  1  0.61315400  0.13732700  0.35894900  1
  Cu  Cu34  1  0.11315400  0.36267300  0.14105100  1
  Cu  Cu35  1  0.38684600  0.86267300  0.35894900  1
  C  C36  1  0.79362500  0.20453400  0.86729400  1
  C  C37  1  0.29362500  0.29546600  0.63270600  1
  C  C38  1  0.20637500  0.79546600  0.86729400  1
  C  C39  1  0.70637500  0.70453400  0.63270600  1
  C  C40  1  0.79546600  0.79362500  0.13270600  1
  C  C41  1  0.70453400  0.29362500  0.36729400  1
  C  C42  1  0.20453400  0.20637500  0.13270600  1
  C  C43  1  0.29546600  0.70637500  0.36729400  1
  C  C44  1  0.86171300  0.15662800  0.00806800  1
  C  C45  1  0.36171300  0.34337200  0.49193200  1
  C  C46  1  0.13828700  0.84337200  0.00806800  1
  C  C47  1  0.63828700  0.65662800  0.49193200  1
  C  C48  1  0.84337200  0.86171300  0.99193200  1
  C  C49  1  0.65662800  0.36171300  0.50806800  1
  C  C50  1  0.15662800  0.13828700  0.99193200  1
  C  C51  1  0.34337200  0.63828700  0.50806800  1
  C  C52  1  0.87802300  0.16636300  0.74809200  1
  C  C53  1  0.37802300  0.33363700  0.75190800  1
  C  C54  1  0.12197700  0.83363700  0.74809200  1
  C  C55  1  0.62197700  0.66636300  0.75190800  1
  C  C56  1  0.83363700  0.87802300  0.25190800  1
  C  C57  1  0.66636300  0.37802300  0.24809200  1
  C  C58  1  0.16636300  0.12197700  0.25190800  1
  C  C59  1  0.33363700  0.62197700  0.24809200  1
  C  C60  1  0.76220300  0.34837100  0.88656100  1
  C  C61  1  0.26220300  0.15162900  0.61343900  1
  C  C62  1  0.23779700  0.65162900  0.88656100  1
  C  C63  1  0.73779700  0.84837100  0.61343900  1
  C  C64  1  0.65162900  0.76220300  0.11343900  1
  C  C65  1  0.84837100  0.26220300  0.38656100  1
  C  C66  1  0.34837100  0.23779700  0.11343900  1
  C  C67  1  0.15162900  0.73779700  0.38656100  1
