# generated using pymatgen
data_Cu6Ni6C7
_symmetry_space_group_name_H-M   'P 1'
_cell_length_a   7.57012786
_cell_length_b   7.57012786
_cell_length_c   12.85938100
_cell_angle_alpha   90.00000000
_cell_angle_beta   90.00000000
_cell_angle_gamma   119.99999880
_symmetry_Int_Tables_number   1
_chemical_formula_structural   Cu6Ni6C7
_chemical_formula_sum   'Cu12 Ni12 C14'
_cell_volume   638.20048635
_cell_formula_units_Z   2
loop_
 _symmetry_equiv_pos_site_id
 _symmetry_equiv_pos_as_xyz
  1  'x, y, z'
loop_
 _atom_site_type_symbol
 _atom_site_label
 _atom_site_symmetry_multiplicity
 _atom_site_fract_x
 _atom_site_fract_y
 _atom_site_fract_z
 _atom_site_occupancy
  C  C0  1  0.33333300  0.66666700  0.75000000  1
  C  C1  1  0.66666700  0.33333300  0.25000000  1
  C  C2  1  0.00000000  0.00000000  0.00000000  1
  C  C3  1  0.00000000  0.00000000  0.50000000  1
  Ni  Ni4  1  0.76573600  0.89610700  0.91756000  1
  Ni  Ni5  1  0.23426400  0.10389300  0.08244000  1
  Ni  Ni6  1  0.13037100  0.23426400  0.91756000  1
  Ni  Ni7  1  0.23426400  0.10389300  0.41756000  1
  Ni  Ni8  1  0.86962900  0.76573600  0.08244000  1
  Ni  Ni9  1  0.76573600  0.89610700  0.58244000  1
  Ni  Ni10  1  0.10389300  0.86962900  0.91756000  1
  Ni  Ni11  1  0.86962900  0.76573600  0.41756000  1
  Ni  Ni12  1  0.89610700  0.13037100  0.08244000  1
  Ni  Ni13  1  0.13037100  0.23426400  0.58244000  1
  Ni  Ni14  1  0.89610700  0.13037100  0.41756000  1
  Ni  Ni15  1  0.10389300  0.86962900  0.58244000  1
  Cu  Cu16  1  0.61596500  0.82697300  0.86776100  1
  Cu  Cu17  1  0.38403500  0.17302700  0.13223900  1
  Cu  Cu18  1  0.21100700  0.38403500  0.86776100  1
  Cu  Cu19  1  0.38403500  0.17302700  0.36776100  1
  Cu  Cu20  1  0.78899300  0.61596500  0.13223900  1
  Cu  Cu21  1  0.61596500  0.82697300  0.63223900  1
  Cu  Cu22  1  0.17302700  0.78899300  0.86776100  1
  Cu  Cu23  1  0.78899300  0.61596500  0.36776100  1
  Cu  Cu24  1  0.82697300  0.21100700  0.13223900  1
  Cu  Cu25  1  0.21100700  0.38403500  0.63223900  1
  Cu  Cu26  1  0.82697300  0.21100700  0.36776100  1
  Cu  Cu27  1  0.17302700  0.78899300  0.63223900  1
  C  C28  1  0.66666700  0.33333300  0.84337900  1
  C  C29  1  0.33333300  0.66666700  0.15662100  1
  C  C30  1  0.33333300  0.66666700  0.34337900  1
  C  C31  1  0.66666700  0.33333300  0.65662100  1
  C  C32  1  0.92694200  0.44066400  0.75000000  1
  C  C33  1  0.07305800  0.55933600  0.25000000  1
  C  C34  1  0.51372300  0.07305800  0.75000000  1
  C  C35  1  0.48627700  0.92694200  0.25000000  1
  C  C36  1  0.55933600  0.48627700  0.75000000  1
  C  C37  1  0.44066400  0.51372300  0.25000000  1
