# generated using pymatgen
data_CuNiC14
_symmetry_space_group_name_H-M   'P 1'
_cell_length_a   8.91075004
_cell_length_b   4.48344764
_cell_length_c   4.48344764
_cell_angle_alpha   90.00000000
_cell_angle_beta   90.00000000
_cell_angle_gamma   90.00000000
_symmetry_Int_Tables_number   1
_chemical_formula_structural   CuNiC14
_chemical_formula_sum   'Cu1 Ni1 C14'
_cell_volume   179.11768420
_cell_formula_units_Z   1
loop_
 _symmetry_equiv_pos_site_id
 _symmetry_equiv_pos_as_xyz
  1  'x, y, z'
loop_
 _atom_site_type_symbol
 _atom_site_label
 _atom_site_symmetry_multiplicity
 _atom_site_fract_x
 _atom_site_fract_y
 _atom_site_fract_z
 _atom_site_occupancy
  Ni  Ni0  1  0.00000000  0.00000000  -0.00000000  1
  Cu  Cu1  1  0.50000000  0.00000000  -0.00000000  1
  C  C2  1  0.00000000  0.50000000  0.50000000  1
  C  C3  1  0.50000000  0.50000000  0.50000000  1
  C  C4  1  0.22114208  0.00000000  0.50000000  1
  C  C5  1  0.77885792  -0.00000000  0.50000000  1
  C  C6  1  0.22114208  0.50000000  0.00000000  1
  C  C7  1  0.77885792  0.50000000  -0.00000000  1
  C  C8  1  0.23433013  0.00000000  0.00000000  1
  C  C9  1  0.76566987  -0.00000000  -0.00000000  1
  C  C10  1  0.25329995  0.50000000  0.50000000  1
  C  C11  1  0.74670005  0.50000000  0.50000000  1
  C  C12  1  0.00000000  0.00000000  0.50000000  1
  C  C13  1  0.50000000  0.00000000  0.50000000  1
  C  C14  1  0.00000000  0.50000000  -0.00000000  1
  C  C15  1  0.50000000  0.50000000  -0.00000000  1
