# generated using pymatgen
data_CuNi2C
_symmetry_space_group_name_H-M   'P 1'
_cell_length_a   5.53433712
_cell_length_b   5.53433712
_cell_length_c   8.46293800
_cell_angle_alpha   90.00000000
_cell_angle_beta   90.00000000
_cell_angle_gamma   134.22173717
_symmetry_Int_Tables_number   1
_chemical_formula_structural   CuNi2C
_chemical_formula_sum   'Cu2 Ni4 C2'
_cell_volume   185.76209400
_cell_formula_units_Z   2
loop_
 _symmetry_equiv_pos_site_id
 _symmetry_equiv_pos_as_xyz
  1  'x, y, z'
loop_
 _atom_site_type_symbol
 _atom_site_label
 _atom_site_symmetry_multiplicity
 _atom_site_fract_x
 _atom_site_fract_y
 _atom_site_fract_z
 _atom_site_occupancy
  C  C0  1  0.93484100  0.06515900  0.25000000  1
  C  C1  1  0.06515900  0.93484100  0.75000000  1
  Ni  Ni2  1  0.64379700  0.35620300  0.45098000  1
  Ni  Ni3  1  0.35620300  0.64379700  0.54902000  1
  Ni  Ni4  1  0.64379700  0.35620300  0.04902000  1
  Ni  Ni5  1  0.35620300  0.64379700  0.95098000  1
  Cu  Cu6  1  0.22355100  0.77644900  0.25000000  1
  Cu  Cu7  1  0.77644900  0.22355100  0.75000000  1
