# generated using pymatgen
data_Cu4NiC10
_symmetry_space_group_name_H-M   'P 1'
_cell_length_a   7.28930800
_cell_length_b   7.28930800
_cell_length_c   15.75754900
_cell_angle_alpha   90.00000000
_cell_angle_beta   90.00000000
_cell_angle_gamma   90.00000000
_symmetry_Int_Tables_number   1
_chemical_formula_structural   Cu4NiC10
_chemical_formula_sum   'Cu16 Ni4 C40'
_cell_volume   837.26178377
_cell_formula_units_Z   4
loop_
 _symmetry_equiv_pos_site_id
 _symmetry_equiv_pos_as_xyz
  1  'x, y, z'
loop_
 _atom_site_type_symbol
 _atom_site_label
 _atom_site_symmetry_multiplicity
 _atom_site_fract_x
 _atom_site_fract_y
 _atom_site_fract_z
 _atom_site_occupancy
  Ni  Ni0  1  0.50000000  0.00000000  0.58947300  1
  Ni  Ni1  1  0.00000000  0.50000000  0.91052700  1
  Ni  Ni2  1  0.00000000  0.50000000  0.41052700  1
  Ni  Ni3  1  0.50000000  0.00000000  0.08947300  1
  Cu  Cu4  1  0.17807400  0.25541700  0.65006100  1
  Cu  Cu5  1  0.82192600  0.74458300  0.65006100  1
  Cu  Cu6  1  0.25541700  0.17807400  0.84993900  1
  Cu  Cu7  1  0.75541700  0.32192600  0.65006100  1
  Cu  Cu8  1  0.24458300  0.67807400  0.65006100  1
  Cu  Cu9  1  0.32192600  0.75541700  0.84993900  1
  Cu  Cu10  1  0.67807400  0.24458300  0.84993900  1
  Cu  Cu11  1  0.74458300  0.82192600  0.84993900  1
  Cu  Cu12  1  0.32192600  0.24458300  0.34993900  1
  Cu  Cu13  1  0.67807400  0.75541700  0.34993900  1
  Cu  Cu14  1  0.24458300  0.32192600  0.15006100  1
  Cu  Cu15  1  0.74458300  0.17807400  0.34993900  1
  Cu  Cu16  1  0.25541700  0.82192600  0.34993900  1
  Cu  Cu17  1  0.17807400  0.74458300  0.15006100  1
  Cu  Cu18  1  0.82192600  0.25541700  0.15006100  1
  Cu  Cu19  1  0.75541700  0.67807400  0.15006100  1
  C  C20  1  0.27644600  0.09688000  0.59249200  1
  C  C21  1  0.72355400  0.90312000  0.59249200  1
  C  C22  1  0.09688000  0.27644600  0.90750800  1
  C  C23  1  0.59688000  0.22355400  0.59249200  1
  C  C24  1  0.40312000  0.77644600  0.59249200  1
  C  C25  1  0.22355400  0.59688000  0.90750800  1
  C  C26  1  0.77644600  0.40312000  0.90750800  1
  C  C27  1  0.90312000  0.72355400  0.90750800  1
  C  C28  1  0.22355400  0.40312000  0.40750800  1
  C  C29  1  0.77644600  0.59688000  0.40750800  1
  C  C30  1  0.40312000  0.22355400  0.09249200  1
  C  C31  1  0.90312000  0.27644600  0.40750800  1
  C  C32  1  0.09688000  0.72355400  0.40750800  1
  C  C33  1  0.27644600  0.90312000  0.09249200  1
  C  C34  1  0.72355400  0.09688000  0.09249200  1
  C  C35  1  0.24591800  0.03996700  0.37144100  1
  C  C36  1  0.59688000  0.77644600  0.09249200  1
  C  C37  1  0.74591800  0.53996700  0.62855900  1
  C  C38  1  0.46003300  0.25408200  0.87144100  1
  C  C39  1  0.96003300  0.24591800  0.62855900  1
  C  C40  1  0.03996700  0.75408200  0.62855900  1
  C  C41  1  0.24591800  0.96003300  0.87144100  1
  C  C42  1  0.75408200  0.03996700  0.87144100  1
  C  C43  1  0.53996700  0.74591800  0.87144100  1
  C  C44  1  0.71183100  0.71183100  0.25000000  1
  C  C45  1  0.78816900  0.21183100  0.25000000  1
  C  C46  1  0.21183100  0.78816900  0.25000000  1
  C  C47  1  0.28816900  0.28816900  0.25000000  1
  C  C48  1  0.78816900  0.78816900  0.75000000  1
  C  C49  1  0.71183100  0.28816900  0.75000000  1
  C  C50  1  0.28816900  0.71183100  0.75000000  1
  C  C51  1  0.21183100  0.21183100  0.75000000  1
  C  C52  1  0.96003300  0.75408200  0.12855900  1
  C  C53  1  0.74591800  0.46003300  0.12855900  1
  C  C54  1  0.25408200  0.53996700  0.12855900  1
  C  C55  1  0.46003300  0.74591800  0.37144100  1
  C  C56  1  0.53996700  0.25408200  0.37144100  1
  C  C57  1  0.03996700  0.24591800  0.12855900  1
  C  C58  1  0.75408200  0.96003300  0.37144100  1
  C  C59  1  0.25408200  0.46003300  0.62855900  1
