# generated using pymatgen
data_CuNiC61
_symmetry_space_group_name_H-M   'P 1'
_cell_length_a   8.52690200
_cell_length_b   8.53457100
_cell_length_c   8.57883700
_cell_angle_alpha   90.00000000
_cell_angle_beta   90.00000000
_cell_angle_gamma   90.00000000
_symmetry_Int_Tables_number   1
_chemical_formula_structural   CuNiC61
_chemical_formula_sum   'Cu1 Ni1 C61'
_cell_volume   624.31157002
_cell_formula_units_Z   1
loop_
 _symmetry_equiv_pos_site_id
 _symmetry_equiv_pos_as_xyz
  1  'x, y, z'
loop_
 _atom_site_type_symbol
 _atom_site_label
 _atom_site_symmetry_multiplicity
 _atom_site_fract_x
 _atom_site_fract_y
 _atom_site_fract_z
 _atom_site_occupancy
  Ni  Ni0  1  0.00271200  0.50000000  0.00000000  1
  Cu  Cu1  1  0.02258500  0.00000000  0.00000000  1
  C  C2  1  0.00376800  0.00000000  0.50000000  1
  C  C3  1  0.00140500  0.50000000  0.50000000  1
  C  C4  1  0.47962700  0.00000000  0.00000000  1
  C  C5  1  0.49839300  0.50000000  0.00000000  1
  C  C6  1  0.49720700  0.00000000  0.50000000  1
  C  C7  1  0.49863600  0.50000000  0.50000000  1
  C  C8  1  0.99938500  0.75239200  0.75461200  1
  C  C9  1  0.99938500  0.24760800  0.75461200  1
  C  C10  1  0.99938500  0.75239200  0.24538800  1
  C  C11  1  0.99938500  0.24760800  0.24538800  1
  C  C12  1  0.50022500  0.75030900  0.75134200  1
  C  C13  1  0.50022500  0.24969100  0.75134200  1
  C  C14  1  0.50022500  0.75030900  0.24865800  1
  C  C15  1  0.50022500  0.24969100  0.24865800  1
  C  C16  1  0.75576000  0.72935300  0.00000000  1
  C  C17  1  0.75576000  0.27064700  0.00000000  1
  C  C18  1  0.75148300  0.74706000  0.50000000  1
  C  C19  1  0.75148300  0.25294000  0.50000000  1
  C  C20  1  0.24159100  0.75068500  0.00000000  1
  C  C21  1  0.24159100  0.24931500  0.00000000  1
  C  C22  1  0.24842400  0.74915700  0.50000000  1
  C  C23  1  0.24842400  0.25084300  0.50000000  1
  C  C24  1  0.75472300  0.00000000  0.73035100  1
  C  C25  1  0.75229000  0.50000000  0.74856600  1
  C  C26  1  0.75472300  0.00000000  0.26964900  1
  C  C27  1  0.75229000  0.50000000  0.25143400  1
  C  C28  1  0.24288700  0.00000000  0.75249700  1
  C  C29  1  0.24732900  0.50000000  0.75149300  1
  C  C30  1  0.24288700  0.00000000  0.24750300  1
  C  C31  1  0.24732900  0.50000000  0.24850700  1
  C  C32  1  0.73594500  0.50000000  0.00000000  1
  C  C33  1  0.74664400  0.00000000  0.50000000  1
  C  C34  1  0.74656400  0.50000000  0.50000000  1
  C  C35  1  0.25089600  0.00000000  0.00000000  1
  C  C36  1  0.26385900  0.50000000  0.00000000  1
  C  C37  1  0.25305600  0.00000000  0.50000000  1
  C  C38  1  0.25301000  0.50000000  0.50000000  1
  C  C39  1  0.74951900  0.75499700  0.75446400  1
  C  C40  1  0.74951900  0.24500300  0.75446400  1
  C  C41  1  0.74951900  0.75499700  0.24553600  1
  C  C42  1  0.74951900  0.24500300  0.24553600  1
  C  C43  1  0.25052500  0.75131100  0.75166900  1
  C  C44  1  0.25052500  0.24868900  0.75166900  1
  C  C45  1  0.25052500  0.75131100  0.24833100  1
  C  C46  1  0.25052500  0.24868900  0.24833100  1
  C  C47  1  0.99173600  0.76633800  0.00000000  1
  C  C48  1  0.99173600  0.23366200  0.00000000  1
  C  C49  1  0.99863600  0.75207900  0.50000000  1
  C  C50  1  0.99863600  0.24792100  0.50000000  1
  C  C51  1  0.50891300  0.75937500  0.00000000  1
  C  C52  1  0.50891300  0.24062500  0.00000000  1
  C  C53  1  0.50134000  0.75197100  0.50000000  1
  C  C54  1  0.50134000  0.24802900  0.50000000  1
  C  C55  1  0.99601300  0.00000000  0.74222100  1
  C  C56  1  0.99825100  0.50000000  0.73742900  1
  C  C57  1  0.99601300  0.00000000  0.25777900  1
  C  C58  1  0.99825100  0.50000000  0.26257100  1
  C  C59  1  0.50751100  0.00000000  0.75559100  1
  C  C60  1  0.50164800  0.50000000  0.74871400  1
  C  C61  1  0.50751100  0.00000000  0.24440900  1
  C  C62  1  0.50164800  0.50000000  0.25128600  1
