# generated using pymatgen
data_Cu3(NiC16)2
_symmetry_space_group_name_H-M   'P 1'
_cell_length_a   8.50554635
_cell_length_b   8.75805519
_cell_length_c   8.73228385
_cell_angle_alpha   59.98440211
_cell_angle_beta   58.83080425
_cell_angle_gamma   60.90608567
_symmetry_Int_Tables_number   1
_chemical_formula_structural   Cu3(NiC16)2
_chemical_formula_sum   'Cu3 Ni2 C32'
_cell_volume   458.69088459
_cell_formula_units_Z   1
loop_
 _symmetry_equiv_pos_site_id
 _symmetry_equiv_pos_as_xyz
  1  'x, y, z'
loop_
 _atom_site_type_symbol
 _atom_site_label
 _atom_site_symmetry_multiplicity
 _atom_site_fract_x
 _atom_site_fract_y
 _atom_site_fract_z
 _atom_site_occupancy
  C  C0  1  0.75476900  0.37021200  0.74259100  1
  C  C1  1  0.56321500  0.14243000  0.15005800  1
  Ni  Ni2  1  0.00753400  0.98559800  0.00788600  1
  Ni  Ni3  1  0.49532300  0.50434700  0.49319200  1
  Cu  Cu4  1  0.06131700  0.65445200  0.64671400  1
  Cu  Cu5  1  0.43154400  0.86033900  0.85508400  1
  Cu  Cu6  1  0.95293600  0.34086300  0.34435400  1
  C  C7  1  0.23576600  0.25368500  0.55999600  1
  C  C8  1  0.25255200  0.94501800  0.25096000  1
  C  C9  1  0.27727600  0.53904100  0.93262100  1
  C  C10  1  0.73950300  0.46950100  0.04719400  1
  C  C11  1  0.74803100  0.04599900  0.75192100  1
  C  C12  1  0.73961500  0.76266300  0.46082800  1
  C  C13  1  0.06764800  0.08282200  0.32909100  1
  C  C14  1  0.11074200  0.47693800  0.10130300  1
  C  C15  1  0.03199400  0.32240900  0.55634400  1
  C  C16  1  0.22546200  0.09392100  0.75438500  1
  C  C17  1  0.39162100  0.19916100  0.38593200  1
  C  C18  1  0.27927300  0.41100400  0.55688800  1
  C  C19  1  0.23151000  0.91824200  0.09914700  1
  C  C20  1  0.28683700  0.74558900  0.40923500  1
  C  C21  1  0.57050400  0.62168600  0.99065700  1
  C  C22  1  0.28690000  0.55673700  0.73837800  1
  C  C23  1  0.75890600  0.28153300  0.04540500  1
  C  C24  1  0.56315700  0.00644000  0.82703400  1
  C  C25  1  0.43570200  0.99385500  0.17780600  1
  C  C26  1  0.25320800  0.73247900  0.91479700  1
  C  C27  1  0.70662400  0.44897200  0.24907100  1
  C  C28  1  0.47525600  0.39202400  0.94203900  1
  C  C29  1  0.71989700  0.25081500  0.59974100  1
  C  C30  1  0.77822000  0.07991300  0.89775200  1
  C  C31  1  0.69890400  0.58971000  0.48570200  1
  C  C32  1  0.56354500  0.85603500  0.59841200  1
  C  C33  1  0.77426200  0.90254600  0.25425500  1
  C  C34  1  0.92065300  0.68523200  0.50741200  1
  C  C35  1  0.93107200  0.50583600  0.89682500  1
  C  C36  1  0.92871900  0.89382700  0.68898900  1
