# generated using pymatgen
data_CuNiC2
_symmetry_space_group_name_H-M   'P 1'
_cell_length_a   3.15826800
_cell_length_b   5.30109900
_cell_length_c   5.91243900
_cell_angle_alpha   90.00000000
_cell_angle_beta   90.00000000
_cell_angle_gamma   90.00000000
_symmetry_Int_Tables_number   1
_chemical_formula_structural   CuNiC2
_chemical_formula_sum   'Cu2 Ni2 C4'
_cell_volume   98.98777625
_cell_formula_units_Z   2
loop_
 _symmetry_equiv_pos_site_id
 _symmetry_equiv_pos_as_xyz
  1  'x, y, z'
loop_
 _atom_site_type_symbol
 _atom_site_label
 _atom_site_symmetry_multiplicity
 _atom_site_fract_x
 _atom_site_fract_y
 _atom_site_fract_z
 _atom_site_occupancy
  C  C0  1  0.50000000  0.49687500  0.04343000  1
  C  C1  1  0.50000000  0.99687500  0.95657000  1
  C  C2  1  0.00000000  0.49498500  0.44177400  1
  C  C3  1  0.00000000  0.99498500  0.55822600  1
  Ni  Ni4  1  0.50000000  0.30725400  0.67927600  1
  Ni  Ni5  1  0.50000000  0.80725400  0.32072400  1
  Cu  Cu6  1  0.00000000  0.70088600  0.82426500  1
  Cu  Cu7  1  0.00000000  0.20088600  0.17573500  1
