# generated using pymatgen
data_Cu(Ni4C3)2
_symmetry_space_group_name_H-M   'P 1'
_cell_length_a   9.60696400
_cell_length_b   13.39431400
_cell_length_c   13.55138923
_cell_angle_alpha   66.85589762
_cell_angle_beta   90.00000000
_cell_angle_gamma   90.00000000
_symmetry_Int_Tables_number   1
_chemical_formula_structural   Cu(Ni4C3)2
_chemical_formula_sum   'Cu4 Ni32 C24'
_cell_volume   1603.43468918
_cell_formula_units_Z   4
loop_
 _symmetry_equiv_pos_site_id
 _symmetry_equiv_pos_as_xyz
  1  'x, y, z'
loop_
 _atom_site_type_symbol
 _atom_site_label
 _atom_site_symmetry_multiplicity
 _atom_site_fract_x
 _atom_site_fract_y
 _atom_site_fract_z
 _atom_site_occupancy
  C  C0  1  0.87596200  0.20210000  0.43497800  1
  C  C1  1  0.37596200  0.29790000  0.56502200  1
  C  C2  1  0.12403800  0.79790000  0.56502200  1
  C  C3  1  0.62403800  0.70210000  0.43497800  1
  C  C4  1  0.60451800  0.92380400  0.68825500  1
  C  C5  1  0.10451800  0.57619600  0.31174500  1
  C  C6  1  0.39548200  0.07619600  0.31174500  1
  C  C7  1  0.89548200  0.42380400  0.68825500  1
  C  C8  1  0.10421000  0.31118100  0.06956600  1
  C  C9  1  0.60421000  0.18881900  0.93043400  1
  C  C10  1  0.89579000  0.68881900  0.93043400  1
  C  C11  1  0.39579000  0.81118100  0.06956600  1
  C  C12  1  0.65718500  0.36219000  0.13726400  1
  C  C13  1  0.15718500  0.13781000  0.86273600  1
  C  C14  1  0.34281500  0.63781000  0.86273600  1
  C  C15  1  0.84281500  0.86219000  0.13726400  1
  C  C16  1  0.65769700  0.49617600  0.27224000  1
  C  C17  1  0.15769700  0.00382400  0.72776000  1
  C  C18  1  0.34230300  0.50382400  0.72776000  1
  C  C19  1  0.84230300  0.99617600  0.27224000  1
  C  C20  1  0.39088500  0.40868600  0.23408000  1
  C  C21  1  0.89088500  0.09131400  0.76592000  1
  C  C22  1  0.60911500  0.59131400  0.76592000  1
  C  C23  1  0.10911500  0.90868600  0.23408000  1
  Ni  Ni24  1  0.45715500  0.55122400  0.33271200  1
  Ni  Ni25  1  0.95715500  0.94877600  0.66728800  1
  Ni  Ni26  1  0.54284500  0.44877600  0.66728800  1
  Ni  Ni27  1  0.04284500  0.05122400  0.33271200  1
  Ni  Ni28  1  0.46222600  0.29958600  0.08947700  1
  Ni  Ni29  1  0.96222600  0.20041400  0.91052300  1
  Ni  Ni30  1  0.53777400  0.70041400  0.91052300  1
  Ni  Ni31  1  0.03777400  0.79958600  0.08947700  1
  Ni  Ni32  1  0.74044100  0.46550700  0.89699700  1
  Ni  Ni33  1  0.24044100  0.03449300  0.10300300  1
  Ni  Ni34  1  0.25955900  0.53449300  0.10300300  1
  Ni  Ni35  1  0.75955900  0.96550700  0.89699700  1
  Ni  Ni36  1  0.53514200  0.27622300  0.36116100  1
  Ni  Ni37  1  0.03514200  0.22377700  0.63883900  1
  Ni  Ni38  1  0.46485800  0.72377700  0.63883900  1
  Ni  Ni39  1  0.96485800  0.77622300  0.36116100  1
  Ni  Ni40  1  0.84334400  0.43638800  0.18390700  1
  Ni  Ni41  1  0.34334400  0.06361200  0.81609300  1
  Ni  Ni42  1  0.15665600  0.56361200  0.81609300  1
  Ni  Ni43  1  0.65665600  0.93638800  0.18390700  1
  Ni  Ni44  1  0.20069200  0.32265200  0.32303500  1
  Ni  Ni45  1  0.70069200  0.17734800  0.67696500  1
  Ni  Ni46  1  0.79930800  0.67734800  0.67696500  1
  Ni  Ni47  1  0.29930800  0.82265200  0.32303500  1
  Ni  Ni48  1  0.72175800  0.71756600  0.14176100  1
  Ni  Ni49  1  0.22175800  0.78243400  0.85823900  1
  Ni  Ni50  1  0.27824200  0.28243400  0.85823900  1
  Ni  Ni51  1  0.77824200  0.21756600  0.14176100  1
  Ni  Ni52  1  0.79422500  0.48372500  0.41249400  1
  Ni  Ni53  1  0.29422500  0.01627500  0.58750600  1
  Ni  Ni54  1  0.20577500  0.51627500  0.58750600  1
  Ni  Ni55  1  0.70577500  0.98372500  0.41249400  1
  Cu  Cu56  1  0.55645400  0.47213700  0.16183300  1
  Cu  Cu57  1  0.05645400  0.02786300  0.83816700  1
  Cu  Cu58  1  0.44354600  0.52786300  0.83816700  1
  Cu  Cu59  1  0.94354600  0.97213700  0.16183300  1
