# generated using pymatgen
data_Cu3(Ni5C9)2
_symmetry_space_group_name_H-M   'P 1'
_cell_length_a   5.15161700
_cell_length_b   8.76650200
_cell_length_c   14.15647700
_cell_angle_alpha   90.00000000
_cell_angle_beta   90.00000000
_cell_angle_gamma   90.00000000
_symmetry_Int_Tables_number   1
_chemical_formula_structural   Cu3(Ni5C9)2
_chemical_formula_sum   'Cu6 Ni20 C36'
_cell_volume   639.33001146
_cell_formula_units_Z   2
loop_
 _symmetry_equiv_pos_site_id
 _symmetry_equiv_pos_as_xyz
  1  'x, y, z'
loop_
 _atom_site_type_symbol
 _atom_site_label
 _atom_site_symmetry_multiplicity
 _atom_site_fract_x
 _atom_site_fract_y
 _atom_site_fract_z
 _atom_site_occupancy
  Ni  Ni0  1  0.82733700  0.50000000  0.67353400  1
  Ni  Ni1  1  0.32733700  0.00000000  0.82646600  1
  Ni  Ni2  1  0.50000000  0.15709800  0.50000000  1
  Ni  Ni3  1  0.50000000  0.84290200  0.50000000  1
  Ni  Ni4  1  0.00000000  0.34290200  0.00000000  1
  Ni  Ni5  1  0.00000000  0.65709800  0.00000000  1
  Ni  Ni6  1  0.64594600  0.32114500  0.32426700  1
  Ni  Ni7  1  0.64594600  0.67885500  0.32426700  1
  Ni  Ni8  1  0.14594600  0.17885500  0.17573300  1
  Ni  Ni9  1  0.14594600  0.82114500  0.17573300  1
  Ni  Ni10  1  0.35405400  0.32114500  0.67573300  1
  Ni  Ni11  1  0.35405400  0.67885500  0.67573300  1
  Ni  Ni12  1  0.85405400  0.17885500  0.82426700  1
  Ni  Ni13  1  0.85405400  0.82114500  0.82426700  1
  Ni  Ni14  1  0.17266300  0.50000000  0.32646600  1
  Ni  Ni15  1  0.67266300  0.00000000  0.17353400  1
  Ni  Ni16  1  0.00000000  0.32129800  0.50000000  1
  Ni  Ni17  1  0.00000000  0.67870200  0.50000000  1
  Ni  Ni18  1  0.50000000  0.17870200  0.00000000  1
  Ni  Ni19  1  0.50000000  0.82129800  0.00000000  1
  Cu  Cu20  1  0.50000000  0.50000000  0.50000000  1
  Cu  Cu21  1  0.00000000  0.00000000  0.00000000  1
  Cu  Cu22  1  0.00280900  0.00000000  0.62376200  1
  Cu  Cu23  1  0.50280900  0.50000000  0.87623800  1
  Cu  Cu24  1  0.99719100  0.00000000  0.37623800  1
  Cu  Cu25  1  0.49719100  0.50000000  0.12376200  1
  C  C26  1  0.01222100  0.33539300  0.74342100  1
  C  C27  1  0.01222100  0.66460700  0.74342100  1
  C  C28  1  0.51222100  0.16460700  0.75657900  1
  C  C29  1  0.51222100  0.83539300  0.75657900  1
  C  C30  1  0.49867500  0.50000000  0.75735800  1
  C  C31  1  0.99867500  0.00000000  0.74264200  1
  C  C32  1  0.19920600  0.50000000  0.57702800  1
  C  C33  1  0.69920600  0.00000000  0.92297200  1
  C  C34  1  0.64428400  0.35357600  0.57318900  1
  C  C35  1  0.64428400  0.64642400  0.57318900  1
  C  C36  1  0.14428400  0.14642400  0.92681100  1
  C  C37  1  0.14428400  0.85357600  0.92681100  1
  C  C38  1  0.16239500  0.15697800  0.58775200  1
  C  C39  1  0.16239500  0.84302200  0.58775200  1
  C  C40  1  0.66239500  0.34302200  0.91224800  1
  C  C41  1  0.66239500  0.65697800  0.91224800  1
  C  C42  1  0.70606900  0.00000000  0.57902800  1
  C  C43  1  0.20606900  0.50000000  0.92097200  1
  C  C44  1  0.80079400  0.50000000  0.42297200  1
  C  C45  1  0.30079400  0.00000000  0.07702800  1
  C  C46  1  0.35571600  0.35357600  0.42681100  1
  C  C47  1  0.35571600  0.64642400  0.42681100  1
  C  C48  1  0.85571600  0.14642400  0.07318900  1
  C  C49  1  0.85571600  0.85357600  0.07318900  1
  C  C50  1  0.83760500  0.15697800  0.41224800  1
  C  C51  1  0.83760500  0.84302200  0.41224800  1
  C  C52  1  0.33760500  0.34302200  0.08775200  1
  C  C53  1  0.33760500  0.65697800  0.08775200  1
  C  C54  1  0.29393100  0.00000000  0.42097200  1
  C  C55  1  0.79393100  0.50000000  0.07902800  1
  C  C56  1  0.50132500  0.50000000  0.24264200  1
  C  C57  1  0.00132500  0.00000000  0.25735800  1
  C  C58  1  0.98777900  0.33539300  0.25657900  1
  C  C59  1  0.98777900  0.66460700  0.25657900  1
  C  C60  1  0.48777900  0.16460700  0.24342100  1
  C  C61  1  0.48777900  0.83539300  0.24342100  1
