# generated using pymatgen
data_Cu3(Ni2C3)2
_symmetry_space_group_name_H-M   'P 1'
_cell_length_a   6.13783968
_cell_length_b   6.13783968
_cell_length_c   10.14774600
_cell_angle_alpha   90.00000000
_cell_angle_beta   90.00000000
_cell_angle_gamma   119.99999660
_symmetry_Int_Tables_number   1
_chemical_formula_structural   Cu3(Ni2C3)2
_chemical_formula_sum   'Cu6 Ni8 C12'
_cell_volume   331.07875731
_cell_formula_units_Z   2
loop_
 _symmetry_equiv_pos_site_id
 _symmetry_equiv_pos_as_xyz
  1  'x, y, z'
loop_
 _atom_site_type_symbol
 _atom_site_label
 _atom_site_symmetry_multiplicity
 _atom_site_fract_x
 _atom_site_fract_y
 _atom_site_fract_z
 _atom_site_occupancy
  C  C0  1  0.66666700  0.33333300  0.55310700  1
  C  C1  1  0.33333300  0.66666700  0.05310700  1
  C  C2  1  0.66666700  0.33333300  0.93749000  1
  C  C3  1  0.33333300  0.66666700  0.43749000  1
  C  C4  1  0.16541400  0.33082900  0.73792700  1
  C  C5  1  0.16541400  0.83458600  0.73792700  1
  C  C6  1  0.83458600  0.66917100  0.23792700  1
  C  C7  1  0.66917100  0.83458600  0.73792700  1
  C  C8  1  0.83458600  0.16541400  0.23792700  1
  C  C9  1  0.33082900  0.16541400  0.23792700  1
  C  C10  1  0.00000000  0.00000000  0.00071300  1
  C  C11  1  0.00000000  0.00000000  0.50071300  1
  Ni  Ni12  1  0.00000000  0.00000000  0.81918000  1
  Ni  Ni13  1  0.00000000  0.00000000  0.31918000  1
  Ni  Ni14  1  0.15424200  0.30848400  0.55668100  1
  Ni  Ni15  1  0.15424200  0.84575800  0.55668100  1
  Ni  Ni16  1  0.84575800  0.69151600  0.05668100  1
  Ni  Ni17  1  0.69151600  0.84575800  0.55668100  1
  Ni  Ni18  1  0.84575800  0.15424200  0.05668100  1
  Ni  Ni19  1  0.30848400  0.15424200  0.05668100  1
  Cu  Cu20  1  0.48949600  0.97899200  0.79303800  1
  Cu  Cu21  1  0.48949600  0.51050400  0.79303800  1
  Cu  Cu22  1  0.51050400  0.02100800  0.29303800  1
  Cu  Cu23  1  0.02100800  0.51050400  0.79303800  1
  Cu  Cu24  1  0.51050400  0.48949600  0.29303800  1
  Cu  Cu25  1  0.97899200  0.48949600  0.29303800  1
