# generated using pymatgen
data_Cu4Ni2C13
_symmetry_space_group_name_H-M   'P 1'
_cell_length_a   5.67803600
_cell_length_b   5.95480087
_cell_length_c   7.13025055
_cell_angle_alpha   108.60742344
_cell_angle_beta   97.22783579
_cell_angle_gamma   109.63870086
_symmetry_Int_Tables_number   1
_chemical_formula_structural   Cu4Ni2C13
_chemical_formula_sum   'Cu4 Ni2 C13'
_cell_volume   207.72761755
_cell_formula_units_Z   1
loop_
 _symmetry_equiv_pos_site_id
 _symmetry_equiv_pos_as_xyz
  1  'x, y, z'
loop_
 _atom_site_type_symbol
 _atom_site_label
 _atom_site_symmetry_multiplicity
 _atom_site_fract_x
 _atom_site_fract_y
 _atom_site_fract_z
 _atom_site_occupancy
  C  C0  1  0.14759000  0.29416500  0.76298600  1
  C  C1  1  0.85241000  0.70583500  0.23701400  1
  C  C2  1  0.50000000  0.00000000  0.00000000  1
  Ni  Ni3  1  0.17454800  0.33826500  0.24751200  1
  Ni  Ni4  1  0.82545200  0.66173500  0.75248800  1
  Cu  Cu5  1  0.42479100  0.84231400  0.30547900  1
  Cu  Cu6  1  0.57520900  0.15768600  0.69452100  1
  Cu  Cu7  1  0.65749900  0.12633900  0.39574900  1
  Cu  Cu8  1  0.34250100  0.87366100  0.60425100  1
  C  C9  1  0.90431300  0.24582900  0.04956400  1
  C  C10  1  0.09568700  0.75417100  0.95043600  1
  C  C11  1  0.42139600  0.04457400  0.72780300  1
  C  C12  1  0.57860400  0.95542600  0.27219700  1
  C  C13  1  0.22148600  0.65397200  0.38600900  1
  C  C14  1  0.77851400  0.34602800  0.61399100  1
  C  C15  1  0.14111000  0.15773900  0.39283100  1
  C  C16  1  0.85889000  0.84226100  0.60716900  1
  C  C17  1  0.42774000  0.34799200  0.13210300  1
  C  C18  1  0.57226000  0.65200800  0.86789700  1
