# generated using pymatgen
data_Cu(NiC5)6
_symmetry_space_group_name_H-M   'P 1'
_cell_length_a   7.54423900
_cell_length_b   9.82439100
_cell_length_c   10.30413574
_cell_angle_alpha   82.61424931
_cell_angle_beta   90.00000000
_cell_angle_gamma   90.00000000
_symmetry_Int_Tables_number   1
_chemical_formula_structural   Cu(NiC5)6
_chemical_formula_sum   'Cu2 Ni12 C60'
_cell_volume   757.38089575
_cell_formula_units_Z   2
loop_
 _symmetry_equiv_pos_site_id
 _symmetry_equiv_pos_as_xyz
  1  'x, y, z'
loop_
 _atom_site_type_symbol
 _atom_site_label
 _atom_site_symmetry_multiplicity
 _atom_site_fract_x
 _atom_site_fract_y
 _atom_site_fract_z
 _atom_site_occupancy
  C  C0  1  0.76612700  0.81487800  0.80864100  1
  C  C1  1  0.26612700  0.18512200  0.19135900  1
  C  C2  1  0.77300800  0.90447900  0.63969200  1
  C  C3  1  0.27300800  0.09552100  0.36030800  1
  C  C4  1  0.94388000  0.77966600  0.69900000  1
  C  C5  1  0.44388000  0.22033400  0.30100000  1
  C  C6  1  0.76547600  0.18857700  0.66851600  1
  C  C7  1  0.26547600  0.81142300  0.33148400  1
  C  C8  1  0.98266000  0.26272700  0.66429100  1
  C  C9  1  0.48266000  0.73727300  0.33570900  1
  C  C10  1  0.93133900  0.13797000  0.55691900  1
  C  C11  1  0.43133900  0.86203000  0.44308100  1
  C  C12  1  0.27589800  0.05668300  0.64633200  1
  C  C13  1  0.77589800  0.94331700  0.35366800  1
  C  C14  1  0.24874600  0.87901200  0.71132000  1
  C  C15  1  0.74874600  0.12098800  0.28868000  1
  C  C16  1  0.11346600  0.95498700  0.57723100  1
  C  C17  1  0.61346600  0.04501300  0.42276900  1
  C  C18  1  0.05368600  0.37373200  0.17877600  1
  C  C19  1  0.55368600  0.62626800  0.82122400  1
  C  C20  1  0.17414600  0.47562000  0.28351800  1
  C  C21  1  0.67414600  0.52438000  0.71648200  1
  C  C22  1  0.99775400  0.36566000  0.35120000  1
  C  C23  1  0.49775400  0.63434000  0.64880000  1
  C  C24  1  0.54754400  0.51295600  0.25157600  1
  C  C25  1  0.04754400  0.48704400  0.74842400  1
  C  C26  1  0.65909500  0.38848600  0.16872300  1
  C  C27  1  0.15909500  0.61151400  0.83127700  1
  C  C28  1  0.68380200  0.38593300  0.34218100  1
  C  C29  1  0.18380200  0.61406700  0.65781900  1
  C  C30  1  0.99368700  0.68934200  0.41741700  1
  C  C31  1  0.49368700  0.31065800  0.58258300  1
  C  C32  1  0.75649300  0.68972000  0.41810400  1
  C  C33  1  0.25649300  0.31028000  0.58189600  1
  C  C34  1  0.78832900  0.45141800  0.49367800  1
  C  C35  1  0.28832900  0.54858200  0.50632200  1
  C  C36  1  0.17968900  0.21788800  0.87145900  1
  C  C37  1  0.67968900  0.78211200  0.12854100  1
  C  C38  1  0.68043300  0.95380000  0.16640900  1
  C  C39  1  0.18043300  0.04620000  0.83359100  1
  C  C40  1  0.82813300  0.47896900  0.99807800  1
  C  C41  1  0.32813300  0.52103100  0.00192200  1
  C  C42  1  0.68501500  0.72075500  0.08707000  1
  C  C43  1  0.18501500  0.27924500  0.91293000  1
  C  C44  1  0.98097700  0.01889100  0.80005900  1
  C  C45  1  0.48097700  0.98110900  0.19994100  1
  C  C46  1  0.87340800  0.58781000  0.21170900  1
  C  C47  1  0.37340800  0.41219000  0.78829100  1
  Ni  Ni48  1  0.84709900  0.85449300  0.72403400  1
  Ni  Ni49  1  0.34709900  0.14550700  0.27596600  1
  Ni  Ni50  1  0.90688400  0.16952500  0.65376300  1
  Ni  Ni51  1  0.40688400  0.83047500  0.34623700  1
  Ni  Ni52  1  0.18062100  0.97251900  0.66804400  1
  Ni  Ni53  1  0.68062100  0.02748100  0.33195600  1
  Ni  Ni54  1  0.04573500  0.43026300  0.26366500  1
  Ni  Ni55  1  0.54573500  0.56973700  0.73633500  1
  Ni  Ni56  1  0.66939400  0.45227300  0.24821400  1
  Ni  Ni57  1  0.16939400  0.54772700  0.75178600  1
  Ni  Ni58  1  0.87503100  0.62676300  0.40499000  1
  Ni  Ni59  1  0.37503100  0.37323700  0.59501000  1
  Cu  Cu60  1  0.17419400  0.81124100  0.06139400  1
  Cu  Cu61  1  0.67419400  0.18875900  0.93860600  1
  C  C62  1  0.88388200  0.51449300  0.50792300  1
  C  C63  1  0.38388200  0.48550700  0.49207700  1
  C  C64  1  0.05371700  0.84133300  0.94648300  1
  C  C65  1  0.55371700  0.15866700  0.05351700  1
  C  C66  1  0.26184100  0.95039800  0.07993100  1
  C  C67  1  0.76184100  0.04960200  0.92006900  1
  C  C68  1  0.30963500  0.71084600  0.04034700  1
  C  C69  1  0.80963500  0.28915400  0.95965300  1
  C  C70  1  0.06499300  0.76864400  0.18102400  1
  C  C71  1  0.56499300  0.23135600  0.81897600  1
  C  C72  1  0.85608300  0.57372400  0.01282300  1
  C  C73  1  0.35608300  0.42627600  0.98717700  1
