# generated using pymatgen
data_Cu2(NiC3)3
_symmetry_space_group_name_H-M   'P 1'
_cell_length_a   11.71954349
_cell_length_b   7.27871531
_cell_length_c   12.34041000
_cell_angle_alpha   90.00000000
_cell_angle_beta   90.00000000
_cell_angle_gamma   83.76091084
_symmetry_Int_Tables_number   1
_chemical_formula_structural   Cu2(NiC3)3
_chemical_formula_sum   'Cu8 Ni12 C36'
_cell_volume   1046.44176711
_cell_formula_units_Z   4
loop_
 _symmetry_equiv_pos_site_id
 _symmetry_equiv_pos_as_xyz
  1  'x, y, z'
loop_
 _atom_site_type_symbol
 _atom_site_label
 _atom_site_symmetry_multiplicity
 _atom_site_fract_x
 _atom_site_fract_y
 _atom_site_fract_z
 _atom_site_occupancy
  C  C0  1  0.09068900  0.96215500  0.67615200  1
  C  C1  1  0.90931100  0.03784500  0.17615200  1
  C  C2  1  0.40777000  0.47576400  0.85133300  1
  C  C3  1  0.59223000  0.52423600  0.35133300  1
  Ni  Ni4  1  0.37147000  0.82690700  0.19955400  1
  Ni  Ni5  1  0.62853000  0.17309300  0.69955400  1
  Ni  Ni6  1  0.12053900  0.33403100  0.32942600  1
  Ni  Ni7  1  0.87946100  0.66596900  0.82942600  1
  Ni  Ni8  1  0.15905000  0.66469500  0.95606200  1
  Ni  Ni9  1  0.84095000  0.33530500  0.45606200  1
  Ni  Ni10  1  0.33160000  0.58792800  0.44933500  1
  Ni  Ni11  1  0.66840000  0.41207200  0.94933500  1
  Ni  Ni12  1  0.14189600  0.16957400  0.97270400  1
  Ni  Ni13  1  0.85810500  0.83042600  0.47270400  1
  Ni  Ni14  1  0.35491500  0.08718600  0.47199800  1
  Ni  Ni15  1  0.64508500  0.91281400  0.97199800  1
  Cu  Cu16  1  0.11436500  0.42024700  0.68064300  1
  Cu  Cu17  1  0.88563400  0.57975300  0.18064300  1
  Cu  Cu18  1  0.41496200  0.28448400  0.15505800  1
  Cu  Cu19  1  0.58503800  0.71551600  0.65505800  1
  Cu  Cu20  1  0.12440500  0.85562500  0.31026600  1
  Cu  Cu21  1  0.87559500  0.14437500  0.81026600  1
  Cu  Cu22  1  0.39260500  0.88398300  0.79890900  1
  Cu  Cu23  1  0.60739500  0.11601700  0.29890900  1
  C  C24  1  0.02205600  0.89069900  0.87104000  1
  C  C25  1  0.97794400  0.10930100  0.37104000  1
  C  C26  1  0.45646900  0.80882100  0.38212200  1
  C  C27  1  0.54353100  0.19117900  0.88212200  1
  C  C28  1  0.04075400  0.26946400  0.14341800  1
  C  C29  1  0.95924600  0.73053600  0.64341800  1
  C  C30  1  0.48209000  0.43226600  0.67298600  1
  C  C31  1  0.51791000  0.56773400  0.17298600  1
  C  C32  1  0.03683500  0.44671400  0.88720600  1
  C  C33  1  0.96316500  0.55328600  0.38720600  1
  C  C34  1  0.47353500  0.33262700  0.43420700  1
  C  C35  1  0.52646500  0.66737300  0.93420700  1
  C  C36  1  0.03188400  0.78912900  0.11868800  1
  C  C37  1  0.96811600  0.21087100  0.61868800  1
  C  C38  1  0.47256300  0.02235600  0.62903600  1
  C  C39  1  0.52743700  0.97764400  0.12903600  1
  C  C40  1  0.22709300  0.86883600  0.53275200  1
  C  C41  1  0.77290700  0.13116400  0.03275200  1
  C  C42  1  0.27032400  0.89155100  0.02624100  1
  C  C43  1  0.72967600  0.10844900  0.52624100  1
  C  C44  1  0.21933300  0.35284000  0.50062200  1
  C  C45  1  0.78066700  0.64716000  0.00062200  1
  C  C46  1  0.28037700  0.38309000  0.00075100  1
  C  C47  1  0.71962300  0.61691000  0.50075100  1
  C  C48  1  0.21597400  0.11990300  0.79339400  1
  C  C49  1  0.78402600  0.88009700  0.29339400  1
  C  C50  1  0.28178300  0.11027400  0.28969500  1
  C  C51  1  0.71821700  0.88972600  0.78969500  1
  C  C52  1  0.24136200  0.64246200  0.78052900  1
  C  C53  1  0.75863800  0.35753800  0.28052900  1
  C  C54  1  0.25440900  0.57153800  0.27987400  1
  C  C55  1  0.74559100  0.42846200  0.77987400  1
