# generated using pymatgen
data_Cu4Ni3C20
_symmetry_space_group_name_H-M   'P 1'
_cell_length_a   10.07495900
_cell_length_b   7.51322700
_cell_length_c   10.17062561
_cell_angle_alpha   68.52505706
_cell_angle_beta   90.00000000
_cell_angle_gamma   90.00000000
_symmetry_Int_Tables_number   1
_chemical_formula_structural   Cu4Ni3C20
_chemical_formula_sum   'Cu8 Ni6 C40'
_cell_volume   716.42401456
_cell_formula_units_Z   2
loop_
 _symmetry_equiv_pos_site_id
 _symmetry_equiv_pos_as_xyz
  1  'x, y, z'
loop_
 _atom_site_type_symbol
 _atom_site_label
 _atom_site_symmetry_multiplicity
 _atom_site_fract_x
 _atom_site_fract_y
 _atom_site_fract_z
 _atom_site_occupancy
  C  C0  1  0.08715100  0.93355700  0.20468400  1
  C  C1  1  0.58715100  0.56644300  0.79531600  1
  C  C2  1  0.91284900  0.06644300  0.79531600  1
  C  C3  1  0.41284900  0.43355700  0.20468400  1
  Ni  Ni4  1  0.50000000  0.00000000  0.00000000  1
  Ni  Ni5  1  0.00000000  0.50000000  0.00000000  1
  Ni  Ni6  1  0.01505700  0.40793700  0.37575700  1
  Ni  Ni7  1  0.51505700  0.09206300  0.62424300  1
  Ni  Ni8  1  0.98494300  0.59206300  0.62424300  1
  Ni  Ni9  1  0.48494300  0.90793700  0.37575700  1
  Cu  Cu10  1  0.75419900  0.65166200  0.10291400  1
  Cu  Cu11  1  0.25419900  0.84833800  0.89708600  1
  Cu  Cu12  1  0.24580100  0.34833800  0.89708600  1
  Cu  Cu13  1  0.74580100  0.15166200  0.10291400  1
  Cu  Cu14  1  0.27212700  0.48694300  0.51483800  1
  Cu  Cu15  1  0.77212700  0.01305700  0.48516200  1
  Cu  Cu16  1  0.72787300  0.51305700  0.48516200  1
  Cu  Cu17  1  0.22787300  0.98694300  0.51483800  1
  C  C18  1  0.17510000  0.95787800  0.70229600  1
  C  C19  1  0.67510000  0.54212200  0.29770400  1
  C  C20  1  0.82490000  0.04212200  0.29770400  1
  C  C21  1  0.32490000  0.45787800  0.70229600  1
  C  C22  1  0.06709300  0.52216500  0.80815700  1
  C  C23  1  0.56709300  0.97783500  0.19184300  1
  C  C24  1  0.93290700  0.47783500  0.19184300  1
  C  C25  1  0.43290700  0.02216500  0.80815700  1
  C  C26  1  0.17099700  0.53894800  0.32126200  1
  C  C27  1  0.67099700  0.96105200  0.67873800  1
  C  C28  1  0.82900300  0.46105200  0.67873800  1
  C  C29  1  0.32900300  0.03894800  0.32126200  1
  C  C30  1  0.16128100  0.35693600  0.06929500  1
  C  C31  1  0.66128100  0.14306400  0.93070500  1
  C  C32  1  0.83871900  0.64306400  0.93070500  1
  C  C33  1  0.33871900  0.85693600  0.06929500  1
  C  C34  1  0.08346600  0.38732200  0.58152200  1
  C  C35  1  0.58346600  0.11267800  0.41847800  1
  C  C36  1  0.91653400  0.61267800  0.41847800  1
  C  C37  1  0.41653400  0.88732200  0.58152200  1
  C  C38  1  0.08935100  0.74428600  0.98296300  1
  C  C39  1  0.58935100  0.75571400  0.01703700  1
  C  C40  1  0.91064900  0.25571400  0.01703700  1
  C  C41  1  0.41064900  0.24428600  0.98296300  1
  C  C42  1  0.15979500  0.74972600  0.50853800  1
  C  C43  1  0.65979500  0.75027400  0.49146200  1
  C  C44  1  0.84020500  0.25027400  0.49146200  1
  C  C45  1  0.34020500  0.24972600  0.50853800  1
  C  C46  1  0.16467400  0.12371300  0.90142500  1
  C  C47  1  0.66467400  0.37628700  0.09857500  1
  C  C48  1  0.83532600  0.87628700  0.09857500  1
  C  C49  1  0.33532600  0.62371300  0.90142500  1
  C  C50  1  0.09298100  0.16024100  0.40592900  1
  C  C51  1  0.59298100  0.33975900  0.59407100  1
  C  C52  1  0.90701900  0.83975900  0.59407100  1
  C  C53  1  0.40701900  0.66024100  0.40592900  1
