# generated using pymatgen
data_Cu3NiC15
_symmetry_space_group_name_H-M   'P 1'
_cell_length_a   9.16329836
_cell_length_b   9.16329836
_cell_length_c   9.13296043
_cell_angle_alpha   70.48711051
_cell_angle_beta   70.48711051
_cell_angle_gamma   109.42150899
_symmetry_Int_Tables_number   1
_chemical_formula_structural   Cu3NiC15
_chemical_formula_sum   'Cu6 Ni2 C30'
_cell_volume   590.08245876
_cell_formula_units_Z   2
loop_
 _symmetry_equiv_pos_site_id
 _symmetry_equiv_pos_as_xyz
  1  'x, y, z'
loop_
 _atom_site_type_symbol
 _atom_site_label
 _atom_site_symmetry_multiplicity
 _atom_site_fract_x
 _atom_site_fract_y
 _atom_site_fract_z
 _atom_site_occupancy
  Ni  Ni0  1  0.50183700  0.83368500  0.00067900  1
  Ni  Ni1  1  0.83368500  0.50183700  0.50067900  1
  C  C2  1  0.62532300  0.75105700  0.62489800  1
  C  C3  1  0.86922700  0.24913000  0.87004000  1
  C  C4  1  0.75105700  0.62532300  0.12489800  1
  C  C5  1  0.24913000  0.86922700  0.37004000  1
  C  C6  1  0.12464700  0.38110500  0.25515800  1
  C  C7  1  0.38110500  0.12464700  0.75515800  1
  Cu  Cu8  1  0.34890300  0.49483100  0.50742200  1
  Cu  Cu9  1  0.14529600  0.64572700  0.84741600  1
  Cu  Cu10  1  0.00954400  0.00404100  0.64413500  1
  Cu  Cu11  1  0.49483100  0.34890300  0.00742200  1
  Cu  Cu12  1  0.64572700  0.14529600  0.34741600  1
  Cu  Cu13  1  0.00404100  0.00954400  0.14413500  1
  C  C14  1  0.64700000  0.79899700  0.76925900  1
  C  C15  1  0.06610000  0.40184100  0.73915900  1
  C  C16  1  0.43260000  0.68492300  0.65913600  1
  C  C17  1  0.83074900  0.08052400  0.84736700  1
  C  C18  1  0.79899700  0.64700000  0.26925900  1
  C  C19  1  0.40184100  0.06610000  0.23915900  1
  C  C20  1  0.68492300  0.43260000  0.15913600  1
  C  C21  1  0.08052400  0.83074900  0.34736700  1
  C  C22  1  0.15819100  0.34601300  0.41517100  1
  C  C23  1  0.36369800  0.93632100  0.81212900  1
  C  C24  1  0.26701200  0.57559000  0.09131600  1
  C  C25  1  0.24926900  0.14451200  0.68974000  1
  C  C26  1  0.83299900  0.19444000  0.06415800  1
  C  C27  1  0.66548500  0.59319500  0.64771700  1
  C  C28  1  0.74704100  0.32164700  0.82798300  1
  C  C29  1  0.76053900  0.91696200  0.43711600  1
  C  C30  1  0.19444000  0.83299900  0.56415800  1
  C  C31  1  0.59319500  0.66548500  0.14771700  1
  C  C32  1  0.32164700  0.74704100  0.32798300  1
  C  C33  1  0.91696200  0.76053900  0.93711600  1
  C  C34  1  0.34601300  0.15819100  0.91517100  1
  C  C35  1  0.93632100  0.36369800  0.31212900  1
  C  C36  1  0.57559000  0.26701200  0.59131600  1
  C  C37  1  0.14451200  0.24926900  0.18974000  1
