# generated using pymatgen
data_Cu6Ni8C
_symmetry_space_group_name_H-M   'P 1'
_cell_length_a   6.03677100
_cell_length_b   8.74967000
_cell_length_c   11.89712900
_cell_angle_alpha   90.00000000
_cell_angle_beta   90.00000000
_cell_angle_gamma   90.00000000
_symmetry_Int_Tables_number   1
_chemical_formula_structural   Cu6Ni8C
_chemical_formula_sum   'Cu12 Ni16 C2'
_cell_volume   628.40342846
_cell_formula_units_Z   2
loop_
 _symmetry_equiv_pos_site_id
 _symmetry_equiv_pos_as_xyz
  1  'x, y, z'
loop_
 _atom_site_type_symbol
 _atom_site_label
 _atom_site_symmetry_multiplicity
 _atom_site_fract_x
 _atom_site_fract_y
 _atom_site_fract_z
 _atom_site_occupancy
  C  C0  1  0.00000000  0.50000000  0.50000000  1
  C  C1  1  0.00000000  0.00000000  0.00000000  1
  Ni  Ni2  1  0.41537400  0.00000000  0.73874600  1
  Ni  Ni3  1  0.41537400  0.50000000  0.76125400  1
  Ni  Ni4  1  0.58462600  0.00000000  0.26125400  1
  Ni  Ni5  1  0.58462600  0.50000000  0.23874600  1
  Ni  Ni6  1  0.58970000  0.00000000  0.66064700  1
  Ni  Ni7  1  0.58970000  0.50000000  0.83935300  1
  Ni  Ni8  1  0.41030000  0.00000000  0.33935300  1
  Ni  Ni9  1  0.41030000  0.50000000  0.16064700  1
  Ni  Ni10  1  0.67944400  0.13822800  0.62195800  1
  Ni  Ni11  1  0.67944400  0.36177200  0.87804200  1
  Ni  Ni12  1  0.32055600  0.13822800  0.37804200  1
  Ni  Ni13  1  0.67944400  0.63822800  0.87804200  1
  Ni  Ni14  1  0.32055600  0.86177200  0.37804200  1
  Ni  Ni15  1  0.32055600  0.63822800  0.12195800  1
  Ni  Ni16  1  0.67944400  0.86177200  0.62195800  1
  Ni  Ni17  1  0.32055600  0.36177200  0.12195800  1
  Cu  Cu18  1  0.75563500  0.25301400  0.58898100  1
  Cu  Cu19  1  0.75563500  0.24698600  0.91101900  1
  Cu  Cu20  1  0.24436500  0.25301400  0.41101900  1
  Cu  Cu21  1  0.75563500  0.75301400  0.91101900  1
  Cu  Cu22  1  0.24436500  0.74698600  0.41101900  1
  Cu  Cu23  1  0.24436500  0.75301400  0.08898100  1
  Cu  Cu24  1  0.75563500  0.74698600  0.58898100  1
  Cu  Cu25  1  0.24436500  0.24698600  0.08898100  1
  Cu  Cu26  1  0.27058000  0.00000000  0.80448900  1
  Cu  Cu27  1  0.27058000  0.50000000  0.69551100  1
  Cu  Cu28  1  0.72942000  0.00000000  0.19551100  1
  Cu  Cu29  1  0.72942000  0.50000000  0.30448900  1
