# generated using pymatgen
data_Cu5(NiC4)2
_symmetry_space_group_name_H-M   'P 1'
_cell_length_a   10.71343029
_cell_length_b   9.67509717
_cell_length_c   13.61881982
_cell_angle_alpha   90.00000000
_cell_angle_beta   90.00000000
_cell_angle_gamma   90.00000000
_symmetry_Int_Tables_number   1
_chemical_formula_structural   Cu5(NiC4)2
_chemical_formula_sum   'Cu40 Ni16 C64'
_cell_volume   1411.63805530
_cell_formula_units_Z   8
loop_
 _symmetry_equiv_pos_site_id
 _symmetry_equiv_pos_as_xyz
  1  'x, y, z'
loop_
 _atom_site_type_symbol
 _atom_site_label
 _atom_site_symmetry_multiplicity
 _atom_site_fract_x
 _atom_site_fract_y
 _atom_site_fract_z
 _atom_site_occupancy
  Ni  Ni0  1  0.10481164  0.13943328  0.00203354  1
  Ni  Ni1  1  0.60481164  0.36056672  0.99796646  1
  Ni  Ni2  1  0.89518836  0.63943328  0.49796646  1
  Ni  Ni3  1  0.39518836  0.86056672  0.50203354  1
  Ni  Ni4  1  0.89518836  0.86056672  0.99796646  1
  Ni  Ni5  1  0.39518836  0.63943328  0.00203354  1
  Ni  Ni6  1  0.10481164  0.36056672  0.50203354  1
  Ni  Ni7  1  0.60481164  0.13943328  0.49796646  1
  Ni  Ni8  1  0.38837743  0.04490855  0.07992228  1
  Ni  Ni9  1  0.88837743  0.45509145  0.92007772  1
  Ni  Ni10  1  0.61162257  0.54490855  0.42007772  1
  Ni  Ni11  1  0.11162257  0.95509145  0.57992228  1
  Ni  Ni12  1  0.61162257  0.95509145  0.92007772  1
  Ni  Ni13  1  0.11162257  0.54490855  0.07992228  1
  Ni  Ni14  1  0.38837743  0.45509145  0.57992228  1
  Ni  Ni15  1  0.88837743  0.04490855  0.42007772  1
  Cu  Cu16  1  0.40226465  0.21889068  0.84945712  1
  Cu  Cu17  1  0.90226465  0.28110932  0.15054288  1
  Cu  Cu18  1  0.59773535  0.71889068  0.65054288  1
  Cu  Cu19  1  0.09773535  0.78110932  0.34945712  1
  Cu  Cu20  1  0.59773535  0.78110932  0.15054288  1
  Cu  Cu21  1  0.09773535  0.71889068  0.84945712  1
  Cu  Cu22  1  0.40226465  0.28110932  0.34945712  1
  Cu  Cu23  1  0.90226465  0.21889068  0.65054288  1
  Cu  Cu24  1  0.16935122  0.22827349  0.72424948  1
  Cu  Cu25  1  0.66935122  0.27172651  0.27575052  1
  Cu  Cu26  1  0.83064878  0.72827349  0.77575052  1
  Cu  Cu27  1  0.33064878  0.77172651  0.22424948  1
  Cu  Cu28  1  0.83064878  0.77172651  0.27575052  1
  Cu  Cu29  1  0.33064878  0.72827349  0.72424948  1
  Cu  Cu30  1  0.16935122  0.27172651  0.22424948  1
  Cu  Cu31  1  0.66935122  0.22827349  0.77575052  1
  Cu  Cu32  1  0.25295114  0.96284569  0.84432547  1
  Cu  Cu33  1  0.75295114  0.53715431  0.15567453  1
  Cu  Cu34  1  0.74704886  0.46284569  0.65567453  1
  Cu  Cu35  1  0.24704886  0.03715431  0.34432547  1
  Cu  Cu36  1  0.74704886  0.03715431  0.15567453  1
  Cu  Cu37  1  0.24704886  0.46284569  0.84432547  1
  Cu  Cu38  1  0.25295114  0.53715431  0.34432547  1
  Cu  Cu39  1  0.75295114  0.96284569  0.65567453  1
  Cu  Cu40  1  0.98247972  0.99290864  0.78579243  1
  Cu  Cu41  1  0.48247972  0.50709136  0.21420757  1
  Cu  Cu42  1  0.01752028  0.49290864  0.71420757  1
  Cu  Cu43  1  0.51752028  0.00709136  0.28579243  1
  Cu  Cu44  1  0.01752028  0.00709136  0.21420757  1
  Cu  Cu45  1  0.51752028  0.49290864  0.78579243  1
  Cu  Cu46  1  0.98247972  0.50709136  0.28579243  1
  Cu  Cu47  1  0.48247972  0.99290864  0.71420757  1
  Cu  Cu48  1  0.83467642  0.16052371  0.95651357  1
  Cu  Cu49  1  0.33467642  0.33947629  0.04348643  1
  Cu  Cu50  1  0.16532358  0.66052371  0.54348643  1
  Cu  Cu51  1  0.66532358  0.83947629  0.45651357  1
  Cu  Cu52  1  0.16532358  0.83947629  0.04348643  1
  Cu  Cu53  1  0.66532358  0.66052371  0.95651357  1
  Cu  Cu54  1  0.83467642  0.33947629  0.45651357  1
  Cu  Cu55  1  0.33467642  0.16052371  0.54348643  1
  C  C56  1  0.92580424  0.27528442  0.02665046  1
  C  C57  1  0.42580424  0.22471558  0.97334954  1
  C  C58  1  0.07419576  0.77528442  0.47334954  1
  C  C59  1  0.57419576  0.72471558  0.52665046  1
  C  C60  1  0.07419576  0.72471558  0.97334954  1
  C  C61  1  0.57419576  0.77528442  0.02665046  1
  C  C62  1  0.92580424  0.22471558  0.52665046  1
  C  C63  1  0.42580424  0.27528442  0.47334954  1
  C  C64  1  0.94053114  0.05913719  0.89483706  1
  C  C65  1  0.44053114  0.44086281  0.10516294  1
  C  C66  1  0.05946886  0.55913719  0.60516294  1
  C  C67  1  0.55946886  0.94086281  0.39483706  1
  C  C68  1  0.05946886  0.94086281  0.10516294  1
  C  C69  1  0.55946886  0.55913719  0.89483706  1
  C  C70  1  0.94053114  0.44086281  0.39483706  1
  C  C71  1  0.44053114  0.05913719  0.60516294  1
  C  C72  1  0.74096644  0.26471088  0.88494471  1
  C  C73  1  0.24096644  0.23528912  0.11505529  1
  C  C74  1  0.25903356  0.76471088  0.61505529  1
  C  C75  1  0.75903356  0.73528912  0.38494471  1
  C  C76  1  0.25903356  0.73528912  0.11505529  1
  C  C77  1  0.75903356  0.76471088  0.88494471  1
  C  C78  1  0.74096644  0.23528912  0.38494471  1
  C  C79  1  0.24096644  0.26471088  0.61505529  1
  C  C80  1  0.25675136  0.94572352  0.96906187  1
  C  C81  1  0.75675136  0.55427648  0.03093813  1
  C  C82  1  0.74324864  0.44572352  0.53093813  1
  C  C83  1  0.24324864  0.05427648  0.46906187  1
  C  C84  1  0.74324864  0.05427648  0.03093813  1
  C  C85  1  0.24324864  0.44572352  0.96906187  1
  C  C86  1  0.25675136  0.55427648  0.46906187  1
  C  C87  1  0.75675136  0.94572352  0.53093813  1
  C  C88  1  0.03197824  0.12368585  0.70049247  1
  C  C89  1  0.53197824  0.37631415  0.29950753  1
  C  C90  1  0.96802176  0.62368585  0.79950753  1
  C  C91  1  0.46802176  0.87631415  0.20049247  1
  C  C92  1  0.96802176  0.87631415  0.29950753  1
  C  C93  1  0.46802176  0.62368585  0.70049247  1
  C  C94  1  0.03197824  0.37631415  0.20049247  1
  C  C95  1  0.53197824  0.12368585  0.79950753  1
  C  C96  1  0.37634774  0.88575850  0.77820702  1
  C  C97  1  0.87634774  0.61424150  0.22179298  1
  C  C98  1  0.62365226  0.38575850  0.72179298  1
  C  C99  1  0.12365226  0.11424150  0.27820702  1
  C  C100  1  0.62365226  0.11424150  0.22179298  1
  C  C101  1  0.12365226  0.38575850  0.77820702  1
  C  C102  1  0.37634774  0.61424150  0.27820702  1
  C  C103  1  0.87634774  0.88575850  0.72179298  1
  C  C104  1  0.26183339  0.13867416  0.81087815  1
  C  C105  1  0.76183339  0.36132584  0.18912185  1
  C  C106  1  0.73816661  0.63867416  0.68912185  1
  C  C107  1  0.23816661  0.86132584  0.31087815  1
  C  C108  1  0.73816661  0.86132584  0.18912185  1
  C  C109  1  0.23816661  0.63867416  0.81087815  1
  C  C110  1  0.26183339  0.36132584  0.31087815  1
  C  C111  1  0.76183339  0.13867416  0.68912185  1
  C  C112  1  0.11344965  0.88674727  0.80176167  1
  C  C113  1  0.61344965  0.61325273  0.19823833  1
  C  C114  1  0.88655035  0.38674727  0.69823833  1
  C  C115  1  0.38655035  0.11325273  0.30176167  1
  C  C116  1  0.88655035  0.11325273  0.19823833  1
  C  C117  1  0.38655035  0.38674727  0.80176167  1
  C  C118  1  0.11344965  0.61325273  0.30176167  1
  C  C119  1  0.61344965  0.88674727  0.69823833  1
