# generated using pymatgen
data_CuNiC18
_symmetry_space_group_name_H-M   'P 1'
_cell_length_a   9.04538251
_cell_length_b   8.48336906
_cell_length_c   14.70546501
_cell_angle_alpha   89.81961713
_cell_angle_beta   75.00356409
_cell_angle_gamma   61.32572401
_symmetry_Int_Tables_number   1
_chemical_formula_structural   CuNiC18
_chemical_formula_sum   'Cu4 Ni4 C72'
_cell_volume   946.52164935
_cell_formula_units_Z   4
loop_
 _symmetry_equiv_pos_site_id
 _symmetry_equiv_pos_as_xyz
  1  'x, y, z'
loop_
 _atom_site_type_symbol
 _atom_site_label
 _atom_site_symmetry_multiplicity
 _atom_site_fract_x
 _atom_site_fract_y
 _atom_site_fract_z
 _atom_site_occupancy
  C  C0  1  0.15012548  0.24995129  0.33083288  1
  C  C1  1  0.15000904  0.79980092  0.13457204  1
  C  C2  1  0.14485407  0.29891201  0.63367403  1
  C  C3  1  0.14553850  0.72931044  0.46113289  1
  C  C4  1  0.14881063  0.22669809  0.96061299  1
  C  C5  1  0.15025857  0.75039676  0.83029354  1
  C  C6  1  0.85375568  0.24923489  0.16575042  1
  C  C7  1  0.85336924  0.77419116  0.03895453  1
  C  C8  1  0.85246262  0.27857669  0.53833659  1
  C  C9  1  0.85205161  0.69864475  0.36709892  1
  C  C10  1  0.85084378  0.20255612  0.86819136  1
  C  C11  1  0.85198649  0.74292918  0.66793110  1
  Ni  Ni12  1  0.04494958  0.97933726  0.32593539  1
  Ni  Ni13  1  0.55870932  0.21884920  0.07289099  1
  Ni  Ni14  1  0.56072649  0.71551599  0.57308837  1
  Ni  Ni15  1  0.95377616  0.52439992  0.17454667  1
  Cu  Cu16  1  0.04728015  0.47395064  0.82632357  1
  Cu  Cu17  1  0.44090511  0.27986695  0.42876621  1
  Cu  Cu18  1  0.43924852  0.78292284  0.92656777  1
  Cu  Cu19  1  0.95187881  0.02284167  0.67385642  1
  C  C20  1  0.25326864  0.08416288  0.12244708  1
  C  C21  1  0.25276140  0.01825842  0.48193136  1
  C  C22  1  0.24915217  0.52051070  0.27448915  1
  C  C23  1  0.25177407  0.01707270  0.76880584  1
  C  C24  1  0.24852910  0.58039814  0.62493095  1
  C  C25  1  0.25198734  0.52386214  0.97901026  1
  C  C26  1  0.75019281  0.47764883  0.01875311  1
  C  C27  1  0.74748289  0.41310883  0.37632665  1
  C  C28  1  0.74482077  0.98825388  0.23108898  1
  C  C29  1  0.74815433  0.48174445  0.72962699  1
  C  C30  1  0.75213818  0.97819526  0.52163856  1
  C  C31  1  0.75307073  0.91428736  0.87191249  1
  C  C32  1  0.09574339  0.25390382  0.10066756  1
  C  C33  1  0.20248211  0.06684333  0.22881604  1
  C  C34  1  0.09879512  0.62847777  0.07282669  1
  C  C35  1  0.09868981  0.11601820  0.57837597  1
  C  C36  1  0.09264116  0.48415836  0.28046055  1
  C  C37  1  0.42315387  0.09345796  0.09223341  1
  C  C38  1  0.27268305  0.17445306  0.43410100  1
  C  C39  1  0.19236210  0.72056859  0.25988766  1
  C  C40  1  0.19246157  0.21740540  0.75328214  1
  C  C41  1  0.27779295  0.48838569  0.37666548  1
  C  C42  1  0.41498777  0.39655544  0.19768715  1
  C  C43  1  0.09377740  0.75786965  0.60356635  1
  C  C44  1  0.27543425  0.92057258  0.05981395  1
  C  C45  1  0.26592649  0.42166803  0.56042680  1
  C  C46  1  0.57485152  0.12527782  0.30901440  1
  C  C47  1  0.18917593  0.56169896  0.73142352  1
  C  C48  1  0.20005245  0.92122084  0.41953277  1
  C  C49  1  0.19648856  0.42447044  0.91702749  1
  C  C50  1  0.71933502  0.01242098  0.13001439  1
  C  C51  1  0.58012599  0.60904755  0.99606666  1
  C  C52  1  0.57857327  0.11616311  0.49857886  1
  C  C53  1  0.09907474  0.97519247  0.76715442  1
  C  C54  1  0.73182798  0.32209072  0.06652866  1
  C  C55  1  0.57773295  0.40120474  0.41047101  1
  C  C56  1  0.41710114  0.58645127  0.60120178  1
  C  C57  1  0.27698478  0.67245451  0.92594992  1
  C  C58  1  0.90002301  0.02590637  0.22706415  1
  C  C59  1  0.42639867  0.88481092  0.50051911  1
  C  C60  1  0.42437737  0.38620071  0.99768141  1
  C  C61  1  0.26824476  0.99526755  0.87132100  1
  C  C62  1  0.79837888  0.58116617  0.08023427  1
  C  C63  1  0.80175535  0.08601832  0.58140792  1
  C  C64  1  0.79215766  0.43228538  0.27109551  1
  C  C65  1  0.42187773  0.88823067  0.69404126  1
  C  C66  1  0.73059280  0.57110906  0.43984001  1
  C  C67  1  0.74196599  0.06920168  0.93200548  1
  C  C68  1  0.90614759  0.23891117  0.39662914  1
  C  C69  1  0.58062957  0.61121649  0.80535741  1
  C  C70  1  0.72949791  0.50780511  0.62706011  1
  C  C71  1  0.79398157  0.79501654  0.25150775  1
  C  C72  1  0.80580311  0.28140860  0.74448748  1
  C  C73  1  0.72847045  0.83310650  0.57447597  1
  C  C74  1  0.58295759  0.90512566  0.89807086  1
  C  C75  1  0.90359167  0.51878017  0.72959129  1
  C  C76  1  0.90082660  0.87859138  0.42638583  1
  C  C77  1  0.90502153  0.38026845  0.92199726  1
  C  C78  1  0.80799452  0.92986092  0.76393461  1
  C  C79  1  0.90618002  0.73528654  0.89320049  1
