# generated using pymatgen
data_Cu(NiC4)3
_symmetry_space_group_name_H-M   'P 1'
_cell_length_a   7.20949700
_cell_length_b   10.17044900
_cell_length_c   13.31534700
_cell_angle_alpha   90.00000000
_cell_angle_beta   90.00000000
_cell_angle_gamma   90.00000000
_symmetry_Int_Tables_number   1
_chemical_formula_structural   Cu(NiC4)3
_chemical_formula_sum   'Cu4 Ni12 C48'
_cell_volume   976.33212736
_cell_formula_units_Z   4
loop_
 _symmetry_equiv_pos_site_id
 _symmetry_equiv_pos_as_xyz
  1  'x, y, z'
loop_
 _atom_site_type_symbol
 _atom_site_label
 _atom_site_symmetry_multiplicity
 _atom_site_fract_x
 _atom_site_fract_y
 _atom_site_fract_z
 _atom_site_occupancy
  C  C0  1  0.34143800  0.78134900  0.12950000  1
  C  C1  1  0.84143800  0.71865100  0.87050000  1
  C  C2  1  0.65856200  0.28134900  0.37050000  1
  C  C3  1  0.15856200  0.21865100  0.62950000  1
  C  C4  1  0.78254500  0.56678800  0.58179100  1
  C  C5  1  0.28254500  0.93321200  0.41820900  1
  C  C6  1  0.21745500  0.06678800  0.91820900  1
  C  C7  1  0.71745500  0.43321200  0.08179100  1
  Ni  Ni8  1  0.49316000  0.82145900  0.67522200  1
  Ni  Ni9  1  0.99316000  0.67854100  0.32477800  1
  Ni  Ni10  1  0.50684000  0.32145900  0.82477800  1
  Ni  Ni11  1  0.00684000  0.17854100  0.17522200  1
  Ni  Ni12  1  0.76554200  0.97106300  0.54888600  1
  Ni  Ni13  1  0.26554200  0.52893700  0.45111400  1
  Ni  Ni14  1  0.23445800  0.47106300  0.95111400  1
  Ni  Ni15  1  0.73445800  0.02893700  0.04888600  1
  Ni  Ni16  1  0.92231700  0.35901600  0.83186100  1
  Ni  Ni17  1  0.42231700  0.14098400  0.16813900  1
  Ni  Ni18  1  0.07768300  0.85901600  0.66813900  1
  Ni  Ni19  1  0.57768300  0.64098400  0.33186100  1
  Cu  Cu20  1  0.24268800  0.54898400  0.70933800  1
  Cu  Cu21  1  0.74268800  0.95101600  0.29066200  1
  Cu  Cu22  1  0.75731200  0.04898400  0.79066200  1
  Cu  Cu23  1  0.25731200  0.45101600  0.20933800  1
  C  C24  1  0.25279400  0.58903000  0.86645800  1
  C  C25  1  0.75279400  0.91097000  0.13354200  1
  C  C26  1  0.74720600  0.08903000  0.63354200  1
  C  C27  1  0.24720600  0.41097000  0.36645800  1
  C  C28  1  0.46967800  0.66360600  0.68417200  1
  C  C29  1  0.96967800  0.83639400  0.31582800  1
  C  C30  1  0.53032200  0.16360600  0.81582800  1
  C  C31  1  0.03032200  0.33639400  0.18417200  1
  C  C32  1  0.22078500  0.47958900  0.56304900  1
  C  C33  1  0.72078500  0.02041100  0.43695100  1
  C  C34  1  0.77921500  0.97958900  0.93695100  1
  C  C35  1  0.27921500  0.52041100  0.06304900  1
  C  C36  1  0.00521600  0.43930100  0.73656500  1
  C  C37  1  0.50521600  0.06069900  0.26343500  1
  C  C38  1  0.99478400  0.93930100  0.76343500  1
  C  C39  1  0.49478400  0.56069900  0.23656500  1
  C  C40  1  0.40526300  0.38150200  0.72600100  1
  C  C41  1  0.90526300  0.11849800  0.27399900  1
  C  C42  1  0.59473700  0.88150200  0.77399900  1
  C  C43  1  0.09473700  0.61849800  0.22600100  1
  C  C44  1  0.05475500  0.70143200  0.68356400  1
  C  C45  1  0.55475500  0.79856800  0.31643600  1
  C  C46  1  0.94524500  0.20143200  0.81643600  1
  C  C47  1  0.44524500  0.29856800  0.18356400  1
  C  C48  1  0.29738300  0.89919200  0.65017200  1
  C  C49  1  0.79738300  0.60080800  0.34982800  1
  C  C50  1  0.70261700  0.39919200  0.84982800  1
  C  C51  1  0.20261700  0.10080800  0.15017200  1
  C  C52  1  0.97927800  0.91206700  0.56234900  1
  C  C53  1  0.47927800  0.58793300  0.43765100  1
  C  C54  1  0.02072200  0.41206700  0.93765100  1
  C  C55  1  0.52072200  0.08793300  0.06234900  1
  C  C56  1  0.62470400  0.84705100  0.57533400  1
  C  C57  1  0.12470400  0.65294900  0.42466600  1
  C  C58  1  0.37529600  0.34705100  0.92466600  1
  C  C59  1  0.87529600  0.15294900  0.07533400  1
  C  C60  1  0.64169500  0.28972700  0.58419200  1
  C  C61  1  0.14169500  0.21027300  0.41580800  1
  C  C62  1  0.35830500  0.78972700  0.91580800  1
  C  C63  1  0.85830500  0.71027300  0.08419200  1
