# generated using pymatgen
data_Cu12Ni16C13
_symmetry_space_group_name_H-M   'P 1'
_cell_length_a   8.02237053
_cell_length_b   7.80841674
_cell_length_c   10.19987917
_cell_angle_alpha   101.54808226
_cell_angle_beta   109.47398315
_cell_angle_gamma   92.57207976
_symmetry_Int_Tables_number   1
_chemical_formula_structural   Cu12Ni16C13
_chemical_formula_sum   'Cu12 Ni16 C13'
_cell_volume   585.87039127
_cell_formula_units_Z   1
loop_
 _symmetry_equiv_pos_site_id
 _symmetry_equiv_pos_as_xyz
  1  'x, y, z'
loop_
 _atom_site_type_symbol
 _atom_site_label
 _atom_site_symmetry_multiplicity
 _atom_site_fract_x
 _atom_site_fract_y
 _atom_site_fract_z
 _atom_site_occupancy
  C  C0  1  0.72183885  0.10320850  0.76954801  1
  C  C1  1  0.24427016  0.90181800  0.21801105  1
  C  C2  1  0.28994577  0.34313905  0.13161600  1
  C  C3  1  0.69081687  0.31608271  0.35647693  1
  C  C4  1  0.33622017  0.69052600  0.66329468  1
  C  C5  1  0.52753303  0.51100709  0.98260412  1
  C  C6  1  0.99075205  0.99464639  0.50489852  1
  C  C7  1  0.64519942  0.72679216  0.51208461  1
  C  C8  1  0.30142021  0.28116623  0.45778949  1
  C  C9  1  0.30504017  0.09719671  0.82357431  1
  C  C10  1  0.69384285  0.91949856  0.18047124  1
  C  C11  1  0.08963833  0.56332115  0.85951209  1
  C  C12  1  0.92921218  0.42066955  0.16166217  1
  Ni  Ni13  1  0.68234616  0.53819676  0.48885804  1
  Ni  Ni14  1  0.26825609  0.46075513  0.52462236  1
  Ni  Ni15  1  0.80582832  0.86516881  0.55810862  1
  Ni  Ni16  1  0.17852757  0.12307979  0.45096696  1
  Ni  Ni17  1  0.59941247  0.07157913  0.22851221  1
  Ni  Ni18  1  0.38384175  0.92540875  0.80676176  1
  Ni  Ni19  1  0.44142237  0.25590835  0.86231144  1
  Ni  Ni20  1  0.56242341  0.75771854  0.09754012  1
  Ni  Ni21  1  0.86318581  0.88829425  0.29567051  1
  Ni  Ni22  1  0.12088854  0.10272928  0.71920823  1
  Ni  Ni23  1  0.90065799  0.37004217  0.28436737  1
  Ni  Ni24  1  0.14984842  0.61346004  0.74916871  1
  Ni  Ni25  1  0.80247050  0.47751405  0.04026902  1
  Ni  Ni26  1  0.21400057  0.49287510  0.97848514  1
  Ni  Ni27  1  0.32634751  0.27062577  0.31349292  1
  Ni  Ni28  1  0.53295821  0.77886631  0.60584257  1
  Cu  Cu29  1  0.85415386  0.19237293  0.50812686  1
  Cu  Cu30  1  0.14858574  0.79875019  0.52676436  1
  Cu  Cu31  1  0.53030428  0.41426481  0.16861843  1
  Cu  Cu32  1  0.51200104  0.59557038  0.80109878  1
  Cu  Cu33  1  0.77225810  0.97878678  0.06745045  1
  Cu  Cu34  1  0.25958906  0.11296671  0.97707577  1
  Cu  Cu35  1  0.91267760  0.43564059  0.78861103  1
  Cu  Cu36  1  0.11150193  0.55179839  0.22004435  1
  Cu  Cu37  1  0.49343808  0.24739362  0.55831828  1
  Cu  Cu38  1  0.51542999  0.74912245  0.35846109  1
  Cu  Cu39  1  0.01533991  0.25989453  0.08511374  1
  Cu  Cu40  1  0.01764565  0.72714430  0.93333767  1
