# generated using pymatgen
data_Cu10Ni2C3
_symmetry_space_group_name_H-M   'P 1'
_cell_length_a   9.89554400
_cell_length_b   8.01011400
_cell_length_c   12.63521870
_cell_angle_alpha   87.35052664
_cell_angle_beta   90.00000000
_cell_angle_gamma   90.00000000
_symmetry_Int_Tables_number   1
_chemical_formula_structural   Cu10Ni2C3
_chemical_formula_sum   'Cu40 Ni8 C12'
_cell_volume   1000.45287713
_cell_formula_units_Z   4
loop_
 _symmetry_equiv_pos_site_id
 _symmetry_equiv_pos_as_xyz
  1  'x, y, z'
loop_
 _atom_site_type_symbol
 _atom_site_label
 _atom_site_symmetry_multiplicity
 _atom_site_fract_x
 _atom_site_fract_y
 _atom_site_fract_z
 _atom_site_occupancy
  C  C0  1  0.94422100  0.22169800  0.88652900  1
  C  C1  1  0.44422100  0.27830200  0.11347100  1
  C  C2  1  0.05577900  0.77830200  0.11347100  1
  C  C3  1  0.55577900  0.72169800  0.88652900  1
  C  C4  1  0.73430300  0.03184500  0.61117100  1
  C  C5  1  0.23430300  0.46815500  0.38882900  1
  C  C6  1  0.26569700  0.96815500  0.38882900  1
  C  C7  1  0.76569700  0.53184500  0.61117100  1
  C  C8  1  0.32061800  0.14502100  0.74057200  1
  C  C9  1  0.82061800  0.35497900  0.25942800  1
  C  C10  1  0.67938200  0.85497900  0.25942800  1
  C  C11  1  0.17938200  0.64502100  0.74057200  1
  Ni  Ni12  1  0.58282500  0.23558500  0.85737300  1
  Ni  Ni13  1  0.08282500  0.26441500  0.14262700  1
  Ni  Ni14  1  0.41717500  0.76441500  0.14262700  1
  Ni  Ni15  1  0.91717500  0.73558500  0.85737300  1
  Ni  Ni16  1  0.08102000  0.25897000  0.60678600  1
  Ni  Ni17  1  0.58102000  0.24103000  0.39321400  1
  Ni  Ni18  1  0.91898000  0.74103000  0.39321400  1
  Ni  Ni19  1  0.41898000  0.75897000  0.60678600  1
  Cu  Cu20  1  0.49298700  0.36351500  0.89768000  1
  Cu  Cu21  1  0.99298700  0.13648500  0.10232000  1
  Cu  Cu22  1  0.50701300  0.63648500  0.10232000  1
  Cu  Cu23  1  0.00701300  0.86351500  0.89768000  1
  Cu  Cu24  1  0.67456100  0.29775800  0.77239200  1
  Cu  Cu25  1  0.17456100  0.20224200  0.22760800  1
  Cu  Cu26  1  0.32543900  0.70224200  0.22760800  1
  Cu  Cu27  1  0.82543900  0.79775800  0.77239200  1
  Cu  Cu28  1  0.65434600  0.14162500  0.94271300  1
  Cu  Cu29  1  0.15434600  0.35837500  0.05728700  1
  Cu  Cu30  1  0.34565400  0.85837500  0.05728700  1
  Cu  Cu31  1  0.84565400  0.64162500  0.94271300  1
  Cu  Cu32  1  0.49500600  0.09763500  0.80109800  1
  Cu  Cu33  1  0.99500600  0.40236500  0.19890200  1
  Cu  Cu34  1  0.50499400  0.90236500  0.19890200  1
  Cu  Cu35  1  0.00499400  0.59763500  0.80109800  1
  Cu  Cu36  1  0.93488300  0.26101500  0.62838300  1
  Cu  Cu37  1  0.43488300  0.23898500  0.37161700  1
  Cu  Cu38  1  0.06511700  0.73898500  0.37161700  1
  Cu  Cu39  1  0.56511700  0.76101500  0.62838300  1
  Cu  Cu40  1  0.11748400  0.17174700  0.51270500  1
  Cu  Cu41  1  0.61748400  0.32825300  0.48729500  1
  Cu  Cu42  1  0.88251600  0.82825300  0.48729500  1
  Cu  Cu43  1  0.38251600  0.67174700  0.51270500  1
  Cu  Cu44  1  0.13451000  0.16572200  0.71058800  1
  Cu  Cu45  1  0.63451000  0.33427800  0.28941200  1
  Cu  Cu46  1  0.86549000  0.83427800  0.28941200  1
  Cu  Cu47  1  0.36549000  0.66572200  0.71058800  1
  Cu  Cu48  1  0.13882200  0.43098000  0.60330400  1
  Cu  Cu49  1  0.63882200  0.06902000  0.39669600  1
  Cu  Cu50  1  0.86117800  0.56902000  0.39669600  1
  Cu  Cu51  1  0.36117800  0.93098000  0.60330400  1
  Cu  Cu52  1  0.21933700  0.48363300  0.83509900  1
  Cu  Cu53  1  0.71933700  0.01636700  0.16490100  1
  Cu  Cu54  1  0.78066300  0.51636700  0.16490100  1
  Cu  Cu55  1  0.28066300  0.98363300  0.83509900  1
  Cu  Cu56  1  0.36945600  0.30851000  0.65244300  1
  Cu  Cu57  1  0.86945600  0.19149000  0.34755700  1
  Cu  Cu58  1  0.63054400  0.69149000  0.34755700  1
  Cu  Cu59  1  0.13054400  0.80851000  0.65244300  1
