# generated using pymatgen
data_Cu3NiC36
_symmetry_space_group_name_H-M   'P 1'
_cell_length_a   9.82312700
_cell_length_b   9.84397031
_cell_length_c   9.89290380
_cell_angle_alpha   87.38846496
_cell_angle_beta   86.96390056
_cell_angle_gamma   87.24129586
_symmetry_Int_Tables_number   1
_chemical_formula_structural   Cu3NiC36
_chemical_formula_sum   'Cu6 Ni2 C72'
_cell_volume   953.29209746
_cell_formula_units_Z   2
loop_
 _symmetry_equiv_pos_site_id
 _symmetry_equiv_pos_as_xyz
  1  'x, y, z'
loop_
 _atom_site_type_symbol
 _atom_site_label
 _atom_site_symmetry_multiplicity
 _atom_site_fract_x
 _atom_site_fract_y
 _atom_site_fract_z
 _atom_site_occupancy
  C  C0  1  0.00199600  0.04718400  0.98462200  1
  C  C1  1  0.05218100  0.73489600  0.14501700  1
  C  C2  1  0.13358300  0.06872600  0.73314000  1
  C  C3  1  0.22591800  0.55089000  0.64670500  1
  C  C4  1  0.27436200  0.85050100  0.95196900  1
  C  C5  1  0.36605100  0.76886600  0.43216800  1
  C  C6  1  0.44367900  0.35934300  0.76070300  1
  C  C7  1  0.49525300  0.51581000  0.45230500  1
  C  C8  1  0.64357200  0.23403400  0.54340600  1
  C  C9  1  0.77209100  0.46847000  0.34443500  1
  C  C10  1  0.73040600  0.14786500  0.03821100  1
  C  C11  1  0.85371800  0.95053400  0.26737900  1
  Ni  Ni12  1  0.25160900  0.47102200  0.03051600  1
  Ni  Ni13  1  0.97112600  0.75413900  0.53132800  1
  Cu  Cu14  1  0.03193900  0.25720700  0.47611300  1
  Cu  Cu15  1  0.24948400  0.25006700  0.25111000  1
  Cu  Cu16  1  0.46811200  0.02378800  0.24257300  1
  Cu  Cu17  1  0.53415700  0.96313900  0.74839300  1
  Cu  Cu18  1  0.75026700  0.52922300  0.97158000  1
  Cu  Cu19  1  0.75257500  0.74611700  0.75124700  1
  C  C20  1  0.05428100  0.66883300  0.85805400  1
  C  C21  1  0.14429000  0.95267000  0.33182800  1
  C  C22  1  0.17347400  0.55250700  0.35867900  1
  C  C23  1  0.32666900  0.14133200  0.95043300  1
  C  C24  1  0.35516900  0.16767200  0.54596600  1
  C  C25  1  0.44772900  0.64617600  0.82943800  1
  C  C26  1  0.54724300  0.34660600  0.17415400  1
  C  C27  1  0.64522100  0.82202000  0.45020300  1
  C  C28  1  0.67527800  0.85139300  0.04665700  1
  C  C29  1  0.82872200  0.45324400  0.64885000  1
  C  C30  1  0.85238700  0.04661000  0.67398600  1
  C  C31  1  0.95197000  0.32574600  0.15555400  1
  C  C32  1  0.03212700  0.61577300  0.40926600  1
  C  C33  1  0.05289300  0.90783900  0.22367200  1
  C  C34  1  0.11328000  0.33360600  0.12291000  1
  C  C35  1  0.12042700  0.11282300  0.33737900  1
  C  C36  1  0.09362800  0.69204700  0.70642900  1
  C  C37  1  0.10616600  0.88693600  0.47385000  1
  C  C38  1  0.09567500  0.77813400  0.95118500  1
  C  C39  1  0.12075100  0.52617500  0.90026000  1
  C  C40  1  0.17087200  0.39157900  0.38155900  1
  C  C41  1  0.18864200  0.59266700  0.20711700  1
  C  C42  1  0.19942600  0.19376500  0.58267600  1
  C  C43  1  0.20910900  0.05624800  0.90969300  1
  C  C44  1  0.32751100  0.11900500  0.11111300  1
  C  C45  1  0.28731100  0.59364800  0.44736800  1
  C  C46  1  0.29898300  0.91503300  0.30475600  1
  C  C47  1  0.31650500  0.29396700  0.90921800  1
  C  C48  1  0.37908600  0.16423000  0.38542200  1
  C  C49  1  0.38587900  0.37978100  0.16722000  1
  C  C50  1  0.39526800  0.02814900  0.61117600  1
  C  C51  1  0.37710500  0.61096300  0.97090000  1
  C  C52  1  0.40229200  0.55406100  0.72144400  1
  C  C53  1  0.44395100  0.28084800  0.58883500  1
  C  C54  1  0.41198500  0.80088300  0.80205000  1
  C  C55  1  0.46562000  0.08250500  0.89153000  1
  C  C56  1  0.53046800  0.89024900  0.10758300  1
  C  C57  1  0.57699100  0.18909500  0.17817300  1
  C  C58  1  0.59285300  0.41192700  0.29949200  1
  C  C59  1  0.55803700  0.70514700  0.41687200  1
  C  C60  1  0.61370800  0.39787000  0.03795500  1
  C  C61  1  0.59405300  0.96046900  0.38572700  1
  C  C62  1  0.60676200  0.62237100  0.83746300  1
  C  C63  1  0.62532200  0.83113700  0.61245200  1
  C  C64  1  0.69489100  0.08188100  0.68735600  1
  C  C65  1  0.70947700  0.69929600  0.07715600  1
  C  C66  1  0.72103000  0.40827200  0.55567400  1
  C  C67  1  0.67418200  0.87791200  0.88552700  1
  C  C68  1  0.78067500  0.94797400  0.09134800  1
  C  C69  1  0.79703200  0.42470700  0.80085000  1
  C  C70  1  0.79871800  0.80689200  0.40839500  1
  C  C71  1  0.83398200  0.61522600  0.61926300  1
  C  C72  1  0.88177400  0.46261800  0.11000100  1
  C  C73  1  0.90687600  0.20150200  0.08783100  1
  C  C74  1  0.89990500  0.11573500  0.53773000  1
  C  C75  1  0.92295800  0.31863900  0.31287200  1
  C  C76  1  0.87969200  0.88469100  0.66203400  1
  C  C77  1  0.93475300  0.08218800  0.79226700  1
  C  C78  1  0.89378700  0.66102200  0.87750600  1
  C  C79  1  0.97307100  0.39262700  0.60798300  1
