# generated using pymatgen
data_Cu8Ni3C
_symmetry_space_group_name_H-M   'P 1'
_cell_length_a   8.52875396
_cell_length_b   8.52875396
_cell_length_c   8.52875370
_cell_angle_alpha   33.54265830
_cell_angle_beta   33.54265830
_cell_angle_gamma   33.54265646
_symmetry_Int_Tables_number   1
_chemical_formula_structural   Cu8Ni3C
_chemical_formula_sum   'Cu8 Ni3 C1'
_cell_volume   168.71140576
_cell_formula_units_Z   1
loop_
 _symmetry_equiv_pos_site_id
 _symmetry_equiv_pos_as_xyz
  1  'x, y, z'
loop_
 _atom_site_type_symbol
 _atom_site_label
 _atom_site_symmetry_multiplicity
 _atom_site_fract_x
 _atom_site_fract_y
 _atom_site_fract_z
 _atom_site_occupancy
  Ni  Ni0  1  0.62453100  0.62453100  0.62453100  1
  Ni  Ni1  1  0.00378900  0.00378900  0.00378900  1
  Ni  Ni2  1  0.49690100  0.49690100  0.49690100  1
  C  C3  1  0.12557900  0.12557900  0.12557900  1
  Cu  Cu4  1  0.56385900  0.06319500  0.56385900  1
  Cu  Cu5  1  0.06243400  0.55860900  0.06243400  1
  Cu  Cu6  1  0.06319500  0.56385900  0.56385900  1
  Cu  Cu7  1  0.55860900  0.06243400  0.06243400  1
  Cu  Cu8  1  0.81230300  0.81230300  0.81230300  1
  Cu  Cu9  1  0.31250700  0.31250700  0.31250700  1
  Cu  Cu10  1  0.56385900  0.56385900  0.06319500  1
  Cu  Cu11  1  0.06243400  0.06243400  0.55860900  1
