# generated using pymatgen
data_CuNiC5
_symmetry_space_group_name_H-M   'P 1'
_cell_length_a   5.47906100
_cell_length_b   9.20626000
_cell_length_c   20.65820000
_cell_angle_alpha   90.00000000
_cell_angle_beta   90.00000000
_cell_angle_gamma   90.00000000
_symmetry_Int_Tables_number   1
_chemical_formula_structural   CuNiC5
_chemical_formula_sum   'Cu12 Ni12 C60'
_cell_volume   1042.03390313
_cell_formula_units_Z   12
loop_
 _symmetry_equiv_pos_site_id
 _symmetry_equiv_pos_as_xyz
  1  'x, y, z'
loop_
 _atom_site_type_symbol
 _atom_site_label
 _atom_site_symmetry_multiplicity
 _atom_site_fract_x
 _atom_site_fract_y
 _atom_site_fract_z
 _atom_site_occupancy
  Ni  Ni0  1  0.28356900  0.42795300  0.22376900  1
  Ni  Ni1  1  0.73779200  0.93616200  0.94263400  1
  Ni  Ni2  1  0.23779200  0.06383800  0.05736600  1
  Ni  Ni3  1  0.73779200  0.56383800  0.44263400  1
  Ni  Ni4  1  0.23779200  0.43616200  0.55736600  1
  Ni  Ni5  1  0.78356900  0.57204700  0.77623100  1
  Ni  Ni6  1  0.78356900  0.92795300  0.27623100  1
  Ni  Ni7  1  0.28356900  0.07204700  0.72376900  1
  Ni  Ni8  1  0.76794900  0.92456400  0.60819100  1
  Ni  Ni9  1  0.26794900  0.07543600  0.39180900  1
  Ni  Ni10  1  0.76794900  0.57543600  0.10819100  1
  Ni  Ni11  1  0.26794900  0.42456400  0.89180900  1
  Cu  Cu12  1  0.29450000  0.79620000  0.83481000  1
  Cu  Cu13  1  0.79450000  0.20380000  0.16519000  1
  Cu  Cu14  1  0.29450000  0.70380000  0.33481000  1
  Cu  Cu15  1  0.79450000  0.29620000  0.66519000  1
  Cu  Cu16  1  0.27200700  0.70522800  0.66881300  1
  Cu  Cu17  1  0.77200700  0.29477200  0.33118700  1
  Cu  Cu18  1  0.27200700  0.79477200  0.16881300  1
  Cu  Cu19  1  0.77200700  0.20522800  0.83118700  1
  Cu  Cu20  1  0.23584000  0.79885000  0.50211200  1
  Cu  Cu21  1  0.73584000  0.20115000  0.49788800  1
  Cu  Cu22  1  0.23584000  0.70115000  0.00211200  1
  Cu  Cu23  1  0.73584000  0.29885000  0.99788800  1
  C  C24  1  0.27630400  0.08913600  0.57466900  1
  C  C25  1  0.24164600  0.41219700  0.40743600  1
  C  C26  1  0.74164600  0.91219700  0.09256400  1
  C  C27  1  0.24164600  0.08780300  0.90743600  1
  C  C28  1  0.77434700  0.91626400  0.75780100  1
  C  C29  1  0.27434700  0.08373600  0.24219900  1
  C  C30  1  0.74164600  0.58780300  0.59256400  1
  C  C31  1  0.77434700  0.58373600  0.25780100  1
  C  C32  1  0.27434700  0.41626400  0.74219900  1
  C  C33  1  0.77630400  0.58913600  0.92533100  1
  C  C34  1  0.27630400  0.41086400  0.07466900  1
  C  C35  1  0.77630400  0.91086400  0.42533100  1
  C  C36  1  0.05486400  0.19414100  0.58141600  1
  C  C37  1  0.55486400  0.80585900  0.41858400  1
  C  C38  1  0.05486400  0.30585900  0.08141600  1
  C  C39  1  0.55486400  0.69414100  0.91858400  1
  C  C40  1  0.51153400  0.15944200  0.60376200  1
  C  C41  1  0.01153400  0.84055800  0.39623800  1
  C  C42  1  0.51153400  0.34055800  0.10376200  1
  C  C43  1  0.01153400  0.65944200  0.89623800  1
  C  C44  1  0.21974800  0.94378400  0.61005900  1
  C  C45  1  0.71974800  0.05621600  0.38994100  1
  C  C46  1  0.21974800  0.55621600  0.11005900  1
  C  C47  1  0.71974800  0.44378400  0.88994100  1
  C  C48  1  0.33398800  0.05754700  0.50256000  1
  C  C49  1  0.83398800  0.94245300  0.49744000  1
  C  C50  1  0.33398800  0.44245300  0.00256000  1
  C  C51  1  0.83398800  0.55754700  0.99744000  1
  C  C52  1  0.03767900  0.35222100  0.77282000  1
  C  C53  1  0.53767900  0.64777900  0.22718000  1
  C  C54  1  0.03767900  0.14777900  0.27282000  1
  C  C55  1  0.53767900  0.85222100  0.72718000  1
  C  C56  1  0.48663900  0.16780900  0.92121600  1
  C  C57  1  0.49088300  0.30844900  0.75161600  1
  C  C58  1  0.49088300  0.19155100  0.25161600  1
  C  C59  1  0.99088300  0.80844900  0.74838400  1
  C  C60  1  0.33471900  0.56466300  0.77519200  1
  C  C61  1  0.83471900  0.43533700  0.22480800  1
  C  C62  1  0.33471900  0.93533700  0.27519200  1
  C  C63  1  0.83471900  0.06466300  0.72480800  1
  C  C64  1  0.21840000  0.44164500  0.66967400  1
  C  C65  1  0.71840000  0.55835500  0.33032600  1
  C  C66  1  0.21840000  0.05835500  0.16967400  1
  C  C67  1  0.71840000  0.94164500  0.83032600  1
  C  C68  1  0.02370900  0.18799800  0.92658600  1
  C  C69  1  0.52370900  0.81200200  0.07341400  1
  C  C70  1  0.02370900  0.31200200  0.42658600  1
  C  C71  1  0.52370900  0.68799800  0.57341400  1
  C  C72  1  0.71918200  0.55186400  0.66528600  1
  C  C73  1  0.21918200  0.44813600  0.33471400  1
  C  C74  1  0.71918200  0.94813600  0.16528600  1
  C  C75  1  0.21918200  0.05186400  0.83471400  1
  C  C76  1  0.73140100  0.44398000  0.55266900  1
  C  C77  1  0.23140100  0.55602000  0.44733100  1
  C  C78  1  0.73140100  0.05602000  0.05266900  1
  C  C79  1  0.23140100  0.94398000  0.94733100  1
  C  C80  1  0.98663900  0.66780900  0.57878400  1
  C  C81  1  0.48663900  0.33219100  0.42121600  1
  C  C82  1  0.98663900  0.83219100  0.07878400  1
  C  C83  1  0.99088300  0.69155100  0.24838400  1
