# generated using pymatgen
data_Cu(NiC2)3
_symmetry_space_group_name_H-M   'P 1'
_cell_length_a   6.38848790
_cell_length_b   5.65382561
_cell_length_c   8.39211699
_cell_angle_alpha   71.78971486
_cell_angle_beta   89.84028547
_cell_angle_gamma   127.12965295
_symmetry_Int_Tables_number   1
_chemical_formula_structural   Cu(NiC2)3
_chemical_formula_sum   'Cu1 Ni3 C6'
_cell_volume   222.10994973
_cell_formula_units_Z   1
loop_
 _symmetry_equiv_pos_site_id
 _symmetry_equiv_pos_as_xyz
  1  'x, y, z'
loop_
 _atom_site_type_symbol
 _atom_site_label
 _atom_site_symmetry_multiplicity
 _atom_site_fract_x
 _atom_site_fract_y
 _atom_site_fract_z
 _atom_site_occupancy
  Ni  Ni0  1  0.00000000  0.00000000  0.50000000  1
  Ni  Ni1  1  0.50000000  0.50000000  0.00000000  1
  Ni  Ni2  1  0.00000000  0.50000000  0.00000000  1
  Cu  Cu3  1  0.00000000  0.00000000  0.00000000  1
  C  C4  1  0.96831600  0.30007700  0.82174500  1
  C  C5  1  0.03168400  0.69992300  0.17825500  1
  C  C6  1  0.78842000  0.73638000  0.71320800  1
  C  C7  1  0.21158000  0.26362000  0.28679200  1
  C  C8  1  0.39192700  0.75944500  0.92601400  1
  C  C9  1  0.60807300  0.24055500  0.07398600  1
