# generated using pymatgen
data_CuNiC8
_symmetry_space_group_name_H-M   'P 1'
_cell_length_a   15.08929084
_cell_length_b   15.08929084
_cell_length_c   8.01329436
_cell_angle_alpha   74.63132644
_cell_angle_beta   74.63132644
_cell_angle_gamma   21.64303978
_symmetry_Int_Tables_number   1
_chemical_formula_structural   CuNiC8
_chemical_formula_sum   'Cu5 Ni5 C40'
_cell_volume   647.96527663
_cell_formula_units_Z   5
loop_
 _symmetry_equiv_pos_site_id
 _symmetry_equiv_pos_as_xyz
  1  'x, y, z'
loop_
 _atom_site_type_symbol
 _atom_site_label
 _atom_site_symmetry_multiplicity
 _atom_site_fract_x
 _atom_site_fract_y
 _atom_site_fract_z
 _atom_site_occupancy
  C  C0  1  0.50198700  0.50198700  0.25671200  1
  C  C1  1  0.89914200  0.89914200  0.84094900  1
  C  C2  1  0.30370400  0.30370400  0.44907600  1
  C  C3  1  0.89537900  0.89537900  0.36152100  1
  C  C4  1  0.50318800  0.50318800  0.74095600  1
  C  C5  1  0.69772800  0.69772800  0.04512800  1
  C  C6  1  0.29940000  0.29940000  0.94532900  1
  C  C7  1  0.10556900  0.10556900  0.65670200  1
  C  C8  1  0.69115600  0.69115600  0.57634300  1
  C  C9  1  0.09982200  0.09982200  0.14798600  1
  Ni  Ni10  1  0.99998900  0.99998900  0.00295200  1
  Ni  Ni11  1  0.99974700  0.99974700  0.49985500  1
  Ni  Ni12  1  0.39761300  0.39761300  0.10526400  1
  Ni  Ni13  1  0.79948000  0.79948000  0.70042500  1
  Ni  Ni14  1  0.20227400  0.20227400  0.30289100  1
  Cu  Cu15  1  0.40095400  0.40095400  0.59953200  1
  Cu  Cu16  1  0.79882800  0.79882800  0.19841600  1
  Cu  Cu17  1  0.20048200  0.20048200  0.80155000  1
  Cu  Cu18  1  0.60019500  0.60019500  0.40035900  1
  Cu  Cu19  1  0.59975400  0.59975400  0.90037500  1
  C  C20  1  0.70659300  0.19935200  0.58020600  1
  C  C21  1  0.98403000  0.98403000  0.26239300  1
  C  C22  1  0.01570600  0.01570600  0.73497700  1
  C  C23  1  0.19935200  0.70659300  0.58020600  1
  C  C24  1  0.19992800  0.70156100  0.00921400  1
  C  C25  1  0.10498800  0.59715900  0.18282100  1
  C  C26  1  0.38490300  0.38490300  0.87141200  1
  C  C27  1  0.41359000  0.41359000  0.32680300  1
  C  C28  1  0.70156100  0.19992800  0.00921400  1
  C  C29  1  0.59715900  0.10498800  0.18282100  1
  C  C30  1  0.59954800  0.09535700  0.62069600  1
  C  C31  1  0.50422300  0.99630300  0.80354400  1
  C  C32  1  0.78123100  0.78123100  0.47839800  1
  C  C33  1  0.81390600  0.81390600  0.93056700  1
  C  C34  1  0.09535700  0.59954800  0.62069600  1
  C  C35  1  0.99630300  0.50422300  0.80354400  1
  C  C36  1  0.90922900  0.39655600  0.39765400  1
  C  C37  1  0.00505400  0.49278400  0.19230600  1
  C  C38  1  0.18095700  0.18095700  0.07921900  1
  C  C39  1  0.21804700  0.21804700  0.52305900  1
  C  C40  1  0.49278400  0.00505400  0.19230600  1
  C  C41  1  0.39655600  0.90922900  0.39765400  1
  C  C42  1  0.39523800  0.90567500  0.79989400  1
  C  C43  1  0.28555000  0.81083200  0.99483900  1
  C  C44  1  0.58673800  0.58673800  0.66216800  1
  C  C45  1  0.61855500  0.61855500  0.13257000  1
  C  C46  1  0.90567500  0.39523800  0.79989400  1
  C  C47  1  0.81083200  0.28555000  0.99483900  1
  C  C48  1  0.81490300  0.28511100  0.40188300  1
  C  C49  1  0.28511100  0.81490300  0.40188300  1
