# generated using pymatgen
data_CuNi6C
_symmetry_space_group_name_H-M   'P 1'
_cell_length_a   4.63801700
_cell_length_b   6.06931800
_cell_length_c   10.09992400
_cell_angle_alpha   90.00000000
_cell_angle_beta   90.00000000
_cell_angle_gamma   90.00000000
_symmetry_Int_Tables_number   1
_chemical_formula_structural   CuNi6C
_chemical_formula_sum   'Cu2 Ni12 C2'
_cell_volume   284.30882126
_cell_formula_units_Z   2
loop_
 _symmetry_equiv_pos_site_id
 _symmetry_equiv_pos_as_xyz
  1  'x, y, z'
loop_
 _atom_site_type_symbol
 _atom_site_label
 _atom_site_symmetry_multiplicity
 _atom_site_fract_x
 _atom_site_fract_y
 _atom_site_fract_z
 _atom_site_occupancy
  Ni  Ni0  1  0.50000000  0.24940500  0.58421700  1
  Ni  Ni1  1  0.50000000  0.75059500  0.58421700  1
  Ni  Ni2  1  0.00000000  0.25119700  0.40873200  1
  Ni  Ni3  1  0.00000000  0.74880300  0.40873200  1
  Ni  Ni4  1  0.00000000  0.00000000  0.67507700  1
  Ni  Ni5  1  0.00000000  0.00000000  0.17458700  1
  Ni  Ni6  1  0.50000000  0.74940500  0.08421700  1
  Ni  Ni7  1  0.50000000  0.25059500  0.08421700  1
  Ni  Ni8  1  0.00000000  0.75119700  0.90873200  1
  Ni  Ni9  1  0.00000000  0.24880300  0.90873200  1
  Ni  Ni10  1  0.00000000  0.50000000  0.17507700  1
  Ni  Ni11  1  0.00000000  0.50000000  0.67458700  1
  C  C12  1  0.50000000  0.00000000  0.83205500  1
  C  C13  1  0.50000000  0.50000000  0.33205500  1
  Cu  Cu14  1  0.50000000  0.00000000  0.33238900  1
  Cu  Cu15  1  0.50000000  0.50000000  0.83238900  1
