# generated using pymatgen
data_Cu2NiC11
_symmetry_space_group_name_H-M   'P 1'
_cell_length_a   14.89118387
_cell_length_b   14.89118387
_cell_length_c   5.88822552
_cell_angle_alpha   84.13552108
_cell_angle_beta   84.13552108
_cell_angle_gamma   11.21057840
_symmetry_Int_Tables_number   1
_chemical_formula_structural   Cu2NiC11
_chemical_formula_sum   'Cu4 Ni2 C22'
_cell_volume   252.50658202
_cell_formula_units_Z   2
loop_
 _symmetry_equiv_pos_site_id
 _symmetry_equiv_pos_as_xyz
  1  'x, y, z'
loop_
 _atom_site_type_symbol
 _atom_site_label
 _atom_site_symmetry_multiplicity
 _atom_site_fract_x
 _atom_site_fract_y
 _atom_site_fract_z
 _atom_site_occupancy
  C  C0  1  0.57709100  0.57709100  0.21764200  1
  C  C1  1  0.71039000  0.71039000  0.64021300  1
  C  C2  1  0.85682600  0.85682600  0.07157300  1
  C  C3  1  0.14575900  0.14575900  0.91480900  1
  C  C4  1  0.28347000  0.28347000  0.35928300  1
  C  C5  1  0.42533900  0.42533900  0.78744900  1
  C  C6  1  0.00068700  0.00068700  0.49864800  1
  C  C7  1  0.14568700  0.14568700  0.43556600  1
  Ni  Ni8  1  0.00064900  0.00064900  0.00128500  1
  Ni  Ni9  1  0.57737900  0.57737900  0.70742600  1
  Cu  Cu10  1  0.28326000  0.28326000  0.85575400  1
  Cu  Cu11  1  0.42590900  0.42590900  0.28601300  1
  Cu  Cu12  1  0.71038800  0.71038800  0.15132200  1
  Cu  Cu13  1  0.85572800  0.85572800  0.57521200  1
  C  C14  1  0.50001500  0.50001500  0.22988300  1
  C  C15  1  0.63877400  0.63877400  0.67553800  1
  C  C16  1  0.77746400  0.77746400  0.09646200  1
  C  C17  1  0.07492000  0.07492000  0.93657300  1
  C  C18  1  0.21475000  0.21475000  0.37126500  1
  C  C19  1  0.35340700  0.35340700  0.81655500  1
  C  C20  1  0.92732300  0.92732300  0.52182200  1
  C  C21  1  0.65185800  0.65185800  0.17160200  1
  C  C22  1  0.78594500  0.78594500  0.62491000  1
  C  C23  1  0.92722200  0.92722200  0.05362200  1
  C  C24  1  0.21514700  0.21514700  0.90625400  1
  C  C25  1  0.35704000  0.35704000  0.33415800  1
  C  C26  1  0.50537400  0.50537400  0.76993500  1
  C  C27  1  0.07220000  0.07220000  0.48922600  1
