# generated using pymatgen
data_Cu9NiC2
_symmetry_space_group_name_H-M   'P 1'
_cell_length_a   6.15202725
_cell_length_b   6.30192887
_cell_length_c   11.32917500
_cell_angle_alpha   90.00000000
_cell_angle_beta   90.00000000
_cell_angle_gamma   106.39092315
_symmetry_Int_Tables_number   1
_chemical_formula_structural   Cu9NiC2
_chemical_formula_sum   'Cu18 Ni2 C4'
_cell_volume   421.37721402
_cell_formula_units_Z   2
loop_
 _symmetry_equiv_pos_site_id
 _symmetry_equiv_pos_as_xyz
  1  'x, y, z'
loop_
 _atom_site_type_symbol
 _atom_site_label
 _atom_site_symmetry_multiplicity
 _atom_site_fract_x
 _atom_site_fract_y
 _atom_site_fract_z
 _atom_site_occupancy
  C  C0  1  0.71535200  0.77433400  0.17867400  1
  C  C1  1  0.28464800  0.22566600  0.67867400  1
  C  C2  1  0.89465200  0.64331500  0.87222500  1
  C  C3  1  0.10534800  0.35668500  0.37222500  1
  Ni  Ni4  1  0.42352000  0.74435600  0.85568800  1
  Ni  Ni5  1  0.57648000  0.25564400  0.35568800  1
  Cu  Cu6  1  0.86082400  0.72412100  0.60686100  1
  Cu  Cu7  1  0.13917600  0.27587900  0.10686100  1
  Cu  Cu8  1  0.73443500  0.70101000  0.51755400  1
  Cu  Cu9  1  0.26556500  0.29899000  0.01755400  1
  Cu  Cu10  1  0.45121900  0.80913500  0.97874900  1
  Cu  Cu11  1  0.54878100  0.19086500  0.47874900  1
  Cu  Cu12  1  0.47208400  0.92287200  0.77018900  1
  Cu  Cu13  1  0.52791600  0.07712800  0.27018900  1
  Cu  Cu14  1  0.56855200  0.58496000  0.82821200  1
  Cu  Cu15  1  0.43144800  0.41504000  0.32821200  1
  Cu  Cu16  1  0.82691200  0.54681800  0.67720700  1
  Cu  Cu17  1  0.17308800  0.45318200  0.17720700  1
  Cu  Cu18  1  0.81519400  0.41438500  0.33164400  1
  Cu  Cu19  1  0.18480600  0.58561500  0.83164400  1
  Cu  Cu20  1  0.85178900  0.53453800  0.00553300  1
  Cu  Cu21  1  0.14821100  0.46546200  0.50553300  1
  Cu  Cu22  1  0.97180600  0.91259900  0.88426400  1
  Cu  Cu23  1  0.02819400  0.08740100  0.38426400  1
