# generated using pymatgen
data_Cu6Ni2C29
_symmetry_space_group_name_H-M   'P 1'
_cell_length_a   9.28266397
_cell_length_b   8.71043893
_cell_length_c   8.72303864
_cell_angle_alpha   60.01382171
_cell_angle_beta   62.21617739
_cell_angle_gamma   62.23017035
_symmetry_Int_Tables_number   1
_chemical_formula_structural   Cu6Ni2C29
_chemical_formula_sum   'Cu6 Ni2 C29'
_cell_volume   514.89382577
_cell_formula_units_Z   1
loop_
 _symmetry_equiv_pos_site_id
 _symmetry_equiv_pos_as_xyz
  1  'x, y, z'
loop_
 _atom_site_type_symbol
 _atom_site_label
 _atom_site_symmetry_multiplicity
 _atom_site_fract_x
 _atom_site_fract_y
 _atom_site_fract_z
 _atom_site_occupancy
  C  C0  1  0.74738300  0.74754800  0.75253200  1
  C  C1  1  0.08723200  0.63676500  0.64036600  1
  C  C2  1  0.40262400  0.87101400  0.86648300  1
  C  C3  1  0.97443700  0.34550100  0.34031800  1
  C  C4  1  0.53311000  0.15159400  0.15986900  1
  Ni  Ni5  1  0.93919300  0.02127600  0.01844800  1
  Ni  Ni6  1  0.55045900  0.48515300  0.48051200  1
  Cu  Cu7  1  0.25347600  0.25139600  0.53700500  1
  Cu  Cu8  1  0.25320200  0.96068300  0.24888200  1
  Cu  Cu9  1  0.25697700  0.53401600  0.95870200  1
  Cu  Cu10  1  0.75467900  0.45486800  0.04795800  1
  Cu  Cu11  1  0.75058600  0.04628900  0.74525300  1
  Cu  Cu12  1  0.75332800  0.74494700  0.45649600  1
  C  C13  1  0.08655500  0.12669400  0.29383100  1
  C  C14  1  0.08327000  0.50436500  0.12019200  1
  C  C15  1  0.08247500  0.30014200  0.49648200  1
  C  C16  1  0.25956400  0.06517200  0.70414100  1
  C  C17  1  0.40961200  0.24543600  0.36852600  1
  C  C18  1  0.22848500  0.40334000  0.59702800  1
  C  C19  1  0.25924700  0.97730100  0.06006700  1
  C  C20  1  0.21987500  0.77708300  0.39756400  1
  C  C21  1  0.59774500  0.62937300  0.01063600  1
  C  C22  1  0.22829200  0.60034500  0.77118400  1
  C  C23  1  0.73557400  0.27885100  0.06690300  1
  C  C24  1  0.59351500  0.00520300  0.76712700  1
  C  C25  1  0.41344400  0.97016900  0.24531000  1
  C  C26  1  0.27957200  0.69363300  0.96807100  1
  C  C27  1  0.77868200  0.42167500  0.22901000  1
  C  C28  1  0.40662000  0.35845800  0.97730300  1
  C  C29  1  0.77199500  0.22814600  0.57399400  1
  C  C30  1  0.73281700  0.06460700  0.92062800  1
  C  C31  1  0.77483600  0.57419300  0.42294700  1
  C  C32  1  0.59546800  0.76788700  0.62924700  1
  C  C33  1  0.73776500  0.92080700  0.28039800  1
  C  C34  1  0.90902700  0.70649800  0.50826800  1
  C  C35  1  0.90997200  0.50292300  0.87750500  1
  C  C36  1  0.90605000  0.87665600  0.71081400  1
