# generated using pymatgen
data_CuNi4C13
_symmetry_space_group_name_H-M   'P 1'
_cell_length_a   9.01849768
_cell_length_b   9.01849768
_cell_length_c   3.54499334
_cell_angle_alpha   84.99084610
_cell_angle_beta   84.99084610
_cell_angle_gamma   126.41076246
_symmetry_Int_Tables_number   1
_chemical_formula_structural   CuNi4C13
_chemical_formula_sum   'Cu1 Ni4 C13'
_cell_volume   227.64541931
_cell_formula_units_Z   1
loop_
 _symmetry_equiv_pos_site_id
 _symmetry_equiv_pos_as_xyz
  1  'x, y, z'
loop_
 _atom_site_type_symbol
 _atom_site_label
 _atom_site_symmetry_multiplicity
 _atom_site_fract_x
 _atom_site_fract_y
 _atom_site_fract_z
 _atom_site_occupancy
  Ni  Ni0  1  0.32840700  0.55237800  0.27728500  1
  Ni  Ni1  1  0.55237800  0.32840700  0.27728500  1
  Ni  Ni2  1  0.87805400  0.24242400  0.94910400  1
  Ni  Ni3  1  0.24242400  0.87805400  0.94910400  1
  Cu  Cu4  1  0.80209300  0.80209300  0.60271400  1
  C  C5  1  0.17038900  0.17038900  0.90495900  1
  C  C6  1  0.94024400  0.55281700  0.52434000  1
  C  C7  1  0.55281700  0.94024400  0.52434000  1
  C  C8  1  0.02249000  0.74219700  0.52601000  1
  C  C9  1  0.74219700  0.02249000  0.52601000  1
  C  C10  1  0.63349200  0.63349200  0.18039200  1
  C  C11  1  0.18233700  0.33125300  0.85768600  1
  C  C12  1  0.33125300  0.18233700  0.85768600  1
  C  C13  1  0.99562300  0.99562300  0.99934900  1
  C  C14  1  0.03602700  0.49888000  0.33005100  1
  C  C15  1  0.49888000  0.03602700  0.33005100  1
  C  C16  1  0.76116300  0.41623000  0.72136600  1
  C  C17  1  0.41623000  0.76116300  0.72136600  1
