# generated using pymatgen
data_Cu2Ni2C13
_symmetry_space_group_name_H-M   'P 1'
_cell_length_a   10.64525480
_cell_length_b   10.64525480
_cell_length_c   15.15420308
_cell_angle_alpha   90.00000000
_cell_angle_beta   90.00000000
_cell_angle_gamma   119.99999633
_symmetry_Int_Tables_number   1
_chemical_formula_structural   Cu2Ni2C13
_chemical_formula_sum   'Cu12 Ni12 C78'
_cell_volume   1487.22224428
_cell_formula_units_Z   6
loop_
 _symmetry_equiv_pos_site_id
 _symmetry_equiv_pos_as_xyz
  1  'x, y, z'
loop_
 _atom_site_type_symbol
 _atom_site_label
 _atom_site_symmetry_multiplicity
 _atom_site_fract_x
 _atom_site_fract_y
 _atom_site_fract_z
 _atom_site_occupancy
  C  C0  1  0.32018547  0.66596474  0.94407813  1
  C  C1  1  0.34577926  0.67981453  0.61074513  1
  C  C2  1  0.67981453  0.33403526  0.44407813  1
  C  C3  1  0.33403526  0.65422074  0.27741113  1
  C  C4  1  0.65422074  0.32018547  0.11074513  1
  C  C5  1  0.66596474  0.34577926  0.77741113  1
  C  C6  1  0.83176586  0.02769215  0.87547926  1
  C  C7  1  0.19592629  0.16823414  0.54214626  1
  C  C8  1  0.16823414  0.97230785  0.37547926  1
  C  C9  1  0.97230785  0.80407371  0.20881226  1
  C  C10  1  0.80407371  0.83176586  0.04214626  1
  C  C11  1  0.02769215  0.19592629  0.70881226  1
  Ni  Ni12  1  0.69332432  0.84724089  0.60997738  1
  Ni  Ni13  1  0.15391657  0.30667568  0.27664438  1
  Ni  Ni14  1  0.30667568  0.15275911  0.10997738  1
  Ni  Ni15  1  0.15275911  0.84608343  0.94331038  1
  Ni  Ni16  1  0.84608343  0.69332432  0.77664438  1
  Ni  Ni17  1  0.84724089  0.15391657  0.44331038  1
  Ni  Ni18  1  0.99060736  0.49975842  0.60603058  1
  Ni  Ni19  1  0.50915107  0.00939264  0.27269758  1
  Ni  Ni20  1  0.00939264  0.50024158  0.10603058  1
  Ni  Ni21  1  0.50024158  0.49084893  0.93936358  1
  Ni  Ni22  1  0.49084893  0.99060736  0.77269758  1
  Ni  Ni23  1  0.49975842  0.50915107  0.43936358  1
  Cu  Cu24  1  0.58988338  0.83053076  0.41684441  1
  Cu  Cu25  1  0.24064739  0.41011662  0.08351141  1
  Cu  Cu26  1  0.41011662  0.16946924  0.91684441  1
  Cu  Cu27  1  0.16946924  0.75935261  0.75017741  1
  Cu  Cu28  1  0.75935261  0.58988338  0.58351141  1
  Cu  Cu29  1  0.83053076  0.24064739  0.25017741  1
  Cu  Cu30  1  0.58643570  0.75609632  0.80107607  1
  Cu  Cu31  1  0.16966062  0.41356430  0.46774307  1
  Cu  Cu32  1  0.41356430  0.24390368  0.30107607  1
  Cu  Cu33  1  0.24390368  0.83033938  0.13440907  1
  Cu  Cu34  1  0.83033938  0.58643570  0.96774307  1
  Cu  Cu35  1  0.75609632  0.16966062  0.63440907  1
  C  C36  1  0.54767948  0.72927676  0.70196436  1
  C  C37  1  0.18159728  0.45232052  0.36863136  1
  C  C38  1  0.45232052  0.27072324  0.20196436  1
  C  C39  1  0.27072324  0.81840272  0.03529736  1
  C  C40  1  0.81840272  0.54767948  0.86863136  1
  C  C41  1  0.72927676  0.18159728  0.53529736  1
  C  C42  1  0.58046507  0.89191011  0.83471053  1
  C  C43  1  0.31144504  0.41953493  0.50137753  1
  C  C44  1  0.41953493  0.10808989  0.33471053  1
  C  C45  1  0.10808989  0.68855496  0.16804353  1
  C  C46  1  0.68855496  0.58046507  0.00137753  1
  C  C47  1  0.89191011  0.31144504  0.66804353  1
  C  C48  1  0.75627471  0.94867978  0.40885607  1
  C  C49  1  0.19240508  0.24372529  0.07552307  1
  C  C50  1  0.24372529  0.05132022  0.90885607  1
  C  C51  1  0.05132022  0.80759492  0.74218907  1
  C  C52  1  0.80759492  0.75627471  0.57552307  1
  C  C53  1  0.94867978  0.19240508  0.24218907  1
  C  C54  1  0.50536443  0.12016400  0.86896314  1
  C  C55  1  0.61479957  0.49463557  0.53563014  1
  C  C56  1  0.49463557  0.87983600  0.36896314  1
  C  C57  1  0.87983600  0.38520043  0.20229614  1
  C  C58  1  0.38520043  0.50536443  0.03563014  1
  C  C59  1  0.12016400  0.61479957  0.70229614  1
  C  C60  1  0.66593632  0.06442123  0.01998130  1
  C  C61  1  0.39848492  0.33406368  0.68664830  1
  C  C62  1  0.33406368  0.93557877  0.51998130  1
  C  C63  1  0.93557877  0.60151508  0.35331430  1
  C  C64  1  0.60151508  0.66593632  0.18664830  1
  C  C65  1  0.06442123  0.39848492  0.85331430  1
  C  C66  1  0.74777198  0.79596069  0.81826070  1
  C  C67  1  0.04818871  0.25222802  0.48492770  1
  C  C68  1  0.25222802  0.20403931  0.31826070  1
  C  C69  1  0.20403931  0.95181129  0.15159370  1
  C  C70  1  0.95181129  0.74777198  0.98492770  1
  C  C71  1  0.79596069  0.04818871  0.65159370  1
  C  C72  1  0.97958772  0.08158675  0.01403006  1
  C  C73  1  0.10199903  0.02041228  0.68069706  1
  C  C74  1  0.02041228  0.91841325  0.51403006  1
  C  C75  1  0.91841325  0.89800097  0.34736306  1
  C  C76  1  0.89800097  0.97958772  0.18069706  1
  C  C77  1  0.08158675  0.10199903  0.84736306  1
  C  C78  1  0.56168829  0.68685724  0.37430058  1
  C  C79  1  0.12516895  0.43831171  0.04096758  1
  C  C80  1  0.43831171  0.31314276  0.87430058  1
  C  C81  1  0.31314276  0.87483105  0.70763358  1
  C  C82  1  0.87483105  0.56168829  0.54096758  1
  C  C83  1  0.68685724  0.12516895  0.20763358  1
  C  C84  1  0.93556867  0.31491091  0.87025281  1
  C  C85  1  0.37934223  0.06443133  0.53691981  1
  C  C86  1  0.06443133  0.68508909  0.37025281  1
  C  C87  1  0.68508909  0.62065777  0.20358581  1
  C  C88  1  0.62065777  0.93556867  0.03691981  1
  C  C89  1  0.31491091  0.37934223  0.70358581  1
  C  C90  1  0.47895561  0.62262024  0.85566392  1
  C  C91  1  0.14366463  0.52104439  0.52233092  1
  C  C92  1  0.52104439  0.37737976  0.35566392  1
  C  C93  1  0.37737976  0.85633537  0.18899692  1
  C  C94  1  0.85633537  0.47895561  0.02233092  1
  C  C95  1  0.62262024  0.14366463  0.68899692  1
  C  C96  1  0.54954318  0.80856117  0.51653071  1
  C  C97  1  0.25901799  0.45045682  0.18319771  1
  C  C98  1  0.45045682  0.19143883  0.01653071  1
  C  C99  1  0.19143883  0.74098201  0.84986371  1
  C  C100  1  0.74098201  0.54954318  0.68319771  1
  C  C101  1  0.80856117  0.25901799  0.34986371  1
