# generated using pymatgen
data_Cu3NiC4
_symmetry_space_group_name_H-M   'P 1'
_cell_length_a   5.50715783
_cell_length_b   6.01299064
_cell_length_c   6.38970041
_cell_angle_alpha   122.09500793
_cell_angle_beta   89.99999626
_cell_angle_gamma   86.63454235
_symmetry_Int_Tables_number   1
_chemical_formula_structural   Cu3NiC4
_chemical_formula_sum   'Cu6 Ni2 C8'
_cell_volume   178.82284157
_cell_formula_units_Z   2
loop_
 _symmetry_equiv_pos_site_id
 _symmetry_equiv_pos_as_xyz
  1  'x, y, z'
loop_
 _atom_site_type_symbol
 _atom_site_label
 _atom_site_symmetry_multiplicity
 _atom_site_fract_x
 _atom_site_fract_y
 _atom_site_fract_z
 _atom_site_occupancy
  C  C0  1  0.00000000  0.00000000  0.49739900  1
  C  C1  1  0.00000000  0.00000000  0.99893800  1
  C  C2  1  0.53528800  0.71928800  0.29687600  1
  C  C3  1  0.73230900  0.48537800  0.17660300  1
  C  C4  1  0.26769100  0.51462200  0.69122600  1
  C  C5  1  0.69676600  0.65443100  0.57754800  1
  C  C6  1  0.30323400  0.34556900  0.92311600  1
  C  C7  1  0.46471200  0.28071200  0.57758700  1
  Ni  Ni8  1  0.69131900  0.65890400  0.33148700  1
  Ni  Ni9  1  0.30868100  0.34109600  0.67258400  1
  Cu  Cu10  1  0.72304300  0.67689800  0.74150800  1
  Cu  Cu11  1  0.76878900  0.14449400  0.30824100  1
  Cu  Cu12  1  0.23121000  0.85550600  0.16374700  1
  Cu  Cu13  1  0.80419600  0.20432000  0.87118700  1
  Cu  Cu14  1  0.19580300  0.79568000  0.66686700  1
  Cu  Cu15  1  0.27695600  0.32310200  0.06461100  1
