# generated using pymatgen
data_CuNiC
_symmetry_space_group_name_H-M   'P 1'
_cell_length_a   4.26059000
_cell_length_b   4.26059000
_cell_length_c   7.99948951
_cell_angle_alpha   105.44445070
_cell_angle_beta   105.44445070
_cell_angle_gamma   90.00000000
_symmetry_Int_Tables_number   1
_chemical_formula_structural   CuNiC
_chemical_formula_sum   'Cu2 Ni2 C2'
_cell_volume   134.52004348
_cell_formula_units_Z   2
loop_
 _symmetry_equiv_pos_site_id
 _symmetry_equiv_pos_as_xyz
  1  'x, y, z'
loop_
 _atom_site_type_symbol
 _atom_site_label
 _atom_site_symmetry_multiplicity
 _atom_site_fract_x
 _atom_site_fract_y
 _atom_site_fract_z
 _atom_site_occupancy
  C  C0  1  0.58168600  0.58168600  0.16337200  1
  C  C1  1  0.83168600  0.33168600  0.66337200  1
  Ni  Ni2  1  0.16588200  0.16588200  0.33176400  1
  Ni  Ni3  1  0.41588200  0.91588200  0.83176400  1
  Cu  Cu4  1  0.99943200  0.99943200  0.99886400  1
  Cu  Cu5  1  0.24943200  0.74943200  0.49886400  1
