# generated using pymatgen
data_CuNiC8
_symmetry_space_group_name_H-M   'P 1'
_cell_length_a   8.98574600
_cell_length_b   5.41247500
_cell_length_c   9.80003423
_cell_angle_alpha   76.68543889
_cell_angle_beta   90.00000000
_cell_angle_gamma   90.00000000
_symmetry_Int_Tables_number   1
_chemical_formula_structural   CuNiC8
_chemical_formula_sum   'Cu4 Ni4 C32'
_cell_volume   463.81437088
_cell_formula_units_Z   4
loop_
 _symmetry_equiv_pos_site_id
 _symmetry_equiv_pos_as_xyz
  1  'x, y, z'
loop_
 _atom_site_type_symbol
 _atom_site_label
 _atom_site_symmetry_multiplicity
 _atom_site_fract_x
 _atom_site_fract_y
 _atom_site_fract_z
 _atom_site_occupancy
  Ni  Ni0  1  0.49020500  0.55923700  0.24552800  1
  Ni  Ni1  1  0.99020500  0.94076300  0.75447200  1
  Ni  Ni2  1  0.50979500  0.44076300  0.75447200  1
  Ni  Ni3  1  0.00979500  0.05923700  0.24552800  1
  Cu  Cu4  1  0.65691800  0.04902500  0.24474900  1
  Cu  Cu5  1  0.15691800  0.45097500  0.75525100  1
  Cu  Cu6  1  0.34308200  0.95097500  0.75525100  1
  Cu  Cu7  1  0.84308200  0.54902500  0.24474900  1
  C  C8  1  0.33992300  0.17296700  0.05570600  1
  C  C9  1  0.83992300  0.32703300  0.94429400  1
  C  C10  1  0.66007700  0.82703300  0.94429400  1
  C  C11  1  0.16007700  0.67296700  0.05570600  1
  C  C12  1  0.34471200  0.76858700  0.46015300  1
  C  C13  1  0.84471200  0.73141300  0.53984700  1
  C  C14  1  0.65528800  0.23141300  0.53984700  1
  C  C15  1  0.15528800  0.26858700  0.46015300  1
  C  C16  1  0.28959700  0.50356900  0.38648300  1
  C  C17  1  0.78959700  0.99643100  0.61351700  1
  C  C18  1  0.71040300  0.49643100  0.61351700  1
  C  C19  1  0.21040300  0.00356900  0.38648300  1
  C  C20  1  0.32254800  0.82840500  0.11116000  1
  C  C21  1  0.82254800  0.67159500  0.88884000  1
  C  C22  1  0.67745200  0.17159500  0.88884000  1
  C  C23  1  0.17745200  0.32840500  0.11116000  1
  C  C24  1  0.98470100  0.31278800  0.37607000  1
  C  C25  1  0.48470100  0.18721200  0.62393000  1
  C  C26  1  0.01529900  0.68721200  0.62393000  1
  C  C27  1  0.51529900  0.81278800  0.37607000  1
  C  C28  1  0.01217100  0.77646300  0.13969400  1
  C  C29  1  0.51217100  0.72353700  0.86030600  1
  C  C30  1  0.98782900  0.22353700  0.86030600  1
  C  C31  1  0.48782900  0.27646300  0.13969400  1
  C  C32  1  0.33793800  0.23749300  0.86985600  1
  C  C33  1  0.83793800  0.26250700  0.13014400  1
  C  C34  1  0.66206200  0.76250700  0.13014400  1
  C  C35  1  0.16206200  0.73749300  0.86985600  1
  C  C36  1  0.34056800  0.67272500  0.64380600  1
  C  C37  1  0.84056800  0.82727500  0.35619400  1
  C  C38  1  0.65943200  0.32727500  0.35619400  1
  C  C39  1  0.15943200  0.17272500  0.64380600  1
