# generated using pymatgen
data_Cu2Ni3C35
_symmetry_space_group_name_H-M   'P 1'
_cell_length_a   8.59133100
_cell_length_b   8.66461119
_cell_length_c   8.70287830
_cell_angle_alpha   62.88448522
_cell_angle_beta   63.30426355
_cell_angle_gamma   63.29043952
_symmetry_Int_Tables_number   1
_chemical_formula_structural   Cu2Ni3C35
_chemical_formula_sum   'Cu2 Ni3 C35'
_cell_volume   490.17605138
_cell_formula_units_Z   1
loop_
 _symmetry_equiv_pos_site_id
 _symmetry_equiv_pos_as_xyz
  1  'x, y, z'
loop_
 _atom_site_type_symbol
 _atom_site_label
 _atom_site_symmetry_multiplicity
 _atom_site_fract_x
 _atom_site_fract_y
 _atom_site_fract_z
 _atom_site_occupancy
  C  C0  1  0.25521800  0.64624100  0.84841300  1
  C  C1  1  0.70633600  0.35412400  0.15168600  1
  C  C2  1  0.36111400  0.14829700  0.70692300  1
  C  C3  1  0.14744700  0.70283800  0.36107800  1
  Ni  Ni4  1  0.84862800  0.85074500  0.84702800  1
  Ni  Ni5  1  0.65240500  0.65055200  0.64786700  1
  Ni  Ni6  1  0.34573900  0.34275900  0.34553900  1
  Cu  Cu7  1  0.98353800  0.99629200  0.99621400  1
  Cu  Cu8  1  0.51012700  0.50073600  0.49806300  1
  C  C9  1  0.14824900  0.14843900  0.15340300  1
  C  C10  1  0.75378400  0.05555700  0.44490400  1
  C  C11  1  0.43421900  0.74982700  0.05240100  1
  C  C12  1  0.06932600  0.45057200  0.75688200  1
  C  C13  1  0.94063500  0.55915100  0.25638700  1
  C  C14  1  0.56001000  0.25259200  0.94406600  1
  C  C15  1  0.25312500  0.94372000  0.56185500  1
  C  C16  1  0.90122800  0.49996000  0.70760800  1
  C  C17  1  0.69537000  0.90213300  0.47121700  1
  C  C18  1  0.94070000  0.73919200  0.09518000  1
  C  C19  1  0.43464600  0.69526700  0.90788600  1
  C  C20  1  0.99086500  0.39576000  0.19049000  1
  C  C21  1  0.74917100  0.56822200  0.39802800  1
  C  C22  1  0.74644500  0.10174900  0.92327700  1
  C  C23  1  0.54893600  0.40939500  0.76323400  1
  C  C24  1  0.83258100  0.01605900  0.58720200  1
  C  C25  1  0.39323700  0.74960300  0.57716900  1
  C  C26  1  0.90072500  0.09100200  0.24056500  1
  C  C27  1  0.59244100  0.81786300  0.99198700  1
  C  C28  1  0.39877100  0.17933000  0.99764100  1
  C  C29  1  0.10156000  0.92513400  0.74916400  1
  C  C30  1  0.60132900  0.24737100  0.42568400  1
  C  C31  1  0.18983300  0.99173100  0.39818100  1
  C  C32  1  0.42597000  0.59765300  0.24271600  1
  C  C33  1  0.23501500  0.90200400  0.09465600  1
  C  C34  1  0.25611400  0.42563800  0.59852400  1
  C  C35  1  0.05905300  0.58780000  0.82738100  1
  C  C36  1  0.53173500  0.31893100  0.09400300  1
  C  C37  1  0.09255200  0.24682100  0.90258000  1
  C  C38  1  0.32479800  0.09108900  0.53237800  1
  C  C39  1  0.08702800  0.52485300  0.33354000  1
