# generated using pymatgen
data_CuNi6C
_symmetry_space_group_name_H-M   'P 1'
_cell_length_a   4.77577000
_cell_length_b   6.37435500
_cell_length_c   7.68175000
_cell_angle_alpha   90.00000000
_cell_angle_beta   90.00000000
_cell_angle_gamma   90.00000000
_symmetry_Int_Tables_number   1
_chemical_formula_structural   CuNi6C
_chemical_formula_sum   'Cu4 Ni24 C4'
_cell_volume   233.85131624
_cell_formula_units_Z   4
loop_
 _symmetry_equiv_pos_site_id
 _symmetry_equiv_pos_as_xyz
  1  'x, y, z'
loop_
 _atom_site_type_symbol
 _atom_site_label
 _atom_site_symmetry_multiplicity
 _atom_site_fract_x
 _atom_site_fract_y
 _atom_site_fract_z
 _atom_site_occupancy
  C  C0  1  0.66943300  0.75000000  0.04312600  1
  C  C1  1  0.83056700  0.75000000  0.54312600  1
  C  C2  1  0.33056700  0.25000000  0.95687400  1
  C  C3  1  0.16943300  0.25000000  0.45687400  1
  Ni  Ni4  1  0.58298000  0.75000000  0.89348500  1
  Ni  Ni5  1  0.91702000  0.75000000  0.39348500  1
  Ni  Ni6  1  0.41702000  0.25000000  0.10651500  1
  Ni  Ni7  1  0.08298000  0.25000000  0.60651500  1
  Ni  Ni8  1  0.19189600  0.09257300  0.92748200  1
  Ni  Ni9  1  0.30810400  0.40742700  0.42748200  1
  Ni  Ni10  1  0.80810400  0.59257300  0.07251800  1
  Ni  Ni11  1  0.69189600  0.90742700  0.57251800  1
  Ni  Ni12  1  0.80810400  0.90742700  0.07251800  1
  Ni  Ni13  1  0.69189600  0.59257300  0.57251800  1
  Ni  Ni14  1  0.19189600  0.40742700  0.92748200  1
  Ni  Ni15  1  0.30810400  0.09257300  0.42748200  1
  Ni  Ni16  1  0.46120600  0.75000000  0.29955300  1
  Ni  Ni17  1  0.03879400  0.75000000  0.79955300  1
  Ni  Ni18  1  0.53879400  0.25000000  0.70044700  1
  Ni  Ni19  1  0.96120600  0.25000000  0.20044700  1
  Ni  Ni20  1  0.71990900  0.37935600  0.84920500  1
  Ni  Ni21  1  0.78009100  0.12064400  0.34920500  1
  Ni  Ni22  1  0.28009100  0.87935600  0.15079500  1
  Ni  Ni23  1  0.21990900  0.62064400  0.65079500  1
  Ni  Ni24  1  0.28009100  0.62064400  0.15079500  1
  Ni  Ni25  1  0.21990900  0.87935600  0.65079500  1
  Ni  Ni26  1  0.71990900  0.12064400  0.84920500  1
  Ni  Ni27  1  0.78009100  0.37935600  0.34920500  1
  Cu  Cu28  1  0.40440600  0.75000000  0.17020900  1
  Cu  Cu29  1  0.09559400  0.75000000  0.67020900  1
  Cu  Cu30  1  0.59559400  0.25000000  0.82979100  1
  Cu  Cu31  1  0.90440600  0.25000000  0.32979100  1
