# generated using pymatgen
data_Cu(NiC)3
_symmetry_space_group_name_H-M   'P 1'
_cell_length_a   6.87298802
_cell_length_b   6.82548822
_cell_length_c   3.90230900
_cell_angle_alpha   90.00000000
_cell_angle_beta   90.00000000
_cell_angle_gamma   119.80338613
_symmetry_Int_Tables_number   1
_chemical_formula_structural   Cu(NiC)3
_chemical_formula_sum   'Cu2 Ni6 C6'
_cell_volume   158.85051230
_cell_formula_units_Z   2
loop_
 _symmetry_equiv_pos_site_id
 _symmetry_equiv_pos_as_xyz
  1  'x, y, z'
loop_
 _atom_site_type_symbol
 _atom_site_label
 _atom_site_symmetry_multiplicity
 _atom_site_fract_x
 _atom_site_fract_y
 _atom_site_fract_z
 _atom_site_occupancy
  Ni  Ni0  1  0.84506700  0.68961800  0.25000000  1
  Ni  Ni1  1  0.84538300  0.15564800  0.25000000  1
  Ni  Ni2  1  0.30731900  0.15354300  0.25000000  1
  Ni  Ni3  1  0.15493300  0.31038200  0.75000000  1
  Ni  Ni4  1  0.15461700  0.84435200  0.75000000  1
  Ni  Ni5  1  0.69268100  0.84645700  0.75000000  1
  Cu  Cu6  1  0.66452700  0.33213800  0.75000000  1
  Cu  Cu7  1  0.33547300  0.66786200  0.25000000  1
  C  C8  1  0.82374400  0.64521200  0.75000000  1
  C  C9  1  0.82422300  0.17888700  0.75000000  1
  C  C10  1  0.35310000  0.17643900  0.75000000  1
  C  C11  1  0.17625600  0.35478800  0.25000000  1
  C  C12  1  0.17577700  0.82111300  0.25000000  1
  C  C13  1  0.64690000  0.82356100  0.25000000  1
