# generated using pymatgen
data_Cu7Ni2C
_symmetry_space_group_name_H-M   'P 1'
_cell_length_a   13.26903140
_cell_length_b   11.93941399
_cell_length_c   7.00034161
_cell_angle_alpha   84.68398210
_cell_angle_beta   63.62752691
_cell_angle_gamma   31.68849099
_symmetry_Int_Tables_number   1
_chemical_formula_structural   Cu7Ni2C
_chemical_formula_sum   'Cu14 Ni4 C2'
_cell_volume   415.07526449
_cell_formula_units_Z   2
loop_
 _symmetry_equiv_pos_site_id
 _symmetry_equiv_pos_as_xyz
  1  'x, y, z'
loop_
 _atom_site_type_symbol
 _atom_site_label
 _atom_site_symmetry_multiplicity
 _atom_site_fract_x
 _atom_site_fract_y
 _atom_site_fract_z
 _atom_site_occupancy
  C  C0  1  0.25886800  0.24113200  0.25886800  1
  C  C1  1  0.00886800  0.99113200  0.00886800  1
  Ni  Ni2  1  0.43850400  0.86184200  0.52864000  1
  Ni  Ni3  1  0.52864000  0.17101500  0.43850400  1
  Ni  Ni4  1  0.07898500  0.72136000  0.38815800  1
  Ni  Ni5  1  0.38815800  0.81149600  0.07898500  1
  Cu  Cu6  1  0.96823300  0.43498900  0.58220500  1
  Cu  Cu7  1  0.58220500  0.01457300  0.96823300  1
  Cu  Cu8  1  0.23542700  0.66779500  0.81501100  1
  Cu  Cu9  1  0.81501100  0.28176700  0.23542700  1
  Cu  Cu10  1  0.54293800  0.84680400  0.37923600  1
  Cu  Cu11  1  0.37923600  0.23102200  0.54293800  1
  Cu  Cu12  1  0.01897800  0.87076400  0.40319600  1
  Cu  Cu13  1  0.40319600  0.70706200  0.01897800  1
  Cu  Cu14  1  0.32906900  0.88191800  0.68059500  1
  Cu  Cu15  1  0.68059500  0.10841800  0.32906900  1
  Cu  Cu16  1  0.14158200  0.56940500  0.36808200  1
  Cu  Cu17  1  0.36808200  0.92093100  0.14158200  1
  Cu  Cu18  1  0.11222400  0.38777600  0.11222400  1
  Cu  Cu19  1  0.86222400  0.13777600  0.86222400  1
