# generated using pymatgen
data_Cu33NiC4
_symmetry_space_group_name_H-M   'P 1'
_cell_length_a   6.44300233
_cell_length_b   6.44300233
_cell_length_c   12.85368140
_cell_angle_alpha   82.80809208
_cell_angle_beta   82.80809208
_cell_angle_gamma   83.17386118
_symmetry_Int_Tables_number   1
_chemical_formula_structural   Cu33NiC4
_chemical_formula_sum   'Cu33 Ni1 C4'
_cell_volume   522.32884545
_cell_formula_units_Z   1
loop_
 _symmetry_equiv_pos_site_id
 _symmetry_equiv_pos_as_xyz
  1  'x, y, z'
loop_
 _atom_site_type_symbol
 _atom_site_label
 _atom_site_symmetry_multiplicity
 _atom_site_fract_x
 _atom_site_fract_y
 _atom_site_fract_z
 _atom_site_occupancy
  C  C0  1  0.65351700  0.65351700  0.32583200  1
  C  C1  1  0.65852100  0.65852100  0.82976000  1
  C  C2  1  0.34163400  0.34163400  0.17005100  1
  C  C3  1  0.34070100  0.34070100  0.67164200  1
  Ni  Ni4  1  0.90765800  0.90765800  0.45330000  1
  Cu  Cu5  1  0.34057500  0.34057500  0.42210600  1
  Cu  Cu6  1  0.34278300  0.34278300  0.92234900  1
  Cu  Cu7  1  0.34132300  0.84393200  0.17040200  1
  Cu  Cu8  1  0.34141900  0.84395500  0.67115900  1
  Cu  Cu9  1  0.84393200  0.34132300  0.17040200  1
  Cu  Cu10  1  0.84395500  0.34141900  0.67115900  1
  Cu  Cu11  1  0.65767600  0.65767600  0.07733200  1
  Cu  Cu12  1  0.65800600  0.65800600  0.57944200  1
  Cu  Cu13  1  0.65719400  0.15806900  0.32855200  1
  Cu  Cu14  1  0.65824500  0.15597000  0.82941900  1
  Cu  Cu15  1  0.15806900  0.65719400  0.32855200  1
  Cu  Cu16  1  0.15597000  0.65824500  0.82941900  1
  Cu  Cu17  1  0.00105400  0.00105400  0.24835200  1
  Cu  Cu18  1  0.99932900  0.99932900  0.75032700  1
  Cu  Cu19  1  0.00027400  0.50011600  0.00008900  1
  Cu  Cu20  1  0.00046200  0.49755300  0.50026700  1
  Cu  Cu21  1  0.50011600  0.00027400  0.00008900  1
  Cu  Cu22  1  0.49755300  0.00046200  0.50026700  1
  Cu  Cu23  1  0.29031800  0.70957600  0.99994200  1
  Cu  Cu24  1  0.29707000  0.70334200  0.50038300  1
  Cu  Cu25  1  0.70716800  0.00020300  0.14683200  1
  Cu  Cu26  1  0.70362300  0.00187100  0.64832200  1
  Cu  Cu27  1  0.99975900  0.29725800  0.35150700  1
  Cu  Cu28  1  0.99923900  0.29249700  0.85333400  1
  Cu  Cu29  1  0.29725800  0.99975900  0.35150700  1
  Cu  Cu30  1  0.29249700  0.99923900  0.85333400  1
  Cu  Cu31  1  0.00020300  0.70716800  0.14683200  1
  Cu  Cu32  1  0.00187100  0.70362300  0.64832200  1
  Cu  Cu33  1  0.70957600  0.29031800  0.99994200  1
  Cu  Cu34  1  0.70334200  0.29707000  0.50038300  1
  Cu  Cu35  1  0.90431400  0.90431400  0.95179600  1
  Cu  Cu36  1  0.09581900  0.09581900  0.04720000  1
  Cu  Cu37  1  0.09797900  0.09797900  0.55009100  1
