# generated using pymatgen
data_Cu(NiC4)4
_symmetry_space_group_name_H-M   'P 1'
_cell_length_a   8.26049300
_cell_length_b   8.51972500
_cell_length_c   11.88612900
_cell_angle_alpha   90.00000000
_cell_angle_beta   90.00000000
_cell_angle_gamma   90.00000000
_symmetry_Int_Tables_number   1
_chemical_formula_structural   Cu(NiC4)4
_chemical_formula_sum   'Cu4 Ni16 C64'
_cell_volume   836.51163067
_cell_formula_units_Z   4
loop_
 _symmetry_equiv_pos_site_id
 _symmetry_equiv_pos_as_xyz
  1  'x, y, z'
loop_
 _atom_site_type_symbol
 _atom_site_label
 _atom_site_symmetry_multiplicity
 _atom_site_fract_x
 _atom_site_fract_y
 _atom_site_fract_z
 _atom_site_occupancy
  C  C0  1  0.50000000  0.50000000  0.50000000  1
  C  C1  1  0.00000000  0.00000000  0.00000000  1
  C  C2  1  0.50000000  0.50000000  0.00000000  1
  C  C3  1  0.00000000  0.00000000  0.50000000  1
  C  C4  1  0.57241600  0.51624000  0.75000000  1
  C  C5  1  0.92758400  0.01624000  0.75000000  1
  C  C6  1  0.42758400  0.48376000  0.25000000  1
  C  C7  1  0.07241600  0.98376000  0.25000000  1
  C  C8  1  0.28456100  0.78563800  0.53480900  1
  C  C9  1  0.21543900  0.28563800  0.96519100  1
  C  C10  1  0.71543900  0.21436200  0.03480900  1
  C  C11  1  0.78456100  0.71436200  0.46519100  1
  C  C12  1  0.71543900  0.21436200  0.46519100  1
  C  C13  1  0.78456100  0.71436200  0.03480900  1
  C  C14  1  0.28456100  0.78563800  0.96519100  1
  C  C15  1  0.21543900  0.28563800  0.53480900  1
  C  C16  1  0.48892400  0.14609800  0.17880500  1
  C  C17  1  0.01107600  0.64609800  0.32119500  1
  C  C18  1  0.51107600  0.85390200  0.67880500  1
  C  C19  1  0.98892400  0.35390200  0.82119500  1
  C  C20  1  0.51107600  0.85390200  0.82119500  1
  C  C21  1  0.98892400  0.35390200  0.67880500  1
  C  C22  1  0.48892400  0.14609800  0.32119500  1
  C  C23  1  0.01107600  0.64609800  0.17880500  1
  C  C24  1  0.65764800  0.08893200  0.25000000  1
  C  C25  1  0.84235200  0.58893200  0.25000000  1
  C  C26  1  0.34235200  0.91106800  0.75000000  1
  C  C27  1  0.15764800  0.41106800  0.75000000  1
  C  C28  1  0.52827300  0.86194600  0.17486100  1
  C  C29  1  0.97172700  0.36194600  0.32513900  1
  C  C30  1  0.47172700  0.13805400  0.67486100  1
  C  C31  1  0.02827300  0.63805400  0.82513900  1
  C  C32  1  0.47172700  0.13805400  0.82513900  1
  C  C33  1  0.02827300  0.63805400  0.67486100  1
  C  C34  1  0.52827300  0.86194600  0.32513900  1
  C  C35  1  0.97172700  0.36194600  0.17486100  1
  C  C36  1  0.34807800  0.91260200  0.25000000  1
  C  C37  1  0.15192200  0.41260200  0.25000000  1
  C  C38  1  0.65192200  0.08739800  0.75000000  1
  C  C39  1  0.84807800  0.58739800  0.75000000  1
  Ni  Ni40  1  0.44223000  0.48691500  0.75000000  1
  Ni  Ni41  1  0.05777000  0.98691500  0.75000000  1
  Ni  Ni42  1  0.55777000  0.51308500  0.25000000  1
  Ni  Ni43  1  0.94223000  0.01308500  0.25000000  1
  Ni  Ni44  1  0.21901100  0.71906400  0.46937900  1
  Ni  Ni45  1  0.28098900  0.21906400  0.03062100  1
  Ni  Ni46  1  0.78098900  0.28093600  0.96937900  1
  Ni  Ni47  1  0.71901100  0.78093600  0.53062100  1
  Ni  Ni48  1  0.78098900  0.28093600  0.53062100  1
  Ni  Ni49  1  0.71901100  0.78093600  0.96937900  1
  Ni  Ni50  1  0.21901100  0.71906400  0.03062100  1
  Ni  Ni51  1  0.28098900  0.21906400  0.46937900  1
  Ni  Ni52  1  0.48006500  0.91942000  0.25000000  1
  Ni  Ni53  1  0.01993500  0.41942000  0.25000000  1
  Ni  Ni54  1  0.51993500  0.08058000  0.75000000  1
  Ni  Ni55  1  0.98006500  0.58058000  0.75000000  1
  Cu  Cu56  1  0.53180400  0.08610800  0.25000000  1
  Cu  Cu57  1  0.96819600  0.58610800  0.25000000  1
  Cu  Cu58  1  0.46819600  0.91389200  0.75000000  1
  Cu  Cu59  1  0.03180400  0.41389200  0.75000000  1
  C  C60  1  0.28230300  0.59552000  0.43015800  1
  C  C61  1  0.21769700  0.09552000  0.06984200  1
  C  C62  1  0.71769700  0.40448000  0.93015800  1
  C  C63  1  0.78230300  0.90448000  0.56984200  1
  C  C64  1  0.71769700  0.40448000  0.56984200  1
  C  C65  1  0.78230300  0.90448000  0.93015800  1
  C  C66  1  0.28230300  0.59552000  0.06984200  1
  C  C67  1  0.21769700  0.09552000  0.43015800  1
  C  C68  1  0.37058800  0.47028200  0.65592600  1
  C  C69  1  0.12941200  0.97028200  0.84407400  1
  C  C70  1  0.62941200  0.52971800  0.15592600  1
  C  C71  1  0.87058800  0.02971800  0.34407400  1
  C  C72  1  0.62941200  0.52971800  0.34407400  1
  C  C73  1  0.87058800  0.02971800  0.15592600  1
  C  C74  1  0.37058800  0.47028200  0.84407400  1
  C  C75  1  0.12941200  0.97028200  0.65592600  1
  C  C76  1  0.08169100  0.77281500  0.43748000  1
  C  C77  1  0.41830900  0.27281500  0.06252000  1
  C  C78  1  0.91830900  0.22718500  0.93748000  1
  C  C79  1  0.58169100  0.72718500  0.56252000  1
  C  C80  1  0.91830900  0.22718500  0.56252000  1
  C  C81  1  0.58169100  0.72718500  0.93748000  1
  C  C82  1  0.08169100  0.77281500  0.06252000  1
  C  C83  1  0.41830900  0.27281500  0.43748000  1
