# generated using pymatgen
data_Cu2Ni5C
_symmetry_space_group_name_H-M   'P 1'
_cell_length_a   4.41683800
_cell_length_b   6.53391295
_cell_length_c   6.53391295
_cell_angle_alpha   83.44023796
_cell_angle_beta   70.24533601
_cell_angle_gamma   70.24533601
_symmetry_Int_Tables_number   1
_chemical_formula_structural   Cu2Ni5C
_chemical_formula_sum   'Cu4 Ni10 C2'
_cell_volume   167.02230489
_cell_formula_units_Z   2
loop_
 _symmetry_equiv_pos_site_id
 _symmetry_equiv_pos_as_xyz
  1  'x, y, z'
loop_
 _atom_site_type_symbol
 _atom_site_label
 _atom_site_symmetry_multiplicity
 _atom_site_fract_x
 _atom_site_fract_y
 _atom_site_fract_z
 _atom_site_occupancy
  Ni  Ni0  1  0.70800600  0.86389500  0.72009300  1
  Ni  Ni1  1  0.29199400  0.13610500  0.27990700  1
  Ni  Ni2  1  0.79199400  0.27990700  0.13610500  1
  Ni  Ni3  1  0.20800600  0.72009300  0.86389500  1
  Ni  Ni4  1  0.57190100  0.72009300  0.13610500  1
  Ni  Ni5  1  0.42809900  0.27990700  0.86389500  1
  Ni  Ni6  1  0.07190100  0.13610500  0.72009300  1
  Ni  Ni7  1  0.92809900  0.86389500  0.27990700  1
  Ni  Ni8  1  0.75000000  0.50000000  0.50000000  1
  Ni  Ni9  1  0.25000000  0.50000000  0.50000000  1
  Cu  Cu10  1  0.16704500  0.50000000  0.16591000  1
  Cu  Cu11  1  0.83295500  0.50000000  0.83409000  1
  Cu  Cu12  1  0.33295500  0.83409000  0.50000000  1
  Cu  Cu13  1  0.66704500  0.16591000  0.50000000  1
  C  C14  1  0.25000000  0.00000000  0.00000000  1
  C  C15  1  0.75000000  0.00000000  0.00000000  1
