# generated using pymatgen
data_CuNiC10
_symmetry_space_group_name_H-M   'P 1'
_cell_length_a   7.43718500
_cell_length_b   8.92670700
_cell_length_c   11.08882132
_cell_angle_alpha   88.48772160
_cell_angle_beta   90.00000000
_cell_angle_gamma   90.00000000
_symmetry_Int_Tables_number   1
_chemical_formula_structural   CuNiC10
_chemical_formula_sum   'Cu4 Ni4 C40'
_cell_volume   735.92567699
_cell_formula_units_Z   4
loop_
 _symmetry_equiv_pos_site_id
 _symmetry_equiv_pos_as_xyz
  1  'x, y, z'
loop_
 _atom_site_type_symbol
 _atom_site_label
 _atom_site_symmetry_multiplicity
 _atom_site_fract_x
 _atom_site_fract_y
 _atom_site_fract_z
 _atom_site_occupancy
  Ni  Ni0  1  0.35227400  0.43582300  0.84000000  1
  Ni  Ni1  1  0.64772600  0.56417700  0.16000000  1
  Ni  Ni2  1  0.85227400  0.56417700  0.66000000  1
  Ni  Ni3  1  0.14772600  0.43582300  0.34000000  1
  Cu  Cu4  1  0.16650500  0.94571400  0.84817300  1
  Cu  Cu5  1  0.83349500  0.05428600  0.15182700  1
  Cu  Cu6  1  0.66650500  0.05428600  0.65182700  1
  Cu  Cu7  1  0.33349500  0.94571400  0.34817300  1
  C  C8  1  0.16550300  0.18789200  0.60733700  1
  C  C9  1  0.83449700  0.81210800  0.39266300  1
  C  C10  1  0.66550300  0.81210800  0.89266300  1
  C  C11  1  0.33449700  0.18789200  0.10733700  1
  C  C12  1  0.34115400  0.72514800  0.58922900  1
  C  C13  1  0.65884600  0.27485200  0.41077100  1
  C  C14  1  0.84115400  0.27485200  0.91077100  1
  C  C15  1  0.15884600  0.72514800  0.08922900  1
  C  C16  1  0.82676600  0.87458700  0.53291500  1
  C  C17  1  0.17323400  0.12541300  0.46708500  1
  C  C18  1  0.32676600  0.12541300  0.96708500  1
  C  C19  1  0.67323400  0.87458700  0.03291500  1
  C  C20  1  0.50178000  0.90747300  0.81502000  1
  C  C21  1  0.49822000  0.09252700  0.18498000  1
  C  C22  1  0.00178000  0.09252700  0.68498000  1
  C  C23  1  0.99822000  0.90747300  0.31502000  1
  C  C24  1  0.14390500  0.37080600  0.60398100  1
  C  C25  1  0.85609500  0.62919400  0.39601900  1
  C  C26  1  0.64390500  0.62919400  0.89601900  1
  C  C27  1  0.35609500  0.37080600  0.10398100  1
  C  C28  1  0.25381500  0.70513300  0.95270400  1
  C  C29  1  0.74618500  0.29486700  0.04729600  1
  C  C30  1  0.75381500  0.29486700  0.54729600  1
  C  C31  1  0.24618500  0.70513300  0.45270400  1
  C  C32  1  0.44831600  0.88977000  0.55619400  1
  C  C33  1  0.55168400  0.11023000  0.44380600  1
  C  C34  1  0.94831600  0.11023000  0.94380600  1
  C  C35  1  0.05168400  0.88977000  0.05619400  1
  C  C36  1  0.48002400  0.59214400  0.63253300  1
  C  C37  1  0.51997600  0.40785600  0.36746700  1
  C  C38  1  0.98002400  0.40785600  0.86746700  1
  C  C39  1  0.01997600  0.59214400  0.13253300  1
  C  C40  1  0.84290900  0.86324600  0.80328700  1
  C  C41  1  0.15709100  0.13675400  0.19671300  1
  C  C42  1  0.34290900  0.13675400  0.69671300  1
  C  C43  1  0.65709100  0.86324600  0.30328700  1
  C  C44  1  0.18226800  0.75465700  0.69377700  1
  C  C45  1  0.81773200  0.24534300  0.30622300  1
  C  C46  1  0.68226800  0.24534300  0.80622300  1
  C  C47  1  0.31773200  0.75465700  0.19377700  1
