# generated using pymatgen
data_Cu21Ni10C27
_symmetry_space_group_name_H-M   'P 1'
_cell_length_a   7.83122400
_cell_length_b   9.56141022
_cell_length_c   18.33160502
_cell_angle_alpha   82.34712672
_cell_angle_beta   84.40469559
_cell_angle_gamma   88.25536720
_symmetry_Int_Tables_number   1
_chemical_formula_structural   Cu21Ni10C27
_chemical_formula_sum   'Cu42 Ni20 C54'
_cell_volume   1353.70579115
_cell_formula_units_Z   2
loop_
 _symmetry_equiv_pos_site_id
 _symmetry_equiv_pos_as_xyz
  1  'x, y, z'
loop_
 _atom_site_type_symbol
 _atom_site_label
 _atom_site_symmetry_multiplicity
 _atom_site_fract_x
 _atom_site_fract_y
 _atom_site_fract_z
 _atom_site_occupancy
  C  C0  1  0.48534000  0.20339300  0.41596400  1
  C  C1  1  0.51466000  0.79660700  0.58403600  1
  Ni  Ni2  1  0.37085200  0.14003400  0.26894100  1
  Ni  Ni3  1  0.62914800  0.85996600  0.73105900  1
  Ni  Ni4  1  0.84313300  0.20718000  0.47905100  1
  Ni  Ni5  1  0.15686700  0.79282000  0.52094900  1
  Ni  Ni6  1  0.12554100  0.18815800  0.49692800  1
  Ni  Ni7  1  0.87445900  0.81184200  0.50307200  1
  Ni  Ni8  1  0.22765300  0.54781500  0.61526000  1
  Ni  Ni9  1  0.77234700  0.45218500  0.38474000  1
  Ni  Ni10  1  0.86444500  0.14910400  0.39992800  1
  Ni  Ni11  1  0.13555500  0.85089600  0.60007200  1
  Ni  Ni12  1  0.18983100  0.13378800  0.31607100  1
  Ni  Ni13  1  0.81016900  0.86621200  0.68392900  1
  Ni  Ni14  1  0.03048900  0.63570500  0.44027100  1
  Ni  Ni15  1  0.96951100  0.36429500  0.55972900  1
  Ni  Ni16  1  0.99780100  0.61112500  0.52803900  1
  Ni  Ni17  1  0.00219900  0.38887500  0.47196100  1
  Ni  Ni18  1  0.19802200  0.02652600  0.50260600  1
  Ni  Ni19  1  0.80197800  0.97347400  0.49739400  1
  Ni  Ni20  1  0.39592400  0.48109100  0.57852400  1
  Ni  Ni21  1  0.60407600  0.51890900  0.42147600  1
  Cu  Cu22  1  0.04219100  0.49273800  0.22174300  1
  Cu  Cu23  1  0.95780900  0.50726200  0.77825700  1
  Cu  Cu24  1  0.70649200  0.17186500  0.14742800  1
  Cu  Cu25  1  0.29350800  0.82813500  0.85257200  1
  Cu  Cu26  1  0.30643000  0.19375800  0.70864600  1
  Cu  Cu27  1  0.69357000  0.80624200  0.29135400  1
  Cu  Cu28  1  0.29266000  0.18943500  0.78522700  1
  Cu  Cu29  1  0.70734000  0.81056500  0.21477300  1
  Cu  Cu30  1  0.03242600  0.15681800  0.07553100  1
  Cu  Cu31  1  0.96757400  0.84318200  0.92446900  1
  Cu  Cu32  1  0.38787900  0.81181300  0.29521800  1
  Cu  Cu33  1  0.61212100  0.18818700  0.70478200  1
  Cu  Cu34  1  0.18370600  0.47407800  0.26405100  1
  Cu  Cu35  1  0.81629400  0.52592200  0.73594900  1
  Cu  Cu36  1  0.89077800  0.16622100  0.03465300  1
  Cu  Cu37  1  0.10922200  0.83377900  0.96534700  1
  Cu  Cu38  1  0.44138700  0.18297100  0.82181600  1
  Cu  Cu39  1  0.55861300  0.81702900  0.17818400  1
  Cu  Cu40  1  0.72677400  0.17319700  0.07100900  1
  Cu  Cu41  1  0.27322600  0.82680300  0.92899100  1
  Cu  Cu42  1  0.05923300  0.50760400  0.14467200  1
  Cu  Cu43  1  0.94076700  0.49239600  0.85532800  1
  Cu  Cu44  1  0.36573600  0.48890700  0.14600200  1
  Cu  Cu45  1  0.63426400  0.51109300  0.85399800  1
  Cu  Cu46  1  0.46517600  0.19269300  0.66723500  1
  Cu  Cu47  1  0.53482400  0.80730700  0.33276500  1
  Cu  Cu48  1  0.16395300  0.45112700  0.34813500  1
  Cu  Cu49  1  0.83604700  0.54887300  0.65186500  1
  Cu  Cu50  1  0.00834100  0.15476300  0.15201100  1
  Cu  Cu51  1  0.99165900  0.84523700  0.84798900  1
  Cu  Cu52  1  0.22180800  0.50535800  0.10644600  1
  Cu  Cu53  1  0.77819200  0.49464200  0.89355400  1
  Cu  Cu54  1  0.84545500  0.16303000  0.19141800  1
  Cu  Cu55  1  0.15454500  0.83697000  0.80858200  1
  Cu  Cu56  1  0.47525900  0.19010800  0.58468200  1
  Cu  Cu57  1  0.52474100  0.80989200  0.41531800  1
  Cu  Cu58  1  0.82044800  0.16300100  0.27480500  1
  Cu  Cu59  1  0.17955200  0.83699900  0.72519500  1
  Cu  Cu60  1  0.39793000  0.81769700  0.21853900  1
  Cu  Cu61  1  0.60207000  0.18230300  0.78146100  1
  Cu  Cu62  1  0.34555600  0.47354400  0.22306600  1
  Cu  Cu63  1  0.65444400  0.52645600  0.77693400  1
  C  C64  1  0.31496100  0.12698700  0.31908600  1
  C  C65  1  0.68503900  0.87301300  0.68091400  1
  C  C66  1  0.95015300  0.15835100  0.31130900  1
  C  C67  1  0.04984700  0.84164900  0.68869100  1
  C  C68  1  0.79068700  0.14366300  0.44869400  1
  C  C69  1  0.20931300  0.85633700  0.55130600  1
  C  C70  1  0.45636500  0.30508600  0.54267100  1
  C  C71  1  0.54363500  0.69491400  0.45732900  1
  C  C72  1  0.28942600  0.39514800  0.38078100  1
  C  C73  1  0.71057400  0.60485200  0.61921900  1
  C  C74  1  0.02337100  0.48911500  0.38157300  1
  C  C75  1  0.97662900  0.51088500  0.61842700  1
  C  C76  1  0.50058200  0.07217100  0.56031000  1
  C  C77  1  0.49941800  0.92782900  0.43969000  1
  C  C78  1  0.20433100  0.12072100  0.47235600  1
  C  C79  1  0.79566900  0.87927900  0.52764400  1
  C  C80  1  0.66550000  0.16759400  0.30326400  1
  C  C81  1  0.33450000  0.83240600  0.69673600  1
  C  C82  1  0.65150100  0.43279900  0.40218700  1
  C  C83  1  0.34849900  0.56720100  0.59781300  1
  C  C84  1  0.02201800  0.68475500  0.48462600  1
  C  C85  1  0.97798200  0.31524500  0.51537400  1
  C  C86  1  0.23934000  0.51918800  0.03226000  1
  C  C87  1  0.76066000  0.48081200  0.96774000  1
  C  C88  1  0.57007500  0.82299000  0.10418500  1
  C  C89  1  0.42992500  0.17701000  0.89581500  1
  C  C90  1  0.23094400  0.80995500  0.33319300  1
  C  C91  1  0.76905600  0.19004500  0.66680700  1
  C  C92  1  0.12051000  0.50690600  0.74622900  1
  C  C93  1  0.87949000  0.49309400  0.25377100  1
  C  C94  1  0.13742200  0.18952100  0.82415200  1
  C  C95  1  0.86257800  0.81047900  0.17584800  1
  C  C96  1  0.15385200  0.14457300  0.18648100  1
  C  C97  1  0.84614800  0.85542700  0.81351900  1
  C  C98  1  0.08810500  0.83165800  0.03900900  1
  C  C99  1  0.91189500  0.16834200  0.96099100  1
  C  C100  1  0.49230500  0.46054100  0.25648500  1
  C  C101  1  0.50769500  0.53945900  0.74351500  1
  C  C102  1  0.08071000  0.47715800  0.89326300  1
  C  C103  1  0.91929000  0.52284200  0.10673700  1
  C  C104  1  0.58892400  0.18199600  0.03223600  1
  C  C105  1  0.41107600  0.81800400  0.96776400  1
  C  C106  1  0.54078400  0.17948100  0.17614900  1
  C  C107  1  0.45921600  0.82051900  0.82385100  1
  C  C108  1  0.52365400  0.48923800  0.10950900  1
  C  C109  1  0.47634600  0.51076200  0.89049100  1
  C  C110  1  0.19172000  0.14941000  0.04113000  1
  C  C111  1  0.80828000  0.85059000  0.95887000  1
  C  C112  1  0.16078900  0.19566600  0.67443100  1
  C  C113  1  0.83921100  0.80433400  0.32556900  1
  C  C114  1  0.25425500  0.82337700  0.18309900  1
  C  C115  1  0.74574500  0.17662300  0.81690100  1
