# generated using pymatgen
data_Cu3Ni3C14
_symmetry_space_group_name_H-M   'P 1'
_cell_length_a   10.68329017
_cell_length_b   10.68329017
_cell_length_c   10.68329017
_cell_angle_alpha   108.93603655
_cell_angle_beta   108.93603655
_cell_angle_gamma   110.54697423
_symmetry_Int_Tables_number   1
_chemical_formula_structural   Cu3Ni3C14
_chemical_formula_sum   'Cu12 Ni12 C56'
_cell_volume   938.37860715
_cell_formula_units_Z   4
loop_
 _symmetry_equiv_pos_site_id
 _symmetry_equiv_pos_as_xyz
  1  'x, y, z'
loop_
 _atom_site_type_symbol
 _atom_site_label
 _atom_site_symmetry_multiplicity
 _atom_site_fract_x
 _atom_site_fract_y
 _atom_site_fract_z
 _atom_site_occupancy
  C  C0  1  0.49646100  0.12500000  0.87146100  1
  C  C1  1  0.25353900  0.62500000  0.12853900  1
  C  C2  1  0.87500000  0.24646100  0.87146100  1
  C  C3  1  0.37500000  0.00353900  0.12853900  1
  C  C4  1  0.75353900  0.62500000  0.62853900  1
  C  C5  1  0.99646100  0.12500000  0.37146100  1
  C  C6  1  0.37500000  0.50353900  0.62853900  1
  C  C7  1  0.87500000  0.74646100  0.37146100  1
  Ni  Ni8  1  0.62500000  0.87500000  0.25000000  1
  Ni  Ni9  1  0.12500000  0.37500000  0.25000000  1
  Ni  Ni10  1  0.12500000  0.87500000  0.75000000  1
  Ni  Ni11  1  0.62500000  0.37500000  0.75000000  1
  Ni  Ni12  1  0.12500000  0.87500000  0.25000000  1
  Ni  Ni13  1  0.62500000  0.37500000  0.25000000  1
  Ni  Ni14  1  0.12500000  0.37500000  0.75000000  1
  Ni  Ni15  1  0.62500000  0.87500000  0.75000000  1
  Ni  Ni16  1  0.50000000  0.00000000  0.50000000  1
  Ni  Ni17  1  0.25000000  0.25000000  0.00000000  1
  Ni  Ni18  1  0.75000000  0.75000000  0.00000000  1
  Ni  Ni19  1  0.00000000  0.50000000  0.50000000  1
  Cu  Cu20  1  0.25000000  0.75000000  0.50000000  1
  Cu  Cu21  1  0.50000000  0.50000000  0.00000000  1
  Cu  Cu22  1  0.74951000  0.12500000  0.12451000  1
  Cu  Cu23  1  0.00049000  0.62500000  0.87549000  1
  Cu  Cu24  1  0.87500000  0.99951000  0.62451000  1
  Cu  Cu25  1  0.37500000  0.25049000  0.37549000  1
  Cu  Cu26  1  0.00000000  0.00000000  0.00000000  1
  Cu  Cu27  1  0.75000000  0.25000000  0.50000000  1
  Cu  Cu28  1  0.50049000  0.62500000  0.37549000  1
  Cu  Cu29  1  0.24951000  0.12500000  0.62451000  1
  Cu  Cu30  1  0.37500000  0.75049000  0.87549000  1
  Cu  Cu31  1  0.87500000  0.49951000  0.12451000  1
  C  C32  1  0.50399600  0.77491900  0.33802500  1
  C  C33  1  0.31310500  0.47508100  0.22907700  1
  C  C34  1  0.24600400  0.08402800  0.77092300  1
  C  C35  1  0.43689500  0.16597200  0.66197500  1
  C  C36  1  0.33802300  0.90109800  0.87522100  1
  C  C37  1  0.41197700  0.78719800  0.06307600  1
  C  C38  1  0.02587800  0.46280200  0.12477900  1
  C  C39  1  0.72412200  0.34890200  0.93692400  1
  C  C40  1  0.04054200  0.18902900  0.03408400  1
  C  C41  1  0.15494500  0.00645800  0.96591600  1
  C  C42  1  0.59505500  0.06097100  0.35151200  1
  C  C43  1  0.70945800  0.24354200  0.64848800  1
  C  C44  1  0.74600400  0.97508100  0.16197500  1
  C  C45  1  0.93689500  0.27491900  0.27092300  1
  C  C46  1  0.00399600  0.66597200  0.72907700  1
  C  C47  1  0.81310500  0.58402800  0.83802500  1
  C  C48  1  0.91197700  0.84890200  0.62477900  1
  C  C49  1  0.83802300  0.96280200  0.43692400  1
  C  C50  1  0.22412200  0.28719800  0.37522100  1
  C  C51  1  0.52587800  0.40109800  0.56307600  1
  C  C52  1  0.20945800  0.56097100  0.46591600  1
  C  C53  1  0.09505500  0.74354200  0.53408400  1
  C  C54  1  0.65494500  0.68902900  0.14848800  1
  C  C55  1  0.54054200  0.50645800  0.85151200  1
  C  C56  1  0.91597200  0.68689500  0.16197500  1
  C  C57  1  0.83402800  0.49600400  0.27092300  1
  C  C58  1  0.22508100  0.56310500  0.72907700  1
  C  C59  1  0.52491900  0.75399600  0.83802500  1
  C  C60  1  0.21280200  0.27587800  0.62477900  1
  C  C61  1  0.09890200  0.97412200  0.43692400  1
  C  C62  1  0.65109800  0.58802300  0.37522100  1
  C  C63  1  0.53719800  0.66197700  0.56307600  1
  C  C64  1  0.75645800  0.40494500  0.46591600  1
  C  C65  1  0.93902900  0.29054200  0.53408400  1
  C  C66  1  0.99354200  0.95945800  0.14848800  1
  C  C67  1  0.81097100  0.84505500  0.85151200  1
  C  C68  1  0.33402800  0.06310500  0.33802500  1
  C  C69  1  0.41597200  0.25399600  0.22907700  1
  C  C70  1  0.02491900  0.18689500  0.77092300  1
  C  C71  1  0.72508100  0.99600400  0.66197500  1
  C  C72  1  0.03719800  0.47412200  0.87522100  1
  C  C73  1  0.15109800  0.77587800  0.06307600  1
  C  C74  1  0.59890200  0.16197700  0.12477900  1
  C  C75  1  0.71280200  0.08802300  0.93692400  1
  C  C76  1  0.49354200  0.34505500  0.03408400  1
  C  C77  1  0.31097100  0.45945800  0.96591600  1
  C  C78  1  0.25645800  0.79054200  0.35151200  1
  C  C79  1  0.43902900  0.90494500  0.64848800  1
