# generated using pymatgen
data_Cu(NiC3)2
_symmetry_space_group_name_H-M   'P 1'
_cell_length_a   6.60246532
_cell_length_b   6.60246532
_cell_length_c   7.61240368
_cell_angle_alpha   72.88452593
_cell_angle_beta   72.88452593
_cell_angle_gamma   47.96009551
_symmetry_Int_Tables_number   1
_chemical_formula_structural   Cu(NiC3)2
_chemical_formula_sum   'Cu2 Ni4 C12'
_cell_volume   233.31893412
_cell_formula_units_Z   2
loop_
 _symmetry_equiv_pos_site_id
 _symmetry_equiv_pos_as_xyz
  1  'x, y, z'
loop_
 _atom_site_type_symbol
 _atom_site_label
 _atom_site_symmetry_multiplicity
 _atom_site_fract_x
 _atom_site_fract_y
 _atom_site_fract_z
 _atom_site_occupancy
  Ni  Ni0  1  0.83266500  0.16733500  0.50000000  1
  Ni  Ni1  1  0.83934300  0.16065700  0.00000000  1
  Ni  Ni2  1  0.49729300  0.83598500  0.66797800  1
  Ni  Ni3  1  0.16401500  0.50270700  0.33202200  1
  Cu  Cu4  1  0.50269600  0.83586200  0.16284600  1
  Cu  Cu5  1  0.16413800  0.49730400  0.83715400  1
  C  C6  1  0.72720400  0.59396200  0.39905500  1
  C  C7  1  0.40092400  0.23627800  0.06870700  1
  C  C8  1  0.08760100  0.88548500  0.74892200  1
  C  C9  1  0.58240200  0.40331800  0.24331500  1
  C  C10  1  0.24324600  0.08067000  0.90962600  1
  C  C11  1  0.90657000  0.74838900  0.57924700  1
  C  C12  1  0.59668200  0.41759800  0.75668500  1
  C  C13  1  0.25161100  0.09343000  0.42075300  1
  C  C14  1  0.91933000  0.75675400  0.09037400  1
  C  C15  1  0.76372200  0.59907600  0.93129300  1
  C  C16  1  0.40603800  0.27279600  0.60094500  1
  C  C17  1  0.11451500  0.91239900  0.25107800  1
