# generated using pymatgen
data_CuNiC14
_symmetry_space_group_name_H-M   'P 1'
_cell_length_a   6.64285858
_cell_length_b   6.64994638
_cell_length_c   10.58584108
_cell_angle_alpha   90.00000000
_cell_angle_beta   90.00000000
_cell_angle_gamma   120.03530744
_symmetry_Int_Tables_number   1
_chemical_formula_structural   CuNiC14
_chemical_formula_sum   'Cu1 Ni1 C14'
_cell_volume   404.83171482
_cell_formula_units_Z   1
loop_
 _symmetry_equiv_pos_site_id
 _symmetry_equiv_pos_as_xyz
  1  'x, y, z'
loop_
 _atom_site_type_symbol
 _atom_site_label
 _atom_site_symmetry_multiplicity
 _atom_site_fract_x
 _atom_site_fract_y
 _atom_site_fract_z
 _atom_site_occupancy
  Ni  Ni0  1  0.16953983  0.83476942  0.12500000  1
  Cu  Cu1  1  0.17533003  0.33766451  0.12500000  1
  C  C2  1  0.16448916  0.33224408  0.62500000  1
  C  C3  1  0.16573014  0.83286457  0.62500000  1
  C  C4  1  0.66350198  0.33135419  0.12500000  1
  C  C5  1  0.66779164  0.33340507  0.62500000  1
  C  C6  1  0.66350198  0.83214679  0.12500000  1
  C  C7  1  0.66779164  0.83438557  0.62500000  1
  C  C8  1  0.33861319  0.17484772  0.38687845  1
  C  C9  1  0.33861319  0.17484772  0.86312155  1
  C  C10  1  0.33861319  0.66376648  0.38687845  1
  C  C11  1  0.33861319  0.66376648  0.86312155  1
  C  C12  1  0.83102283  0.16551192  0.37611225  1
  C  C13  1  0.83102283  0.16551192  0.87388775  1
  C  C14  1  0.82291258  0.66145679  0.38306846  1
  C  C15  1  0.82291258  0.66145679  0.86693154  1
