# generated using pymatgen
data_CuNiC4
_symmetry_space_group_name_H-M   'P 1'
_cell_length_a   12.44026800
_cell_length_b   6.17724000
_cell_length_c   9.84264575
_cell_angle_alpha   88.25208942
_cell_angle_beta   90.00000000
_cell_angle_gamma   90.00000000
_symmetry_Int_Tables_number   1
_chemical_formula_structural   CuNiC4
_chemical_formula_sum   'Cu8 Ni8 C32'
_cell_volume   756.02114646
_cell_formula_units_Z   8
loop_
 _symmetry_equiv_pos_site_id
 _symmetry_equiv_pos_as_xyz
  1  'x, y, z'
loop_
 _atom_site_type_symbol
 _atom_site_label
 _atom_site_symmetry_multiplicity
 _atom_site_fract_x
 _atom_site_fract_y
 _atom_site_fract_z
 _atom_site_occupancy
  C  C0  1  0.07520200  0.69387300  0.52464800  1
  C  C1  1  0.92479800  0.30612700  0.47535200  1
  C  C2  1  0.57520200  0.30612700  0.97535200  1
  C  C3  1  0.42479800  0.69387300  0.02464800  1
  C  C4  1  0.12778200  0.94124100  0.95028900  1
  C  C5  1  0.87221800  0.05875900  0.04971100  1
  C  C6  1  0.62778200  0.05875900  0.54971100  1
  C  C7  1  0.37221800  0.94124100  0.45028900  1
  Ni  Ni8  1  0.31870400  0.45669200  0.50655200  1
  Ni  Ni9  1  0.68129600  0.54330800  0.49344800  1
  Ni  Ni10  1  0.81870400  0.54330800  0.99344800  1
  Ni  Ni11  1  0.18129600  0.45669200  0.00655200  1
  Ni  Ni12  1  0.49637800  0.59916800  0.68519100  1
  Ni  Ni13  1  0.50362200  0.40083200  0.31480900  1
  Ni  Ni14  1  0.99637800  0.40083200  0.81480900  1
  Ni  Ni15  1  0.00362200  0.59916800  0.18519100  1
  Cu  Cu16  1  0.18701500  0.95065000  0.69455600  1
  Cu  Cu17  1  0.81298500  0.04935000  0.30544400  1
  Cu  Cu18  1  0.68701500  0.04935000  0.80544400  1
  Cu  Cu19  1  0.31298500  0.95065000  0.19455600  1
  Cu  Cu20  1  0.90990100  0.93877600  0.62825400  1
  Cu  Cu21  1  0.09009900  0.06122400  0.37174600  1
  Cu  Cu22  1  0.40990100  0.06122400  0.87174600  1
  Cu  Cu23  1  0.59009900  0.93877600  0.12825400  1
  C  C24  1  0.72929100  0.76206400  0.50909300  1
  C  C25  1  0.27070900  0.23793600  0.49090700  1
  C  C26  1  0.22929100  0.23793600  0.99090700  1
  C  C27  1  0.77070900  0.76206400  0.00909300  1
  C  C28  1  0.25025200  0.65587000  0.51673500  1
  C  C29  1  0.74974800  0.34413000  0.48326500  1
  C  C30  1  0.75025200  0.34413000  0.98326500  1
  C  C31  1  0.24974800  0.65587000  0.01673500  1
  C  C32  1  0.48637800  0.82353600  0.62414700  1
  C  C33  1  0.51362200  0.17646400  0.37585300  1
  C  C34  1  0.98637800  0.17646400  0.87585300  1
  C  C35  1  0.01362200  0.82353600  0.12414700  1
  C  C36  1  0.09927900  0.52459500  0.88031200  1
  C  C37  1  0.90072100  0.47540500  0.11968800  1
  C  C38  1  0.59927900  0.47540500  0.61968800  1
  C  C39  1  0.40072100  0.52459500  0.38031200  1
  C  C40  1  0.39985700  0.44133100  0.63736600  1
  C  C41  1  0.60014300  0.55866900  0.36263400  1
  C  C42  1  0.89985700  0.55866900  0.86263400  1
  C  C43  1  0.10014300  0.44133100  0.13736600  1
  C  C44  1  0.00504100  0.43281500  0.66330800  1
  C  C45  1  0.99495900  0.56718500  0.33669200  1
  C  C46  1  0.50504100  0.56718500  0.83669200  1
  C  C47  1  0.49495900  0.43281500  0.16330800  1
