# generated using pymatgen
data_CuNiC2
_symmetry_space_group_name_H-M   'P 1'
_cell_length_a   2.96328500
_cell_length_b   8.48043206
_cell_length_c   8.56093489
_cell_angle_alpha   85.88246898
_cell_angle_beta   80.18747187
_cell_angle_gamma   79.97399489
_symmetry_Int_Tables_number   1
_chemical_formula_structural   CuNiC2
_chemical_formula_sum   'Cu4 Ni4 C8'
_cell_volume   208.55426888
_cell_formula_units_Z   4
loop_
 _symmetry_equiv_pos_site_id
 _symmetry_equiv_pos_as_xyz
  1  'x, y, z'
loop_
 _atom_site_type_symbol
 _atom_site_label
 _atom_site_symmetry_multiplicity
 _atom_site_fract_x
 _atom_site_fract_y
 _atom_site_fract_z
 _atom_site_occupancy
  Ni  Ni0  1  0.65445600  0.92495300  0.27425300  1
  Ni  Ni1  1  0.34554400  0.07504700  0.72574700  1
  Ni  Ni2  1  0.92175400  0.28016200  0.37805200  1
  Ni  Ni3  1  0.07824600  0.71983800  0.62194800  1
  Cu  Cu4  1  0.37274100  0.80977200  0.94199900  1
  Cu  Cu5  1  0.78974400  0.60642500  0.31693300  1
  Cu  Cu6  1  0.21025600  0.39357500  0.68306700  1
  Cu  Cu7  1  0.62725900  0.19022800  0.05800100  1
  C  C8  1  0.18628500  0.22312600  0.90465800  1
  C  C9  1  0.62538800  0.56981200  0.67820200  1
  C  C10  1  0.37461200  0.43018800  0.32179800  1
  C  C11  1  0.81371500  0.77687400  0.09534200  1
  C  C12  1  0.91320200  0.89814800  0.76860700  1
  C  C13  1  0.16651800  0.78172600  0.39254900  1
  C  C14  1  0.08679800  0.10185200  0.23139300  1
  C  C15  1  0.83348200  0.21827400  0.60745100  1
