# generated using pymatgen
data_Cu4Ni2C17
_symmetry_space_group_name_H-M   'P 1'
_cell_length_a   3.95706257
_cell_length_b   3.95706222
_cell_length_c   22.38064946
_cell_angle_alpha   95.07177245
_cell_angle_beta   95.07177264
_cell_angle_gamma   89.99999047
_symmetry_Int_Tables_number   1
_chemical_formula_structural   Cu4Ni2C17
_chemical_formula_sum   'Cu4 Ni2 C17'
_cell_volume   347.69430862
_cell_formula_units_Z   1
loop_
 _symmetry_equiv_pos_site_id
 _symmetry_equiv_pos_as_xyz
  1  'x, y, z'
loop_
 _atom_site_type_symbol
 _atom_site_label
 _atom_site_symmetry_multiplicity
 _atom_site_fract_x
 _atom_site_fract_y
 _atom_site_fract_z
 _atom_site_occupancy
  C  C0  1  0.16081800  0.16081800  0.32163400  1
  C  C1  1  0.83918200  0.83918200  0.67836600  1
  C  C2  1  0.07708900  0.07708900  0.15417700  1
  C  C3  1  0.92291100  0.92291100  0.84582300  1
  C  C4  1  0.00000000  0.00000000  0.00000000  1
  Ni  Ni5  1  0.72417000  0.72417000  0.44833900  1
  Ni  Ni6  1  0.27583000  0.27583000  0.55166100  1
  Cu  Cu7  1  0.53776700  0.53776700  0.07553400  1
  Cu  Cu8  1  0.38461400  0.38461400  0.76922700  1
  Cu  Cu9  1  0.61538600  0.61538600  0.23077300  1
  Cu  Cu10  1  0.46223300  0.46223300  0.92446600  1
  C  C11  1  0.39282800  0.89282800  0.78565600  1
  C  C12  1  0.53532100  0.03532100  0.07064300  1
  C  C13  1  0.22165200  0.22165200  0.44330400  1
  C  C14  1  0.96467900  0.46467900  0.92935700  1
  C  C15  1  0.77834800  0.77834800  0.55669600  1
  C  C16  1  0.10717200  0.60717200  0.21434400  1
  C  C17  1  0.60717200  0.10717200  0.21434400  1
  C  C18  1  0.34135200  0.34135200  0.68270500  1
  C  C19  1  0.89282800  0.39282800  0.78565600  1
  C  C20  1  0.03532100  0.53532100  0.07064300  1
  C  C21  1  0.46467900  0.96467900  0.92935700  1
  C  C22  1  0.65864800  0.65864800  0.31729500  1
