# generated using pymatgen
data_CuNi3C8
_symmetry_space_group_name_H-M   'P 1'
_cell_length_a   6.84103605
_cell_length_b   6.84103605
_cell_length_c   9.02574089
_cell_angle_alpha   55.54828205
_cell_angle_beta   55.54828205
_cell_angle_gamma   60.04089260
_symmetry_Int_Tables_number   1
_chemical_formula_structural   CuNi3C8
_chemical_formula_sum   'Cu1 Ni3 C8'
_cell_volume   277.04994751
_cell_formula_units_Z   1
loop_
 _symmetry_equiv_pos_site_id
 _symmetry_equiv_pos_as_xyz
  1  'x, y, z'
loop_
 _atom_site_type_symbol
 _atom_site_label
 _atom_site_symmetry_multiplicity
 _atom_site_fract_x
 _atom_site_fract_y
 _atom_site_fract_z
 _atom_site_occupancy
  Ni  Ni0  1  0.50000000  0.50000000  0.00000000  1
  Ni  Ni1  1  0.50000000  0.00000000  0.00000000  1
  Ni  Ni2  1  0.00000000  0.50000000  0.00000000  1
  Cu  Cu3  1  0.00000000  0.00000000  0.00000000  1
  C  C4  1  0.03724000  0.03724000  0.24827500  1
  C  C5  1  0.54274900  0.54274900  0.24937700  1
  C  C6  1  0.55525400  0.03759600  0.24772000  1
  C  C7  1  0.03759600  0.55525400  0.24772000  1
  C  C8  1  0.44474600  0.96240400  0.75228000  1
  C  C9  1  0.96240400  0.44474600  0.75228000  1
  C  C10  1  0.96276000  0.96276000  0.75172500  1
  C  C11  1  0.45725100  0.45725100  0.75062300  1
