# generated using pymatgen
data_Cu4NiC15
_symmetry_space_group_name_H-M   'P 1'
_cell_length_a   6.37123631
_cell_length_b   6.37123631
_cell_length_c   6.37123631
_cell_angle_alpha   109.47122063
_cell_angle_beta   109.47122063
_cell_angle_gamma   109.47122063
_symmetry_Int_Tables_number   1
_chemical_formula_structural   Cu4NiC15
_chemical_formula_sum   'Cu4 Ni1 C15'
_cell_volume   199.08990987
_cell_formula_units_Z   1
loop_
 _symmetry_equiv_pos_site_id
 _symmetry_equiv_pos_as_xyz
  1  'x, y, z'
loop_
 _atom_site_type_symbol
 _atom_site_label
 _atom_site_symmetry_multiplicity
 _atom_site_fract_x
 _atom_site_fract_y
 _atom_site_fract_z
 _atom_site_occupancy
  Ni  Ni0  1  0.00000000  0.00000000  0.00000000  1
  Cu  Cu1  1  0.00000000  0.50000000  0.00000000  1
  Cu  Cu2  1  0.50000000  0.00000000  0.00000000  1
  Cu  Cu3  1  0.50000000  0.50000000  0.50000000  1
  Cu  Cu4  1  0.00000000  0.00000000  0.50000000  1
  C  C5  1  0.50000000  0.00000000  0.50000000  1
  C  C6  1  0.50000000  0.50000000  0.00000000  1
  C  C7  1  0.00000000  0.50000000  0.50000000  1
  C  C8  1  0.30655800  0.13740500  0.83084700  1
  C  C9  1  0.69344200  0.86259500  0.16915300  1
  C  C10  1  0.69344200  0.52428900  0.83084700  1
  C  C11  1  0.47571100  0.16915300  0.30655800  1
  C  C12  1  0.16915300  0.30655800  0.47571100  1
  C  C13  1  0.83084700  0.30655800  0.13740500  1
  C  C14  1  0.86259500  0.16915300  0.69344200  1
  C  C15  1  0.83084700  0.69344200  0.52428900  1
  C  C16  1  0.30655800  0.47571100  0.16915300  1
  C  C17  1  0.52428900  0.83084700  0.69344200  1
  C  C18  1  0.16915300  0.69344200  0.86259500  1
  C  C19  1  0.13740500  0.83084700  0.30655800  1
