# generated using pymatgen
data_CuNiC4
_symmetry_space_group_name_H-M   'P 1'
_cell_length_a   4.54565860
_cell_length_b   4.54565860
_cell_length_c   7.40105300
_cell_angle_alpha   90.00000000
_cell_angle_beta   90.00000000
_cell_angle_gamma   120.00000876
_symmetry_Int_Tables_number   1
_chemical_formula_structural   CuNiC4
_chemical_formula_sum   'Cu2 Ni2 C8'
_cell_volume   132.43956272
_cell_formula_units_Z   2
loop_
 _symmetry_equiv_pos_site_id
 _symmetry_equiv_pos_as_xyz
  1  'x, y, z'
loop_
 _atom_site_type_symbol
 _atom_site_label
 _atom_site_symmetry_multiplicity
 _atom_site_fract_x
 _atom_site_fract_y
 _atom_site_fract_z
 _atom_site_occupancy
  Ni  Ni0  1  0.33333300  0.66666700  0.92867200  1
  Ni  Ni1  1  0.66666700  0.33333300  0.07132800  1
  C  C2  1  0.00000000  0.00000000  0.50000000  1
  C  C3  1  0.00000000  0.00000000  0.00000000  1
  C  C4  1  0.65817500  0.82908700  0.25322200  1
  C  C5  1  0.17091300  0.82908700  0.25322200  1
  C  C6  1  0.17091300  0.34182500  0.25322200  1
  C  C7  1  0.34182500  0.17091300  0.74677800  1
  C  C8  1  0.82908700  0.17091300  0.74677800  1
  C  C9  1  0.82908700  0.65817500  0.74677800  1
  Cu  Cu10  1  0.66666700  0.33333300  0.43909800  1
  Cu  Cu11  1  0.33333300  0.66666700  0.56090200  1
