# generated using pymatgen
data_Cu4NiC2
_symmetry_space_group_name_H-M   'P 1'
_cell_length_a   5.83346600
_cell_length_b   5.89848379
_cell_length_c   7.05573447
_cell_angle_alpha   86.91431598
_cell_angle_beta   68.61939336
_cell_angle_gamma   86.36620556
_symmetry_Int_Tables_number   1
_chemical_formula_structural   Cu4NiC2
_chemical_formula_sum   'Cu8 Ni2 C4'
_cell_volume   225.49197508
_cell_formula_units_Z   2
loop_
 _symmetry_equiv_pos_site_id
 _symmetry_equiv_pos_as_xyz
  1  'x, y, z'
loop_
 _atom_site_type_symbol
 _atom_site_label
 _atom_site_symmetry_multiplicity
 _atom_site_fract_x
 _atom_site_fract_y
 _atom_site_fract_z
 _atom_site_occupancy
  C  C0  1  0.90735600  0.45872400  0.92004600  1
  C  C1  1  0.27084800  0.61663900  0.33489700  1
  C  C2  1  0.86960100  0.99245700  0.17966600  1
  C  C3  1  0.67568900  0.98153600  0.70622800  1
  Ni  Ni4  1  0.35948500  0.19621400  0.11466800  1
  Ni  Ni5  1  0.68271400  0.49885100  0.47810000  1
  Cu  Cu6  1  0.73231800  0.61529600  0.26687000  1
  Cu  Cu7  1  0.07118200  0.84260300  0.80845800  1
  Cu  Cu8  1  0.27283300  0.95426400  0.17689700  1
  Cu  Cu9  1  0.24760800  0.28149000  0.95803200  1
  Cu  Cu10  1  0.64194600  0.16488400  0.99600900  1
  Cu  Cu11  1  0.84733700  0.61027000  0.57197600  1
  Cu  Cu12  1  0.76884900  0.25077900  0.44696600  1
  Cu  Cu13  1  0.28623300  0.84779300  0.67518700  1
