# generated using pymatgen
data_Cu15(NiC)2
_symmetry_space_group_name_H-M   'P 1'
_cell_length_a   6.44544830
_cell_length_b   6.44544830
_cell_length_c   6.44544848
_cell_angle_alpha   82.59504264
_cell_angle_beta   82.59504264
_cell_angle_gamma   82.59503922
_symmetry_Int_Tables_number   1
_chemical_formula_structural   Cu15(NiC)2
_chemical_formula_sum   'Cu15 Ni2 C2'
_cell_volume   261.59898637
_cell_formula_units_Z   1
loop_
 _symmetry_equiv_pos_site_id
 _symmetry_equiv_pos_as_xyz
  1  'x, y, z'
loop_
 _atom_site_type_symbol
 _atom_site_label
 _atom_site_symmetry_multiplicity
 _atom_site_fract_x
 _atom_site_fract_y
 _atom_site_fract_z
 _atom_site_occupancy
  C  C0  1  0.65263300  0.65263300  0.65263300  1
  C  C1  1  0.34736700  0.34736700  0.34736700  1
  Ni  Ni2  1  0.89683100  0.89683100  0.89683100  1
  Ni  Ni3  1  0.10316900  0.10316900  0.10316900  1
  Cu  Cu4  1  0.00000000  0.00000000  0.50000000  1
  Cu  Cu5  1  0.00000000  0.50000000  0.00000000  1
  Cu  Cu6  1  0.50000000  0.00000000  0.00000000  1
  Cu  Cu7  1  0.29323500  0.70676500  0.00000000  1
  Cu  Cu8  1  0.70676500  0.00000000  0.29323500  1
  Cu  Cu9  1  0.00000000  0.29323500  0.70676500  1
  Cu  Cu10  1  0.29323500  0.00000000  0.70676500  1
  Cu  Cu11  1  0.00000000  0.70676500  0.29323500  1
  Cu  Cu12  1  0.70676500  0.29323500  0.00000000  1
  Cu  Cu13  1  0.34127600  0.34127600  0.84245600  1
  Cu  Cu14  1  0.34127600  0.84245600  0.34127600  1
  Cu  Cu15  1  0.84245600  0.34127600  0.34127600  1
  Cu  Cu16  1  0.65872400  0.65872400  0.15754400  1
  Cu  Cu17  1  0.65872400  0.15754400  0.65872400  1
  Cu  Cu18  1  0.15754400  0.65872400  0.65872400  1
