# generated using pymatgen
data_Cu2Ni2C
_symmetry_space_group_name_H-M   'P 1'
_cell_length_a   6.77458000
_cell_length_b   7.79051000
_cell_length_c   7.97733492
_cell_angle_alpha   88.16095981
_cell_angle_beta   90.00000000
_cell_angle_gamma   90.00000000
_symmetry_Int_Tables_number   1
_chemical_formula_structural   Cu2Ni2C
_chemical_formula_sum   'Cu8 Ni8 C4'
_cell_volume   420.80640289
_cell_formula_units_Z   4
loop_
 _symmetry_equiv_pos_site_id
 _symmetry_equiv_pos_as_xyz
  1  'x, y, z'
loop_
 _atom_site_type_symbol
 _atom_site_label
 _atom_site_symmetry_multiplicity
 _atom_site_fract_x
 _atom_site_fract_y
 _atom_site_fract_z
 _atom_site_occupancy
  C  C0  1  0.38093100  0.00148600  0.23547800  1
  C  C1  1  0.88093100  0.49851400  0.76452200  1
  C  C2  1  0.11906900  0.50148600  0.23547800  1
  C  C3  1  0.61906900  0.99851400  0.76452200  1
  Ni  Ni4  1  0.41950300  0.37096100  0.92663000  1
  Ni  Ni5  1  0.14805800  0.18709200  0.56312700  1
  Ni  Ni6  1  0.64805800  0.31290800  0.43687300  1
  Ni  Ni7  1  0.85194200  0.81290800  0.43687300  1
  Ni  Ni8  1  0.91950300  0.12903900  0.07337000  1
  Ni  Ni9  1  0.58049700  0.62903900  0.07337000  1
  Ni  Ni10  1  0.08049700  0.87096100  0.92663000  1
  Ni  Ni11  1  0.35194200  0.68709200  0.56312700  1
  Cu  Cu12  1  0.39474500  0.38632300  0.62152400  1
  Cu  Cu13  1  0.60525500  0.61367700  0.37847600  1
  Cu  Cu14  1  0.10525500  0.88632300  0.62152400  1
  Cu  Cu15  1  0.16681400  0.16999800  0.86263100  1
  Cu  Cu16  1  0.66681400  0.33000200  0.13736900  1
  Cu  Cu17  1  0.83318600  0.83000200  0.13736900  1
  Cu  Cu18  1  0.33318600  0.66999800  0.86263100  1
  Cu  Cu19  1  0.89474500  0.11367700  0.37847600  1
