# generated using pymatgen
data_Cu(NiC3)3
_symmetry_space_group_name_H-M   'P 1'
_cell_length_a   9.95888440
_cell_length_b   9.95888440
_cell_length_c   14.49624200
_cell_angle_alpha   90.00000000
_cell_angle_beta   90.00000000
_cell_angle_gamma   120.00000266
_symmetry_Int_Tables_number   1
_chemical_formula_structural   Cu(NiC3)3
_chemical_formula_sum   'Cu6 Ni18 C54'
_cell_volume   1245.10917410
_cell_formula_units_Z   6
loop_
 _symmetry_equiv_pos_site_id
 _symmetry_equiv_pos_as_xyz
  1  'x, y, z'
loop_
 _atom_site_type_symbol
 _atom_site_label
 _atom_site_symmetry_multiplicity
 _atom_site_fract_x
 _atom_site_fract_y
 _atom_site_fract_z
 _atom_site_occupancy
  Ni  Ni0  1  0.00000000  0.00000000  0.50000000  1
  Ni  Ni1  1  0.33200100  0.00000000  0.09162100  1
  Ni  Ni2  1  0.33200100  0.33200100  0.59162100  1
  Ni  Ni3  1  0.00000000  0.66799900  0.59162100  1
  Ni  Ni4  1  0.00000000  0.33200100  0.09162100  1
  Ni  Ni5  1  0.66799900  0.66799900  0.09162100  1
  Ni  Ni6  1  0.33200100  0.00000000  0.40837900  1
  Ni  Ni7  1  0.00000000  0.00000000  0.00000000  1
  Ni  Ni8  1  0.33333300  0.66666700  0.75000000  1
  Ni  Ni9  1  0.66666700  0.33333300  0.25000000  1
  Ni  Ni10  1  0.66666700  0.33333300  0.75000000  1
  Ni  Ni11  1  0.33333300  0.66666700  0.25000000  1
  Ni  Ni12  1  0.66799900  0.66799900  0.40837900  1
  Ni  Ni13  1  0.66799900  0.00000000  0.90837900  1
  Ni  Ni14  1  0.00000000  0.66799900  0.90837900  1
  Ni  Ni15  1  0.00000000  0.33200100  0.40837900  1
  Ni  Ni16  1  0.66799900  0.00000000  0.59162100  1
  Ni  Ni17  1  0.33200100  0.33200100  0.90837900  1
  Cu  Cu18  1  0.00000000  0.00000000  0.75000000  1
  Cu  Cu19  1  0.33333300  0.66666700  0.00000000  1
  Cu  Cu20  1  0.66666700  0.33333300  0.50000000  1
  Cu  Cu21  1  0.66666700  0.33333300  0.00000000  1
  Cu  Cu22  1  0.33333300  0.66666700  0.50000000  1
  Cu  Cu23  1  0.00000000  0.00000000  0.25000000  1
  C  C24  1  0.65844300  0.65844300  0.85718900  1
  C  C25  1  0.34155700  0.00000000  0.85718900  1
  C  C26  1  0.00000000  0.34155700  0.85718900  1
  C  C27  1  0.00000000  0.65844300  0.35718900  1
  C  C28  1  0.34155700  0.00000000  0.64281100  1
  C  C29  1  0.34155700  0.34155700  0.35718900  1
  C  C30  1  0.65844300  0.00000000  0.35718900  1
  C  C31  1  0.34155700  0.34155700  0.14281100  1
  C  C32  1  0.00000000  0.65844300  0.14281100  1
  C  C33  1  0.00000000  0.34155700  0.64281100  1
  C  C34  1  0.65844300  0.65844300  0.64281100  1
  C  C35  1  0.65844300  0.00000000  0.14281100  1
  C  C36  1  0.40790700  0.00000000  0.75000000  1
  C  C37  1  0.40790700  0.40790700  0.25000000  1
  C  C38  1  0.00000000  0.59209300  0.25000000  1
  C  C39  1  0.00000000  0.40790700  0.75000000  1
  C  C40  1  0.59209300  0.59209300  0.75000000  1
  C  C41  1  0.59209300  0.00000000  0.25000000  1
  C  C42  1  0.82278700  0.82278700  0.85204900  1
  C  C43  1  0.17721300  0.00000000  0.85204900  1
  C  C44  1  0.00000000  0.17721300  0.85204900  1
  C  C45  1  0.00000000  0.82278700  0.35204900  1
  C  C46  1  0.17721300  0.00000000  0.64795100  1
  C  C47  1  0.17721300  0.17721300  0.35204900  1
  C  C48  1  0.82278700  0.00000000  0.35204900  1
  C  C49  1  0.17721300  0.17721300  0.14795100  1
  C  C50  1  0.00000000  0.82278700  0.14795100  1
  C  C51  1  0.00000000  0.17721300  0.64795100  1
  C  C52  1  0.82278700  0.82278700  0.64795100  1
  C  C53  1  0.82278700  0.00000000  0.14795100  1
  C  C54  1  0.32189100  0.84455200  0.90830500  1
  C  C55  1  0.15544800  0.47734000  0.90830500  1
  C  C56  1  0.52266000  0.67810900  0.90830500  1
  C  C57  1  0.47734000  0.32189100  0.40830500  1
  C  C58  1  0.67810900  0.52266000  0.59169500  1
  C  C59  1  0.67810900  0.15544800  0.40830500  1
  C  C60  1  0.84455200  0.52266000  0.40830500  1
  C  C61  1  0.15544800  0.67810900  0.09169500  1
  C  C62  1  0.52266000  0.84455200  0.09169500  1
  C  C63  1  0.47734000  0.15544800  0.59169500  1
  C  C64  1  0.84455200  0.32189100  0.59169500  1
  C  C65  1  0.32189100  0.47734000  0.09169500  1
  C  C66  1  0.67810900  0.15544800  0.09169500  1
  C  C67  1  0.84455200  0.52266000  0.09169500  1
  C  C68  1  0.47734000  0.32189100  0.09169500  1
  C  C69  1  0.52266000  0.67810900  0.59169500  1
  C  C70  1  0.32189100  0.47734000  0.40830500  1
  C  C71  1  0.32189100  0.84455200  0.59169500  1
  C  C72  1  0.67810900  0.52266000  0.90830500  1
  C  C73  1  0.15544800  0.67810900  0.40830500  1
  C  C74  1  0.52266000  0.84455200  0.40830500  1
  C  C75  1  0.47734000  0.15544800  0.90830500  1
  C  C76  1  0.84455200  0.32189100  0.90830500  1
  C  C77  1  0.15544800  0.47734000  0.59169500  1
