# generated using pymatgen
data_CuNi2C5
_symmetry_space_group_name_H-M   'P 1'
_cell_length_a   11.28110531
_cell_length_b   5.25280081
_cell_length_c   10.19453114
_cell_angle_alpha   90.13748591
_cell_angle_beta   89.84910796
_cell_angle_gamma   69.07203347
_symmetry_Int_Tables_number   1
_chemical_formula_structural   CuNi2C5
_chemical_formula_sum   'Cu6 Ni12 C30'
_cell_volume   564.24340889
_cell_formula_units_Z   6
loop_
 _symmetry_equiv_pos_site_id
 _symmetry_equiv_pos_as_xyz
  1  'x, y, z'
loop_
 _atom_site_type_symbol
 _atom_site_label
 _atom_site_symmetry_multiplicity
 _atom_site_fract_x
 _atom_site_fract_y
 _atom_site_fract_z
 _atom_site_occupancy
  Ni  Ni0  1  0.04642400  0.73474300  0.93558100  1
  Ni  Ni1  1  0.04565400  0.73364300  0.55172500  1
  Ni  Ni2  1  0.28716800  0.26421100  0.06788900  1
  Ni  Ni3  1  0.28799100  0.26339400  0.43634700  1
  Ni  Ni4  1  0.37905800  0.73247000  0.92810200  1
  Ni  Ni5  1  0.37864700  0.72957300  0.56852000  1
  Ni  Ni6  1  0.62267200  0.27581800  0.43566200  1
  Ni  Ni7  1  0.61769000  0.27318300  0.06925100  1
  Ni  Ni8  1  0.71018500  0.73584700  0.93741200  1
  Ni  Ni9  1  0.71209800  0.73372000  0.55764300  1
  Ni  Ni10  1  0.95136900  0.28292000  0.07413600  1
  Ni  Ni11  1  0.93790400  0.37866000  0.74710600  1
  Cu  Cu12  1  0.06532100  0.62304400  0.24876700  1
  Cu  Cu13  1  0.27110100  0.37916300  0.74988100  1
  Cu  Cu14  1  0.39234900  0.62354200  0.24956000  1
  Cu  Cu15  1  0.60623600  0.37350000  0.75030000  1
  Cu  Cu16  1  0.72854500  0.61797500  0.24976400  1
  Cu  Cu17  1  0.95371300  0.28025600  0.43502400  1
  C  C18  1  0.11165100  0.37234600  0.44614200  1
  C  C19  1  0.10538100  0.37503900  0.05379000  1
  C  C20  1  0.06788100  0.53609800  0.75653800  1
  C  C21  1  0.01605500  0.88890600  0.39240200  1
  C  C22  1  0.01177800  0.91086700  0.10754100  1
  C  C23  1  0.32578700  0.09083700  0.61250700  1
  C  C24  1  0.32451200  0.09137600  0.88685700  1
  C  C25  1  0.26324900  0.42490000  0.24780600  1
  C  C26  1  0.22757200  0.63667900  0.57356200  1
  C  C27  1  0.22508400  0.63905800  0.93103500  1
  C  C28  1  0.43582000  0.37292100  0.05342200  1
  C  C29  1  0.43670300  0.38235500  0.44214600  1
  C  C30  1  0.40889100  0.56608600  0.75115700  1
  C  C31  1  0.34130400  0.90648800  0.11061800  1
  C  C32  1  0.34561700  0.90455600  0.38945300  1
  C  C33  1  0.65203000  0.09159100  0.61037100  1
  C  C34  1  0.65578100  0.08589700  0.88637400  1
  C  C35  1  0.58930900  0.43036800  0.24644900  1
  C  C36  1  0.56403100  0.62899200  0.56720600  1
  C  C37  1  0.56375100  0.62676400  0.93799000  1
  C  C38  1  0.76329100  0.38790800  0.43276500  1
  C  C39  1  0.76973500  0.36694100  0.06094900  1
  C  C40  1  0.75180200  0.53744900  0.75173700  1
  C  C41  1  0.68330500  0.90971100  0.38746500  1
  C  C42  1  0.67647600  0.90646800  0.11130400  1
  C  C43  1  0.98587300  0.09692600  0.88045500  1
  C  C44  1  0.98506300  0.09585200  0.62856500  1
  C  C45  1  0.92767100  0.44814100  0.23844600  1
  C  C46  1  0.89467000  0.63265400  0.57635100  1
  C  C47  1  0.89579900  0.62016200  0.93592600  1
