# generated using pymatgen
data_Cu5(NiC8)2
_symmetry_space_group_name_H-M   'P 1'
_cell_length_a   11.17708200
_cell_length_b   11.17708200
_cell_length_c   7.85118900
_cell_angle_alpha   90.00000000
_cell_angle_beta   90.00000000
_cell_angle_gamma   90.00000000
_symmetry_Int_Tables_number   1
_chemical_formula_structural   Cu5(NiC8)2
_chemical_formula_sum   'Cu20 Ni8 C64'
_cell_volume   980.82676037
_cell_formula_units_Z   4
loop_
 _symmetry_equiv_pos_site_id
 _symmetry_equiv_pos_as_xyz
  1  'x, y, z'
loop_
 _atom_site_type_symbol
 _atom_site_label
 _atom_site_symmetry_multiplicity
 _atom_site_fract_x
 _atom_site_fract_y
 _atom_site_fract_z
 _atom_site_occupancy
  C  C0  1  0.25000000  0.75000000  0.00000000  1
  C  C1  1  0.25000000  0.25000000  0.00000000  1
  C  C2  1  0.75000000  0.75000000  0.00000000  1
  C  C3  1  0.75000000  0.25000000  0.00000000  1
  C  C4  1  0.00000000  0.00000000  0.50000000  1
  C  C5  1  0.50000000  0.50000000  0.50000000  1
  C  C6  1  0.33821800  0.67501400  0.33721400  1
  C  C7  1  0.27456100  0.00000000  0.52532800  1
  C  C8  1  0.50000000  0.77456100  0.52532800  1
  C  C9  1  0.50000000  0.22543900  0.52532800  1
  C  C10  1  0.83635100  0.50000000  0.97154900  1
  C  C11  1  0.00000000  0.66364900  0.97154900  1
  C  C12  1  0.00000000  0.33635100  0.97154900  1
  C  C13  1  0.16364900  0.50000000  0.97154900  1
  C  C14  1  0.66364900  0.00000000  0.02845100  1
  C  C15  1  0.33635100  0.00000000  0.02845100  1
  C  C16  1  0.50000000  0.83635100  0.02845100  1
  C  C17  1  0.50000000  0.16364900  0.02845100  1
  C  C18  1  0.88622500  0.38622500  0.25245300  1
  C  C19  1  0.88622500  0.61377500  0.25245300  1
  C  C20  1  0.11377500  0.38622500  0.25245300  1
  C  C21  1  0.11377500  0.61377500  0.25245300  1
  C  C22  1  0.61377500  0.88622500  0.74754700  1
  C  C23  1  0.38622500  0.11377500  0.74754700  1
  C  C24  1  0.38622500  0.88622500  0.74754700  1
  C  C25  1  0.61377500  0.11377500  0.74754700  1
  C  C26  1  0.89053400  0.39053400  0.69822900  1
  C  C27  1  0.89053400  0.60946600  0.69822900  1
  C  C28  1  0.10946600  0.39053400  0.69822900  1
  C  C29  1  0.10946600  0.60946600  0.69822900  1
  C  C30  1  0.60946600  0.89053400  0.30177100  1
  C  C31  1  0.39053400  0.10946600  0.30177100  1
  C  C32  1  0.39053400  0.89053400  0.30177100  1
  C  C33  1  0.60946600  0.10946600  0.30177100  1
  C  C34  1  0.33821800  0.32498600  0.33721400  1
  C  C35  1  0.82498600  0.16178200  0.33721400  1
  C  C36  1  0.17501400  0.83821800  0.33721400  1
  C  C37  1  0.66178200  0.67501400  0.33721400  1
  C  C38  1  0.16178200  0.82498600  0.66278600  1
  C  C39  1  0.83821800  0.17501400  0.66278600  1
  C  C40  1  0.32498600  0.33821800  0.66278600  1
  C  C41  1  0.61024100  0.50000000  0.88890900  1
  C  C42  1  0.16178200  0.17501400  0.66278600  1
  C  C43  1  0.67501400  0.33821800  0.66278600  1
  C  C44  1  0.32498600  0.66178200  0.66278600  1
  C  C45  1  0.83821800  0.82498600  0.66278600  1
  C  C46  1  0.72543900  0.00000000  0.52532800  1
  C  C47  1  0.00000000  0.88975900  0.88890900  1
  C  C48  1  0.17501400  0.16178200  0.33721400  1
  C  C49  1  0.82498600  0.83821800  0.33721400  1
  C  C50  1  0.00000000  0.11024100  0.88890900  1
  C  C51  1  0.38975900  0.50000000  0.88890900  1
  C  C52  1  0.50000000  0.00000000  0.53122200  1
  C  C53  1  0.00000000  0.50000000  0.46877800  1
  C  C54  1  0.11024100  0.00000000  0.11109100  1
  C  C55  1  0.22543900  0.50000000  0.47467200  1
  C  C56  1  0.00000000  0.27456100  0.47467200  1
  C  C57  1  0.00000000  0.72543900  0.47467200  1
  C  C58  1  0.77456100  0.50000000  0.47467200  1
  C  C59  1  0.50000000  0.61024100  0.11109100  1
  C  C60  1  0.50000000  0.38975900  0.11109100  1
  C  C61  1  0.88975900  0.00000000  0.11109100  1
  C  C62  1  0.67501400  0.66178200  0.66278600  1
  C  C63  1  0.66178200  0.32498600  0.33721400  1
  Ni  Ni64  1  0.50000000  0.68148700  0.82421500  1
  Ni  Ni65  1  0.31851300  0.50000000  0.17578500  1
  Ni  Ni66  1  0.00000000  0.18148700  0.17578500  1
  Ni  Ni67  1  0.00000000  0.81851300  0.17578500  1
  Ni  Ni68  1  0.68148700  0.50000000  0.17578500  1
  Ni  Ni69  1  0.18148700  0.00000000  0.82421500  1
  Ni  Ni70  1  0.81851300  0.00000000  0.82421500  1
  Ni  Ni71  1  0.50000000  0.31851300  0.82421500  1
  Cu  Cu72  1  0.68617900  0.18617900  0.51766800  1
  Cu  Cu73  1  0.31382100  0.81382100  0.51766800  1
  Cu  Cu74  1  0.31382100  0.18617900  0.51766800  1
  Cu  Cu75  1  0.68617900  0.81382100  0.51766800  1
  Cu  Cu76  1  0.18617900  0.68617900  0.48233200  1
  Cu  Cu77  1  0.18617900  0.31382100  0.48233200  1
  Cu  Cu78  1  0.50000000  0.25587000  0.26192800  1
  Cu  Cu79  1  0.50000000  0.74413000  0.26192800  1
  Cu  Cu80  1  0.24413000  0.00000000  0.26192800  1
  Cu  Cu81  1  0.75587000  0.00000000  0.26192800  1
  Cu  Cu82  1  0.25587000  0.50000000  0.73807200  1
  Cu  Cu83  1  0.00000000  0.24413000  0.73807200  1
  Cu  Cu84  1  0.00000000  0.75587000  0.73807200  1
  Cu  Cu85  1  0.74413000  0.50000000  0.73807200  1
  Cu  Cu86  1  0.50000000  0.00000000  0.14854700  1
  Cu  Cu87  1  0.00000000  0.50000000  0.85145300  1
  Cu  Cu88  1  0.50000000  0.00000000  0.89311600  1
  Cu  Cu89  1  0.00000000  0.50000000  0.10688400  1
  Cu  Cu90  1  0.81382100  0.68617900  0.48233200  1
  Cu  Cu91  1  0.81382100  0.31382100  0.48233200  1
