# generated using pymatgen
data_CuNi14C
_symmetry_space_group_name_H-M   'P 1'
_cell_length_a   6.23015711
_cell_length_b   6.09913182
_cell_length_c   10.02955509
_cell_angle_alpha   90.00000000
_cell_angle_beta   90.00000000
_cell_angle_gamma   119.30671595
_symmetry_Int_Tables_number   1
_chemical_formula_structural   CuNi14C
_chemical_formula_sum   'Cu1 Ni14 C1'
_cell_volume   332.33118815
_cell_formula_units_Z   1
loop_
 _symmetry_equiv_pos_site_id
 _symmetry_equiv_pos_as_xyz
  1  'x, y, z'
loop_
 _atom_site_type_symbol
 _atom_site_label
 _atom_site_symmetry_multiplicity
 _atom_site_fract_x
 _atom_site_fract_y
 _atom_site_fract_z
 _atom_site_occupancy
  Ni  Ni0  1  0.16856633  0.33428267  0.62500000  1
  Ni  Ni1  1  0.16572620  0.83286260  0.62500000  1
  Ni  Ni2  1  0.66304591  0.32672725  0.12500000  1
  Ni  Ni3  1  0.66292308  0.33348398  0.62500000  1
  Ni  Ni4  1  0.66304591  0.83631766  0.12500000  1
  Ni  Ni5  1  0.66292308  0.82943810  0.62500000  1
  Ni  Ni6  1  0.32810230  0.16042473  0.35889464  1
  Ni  Ni7  1  0.32810230  0.16042473  0.89110536  1
  Ni  Ni8  1  0.32810230  0.66767857  0.35889464  1
  Ni  Ni9  1  0.32810230  0.66767857  0.89110536  1
  Ni  Ni10  1  0.84125512  0.17062806  0.37338984  1
  Ni  Ni11  1  0.84125512  0.17062806  0.87661016  1
  Ni  Ni12  1  0.84810861  0.67405481  0.36096003  1
  Ni  Ni13  1  0.84810861  0.67405481  0.88903997  1
  Cu  Cu14  1  0.15344205  0.32672053  0.12500000  1
  C  C15  1  0.16919078  0.83459489  0.12500000  1
