# generated using pymatgen
data_Cu2Ni10C
_symmetry_space_group_name_H-M   'P 1'
_cell_length_a   6.75854359
_cell_length_b   6.75854359
_cell_length_c   8.97543500
_cell_angle_alpha   90.00000000
_cell_angle_beta   90.00000000
_cell_angle_gamma   97.20199060
_symmetry_Int_Tables_number   1
_chemical_formula_structural   Cu2Ni10C
_chemical_formula_sum   'Cu4 Ni20 C2'
_cell_volume   406.74453166
_cell_formula_units_Z   2
loop_
 _symmetry_equiv_pos_site_id
 _symmetry_equiv_pos_as_xyz
  1  'x, y, z'
loop_
 _atom_site_type_symbol
 _atom_site_label
 _atom_site_symmetry_multiplicity
 _atom_site_fract_x
 _atom_site_fract_y
 _atom_site_fract_z
 _atom_site_occupancy
  C  C0  1  0.12584100  0.87415900  0.25000000  1
  C  C1  1  0.87415900  0.12584100  0.75000000  1
  Ni  Ni2  1  0.58541200  0.86564600  0.25000000  1
  Ni  Ni3  1  0.41458800  0.13435400  0.75000000  1
  Ni  Ni4  1  0.86564600  0.58541200  0.75000000  1
  Ni  Ni5  1  0.13435400  0.41458800  0.25000000  1
  Ni  Ni6  1  0.47818200  0.21984100  0.25000000  1
  Ni  Ni7  1  0.52181800  0.78015900  0.75000000  1
  Ni  Ni8  1  0.21984100  0.47818200  0.75000000  1
  Ni  Ni9  1  0.78015900  0.52181800  0.25000000  1
  Ni  Ni10  1  0.15837300  0.84162700  0.90282800  1
  Ni  Ni11  1  0.84162700  0.15837300  0.40282800  1
  Ni  Ni12  1  0.84162700  0.15837300  0.09717200  1
  Ni  Ni13  1  0.15837300  0.84162700  0.59717200  1
  Ni  Ni14  1  0.37478000  0.62522000  0.45108800  1
  Ni  Ni15  1  0.62522000  0.37478000  0.95108800  1
  Ni  Ni16  1  0.62522000  0.37478000  0.54891200  1
  Ni  Ni17  1  0.37478000  0.62522000  0.04891200  1
  Ni  Ni18  1  0.22736600  0.22736600  0.50000000  1
  Ni  Ni19  1  0.77263400  0.77263400  0.00000000  1
  Ni  Ni20  1  0.77263400  0.77263400  0.50000000  1
  Ni  Ni21  1  0.22736600  0.22736600  0.00000000  1
  Cu  Cu22  1  0.50000000  0.00000000  0.50000000  1
  Cu  Cu23  1  0.50000000  0.00000000  0.00000000  1
  Cu  Cu24  1  0.00000000  0.50000000  0.50000000  1
  Cu  Cu25  1  0.00000000  0.50000000  0.00000000  1
