# generated using pymatgen
data_Cu12Ni2C31
_symmetry_space_group_name_H-M   'P 1'
_cell_length_a   8.72650800
_cell_length_b   9.21110702
_cell_length_c   15.81273928
_cell_angle_alpha   76.08415431
_cell_angle_beta   73.98238717
_cell_angle_gamma   61.72559390
_symmetry_Int_Tables_number   1
_chemical_formula_structural   Cu12Ni2C31
_chemical_formula_sum   'Cu24 Ni4 C62'
_cell_volume   1066.84558385
_cell_formula_units_Z   2
loop_
 _symmetry_equiv_pos_site_id
 _symmetry_equiv_pos_as_xyz
  1  'x, y, z'
loop_
 _atom_site_type_symbol
 _atom_site_label
 _atom_site_symmetry_multiplicity
 _atom_site_fract_x
 _atom_site_fract_y
 _atom_site_fract_z
 _atom_site_occupancy
  C  C0  1  0.12752800  0.75000000  0.25000000  1
  C  C1  1  0.87247200  0.25000000  0.75000000  1
  C  C2  1  0.72900200  0.24706700  0.02423400  1
  C  C3  1  0.00030400  0.25293300  0.47576600  1
  C  C4  1  0.27099800  0.75293300  0.97576600  1
  C  C5  1  0.99969600  0.74706700  0.52423400  1
  C  C6  1  0.89572200  0.86093300  0.09760500  1
  C  C7  1  0.85426100  0.63906700  0.40239500  1
  C  C8  1  0.10427800  0.13906700  0.90239500  1
  C  C9  1  0.14573900  0.36093300  0.59760500  1
  C  C10  1  0.50991700  0.55838800  0.13539500  1
  C  C11  1  0.20370000  0.94161200  0.36460500  1
  C  C12  1  0.49008300  0.44161200  0.86460500  1
  C  C13  1  0.79630000  0.05838800  0.63539500  1
  C  C14  1  0.81447600  0.75729600  0.14714500  1
  C  C15  1  0.71891700  0.74270400  0.35285500  1
  C  C16  1  0.18552400  0.24270400  0.85285500  1
  C  C17  1  0.28108300  0.25729600  0.64714500  1
  C  C18  1  0.60662000  0.62602700  0.15834300  1
  C  C19  1  0.39098900  0.87397300  0.34165700  1
  C  C20  1  0.39338000  0.37397300  0.84165700  1
  C  C21  1  0.60901100  0.12602700  0.65834300  1
  C  C22  1  0.33994900  0.30432300  0.41549400  1
  C  C23  1  0.05976700  0.19567700  0.08450600  1
  C  C24  1  0.66005100  0.69567700  0.58450600  1
  C  C25  1  0.94023300  0.80432300  0.91549400  1
  C  C26  1  0.38532600  0.40100800  0.31167800  1
  C  C27  1  0.09801200  0.09899200  0.18832200  1
  C  C28  1  0.61467400  0.59899200  0.68832200  1
  C  C29  1  0.90198800  0.90100800  0.81167800  1
  C  C30  1  0.62402900  0.06266300  0.38692300  1
  C  C31  1  0.07361400  0.43733700  0.11307700  1
  C  C32  1  0.37597100  0.93733700  0.61307700  1
  C  C33  1  0.92638600  0.56266300  0.88692300  1
  C  C34  1  0.48453400  0.10750800  0.31042900  1
  C  C35  1  0.90247100  0.39249200  0.18957100  1
  C  C36  1  0.51546600  0.89249200  0.68957100  1
  C  C37  1  0.09752900  0.60750800  0.81042900  1
  C  C38  1  0.66338100  0.16588400  0.27681800  1
  C  C39  1  0.10608300  0.33411600  0.22318200  1
  C  C40  1  0.33661900  0.83411600  0.72318200  1
  C  C41  1  0.89391700  0.66588400  0.77681800  1
  C  C42  1  0.63004400  0.40948700  0.34153600  1
  C  C43  1  0.38106600  0.09051300  0.15846400  1
  C  C44  1  0.36995600  0.59051300  0.65846400  1
  C  C45  1  0.61893400  0.90948700  0.84153600  1
  C  C46  1  0.43617300  0.50006000  0.42392300  1
  C  C47  1  0.36015600  0.99994000  0.07607700  1
  C  C48  1  0.56382700  0.49994000  0.57607700  1
  C  C49  1  0.63984400  0.00006000  0.92392300  1
  C  C50  1  0.60508000  0.29468900  0.44855000  1
  C  C51  1  0.34831900  0.20531100  0.05145000  1
  C  C52  1  0.39492000  0.70531100  0.55145000  1
  C  C53  1  0.65168100  0.79468900  0.94855000  1
  C  C54  1  0.56209000  0.15121600  0.33243200  1
  C  C55  1  0.04573800  0.34878400  0.16756800  1
  C  C56  1  0.43791000  0.84878400  0.66756800  1
  C  C57  1  0.95426200  0.65121600  0.83243200  1
  C  C58  1  0.53441900  0.38483100  0.39706400  1
  C  C59  1  0.31631400  0.11516900  0.10293600  1
  C  C60  1  0.46558100  0.61516900  0.60293600  1
  C  C61  1  0.68368600  0.88483100  0.89706400  1
  Ni  Ni62  1  0.44138500  0.31529500  0.36436000  1
  Ni  Ni63  1  0.12104100  0.18470500  0.13564000  1
  Ni  Ni64  1  0.55861500  0.68470500  0.63564000  1
  Ni  Ni65  1  0.87895900  0.81529500  0.86436000  1
  Cu  Cu66  1  0.02797700  0.76565000  0.01904400  1
  Cu  Cu67  1  0.81267100  0.73435000  0.48095600  1
  Cu  Cu68  1  0.97202300  0.23435000  0.98095600  1
  Cu  Cu69  1  0.18732900  0.26565000  0.51904400  1
  Cu  Cu70  1  0.74388900  0.02252300  0.06770300  1
  Cu  Cu71  1  0.83411500  0.47747700  0.43229700  1
  Cu  Cu72  1  0.25611100  0.97747700  0.93229700  1
  Cu  Cu73  1  0.16588500  0.52252300  0.56770300  1
  Cu  Cu74  1  0.98968000  0.88556600  0.15812700  1
  Cu  Cu75  1  0.03337300  0.61443400  0.34187300  1
  Cu  Cu76  1  0.01032000  0.11443400  0.84187300  1
  Cu  Cu77  1  0.96662700  0.38556600  0.65812700  1
  Cu  Cu78  1  0.64000900  0.37760300  0.12311700  1
  Cu  Cu79  1  0.14072800  0.12239700  0.37688300  1
  Cu  Cu80  1  0.35999100  0.62239700  0.87688300  1
  Cu  Cu81  1  0.85927200  0.87760300  0.62311700  1
  Cu  Cu82  1  0.44285300  0.67188200  0.05273100  1
  Cu  Cu83  1  0.16746500  0.82811800  0.44726900  1
  Cu  Cu84  1  0.55714700  0.32811800  0.94726900  1
  Cu  Cu85  1  0.83253500  0.17188200  0.55273100  1
  Cu  Cu86  1  0.35999800  0.56351000  0.21654300  1
  Cu  Cu87  1  0.14005200  0.93649000  0.28345700  1
  Cu  Cu88  1  0.64000200  0.43649000  0.78345700  1
  Cu  Cu89  1  0.85994800  0.06351000  0.71654300  1
