# generated using pymatgen
data_Cu4NiC15
_symmetry_space_group_name_H-M   'P 1'
_cell_length_a   6.70340902
_cell_length_b   6.70340902
_cell_length_c   6.70340902
_cell_angle_alpha   109.47122063
_cell_angle_beta   109.47122063
_cell_angle_gamma   109.47122063
_symmetry_Int_Tables_number   1
_chemical_formula_structural   Cu4NiC15
_chemical_formula_sum   'Cu4 Ni1 C15'
_cell_volume   231.88105455
_cell_formula_units_Z   1
loop_
 _symmetry_equiv_pos_site_id
 _symmetry_equiv_pos_as_xyz
  1  'x, y, z'
loop_
 _atom_site_type_symbol
 _atom_site_label
 _atom_site_symmetry_multiplicity
 _atom_site_fract_x
 _atom_site_fract_y
 _atom_site_fract_z
 _atom_site_occupancy
  Ni  Ni0  1  0.00000000  0.00000000  0.00000000  1
  C  C1  1  0.00000000  0.50000000  0.50000000  1
  C  C2  1  0.50000000  0.50000000  0.00000000  1
  C  C3  1  0.50000000  0.00000000  0.50000000  1
  Cu  Cu4  1  0.50000000  0.00000000  0.00000000  1
  Cu  Cu5  1  0.50000000  0.50000000  0.50000000  1
  Cu  Cu6  1  0.00000000  0.50000000  0.00000000  1
  Cu  Cu7  1  0.00000000  0.00000000  0.50000000  1
  C  C8  1  0.29958600  0.83368300  0.13326900  1
  C  C9  1  0.70041400  0.16631700  0.86673100  1
  C  C10  1  0.70041400  0.83368300  0.53409700  1
  C  C11  1  0.86673100  0.70041400  0.16631700  1
  C  C12  1  0.83368300  0.13326900  0.29958600  1
  C  C13  1  0.16631700  0.46590300  0.29958600  1
  C  C14  1  0.46590300  0.29958600  0.16631700  1
  C  C15  1  0.16631700  0.86673100  0.70041400  1
  C  C16  1  0.29958600  0.16631700  0.46590300  1
  C  C17  1  0.13326900  0.29958600  0.83368300  1
  C  C18  1  0.83368300  0.53409700  0.70041400  1
  C  C19  1  0.53409700  0.70041400  0.83368300  1
