# generated using pymatgen
data_CuNiC25
_symmetry_space_group_name_H-M   'P 1'
_cell_length_a   6.43974124
_cell_length_b   15.98059330
_cell_length_c   8.57664454
_cell_angle_alpha   80.03133523
_cell_angle_beta   103.81831501
_cell_angle_gamma   88.95732699
_symmetry_Int_Tables_number   1
_chemical_formula_structural   CuNiC25
_chemical_formula_sum   'Cu2 Ni2 C50'
_cell_volume   842.50765564
_cell_formula_units_Z   2
loop_
 _symmetry_equiv_pos_site_id
 _symmetry_equiv_pos_as_xyz
  1  'x, y, z'
loop_
 _atom_site_type_symbol
 _atom_site_label
 _atom_site_symmetry_multiplicity
 _atom_site_fract_x
 _atom_site_fract_y
 _atom_site_fract_z
 _atom_site_occupancy
  C  C0  1  0.07091700  0.47389300  0.48661800  1
  C  C1  1  0.57114400  0.97401600  0.98717800  1
  Ni  Ni2  1  0.39172800  0.61158300  0.16760000  1
  Ni  Ni3  1  0.89184100  0.11155800  0.66734300  1
  Cu  Cu4  1  0.61713900  0.38840400  0.83774700  1
  Cu  Cu5  1  0.11723600  0.88854500  0.33753400  1
  C  C6  1  0.89656200  0.20457000  0.98125200  1
  C  C7  1  0.39593900  0.70445300  0.48109700  1
  C  C8  1  0.00847500  0.09274700  0.31556500  1
  C  C9  1  0.50796500  0.59275300  0.81566400  1
  C  C10  1  0.59999400  0.29576400  0.51703500  1
  C  C11  1  0.10030800  0.79582000  0.01725600  1
  C  C12  1  0.48964400  0.40785600  0.18220100  1
  C  C13  1  0.98965900  0.90756900  0.68213000  1
  C  C14  1  0.14276900  0.35770100  0.92322900  1
  C  C15  1  0.64299900  0.85734300  0.42337900  1
  C  C16  1  0.35713300  0.14202800  0.57126700  1
  C  C17  1  0.85719300  0.64210300  0.07078100  1
  C  C18  1  0.92562300  0.17484200  0.17540200  1
  C  C19  1  0.42422700  0.67473000  0.67518100  1
  C  C20  1  0.57602600  0.32599200  0.32465500  1
  C  C21  1  0.07733400  0.82605700  0.82498300  1
  C  C22  1  0.69192100  0.25812000  0.91789200  1
  C  C23  1  0.19168400  0.75820600  0.41762900  1
  C  C24  1  0.87038300  0.09234500  0.43538300  1
  C  C25  1  0.37058000  0.59226800  0.93600700  1
  C  C26  1  0.79991900  0.23652200  0.57693900  1
  C  C27  1  0.30030800  0.73663600  0.07777400  1
  C  C28  1  0.64054000  0.41498600  0.07387000  1
  C  C29  1  0.14044000  0.91503100  0.57370400  1
  C  C30  1  0.29610100  0.36310900  0.81609500  1
  C  C31  1  0.79633100  0.86286900  0.31625400  1
  C  C32  1  0.57022300  0.09319200  0.64166400  1
  C  C33  1  0.07061500  0.59327500  0.13982700  1
  C  C34  1  0.20611300  0.13270200  0.68208300  1
  C  C35  1  0.70663000  0.63258300  0.18194100  1
  C  C36  1  0.93575500  0.41015800  0.85715700  1
  C  C37  1  0.43617200  0.90991700  0.35764700  1
  C  C38  1  0.92113400  0.12772600  0.90411000  1
  C  C39  1  0.41994200  0.62756100  0.40375000  1
  C  C40  1  0.02021000  0.01673700  0.23853600  1
  C  C41  1  0.51968900  0.51668600  0.73880900  1
  C  C42  1  0.58150700  0.37190700  0.59222900  1
  C  C43  1  0.08160200  0.87206100  0.09214400  1
  C  C44  1  0.45341600  0.48423300  0.25836600  1
  C  C45  1  0.95179600  0.98401600  0.75759000  1
  C  C46  1  0.10508200  0.25814000  0.97853800  1
  C  C47  1  0.60492000  0.75772600  0.47835900  1
  C  C48  1  0.24949400  0.11648700  0.39872900  1
  C  C49  1  0.74876200  0.61690600  0.89812200  1
  C  C50  1  0.38922800  0.24162300  0.51888600  1
  C  C51  1  0.88962500  0.74167800  0.01882500  1
  C  C52  1  0.25611300  0.38023900  0.10051000  1
  C  C53  1  0.75651400  0.87943600  0.60093100  1
