# generated using pymatgen
data_Cu4Ni2C9
_symmetry_space_group_name_H-M   'P 1'
_cell_length_a   5.34490927
_cell_length_b   5.34490927
_cell_length_c   14.26238400
_cell_angle_alpha   90.00000000
_cell_angle_beta   90.00000000
_cell_angle_gamma   119.99999099
_symmetry_Int_Tables_number   1
_chemical_formula_structural   Cu4Ni2C9
_chemical_formula_sum   'Cu8 Ni4 C18'
_cell_volume   352.86084640
_cell_formula_units_Z   2
loop_
 _symmetry_equiv_pos_site_id
 _symmetry_equiv_pos_as_xyz
  1  'x, y, z'
loop_
 _atom_site_type_symbol
 _atom_site_label
 _atom_site_symmetry_multiplicity
 _atom_site_fract_x
 _atom_site_fract_y
 _atom_site_fract_z
 _atom_site_occupancy
  Ni  Ni0  1  0.00000000  0.00000000  0.64123700  1
  Ni  Ni1  1  0.00000000  0.00000000  0.35876300  1
  Ni  Ni2  1  0.00000000  0.00000000  0.85876300  1
  Ni  Ni3  1  0.00000000  0.00000000  0.14123700  1
  Cu  Cu4  1  0.33333300  0.66666700  0.51578300  1
  Cu  Cu5  1  0.66666700  0.33333300  0.48421700  1
  Cu  Cu6  1  0.66666700  0.33333300  0.98421700  1
  Cu  Cu7  1  0.33333300  0.66666700  0.01578300  1
  Cu  Cu8  1  0.33333300  0.66666700  0.80662400  1
  Cu  Cu9  1  0.66666700  0.33333300  0.19337600  1
  Cu  Cu10  1  0.66666700  0.33333300  0.69337600  1
  Cu  Cu11  1  0.33333300  0.66666700  0.30662400  1
  C  C12  1  0.33766700  0.31421400  0.58395000  1
  C  C13  1  0.66233300  0.68578600  0.41605000  1
  C  C14  1  0.68578600  0.02345300  0.58395000  1
  C  C15  1  0.31421400  0.33766700  0.91605000  1
  C  C16  1  0.31421400  0.97654700  0.41605000  1
  C  C17  1  0.68578600  0.66233300  0.08395000  1
  C  C18  1  0.97654700  0.66233300  0.58395000  1
  C  C19  1  0.02345300  0.68578600  0.91605000  1
  C  C20  1  0.02345300  0.33766700  0.41605000  1
  C  C21  1  0.97654700  0.31421400  0.08395000  1
  C  C22  1  0.66233300  0.97654700  0.91605000  1
  C  C23  1  0.33766700  0.02345300  0.08395000  1
  C  C24  1  0.28315500  0.00000000  0.75000000  1
  C  C25  1  0.71684500  0.00000000  0.25000000  1
  C  C26  1  0.00000000  0.28315500  0.75000000  1
  C  C27  1  0.00000000  0.71684500  0.25000000  1
  C  C28  1  0.71684500  0.71684500  0.75000000  1
  C  C29  1  0.28315500  0.28315500  0.25000000  1
