# generated using pymatgen
data_Cu11NiC4
_symmetry_space_group_name_H-M   'P 1'
_cell_length_a   5.30443700
_cell_length_b   5.47413950
_cell_length_c   15.65686853
_cell_angle_alpha   80.63646074
_cell_angle_beta   89.92028582
_cell_angle_gamma   89.83572605
_symmetry_Int_Tables_number   1
_chemical_formula_structural   Cu11NiC4
_chemical_formula_sum   'Cu22 Ni2 C8'
_cell_volume   448.57245728
_cell_formula_units_Z   2
loop_
 _symmetry_equiv_pos_site_id
 _symmetry_equiv_pos_as_xyz
  1  'x, y, z'
loop_
 _atom_site_type_symbol
 _atom_site_label
 _atom_site_symmetry_multiplicity
 _atom_site_fract_x
 _atom_site_fract_y
 _atom_site_fract_z
 _atom_site_occupancy
  C  C0  1  0.22302500  0.46928600  0.48944800  1
  C  C1  1  0.33441500  0.86687600  0.83067600  1
  C  C2  1  0.99864600  0.00338200  0.99576000  1
  C  C3  1  0.99261400  0.32771800  0.32536600  1
  C  C4  1  0.50637500  0.16720300  0.66498600  1
  C  C5  1  0.49883600  0.49602300  0.00710400  1
  C  C6  1  0.47409100  0.79977700  0.33099300  1
  C  C7  1  0.99655900  0.66460600  0.66887600  1
  Ni  Ni8  1  0.08812000  0.02299200  0.89320400  1
  Ni  Ni9  1  0.28505500  0.54531300  0.35292100  1
  Cu  Cu10  1  0.20635500  0.03120800  0.35268000  1
  Cu  Cu11  1  0.29801600  0.20184000  0.02541400  1
  Cu  Cu12  1  0.71009700  0.13329900  0.31242600  1
  Cu  Cu13  1  0.41218800  0.21813500  0.54653600  1
  Cu  Cu14  1  0.09057100  0.38031500  0.21743000  1
  Cu  Cu15  1  0.57095000  0.11082200  0.78415700  1
  Cu  Cu16  1  0.93842100  0.30818000  0.44162600  1
  Cu  Cu17  1  0.58716400  0.46255900  0.11675500  1
  Cu  Cu18  1  0.19356300  0.36225800  0.68649700  1
  Cu  Cu19  1  0.20764800  0.68786400  0.02752200  1
  Cu  Cu20  1  0.78832700  0.30804700  0.97844500  1
  Cu  Cu21  1  0.70601500  0.48821200  0.64204500  1
  Cu  Cu22  1  0.78005700  0.62850700  0.30796800  1
  Cu  Cu23  1  0.41376800  0.54705100  0.89151500  1
  Cu  Cu24  1  0.09654500  0.70500400  0.55525100  1
  Cu  Cu25  1  0.43034600  0.89580500  0.21965600  1
  Cu  Cu26  1  0.91744100  0.63060200  0.77982200  1
  Cu  Cu27  1  0.92275500  0.95295400  0.11253100  1
  Cu  Cu28  1  0.57781600  0.79697400  0.44034400  1
  Cu  Cu29  1  0.29365600  0.84845100  0.69649900  1
  Cu  Cu30  1  0.69322200  0.79935100  0.97908600  1
  Cu  Cu31  1  0.81022400  0.97270300  0.64203000  1
