# generated using pymatgen
data_Cu5Ni3C2
_symmetry_space_group_name_H-M   'P 1'
_cell_length_a   9.48621900
_cell_length_b   9.48621900
_cell_length_c   3.01969300
_cell_angle_alpha   90.00000000
_cell_angle_beta   90.00000000
_cell_angle_gamma   90.00000000
_symmetry_Int_Tables_number   1
_chemical_formula_structural   Cu5Ni3C2
_chemical_formula_sum   'Cu10 Ni6 C4'
_cell_volume   271.73719334
_cell_formula_units_Z   2
loop_
 _symmetry_equiv_pos_site_id
 _symmetry_equiv_pos_as_xyz
  1  'x, y, z'
loop_
 _atom_site_type_symbol
 _atom_site_label
 _atom_site_symmetry_multiplicity
 _atom_site_fract_x
 _atom_site_fract_y
 _atom_site_fract_z
 _atom_site_occupancy
  Ni  Ni0  1  0.82380100  0.67619900  0.00000000  1
  Ni  Ni1  1  0.17619900  0.32380100  0.00000000  1
  Ni  Ni2  1  0.32380100  0.82380100  0.00000000  1
  Ni  Ni3  1  0.67619900  0.17619900  0.00000000  1
  Ni  Ni4  1  0.50000000  0.50000000  0.00000000  1
  Ni  Ni5  1  0.00000000  0.00000000  0.00000000  1
  C  C6  1  0.62177200  0.87822800  0.00000000  1
  C  C7  1  0.37822800  0.12177200  0.00000000  1
  C  C8  1  0.12177200  0.62177200  0.00000000  1
  C  C9  1  0.87822800  0.37822800  0.00000000  1
  Cu  Cu10  1  0.57103900  0.71897800  0.50000000  1
  Cu  Cu11  1  0.42896100  0.28102200  0.50000000  1
  Cu  Cu12  1  0.07103900  0.78102200  0.50000000  1
  Cu  Cu13  1  0.92896100  0.21897800  0.50000000  1
  Cu  Cu14  1  0.28102200  0.57103900  0.50000000  1
  Cu  Cu15  1  0.71897800  0.42896100  0.50000000  1
  Cu  Cu16  1  0.21897800  0.07103900  0.50000000  1
  Cu  Cu17  1  0.78102200  0.92896100  0.50000000  1
  Cu  Cu18  1  0.50000000  0.00000000  0.50000000  1
  Cu  Cu19  1  0.00000000  0.50000000  0.50000000  1
