# generated using pymatgen
data_CuNiC4
_symmetry_space_group_name_H-M   'P 1'
_cell_length_a   3.43839216
_cell_length_b   3.43839216
_cell_length_c   39.14142200
_cell_angle_alpha   90.00000000
_cell_angle_beta   90.00000000
_cell_angle_gamma   120.00000300
_symmetry_Int_Tables_number   1
_chemical_formula_structural   CuNiC4
_chemical_formula_sum   'Cu2 Ni2 C8'
_cell_volume   400.75415403
_cell_formula_units_Z   2
loop_
 _symmetry_equiv_pos_site_id
 _symmetry_equiv_pos_as_xyz
  1  'x, y, z'
loop_
 _atom_site_type_symbol
 _atom_site_label
 _atom_site_symmetry_multiplicity
 _atom_site_fract_x
 _atom_site_fract_y
 _atom_site_fract_z
 _atom_site_occupancy
  C  C0  1  0.00000000  0.00000000  0.70493000  1
  C  C1  1  0.33333300  0.66666700  0.42192800  1
  C  C2  1  0.33333300  0.66666700  0.51731800  1
  C  C3  1  0.00000000  0.00000000  0.61017400  1
  Ni  Ni4  1  0.00000000  0.00000000  0.09392700  1
  Ni  Ni5  1  0.33333300  0.66666700  0.65758300  1
  Cu  Cu6  1  0.00000000  0.00000000  0.46965100  1
  Cu  Cu7  1  0.33333300  0.66666700  0.28181400  1
  C  C8  1  0.00000000  0.00000000  0.32371600  1
  C  C9  1  0.33333300  0.66666700  0.05209700  1
  C  C10  1  0.33333300  0.66666700  0.13574400  1
  C  C11  1  0.00000000  0.00000000  0.23986600  1
