# generated using pymatgen
data_Cu(NiC5)2
_symmetry_space_group_name_H-M   'P 1'
_cell_length_a   7.26269100
_cell_length_b   15.40056700
_cell_length_c   12.62973352
_cell_angle_alpha   90.00000000
_cell_angle_beta   124.43713323
_cell_angle_gamma   90.00000000
_symmetry_Int_Tables_number   1
_chemical_formula_structural   Cu(NiC5)2
_chemical_formula_sum   'Cu8 Ni16 C80'
_cell_volume   1165.06270345
_cell_formula_units_Z   8
loop_
 _symmetry_equiv_pos_site_id
 _symmetry_equiv_pos_as_xyz
  1  'x, y, z'
loop_
 _atom_site_type_symbol
 _atom_site_label
 _atom_site_symmetry_multiplicity
 _atom_site_fract_x
 _atom_site_fract_y
 _atom_site_fract_z
 _atom_site_occupancy
  C  C0  1  0.38912000  0.95145100  0.52684700  1
  C  C1  1  0.38912000  0.54854900  0.02684700  1
  C  C2  1  0.61088000  0.04854900  0.47315300  1
  C  C3  1  0.61088000  0.45145100  0.97315300  1
  C  C4  1  0.81267300  0.79444000  0.46430800  1
  C  C5  1  0.81267300  0.70556000  0.96430800  1
  C  C6  1  0.18732700  0.20556000  0.53569200  1
  C  C7  1  0.18732700  0.29444000  0.03569200  1
  C  C8  1  0.04926000  0.73778100  0.59694000  1
  C  C9  1  0.04926000  0.76221900  0.09694000  1
  C  C10  1  0.95074000  0.26221900  0.40306000  1
  C  C11  1  0.95074000  0.23778100  0.90306000  1
  C  C12  1  0.08435300  0.80408700  0.49323800  1
  C  C13  1  0.08435300  0.69591300  0.99323800  1
  C  C14  1  0.91564700  0.19591300  0.50676200  1
  C  C15  1  0.91564700  0.30408700  0.00676200  1
  C  C16  1  0.66357900  0.74978100  0.24600100  1
  C  C17  1  0.66357900  0.75021900  0.74600100  1
  C  C18  1  0.33642100  0.25021900  0.75399900  1
  C  C19  1  0.33642100  0.24978100  0.25399900  1
  C  C20  1  0.77668900  0.65682700  0.21569500  1
  C  C21  1  0.77668900  0.84317300  0.71569500  1
  C  C22  1  0.22331100  0.34317300  0.78430500  1
  C  C23  1  0.22331100  0.15682700  0.28430500  1
  C  C24  1  0.93551900  0.75552400  0.27477400  1
  C  C25  1  0.93551900  0.74447600  0.77477400  1
  C  C26  1  0.06448100  0.24447600  0.72522600  1
  C  C27  1  0.06448100  0.25552400  0.22522600  1
  C  C28  1  0.72454200  0.56858900  0.35445100  1
  C  C29  1  0.72454200  0.93141100  0.85445100  1
  C  C30  1  0.27545800  0.43141100  0.64554900  1
  C  C31  1  0.27545800  0.06858900  0.14554900  1
  C  C32  1  0.60593100  0.66025400  0.38360100  1
  C  C33  1  0.60593100  0.83974600  0.88360100  1
  C  C34  1  0.39406900  0.33974600  0.61639900  1
  C  C35  1  0.39406900  0.16025400  0.11639900  1
  C  C36  1  0.83759600  0.60261500  0.51651300  1
  C  C37  1  0.83759600  0.89738500  0.01651300  1
  C  C38  1  0.16240400  0.39738500  0.48348700  1
  C  C39  1  0.16240400  0.10261500  0.98348700  1
  C  C40  1  0.20679900  0.61576300  0.55864300  1
  C  C41  1  0.20679900  0.88423700  0.05864300  1
  C  C42  1  0.79320100  0.38423700  0.44135700  1
  C  C43  1  0.79320100  0.11576300  0.94135700  1
  C  C44  1  0.24574200  0.67901500  0.45337900  1
  C  C45  1  0.24574200  0.82098500  0.95337900  1
  C  C46  1  0.75425800  0.32098500  0.54662100  1
  C  C47  1  0.75425800  0.17901500  0.04662100  1
  C  C48  1  0.09315000  0.57881700  0.39777400  1
  C  C49  1  0.09315000  0.92118300  0.89777400  1
  C  C50  1  0.90685000  0.42118300  0.60222600  1
  C  C51  1  0.90685000  0.07881700  0.10222600  1
  Ni  Ni52  1  0.96973800  0.76087500  0.49821800  1
  Ni  Ni53  1  0.96973800  0.73912500  0.99821800  1
  Ni  Ni54  1  0.03026200  0.23912500  0.50178200  1
  Ni  Ni55  1  0.03026200  0.26087500  0.00178200  1
  Ni  Ni56  1  0.81607100  0.71363200  0.27717100  1
  Ni  Ni57  1  0.81607100  0.78636800  0.77717100  1
  Ni  Ni58  1  0.18392900  0.28636800  0.72282900  1
  Ni  Ni59  1  0.18392900  0.21363200  0.22282900  1
  Ni  Ni60  1  0.75964000  0.62423300  0.41723800  1
  Ni  Ni61  1  0.75964000  0.87576700  0.91723800  1
  Ni  Ni62  1  0.24036000  0.37576700  0.58276200  1
  Ni  Ni63  1  0.24036000  0.12423300  0.08276200  1
  Ni  Ni64  1  0.13232900  0.63561300  0.45912500  1
  Ni  Ni65  1  0.13232900  0.86438700  0.95912500  1
  Ni  Ni66  1  0.86767100  0.36438700  0.54087500  1
  Ni  Ni67  1  0.86767100  0.13561300  0.04087500  1
  Cu  Cu68  1  0.81418100  0.97460000  0.29155700  1
  Cu  Cu69  1  0.81418100  0.52540000  0.79155700  1
  Cu  Cu70  1  0.18581900  0.02540000  0.70844300  1
  Cu  Cu71  1  0.18581900  0.47460000  0.20844300  1
  Cu  Cu72  1  0.36615100  0.90469800  0.35708100  1
  Cu  Cu73  1  0.36615100  0.59530200  0.85708100  1
  Cu  Cu74  1  0.63384900  0.09530200  0.64291900  1
  Cu  Cu75  1  0.63384900  0.40469800  0.14291900  1
  C  C76  1  0.91953200  0.68365200  0.41284200  1
  C  C77  1  0.91953200  0.81634800  0.91284200  1
  C  C78  1  0.08046800  0.31634800  0.58715800  1
  C  C79  1  0.08046800  0.18365200  0.08715800  1
  C  C80  1  0.64262700  0.94498800  0.16251800  1
  C  C81  1  0.64262700  0.55501200  0.66251800  1
  C  C82  1  0.35737300  0.05501200  0.83748200  1
  C  C83  1  0.35737300  0.44498800  0.33748200  1
  C  C84  1  0.84063200  0.06781200  0.31114500  1
  C  C85  1  0.84063200  0.43218800  0.81114500  1
  C  C86  1  0.15936800  0.93218800  0.68885500  1
  C  C87  1  0.15936800  0.56781200  0.18885500  1
  C  C88  1  0.36085800  0.89303200  0.48093800  1
  C  C89  1  0.36085800  0.60696800  0.98093800  1
  C  C90  1  0.63914200  0.10696800  0.51906200  1
  C  C91  1  0.63914200  0.39303200  0.01906200  1
  C  C92  1  0.39587400  0.81705500  0.32637000  1
  C  C93  1  0.39587400  0.68294500  0.82637000  1
  C  C94  1  0.60412600  0.18294500  0.67363000  1
  C  C95  1  0.60412600  0.31705500  0.17363000  1
  C  C96  1  0.15465400  0.94615500  0.25689000  1
  C  C97  1  0.15465400  0.55384500  0.75689000  1
  C  C98  1  0.84534600  0.05384500  0.74311000  1
  C  C99  1  0.84534600  0.44615500  0.24311000  1
  C  C100  1  0.56108900  0.96199900  0.39751200  1
  C  C101  1  0.56108900  0.53800100  0.89751200  1
  C  C102  1  0.43891100  0.03800100  0.60248800  1
  C  C103  1  0.43891100  0.46199900  0.10248800  1
