# generated using pymatgen
data_Cu2NiC20
_symmetry_space_group_name_H-M   'P 1'
_cell_length_a   6.76464776
_cell_length_b   6.76464776
_cell_length_c   10.90500630
_cell_angle_alpha   86.31095150
_cell_angle_beta   86.31095150
_cell_angle_gamma   73.78637288
_symmetry_Int_Tables_number   1
_chemical_formula_structural   Cu2NiC20
_chemical_formula_sum   'Cu2 Ni1 C20'
_cell_volume   477.61758185
_cell_formula_units_Z   1
loop_
 _symmetry_equiv_pos_site_id
 _symmetry_equiv_pos_as_xyz
  1  'x, y, z'
loop_
 _atom_site_type_symbol
 _atom_site_label
 _atom_site_symmetry_multiplicity
 _atom_site_fract_x
 _atom_site_fract_y
 _atom_site_fract_z
 _atom_site_occupancy
  Ni  Ni0  1  0.00000000  0.00000000  0.50000000  1
  Cu  Cu1  1  0.33177600  0.33177600  0.79426800  1
  Cu  Cu2  1  0.66822400  0.66822400  0.20573200  1
  C  C3  1  0.50537800  0.50537800  0.74285600  1
  C  C4  1  0.49462200  0.49462200  0.25714400  1
  C  C5  1  0.19780900  0.56118300  0.92924500  1
  C  C6  1  0.56118300  0.19780900  0.92924500  1
  C  C7  1  0.80219100  0.43881700  0.07075500  1
  C  C8  1  0.43881700  0.80219100  0.07075500  1
  C  C9  1  0.11529600  0.43852300  0.69177900  1
  C  C10  1  0.43852300  0.11529600  0.69177900  1
  C  C11  1  0.88470400  0.56147700  0.30822100  1
  C  C12  1  0.56147700  0.88470400  0.30822100  1
  C  C13  1  0.15356400  0.15356400  0.93214800  1
  C  C14  1  0.84643600  0.84643600  0.06785200  1
  C  C15  1  0.95509000  0.95509000  0.71277600  1
  C  C16  1  0.04491000  0.04491000  0.28722400  1
  C  C17  1  0.21248200  0.21248200  0.52253400  1
  C  C18  1  0.78751800  0.78751800  0.47746600  1
  C  C19  1  0.71295700  0.28704300  0.50000000  1
  C  C20  1  0.28704300  0.71295700  0.50000000  1
  C  C21  1  0.61278000  0.61278000  0.83464500  1
  C  C22  1  0.38722000  0.38722000  0.16535500  1
