# generated using pymatgen
data_Cu2Ni4C3
_symmetry_space_group_name_H-M   'P 1'
_cell_length_a   3.42005071
_cell_length_b   3.42005071
_cell_length_c   32.59550600
_cell_angle_alpha   90.00000000
_cell_angle_beta   90.00000000
_cell_angle_gamma   120.00001370
_symmetry_Int_Tables_number   1
_chemical_formula_structural   Cu2Ni4C3
_chemical_formula_sum   'Cu2 Ni4 C3'
_cell_volume   330.18199673
_cell_formula_units_Z   1
loop_
 _symmetry_equiv_pos_site_id
 _symmetry_equiv_pos_as_xyz
  1  'x, y, z'
loop_
 _atom_site_type_symbol
 _atom_site_label
 _atom_site_symmetry_multiplicity
 _atom_site_fract_x
 _atom_site_fract_y
 _atom_site_fract_z
 _atom_site_occupancy
  Ni  Ni0  1  0.33333300  0.66666700  0.40335000  1
  Ni  Ni1  1  0.66666700  0.33333300  0.52170400  1
  Ni  Ni2  1  0.66666700  0.33333300  0.63668400  1
  Ni  Ni3  1  0.33333300  0.66666700  0.28912800  1
  C  C4  1  0.66666700  0.33333300  0.34618400  1
  C  C5  1  0.33333300  0.66666700  0.11550700  1
  C  C6  1  0.33333300  0.66666700  0.57919500  1
  Cu  Cu7  1  0.66666700  0.33333300  0.06944800  1
  Cu  Cu8  1  0.66666700  0.33333300  0.16164200  1
