# generated using pymatgen
data_Cu2NiC10
_symmetry_space_group_name_H-M   'P 1'
_cell_length_a   5.25341952
_cell_length_b   5.37391700
_cell_length_c   6.47434119
_cell_angle_alpha   110.14997056
_cell_angle_beta   109.48467779
_cell_angle_gamma   100.01247202
_symmetry_Int_Tables_number   1
_chemical_formula_structural   Cu2NiC10
_chemical_formula_sum   'Cu2 Ni1 C10'
_cell_volume   152.91301933
_cell_formula_units_Z   1
loop_
 _symmetry_equiv_pos_site_id
 _symmetry_equiv_pos_as_xyz
  1  'x, y, z'
loop_
 _atom_site_type_symbol
 _atom_site_label
 _atom_site_symmetry_multiplicity
 _atom_site_fract_x
 _atom_site_fract_y
 _atom_site_fract_z
 _atom_site_occupancy
  Ni  Ni0  1  0.91610200  0.66610200  0.33220400  1
  Cu  Cu1  1  0.37854700  0.62854700  0.25709300  1
  Cu  Cu2  1  0.60856200  0.35856200  0.71712500  1
  C  C3  1  0.83994500  0.08994500  0.17988900  1
  C  C4  1  0.16451700  0.91451700  0.82903500  1
  C  C5  1  0.00347800  0.77209900  0.06184800  1
  C  C6  1  0.55837000  0.28974800  0.06184800  1
  C  C7  1  0.98949800  0.21134700  0.93730900  1
  C  C8  1  0.44780900  0.72596100  0.93730900  1
  C  C9  1  0.21377300  0.35054700  0.41584700  1
  C  C10  1  0.70207400  0.06529900  0.41584700  1
  C  C11  1  0.79605300  0.65277100  0.57732400  1
  C  C12  1  0.28127100  0.92455300  0.57732400  1
