# generated using pymatgen
data_CuNiC16
_symmetry_space_group_name_H-M   'P 1'
_cell_length_a   8.70166934
_cell_length_b   8.70166927
_cell_length_c   8.70166907
_cell_angle_alpha   60.48287251
_cell_angle_beta   60.48287456
_cell_angle_gamma   60.48288471
_symmetry_Int_Tables_number   1
_chemical_formula_structural   CuNiC16
_chemical_formula_sum   'Cu2 Ni2 C32'
_cell_volume   470.98492610
_cell_formula_units_Z   2
loop_
 _symmetry_equiv_pos_site_id
 _symmetry_equiv_pos_as_xyz
  1  'x, y, z'
loop_
 _atom_site_type_symbol
 _atom_site_label
 _atom_site_symmetry_multiplicity
 _atom_site_fract_x
 _atom_site_fract_y
 _atom_site_fract_z
 _atom_site_occupancy
  Ni  Ni0  1  0.14664000  0.14664000  0.14664000  1
  Ni  Ni1  1  0.64664000  0.64664000  0.64664000  1
  C  C2  1  0.00194100  0.00194100  0.00194100  1
  C  C3  1  0.50194100  0.50194100  0.50194100  1
  C  C4  1  0.04148000  0.44847100  0.75920100  1
  C  C5  1  0.44847100  0.75920100  0.04148000  1
  C  C6  1  0.75920100  0.04148000  0.44847100  1
  C  C7  1  0.25920100  0.94847100  0.54148000  1
  C  C8  1  0.54148000  0.25920100  0.94847100  1
  C  C9  1  0.94847100  0.54148000  0.25920100  1
  Cu  Cu10  1  0.35789400  0.35789400  0.35789400  1
  Cu  Cu11  1  0.85789400  0.85789400  0.85789400  1
  C  C12  1  0.09399100  0.50235600  0.33094400  1
  C  C13  1  0.33094400  0.09399100  0.50235600  1
  C  C14  1  0.05151700  0.25397200  0.91800000  1
  C  C15  1  0.50235600  0.33094400  0.09399100  1
  C  C16  1  0.00235600  0.59399100  0.83094400  1
  C  C17  1  0.23548000  0.43298000  0.60286000  1
  C  C18  1  0.25397200  0.91800000  0.05151700  1
  C  C19  1  0.43298000  0.60286000  0.23548000  1
  C  C20  1  0.19334900  0.00157800  0.37734400  1
  C  C21  1  0.60286000  0.23548000  0.43298000  1
  C  C22  1  0.10286000  0.93298000  0.73548000  1
  C  C23  1  0.37734400  0.19334900  0.00157800  1
  C  C24  1  0.59399100  0.83094400  0.00235600  1
  C  C25  1  0.91800000  0.05151700  0.25397200  1
  C  C26  1  0.41800000  0.75397200  0.55151700  1
  C  C27  1  0.83094400  0.00235600  0.59399100  1
  C  C28  1  0.55151700  0.41800000  0.75397200  1
  C  C29  1  0.73548000  0.10286000  0.93298000  1
  C  C30  1  0.75397200  0.55151700  0.41800000  1
  C  C31  1  0.00157800  0.37734400  0.19334900  1
  C  C32  1  0.50157800  0.69334900  0.87734400  1
  C  C33  1  0.93298000  0.73548000  0.10286000  1
  C  C34  1  0.69334900  0.87734400  0.50157800  1
  C  C35  1  0.87734400  0.50157800  0.69334900  1
