# generated using pymatgen
data_Cu2NiC10
_symmetry_space_group_name_H-M   'P 1'
_cell_length_a   8.80935200
_cell_length_b   6.54447800
_cell_length_c   12.93815499
_cell_angle_alpha   87.37947669
_cell_angle_beta   90.00000000
_cell_angle_gamma   90.00000000
_symmetry_Int_Tables_number   1
_chemical_formula_structural   Cu2NiC10
_chemical_formula_sum   'Cu8 Ni4 C40'
_cell_volume   745.13836915
_cell_formula_units_Z   4
loop_
 _symmetry_equiv_pos_site_id
 _symmetry_equiv_pos_as_xyz
  1  'x, y, z'
loop_
 _atom_site_type_symbol
 _atom_site_label
 _atom_site_symmetry_multiplicity
 _atom_site_fract_x
 _atom_site_fract_y
 _atom_site_fract_z
 _atom_site_occupancy
  Ni  Ni0  1  0.83200500  0.39596000  0.05594200  1
  Ni  Ni1  1  0.16799500  0.60404000  0.94405800  1
  Ni  Ni2  1  0.33200500  0.60404000  0.44405800  1
  Ni  Ni3  1  0.66799500  0.39596000  0.55594200  1
  Cu  Cu4  1  0.81487300  0.73054400  0.86427900  1
  Cu  Cu5  1  0.95133600  0.12550600  0.61320300  1
  Cu  Cu6  1  0.04866400  0.87449400  0.38679700  1
  Cu  Cu7  1  0.18512700  0.26945600  0.13572100  1
  Cu  Cu8  1  0.68512700  0.73054400  0.36427900  1
  Cu  Cu9  1  0.54866400  0.12550600  0.11320300  1
  Cu  Cu10  1  0.31487300  0.26945600  0.63572100  1
  Cu  Cu11  1  0.45133600  0.87449400  0.88679700  1
  C  C12  1  0.54799800  0.40549700  0.84489200  1
  C  C13  1  0.95200200  0.40549700  0.34489200  1
  C  C14  1  0.92314900  0.88823900  0.12918900  1
  C  C15  1  0.04799800  0.59450300  0.65510800  1
  C  C16  1  0.07685100  0.11176100  0.87081100  1
  C  C17  1  0.42314900  0.11176100  0.37081100  1
  C  C18  1  0.57685100  0.88823900  0.62918900  1
  C  C19  1  0.45200200  0.59450300  0.15510800  1
  C  C20  1  0.76383000  0.45584600  0.40337000  1
  C  C21  1  0.99024100  0.84219800  0.60227400  1
  C  C22  1  0.42521800  0.32315800  0.46227500  1
  C  C23  1  0.92521800  0.67684200  0.03772500  1
  C  C24  1  0.73617000  0.45584600  0.90337000  1
  C  C25  1  0.23617000  0.54415400  0.59663000  1
  C  C26  1  0.89711800  0.41604600  0.61337500  1
  C  C27  1  0.11135300  0.99220600  0.13639300  1
  C  C28  1  0.38864700  0.99220600  0.63639300  1
  C  C29  1  0.13172400  0.20546300  0.74147600  1
  C  C30  1  0.63172400  0.79453700  0.75852400  1
  C  C31  1  0.88864700  0.00779400  0.86360700  1
  C  C32  1  0.10288200  0.58395400  0.38662500  1
  C  C33  1  0.44845200  0.62018600  0.29464000  1
  C  C34  1  0.70384500  0.09430200  0.58181700  1
  C  C35  1  0.79615500  0.09430200  0.08181700  1
  C  C36  1  0.94845200  0.37981400  0.20536000  1
  C  C37  1  0.61135300  0.00779400  0.36360700  1
  C  C38  1  0.55154800  0.37981400  0.70536000  1
  C  C39  1  0.57478200  0.67684200  0.53772500  1
  C  C40  1  0.50975900  0.84219800  0.10227400  1
  C  C41  1  0.86827600  0.79453700  0.25852400  1
  C  C42  1  0.26383000  0.54415400  0.09663000  1
  C  C43  1  0.60288200  0.41604600  0.11337500  1
  C  C44  1  0.07478200  0.32315800  0.96227500  1
  C  C45  1  0.20384500  0.90569800  0.91818300  1
  C  C46  1  0.00975900  0.15780200  0.39772600  1
  C  C47  1  0.49024100  0.15780200  0.89772600  1
  C  C48  1  0.39711800  0.58395400  0.88662500  1
  C  C49  1  0.29615500  0.90569800  0.41818300  1
  C  C50  1  0.36827600  0.20546300  0.24147600  1
  C  C51  1  0.05154800  0.62018600  0.79464000  1
