# generated using pymatgen
data_CuNiC30
_symmetry_space_group_name_H-M   'P 1'
_cell_length_a   16.47759997
_cell_length_b   16.47759997
_cell_length_c   16.47759997
_cell_angle_alpha   161.11611045
_cell_angle_beta   161.11611045
_cell_angle_gamma   26.82959578
_symmetry_Int_Tables_number   1
_chemical_formula_structural   CuNiC30
_chemical_formula_sum   'Cu1 Ni1 C30'
_cell_volume   468.45799375
_cell_formula_units_Z   1
loop_
 _symmetry_equiv_pos_site_id
 _symmetry_equiv_pos_as_xyz
  1  'x, y, z'
loop_
 _atom_site_type_symbol
 _atom_site_label
 _atom_site_symmetry_multiplicity
 _atom_site_fract_x
 _atom_site_fract_y
 _atom_site_fract_z
 _atom_site_occupancy
  C  C0  1  0.10900100  0.10900100  0.00000000  1
  C  C1  1  0.60976400  0.60976400  0.00000000  1
  C  C2  1  0.39023600  0.39023600  0.00000000  1
  C  C3  1  0.89099900  0.89099900  0.00000000  1
  Ni  Ni4  1  0.00000000  0.00000000  0.00000000  1
  Cu  Cu5  1  0.50000000  0.50000000  0.00000000  1
  C  C6  1  0.05322300  0.55322300  0.50000000  1
  C  C7  1  0.55322300  0.05322300  0.50000000  1
  C  C8  1  0.44677700  0.94677700  0.50000000  1
  C  C9  1  0.94677700  0.44677700  0.50000000  1
  C  C10  1  0.24990700  0.24990700  0.00000000  1
  C  C11  1  0.75009300  0.75009300  0.00000000  1
  C  C12  1  0.19371200  0.69371200  0.50000000  1
  C  C13  1  0.69371200  0.19371200  0.50000000  1
  C  C14  1  0.30628800  0.80628800  0.50000000  1
  C  C15  1  0.80628800  0.30628800  0.50000000  1
  C  C16  1  0.12581600  0.62581600  0.50000000  1
  C  C17  1  0.62581600  0.12581600  0.50000000  1
  C  C18  1  0.37418400  0.87418400  0.50000000  1
  C  C19  1  0.87418400  0.37418400  0.50000000  1
  C  C20  1  0.30256200  0.79260600  0.00000000  1
  C  C21  1  0.79260600  0.30256200  0.00000000  1
  C  C22  1  0.69743800  0.69743800  0.49004500  1
  C  C23  1  0.20739400  0.20739400  0.50995500  1
  C  C24  1  0.69743800  0.20739400  0.00000000  1
  C  C25  1  0.20739400  0.69743800  0.00000000  1
  C  C26  1  0.30256200  0.30256200  0.50995500  1
  C  C27  1  0.79260600  0.79260600  0.49004500  1
  C  C28  1  0.19190900  0.19190900  0.00000000  1
  C  C29  1  0.69210300  0.69210300  0.00000000  1
  C  C30  1  0.30789700  0.30789700  0.00000000  1
  C  C31  1  0.80809100  0.80809100  0.00000000  1
