# generated using pymatgen
data_Cu4Ni2C3
_symmetry_space_group_name_H-M   'P 1'
_cell_length_a   3.23063030
_cell_length_b   3.23063030
_cell_length_c   29.69340600
_cell_angle_alpha   90.00000000
_cell_angle_beta   90.00000000
_cell_angle_gamma   120.00000620
_symmetry_Int_Tables_number   1
_chemical_formula_structural   Cu4Ni2C3
_chemical_formula_sum   'Cu4 Ni2 C3'
_cell_volume   268.38926796
_cell_formula_units_Z   1
loop_
 _symmetry_equiv_pos_site_id
 _symmetry_equiv_pos_as_xyz
  1  'x, y, z'
loop_
 _atom_site_type_symbol
 _atom_site_label
 _atom_site_symmetry_multiplicity
 _atom_site_fract_x
 _atom_site_fract_y
 _atom_site_fract_z
 _atom_site_occupancy
  C  C0  1  0.00000000  0.00000000  0.88436300  1
  C  C1  1  0.33333300  0.66666700  0.65302700  1
  C  C2  1  0.00000000  0.00000000  0.42166400  1
  Ni  Ni3  1  0.00000000  0.00000000  0.59550900  1
  Ni  Ni4  1  0.00000000  0.00000000  0.71054400  1
  Cu  Cu5  1  0.33333300  0.66666700  0.93667800  1
  Cu  Cu6  1  0.33333300  0.66666700  0.47414800  1
  Cu  Cu7  1  0.33333300  0.66666700  0.83203400  1
  Cu  Cu8  1  0.33333300  0.66666700  0.36919200  1
