# generated using pymatgen
data_Cu2NiC7
_symmetry_space_group_name_H-M   'P 1'
_cell_length_a   12.54601809
_cell_length_b   12.54601809
_cell_length_c   10.95627026
_cell_angle_alpha   64.30321282
_cell_angle_beta   64.30321282
_cell_angle_gamma   52.57067805
_symmetry_Int_Tables_number   1
_chemical_formula_structural   Cu2NiC7
_chemical_formula_sum   'Cu12 Ni6 C42'
_cell_volume   1198.66920759
_cell_formula_units_Z   6
loop_
 _symmetry_equiv_pos_site_id
 _symmetry_equiv_pos_as_xyz
  1  'x, y, z'
loop_
 _atom_site_type_symbol
 _atom_site_label
 _atom_site_symmetry_multiplicity
 _atom_site_fract_x
 _atom_site_fract_y
 _atom_site_fract_z
 _atom_site_occupancy
  C  C0  1  0.51782600  0.48217400  0.25000000  1
  C  C1  1  0.48217400  0.51782600  0.75000000  1
  C  C2  1  0.81059100  0.85379000  0.65481100  1
  C  C3  1  0.14621000  0.18940900  0.84518900  1
  C  C4  1  0.18940900  0.14621000  0.34518900  1
  C  C5  1  0.85379000  0.81059100  0.15481100  1
  Ni  Ni6  1  0.00000000  0.50000000  0.00000000  1
  Ni  Ni7  1  0.50000000  0.00000000  0.50000000  1
  Ni  Ni8  1  0.01904500  0.98095500  0.75000000  1
  Ni  Ni9  1  0.98095500  0.01904500  0.25000000  1
  Ni  Ni10  1  0.00000000  0.50000000  0.50000000  1
  Ni  Ni11  1  0.50000000  0.00000000  0.00000000  1
  Cu  Cu12  1  0.71317200  0.37752600  0.89603700  1
  Cu  Cu13  1  0.62247400  0.28682800  0.60396300  1
  Cu  Cu14  1  0.28682800  0.62247400  0.10396300  1
  Cu  Cu15  1  0.37752600  0.71317200  0.39603700  1
  Cu  Cu16  1  0.62719900  0.57900500  0.96225800  1
  Cu  Cu17  1  0.42099500  0.37280100  0.53774200  1
  Cu  Cu18  1  0.37280100  0.42099500  0.03774200  1
  Cu  Cu19  1  0.57900500  0.62719900  0.46225800  1
  Cu  Cu20  1  0.40834700  0.72009700  0.90614100  1
  Cu  Cu21  1  0.27990300  0.59165300  0.59385900  1
  Cu  Cu22  1  0.59165300  0.27990300  0.09385900  1
  Cu  Cu23  1  0.72009700  0.40834700  0.40614100  1
  C  C24  1  0.91181300  0.63753000  0.84904600  1
  C  C25  1  0.36247000  0.08818700  0.65095400  1
  C  C26  1  0.08818700  0.36247000  0.15095400  1
  C  C27  1  0.63753000  0.91181300  0.34904600  1
  C  C28  1  0.04683000  0.61965600  0.00291300  1
  C  C29  1  0.38034400  0.95317000  0.49708700  1
  C  C30  1  0.95317000  0.38034400  0.99708700  1
  C  C31  1  0.61965600  0.04683000  0.50291300  1
  C  C32  1  0.82788400  0.58331200  0.13097600  1
  C  C33  1  0.41668800  0.17211600  0.36902400  1
  C  C34  1  0.17211600  0.41668800  0.86902400  1
  C  C35  1  0.58331200  0.82788400  0.63097600  1
  C  C36  1  0.93552400  0.89803300  0.73997600  1
  C  C37  1  0.10196700  0.06447600  0.76002400  1
  C  C38  1  0.06447600  0.10196700  0.26002400  1
  C  C39  1  0.89803300  0.93552400  0.23997600  1
  C  C40  1  0.84611700  0.15388300  0.75000000  1
  C  C41  1  0.15388300  0.84611700  0.25000000  1
  C  C42  1  0.19192200  0.80807800  0.75000000  1
  C  C43  1  0.80807800  0.19192200  0.25000000  1
  C  C44  1  0.96634300  0.92856500  0.95057300  1
  C  C45  1  0.07143500  0.03365700  0.54942700  1
  C  C46  1  0.03365700  0.07143500  0.04942700  1
  C  C47  1  0.92856500  0.96634300  0.45057300  1
  C  C48  1  0.92911100  0.67833200  0.52257500  1
  C  C49  1  0.32166800  0.07088900  0.97742500  1
  C  C50  1  0.07088900  0.32166800  0.47742500  1
  C  C51  1  0.67833200  0.92911100  0.02257500  1
  C  C52  1  0.82365700  0.51594400  0.59757000  1
  C  C53  1  0.48405600  0.17634300  0.90243000  1
  C  C54  1  0.17634300  0.48405600  0.40243000  1
  C  C55  1  0.51594400  0.82365700  0.09757000  1
  C  C56  1  0.94385100  0.58999200  0.32619900  1
  C  C57  1  0.41000800  0.05614900  0.17380100  1
  C  C58  1  0.05614900  0.41000800  0.67380100  1
  C  C59  1  0.58999200  0.94385100  0.82619900  1
