# generated using pymatgen
data_Cu3Ni3C25
_symmetry_space_group_name_H-M   'P 1'
_cell_length_a   10.75394077
_cell_length_b   10.75394077
_cell_length_c   15.13475788
_cell_angle_alpha   73.67736473
_cell_angle_beta   73.67736473
_cell_angle_gamma   85.17513134
_symmetry_Int_Tables_number   1
_chemical_formula_structural   Cu3Ni3C25
_chemical_formula_sum   'Cu12 Ni12 C100'
_cell_volume   1612.01805779
_cell_formula_units_Z   4
loop_
 _symmetry_equiv_pos_site_id
 _symmetry_equiv_pos_as_xyz
  1  'x, y, z'
loop_
 _atom_site_type_symbol
 _atom_site_label
 _atom_site_symmetry_multiplicity
 _atom_site_fract_x
 _atom_site_fract_y
 _atom_site_fract_z
 _atom_site_occupancy
  C  C0  1  0.00000000  0.50000000  0.00000000  1
  C  C1  1  0.50000000  0.00000000  0.50000000  1
  C  C2  1  0.00118100  0.33672700  0.64036100  1
  C  C3  1  0.66327300  0.99881900  0.85963900  1
  C  C4  1  0.99881900  0.66327300  0.35963900  1
  C  C5  1  0.33672700  0.00118100  0.14036100  1
  C  C6  1  0.81744100  0.99010400  0.09914000  1
  C  C7  1  0.00989600  0.18255900  0.40086000  1
  C  C8  1  0.18255900  0.00989600  0.90086000  1
  C  C9  1  0.99010400  0.81744100  0.59914000  1
  C  C10  1  0.84588200  0.03016700  0.19667700  1
  C  C11  1  0.96983300  0.15411800  0.30332300  1
  C  C12  1  0.15411800  0.96983300  0.80332300  1
  C  C13  1  0.03016700  0.84588200  0.69667700  1
  C  C14  1  0.88556600  0.12227000  0.94709500  1
  C  C15  1  0.87773000  0.11443400  0.55290500  1
  C  C16  1  0.11443400  0.87773000  0.05290500  1
  C  C17  1  0.12227000  0.88556600  0.44709500  1
  C  C18  1  0.98250000  0.25605300  0.92501200  1
  C  C19  1  0.74394700  0.01750000  0.57498800  1
  C  C20  1  0.01750000  0.74394700  0.07498800  1
  C  C21  1  0.25605300  0.98250000  0.42501200  1
  C  C22  1  0.41253500  0.71536700  0.85104500  1
  C  C23  1  0.28463300  0.58746500  0.64895500  1
  C  C24  1  0.58746500  0.28463300  0.14895500  1
  C  C25  1  0.71536700  0.41253500  0.35104500  1
  C  C26  1  0.28046300  0.61755600  0.86868900  1
  C  C27  1  0.38244400  0.71953700  0.63131100  1
  C  C28  1  0.71953700  0.38244400  0.13131100  1
  C  C29  1  0.61755600  0.28046300  0.36868900  1
  C  C30  1  0.48315100  0.71753800  0.98306000  1
  C  C31  1  0.28246200  0.51685000  0.51694000  1
  C  C32  1  0.51685000  0.28246200  0.01694000  1
  C  C33  1  0.71753800  0.48315000  0.48306000  1
  C  C34  1  0.40115800  0.62513700  0.09858700  1
  C  C35  1  0.37486300  0.59884200  0.40141300  1
  C  C36  1  0.59884200  0.37486300  0.90141300  1
  C  C37  1  0.62513700  0.40115800  0.59858700  1
  C  C38  1  0.37669500  0.20321400  0.77349600  1
  C  C39  1  0.79678600  0.62330500  0.72650400  1
  C  C40  1  0.62330500  0.79678600  0.22650400  1
  C  C41  1  0.20321400  0.37669500  0.27349600  1
  C  C42  1  0.27755700  0.30176900  0.70816300  1
  C  C43  1  0.69823100  0.72244300  0.79183700  1
  C  C44  1  0.72244300  0.69823100  0.29183700  1
  C  C45  1  0.30176900  0.27755700  0.20816300  1
  C  C46  1  0.35993100  0.21020000  0.92633000  1
  C  C47  1  0.78980000  0.64006900  0.57367000  1
  C  C48  1  0.64006900  0.78980000  0.07367000  1
  C  C49  1  0.21020000  0.35993100  0.42633000  1
  C  C50  1  0.26574700  0.33126000  0.97247100  1
  C  C51  1  0.66874000  0.73425300  0.52752900  1
  C  C52  1  0.73425300  0.66874000  0.02752900  1
  C  C53  1  0.33126000  0.26574700  0.47247100  1
  C  C54  1  0.28747900  0.60493100  0.27526500  1
  C  C55  1  0.39506900  0.71252100  0.22473500  1
  C  C56  1  0.71252100  0.39506900  0.72473500  1
  C  C57  1  0.60493100  0.28747900  0.77526500  1
  Ni  Ni58  1  0.92433700  0.15387100  0.06513900  1
  Ni  Ni59  1  0.84612900  0.07566300  0.43486100  1
  Ni  Ni60  1  0.07566300  0.84612900  0.93486100  1
  Ni  Ni61  1  0.15387100  0.92433700  0.56513900  1
  Ni  Ni62  1  0.32900100  0.61026100  0.99071600  1
  Ni  Ni63  1  0.38973900  0.67099900  0.50928400  1
  Ni  Ni64  1  0.67099900  0.38973900  0.00928400  1
  Ni  Ni65  1  0.61026100  0.32900100  0.49071600  1
  Ni  Ni66  1  0.25742400  0.32896800  0.83974100  1
  Ni  Ni67  1  0.67103200  0.74257600  0.66025900  1
  Ni  Ni68  1  0.74257600  0.67103200  0.16025900  1
  Ni  Ni69  1  0.32896800  0.25742400  0.33974100  1
  Cu  Cu70  1  0.99261200  0.25174000  0.11072400  1
  Cu  Cu71  1  0.74826000  0.00738800  0.38927600  1
  Cu  Cu72  1  0.00738800  0.74826000  0.88927600  1
  Cu  Cu73  1  0.25174000  0.99261200  0.61072400  1
  Cu  Cu74  1  0.21002200  0.50252300  0.06619000  1
  Cu  Cu75  1  0.49747700  0.78997800  0.43381000  1
  Cu  Cu76  1  0.78997800  0.49747700  0.93381000  1
  Cu  Cu77  1  0.50252300  0.21002200  0.56619000  1
  Cu  Cu78  1  0.15146000  0.45707400  0.82422800  1
  Cu  Cu79  1  0.54292600  0.84854000  0.67577200  1
  Cu  Cu80  1  0.84854000  0.54292600  0.17577200  1
  Cu  Cu81  1  0.45707400  0.15146000  0.32422800  1
  C  C82  1  0.85712800  0.04970400  0.12516000  1
  C  C83  1  0.95029600  0.14287200  0.37484000  1
  C  C84  1  0.14287200  0.95029600  0.87484000  1
  C  C85  1  0.04970400  0.85712800  0.62516100  1
  C  C86  1  0.93736500  0.17461900  0.97173300  1
  C  C87  1  0.82538100  0.06263500  0.52826700  1
  C  C88  1  0.06263500  0.82538100  0.02826700  1
  C  C89  1  0.17461900  0.93736500  0.47173300  1
  C  C90  1  0.34179900  0.65201900  0.89663400  1
  C  C91  1  0.34798100  0.65820100  0.60336600  1
  C  C92  1  0.65820100  0.34798100  0.10336600  1
  C  C93  1  0.65201900  0.34179900  0.39663400  1
  C  C94  1  0.41263000  0.65182500  0.02658500  1
  C  C95  1  0.34817500  0.58737000  0.47341500  1
  C  C96  1  0.58737000  0.34817500  0.97341500  1
  C  C97  1  0.65182500  0.41263000  0.52658500  1
  C  C98  1  0.30119400  0.26708200  0.77115100  1
  C  C99  1  0.73291800  0.69880600  0.72884900  1
  C  C100  1  0.69880600  0.73291800  0.22884900  1
  C  C101  1  0.26708200  0.30119400  0.27115100  1
  C  C102  1  0.29808000  0.28731100  0.91854300  1
  C  C103  1  0.71268900  0.70192000  0.58145700  1
  C  C104  1  0.70192000  0.71268900  0.08145700  1
  C  C105  1  0.28731100  0.29808000  0.41854300  1
  C  C106  1  0.16265300  0.39198100  0.60176100  1
  C  C107  1  0.60801900  0.83734700  0.89823900  1
  C  C108  1  0.83734700  0.60801900  0.39823900  1
  C  C109  1  0.39198100  0.16265300  0.10176100  1
  C  C110  1  0.97482500  0.22593600  0.75244600  1
  C  C111  1  0.77406400  0.02517500  0.74755400  1
  C  C112  1  0.02517500  0.77406400  0.24755400  1
  C  C113  1  0.22593600  0.97482500  0.25244600  1
  C  C114  1  0.97535000  0.26126900  0.55834900  1
  C  C115  1  0.73873100  0.02465000  0.94165100  1
  C  C116  1  0.02465000  0.73873100  0.44165100  1
  C  C117  1  0.26126900  0.97535000  0.05834900  1
  C  C118  1  0.88986300  0.46671100  0.64851000  1
  C  C119  1  0.53328900  0.11013700  0.85149000  1
  C  C120  1  0.11013700  0.53328900  0.35149000  1
  C  C121  1  0.46671100  0.88986300  0.14851000  1
  C  C122  1  0.38143500  0.61856500  0.25000000  1
  C  C123  1  0.61856500  0.38143500  0.75000000  1
