# generated using pymatgen
data_CuNiC13
_symmetry_space_group_name_H-M   'P 1'
_cell_length_a   8.53237557
_cell_length_b   4.50003025
_cell_length_c   4.50003025
_cell_angle_alpha   90.00000000
_cell_angle_beta   90.00000000
_cell_angle_gamma   90.00000000
_symmetry_Int_Tables_number   1
_chemical_formula_structural   CuNiC13
_chemical_formula_sum   'Cu1 Ni1 C13'
_cell_volume   172.78292824
_cell_formula_units_Z   1
loop_
 _symmetry_equiv_pos_site_id
 _symmetry_equiv_pos_as_xyz
  1  'x, y, z'
loop_
 _atom_site_type_symbol
 _atom_site_label
 _atom_site_symmetry_multiplicity
 _atom_site_fract_x
 _atom_site_fract_y
 _atom_site_fract_z
 _atom_site_occupancy
  Ni  Ni0  1  0.07993642  0.50000000  0.50000000  1
  Cu  Cu1  1  0.98767650  0.00000000  -0.00000000  1
  C  C2  1  0.49318185  -0.00000000  -0.00000000  1
  C  C3  1  0.51839490  0.50000000  0.50000000  1
  C  C4  1  0.23505333  -0.00000000  0.50000000  1
  C  C5  1  0.77156374  0.00000000  0.50000000  1
  C  C6  1  0.23505333  0.50000000  0.00000000  1
  C  C7  1  0.77156374  0.50000000  0.00000000  1
  C  C8  1  0.24858023  -0.00000000  -0.00000000  1
  C  C9  1  0.73049458  -0.00000000  -0.00000000  1
  C  C10  1  0.74034479  0.50000000  0.50000000  1
  C  C11  1  0.00049669  0.00000000  0.50000000  1
  C  C12  1  0.46858161  -0.00000000  0.50000000  1
  C  C13  1  0.00049669  0.50000000  -0.00000000  1
  C  C14  1  0.46858161  0.50000000  0.00000000  1
