# generated using pymatgen
data_Cu8Ni4C19
_symmetry_space_group_name_H-M   'P 1'
_cell_length_a   7.05193797
_cell_length_b   7.48160108
_cell_length_c   7.78482699
_cell_angle_alpha   82.44288019
_cell_angle_beta   72.01351917
_cell_angle_gamma   86.68253636
_symmetry_Int_Tables_number   1
_chemical_formula_structural   Cu8Ni4C19
_chemical_formula_sum   'Cu8 Ni4 C19'
_cell_volume   387.19540244
_cell_formula_units_Z   1
loop_
 _symmetry_equiv_pos_site_id
 _symmetry_equiv_pos_as_xyz
  1  'x, y, z'
loop_
 _atom_site_type_symbol
 _atom_site_label
 _atom_site_symmetry_multiplicity
 _atom_site_fract_x
 _atom_site_fract_y
 _atom_site_fract_z
 _atom_site_occupancy
  C  C0  1  0.40373500  0.28205900  0.21106500  1
  C  C1  1  0.59626500  0.71794100  0.78893500  1
  C  C2  1  0.00000000  0.50000000  0.00000000  1
  Ni  Ni3  1  0.73941700  0.80112500  0.25071800  1
  Ni  Ni4  1  0.26058300  0.19887500  0.74928200  1
  Ni  Ni5  1  0.15078800  0.74093900  0.25918600  1
  Ni  Ni6  1  0.84921200  0.25906100  0.74081400  1
  Cu  Cu7  1  0.42250400  0.73787600  0.41128900  1
  Cu  Cu8  1  0.57749600  0.26212400  0.58871100  1
  Cu  Cu9  1  0.22980100  0.96924200  0.04123200  1
  Cu  Cu10  1  0.77019900  0.03075800  0.95876800  1
  Cu  Cu11  1  0.88340600  0.30832300  0.35119600  1
  Cu  Cu12  1  0.11659400  0.69167700  0.64880400  1
  Cu  Cu13  1  0.88528000  0.17664400  0.20492600  1
  Cu  Cu14  1  0.11472000  0.82335600  0.79507400  1
  C  C15  1  0.74570800  0.65351500  0.13320500  1
  C  C16  1  0.25429200  0.34648500  0.86679500  1
  C  C17  1  0.55258500  0.78820000  0.42423100  1
  C  C18  1  0.44741500  0.21180000  0.57576900  1
  C  C19  1  0.76472500  0.99328100  0.15282400  1
  C  C20  1  0.23527500  0.00671900  0.84717600  1
  C  C21  1  0.91245300  0.76576500  0.35091100  1
  C  C22  1  0.08754700  0.23423500  0.64908900  1
  C  C23  1  0.19079200  0.61780600  0.11149700  1
  C  C24  1  0.80920800  0.38219400  0.88850300  1
  C  C25  1  0.22897400  0.67484900  0.41796400  1
  C  C26  1  0.77102600  0.32515100  0.58203600  1
  C  C27  1  0.23442400  0.93442900  0.17450400  1
  C  C28  1  0.76557600  0.06557100  0.82549600  1
  C  C29  1  0.94799300  0.28535700  0.22288900  1
  C  C30  1  0.05200700  0.71464300  0.77711100  1
