# generated using pymatgen
data_Cu2NiC4
_symmetry_space_group_name_H-M   'P 1'
_cell_length_a   5.99699796
_cell_length_b   5.99699796
_cell_length_c   5.99699724
_cell_angle_alpha   59.64995116
_cell_angle_beta   59.64995116
_cell_angle_gamma   59.64995126
_symmetry_Int_Tables_number   1
_chemical_formula_structural   Cu2NiC4
_chemical_formula_sum   'Cu4 Ni2 C8'
_cell_volume   151.29290585
_cell_formula_units_Z   2
loop_
 _symmetry_equiv_pos_site_id
 _symmetry_equiv_pos_as_xyz
  1  'x, y, z'
loop_
 _atom_site_type_symbol
 _atom_site_label
 _atom_site_symmetry_multiplicity
 _atom_site_fract_x
 _atom_site_fract_y
 _atom_site_fract_z
 _atom_site_occupancy
  Ni  Ni0  1  0.62368500  0.62368500  0.62368500  1
  Ni  Ni1  1  0.37631500  0.37631500  0.37631500  1
  Cu  Cu2  1  0.50000000  0.00000000  0.00000000  1
  Cu  Cu3  1  0.00000000  0.00000000  0.00000000  1
  Cu  Cu4  1  0.00000000  0.50000000  0.00000000  1
  Cu  Cu5  1  0.00000000  0.00000000  0.50000000  1
  C  C6  1  0.75124200  0.24519200  0.75124200  1
  C  C7  1  0.24875800  0.24875800  0.75480800  1
  C  C8  1  0.75480800  0.24875800  0.24875800  1
  C  C9  1  0.25381200  0.25381200  0.25381200  1
  C  C10  1  0.75124200  0.75124200  0.24519200  1
  C  C11  1  0.24875800  0.75480800  0.24875800  1
  C  C12  1  0.24519200  0.75124200  0.75124200  1
  C  C13  1  0.74618800  0.74618800  0.74618800  1
