# generated using pymatgen
data_Cu9Ni6C
_symmetry_space_group_name_H-M   'P 1'
_cell_length_a   7.48925195
_cell_length_b   13.20257061
_cell_length_c   11.56295900
_cell_angle_alpha   90.00000000
_cell_angle_beta   90.00000000
_cell_angle_gamma   28.18409828
_symmetry_Int_Tables_number   1
_chemical_formula_structural   Cu9Ni6C
_chemical_formula_sum   'Cu18 Ni12 C2'
_cell_volume   539.99473875
_cell_formula_units_Z   2
loop_
 _symmetry_equiv_pos_site_id
 _symmetry_equiv_pos_as_xyz
  1  'x, y, z'
loop_
 _atom_site_type_symbol
 _atom_site_label
 _atom_site_symmetry_multiplicity
 _atom_site_fract_x
 _atom_site_fract_y
 _atom_site_fract_z
 _atom_site_occupancy
  C  C0  1  0.00000000  0.28089800  0.25000000  1
  C  C1  1  0.00000000  0.71910200  0.75000000  1
  Ni  Ni2  1  0.67955200  0.78369100  0.25000000  1
  Ni  Ni3  1  0.67955200  0.53675600  0.75000000  1
  Ni  Ni4  1  0.32044800  0.21630900  0.75000000  1
  Ni  Ni5  1  0.32044800  0.46324400  0.25000000  1
  Ni  Ni6  1  0.67943800  0.30447200  0.90718600  1
  Ni  Ni7  1  0.67943800  0.01609000  0.09281400  1
  Ni  Ni8  1  0.67943800  0.30447200  0.59281400  1
  Ni  Ni9  1  0.67943800  0.01609000  0.40718600  1
  Ni  Ni10  1  0.32056200  0.69552800  0.09281400  1
  Ni  Ni11  1  0.32056200  0.98391000  0.90718600  1
  Ni  Ni12  1  0.32056200  0.69552800  0.40718600  1
  Ni  Ni13  1  0.32056200  0.98391000  0.59281400  1
  Cu  Cu14  1  0.00000000  0.57688900  0.25000000  1
  Cu  Cu15  1  0.00000000  0.42311100  0.75000000  1
  Cu  Cu16  1  0.37712200  0.97213200  0.25000000  1
  Cu  Cu17  1  0.37712200  0.65074600  0.75000000  1
  Cu  Cu18  1  0.62287800  0.02786800  0.75000000  1
  Cu  Cu19  1  0.62287800  0.34925400  0.25000000  1
  Cu  Cu20  1  0.00000000  0.12566300  0.95568700  1
  Cu  Cu21  1  0.00000000  0.87433700  0.04431300  1
  Cu  Cu22  1  0.00000000  0.12566300  0.54431300  1
  Cu  Cu23  1  0.00000000  0.87433700  0.45568700  1
  Cu  Cu24  1  0.37648100  0.47085700  0.86861800  1
  Cu  Cu25  1  0.37648100  0.15266300  0.13138200  1
  Cu  Cu26  1  0.37648100  0.47085700  0.63138200  1
  Cu  Cu27  1  0.37648100  0.15266300  0.36861800  1
  Cu  Cu28  1  0.62351900  0.52914300  0.13138200  1
  Cu  Cu29  1  0.62351900  0.84733700  0.86861800  1
  Cu  Cu30  1  0.62351900  0.52914300  0.36861800  1
  Cu  Cu31  1  0.62351900  0.84733700  0.63138200  1
