# generated using pymatgen
data_Cu6NiC12
_symmetry_space_group_name_H-M   'P 1'
_cell_length_a   7.72917460
_cell_length_b   6.14489155
_cell_length_c   5.98865505
_cell_angle_alpha   73.36009589
_cell_angle_beta   69.81428090
_cell_angle_gamma   67.28086602
_symmetry_Int_Tables_number   1
_chemical_formula_structural   Cu6NiC12
_chemical_formula_sum   'Cu6 Ni1 C12'
_cell_volume   242.36679947
_cell_formula_units_Z   1
loop_
 _symmetry_equiv_pos_site_id
 _symmetry_equiv_pos_as_xyz
  1  'x, y, z'
loop_
 _atom_site_type_symbol
 _atom_site_label
 _atom_site_symmetry_multiplicity
 _atom_site_fract_x
 _atom_site_fract_y
 _atom_site_fract_z
 _atom_site_occupancy
  Ni  Ni0  1  0.66588500  0.81246700  0.35087400  1
  Cu  Cu1  1  0.89417800  0.68165200  0.72036000  1
  Cu  Cu2  1  0.65474500  0.32525800  0.32463900  1
  Cu  Cu3  1  0.32943000  0.69114100  0.64589000  1
  Cu  Cu4  1  0.13991900  0.28058900  0.35370400  1
  Cu  Cu5  1  0.48626100  0.05677000  0.98098600  1
  Cu  Cu6  1  0.99437000  0.02808200  0.00688600  1
  C  C7  1  0.60411600  0.52088400  0.55516500  1
  C  C8  1  0.93609900  0.21592100  0.24721700  1
  C  C9  1  0.70682200  0.10603300  0.10449800  1
  C  C10  1  0.05462300  0.84150900  0.76384600  1
  C  C11  1  0.36957000  0.95324700  0.37438000  1
  C  C12  1  0.64806500  0.97448500  0.62118200  1
  C  C13  1  0.30031800  0.40914100  0.94205800  1
  C  C14  1  0.28330200  0.92548300  0.93873000  1
  C  C15  1  0.36507500  0.42624600  0.39775300  1
  C  C16  1  0.68351000  0.67774000  0.05526100  1
  C  C17  1  0.01364600  0.32391300  0.71751000  1
  C  C18  1  0.95340000  0.67652000  0.33655900  1
