# generated using pymatgen
data_Cu7NiC30
_symmetry_space_group_name_H-M   'P 1'
_cell_length_a   11.00537813
_cell_length_b   15.73719693
_cell_length_c   10.95309020
_cell_angle_alpha   89.94061259
_cell_angle_beta   91.07706556
_cell_angle_gamma   90.26507876
_symmetry_Int_Tables_number   1
_chemical_formula_structural   Cu7NiC30
_chemical_formula_sum   'Cu28 Ni4 C120'
_cell_volume   1896.65102167
_cell_formula_units_Z   4
loop_
 _symmetry_equiv_pos_site_id
 _symmetry_equiv_pos_as_xyz
  1  'x, y, z'
loop_
 _atom_site_type_symbol
 _atom_site_label
 _atom_site_symmetry_multiplicity
 _atom_site_fract_x
 _atom_site_fract_y
 _atom_site_fract_z
 _atom_site_occupancy
  Ni  Ni0  1  0.98906025  0.11879952  0.51058539  1
  Ni  Ni1  1  0.50216380  0.39019655  0.99890635  1
  Ni  Ni2  1  0.24381674  0.39252986  0.25207238  1
  Ni  Ni3  1  0.22622215  0.11824078  0.23161419  1
  Cu  Cu4  1  0.98700517  0.11439955  0.01127993  1
  Cu  Cu5  1  0.00875539  0.62605806  0.50409061  1
  Cu  Cu6  1  0.00346715  0.62599845  0.98911838  1
  Cu  Cu7  1  0.54669264  0.12497401  0.48273461  1
  Cu  Cu8  1  0.54867100  0.12401982  0.98232200  1
  Cu  Cu9  1  0.52471203  0.62481847  0.50170364  1
  Cu  Cu10  1  0.53015745  0.62481676  0.99981733  1
  Cu  Cu11  1  0.49335298  0.39468754  0.50772903  1
  Cu  Cu12  1  0.50243388  0.85509062  0.99748864  1
  Cu  Cu13  1  0.49792488  0.85444782  0.49743732  1
  Cu  Cu14  1  0.96670306  0.39131953  0.99729021  1
  Cu  Cu15  1  0.96137777  0.38953603  0.50336425  1
  Cu  Cu16  1  0.96629979  0.86466141  0.00700491  1
  Cu  Cu17  1  0.96544921  0.86567841  0.50976702  1
  Cu  Cu18  1  0.23561595  0.39926800  0.74176823  1
  Cu  Cu19  1  0.23200996  0.85737476  0.25925896  1
  Cu  Cu20  1  0.22858051  0.86146293  0.75394560  1
  Cu  Cu21  1  0.73606277  0.39527321  0.25409467  1
  Cu  Cu22  1  0.73101674  0.39245474  0.75243672  1
  Cu  Cu23  1  0.72869610  0.85908120  0.24676815  1
  Cu  Cu24  1  0.72937216  0.85935583  0.74661918  1
  Cu  Cu25  1  0.22685324  0.11306135  0.73930855  1
  Cu  Cu26  1  0.27647830  0.62888414  0.26997664  1
  Cu  Cu27  1  0.26972049  0.62859909  0.75129272  1
  Cu  Cu28  1  0.77139338  0.11777337  0.24757862  1
  Cu  Cu29  1  0.77776987  0.12294215  0.75507289  1
  Cu  Cu30  1  0.75677931  0.62386933  0.25140931  1
  Cu  Cu31  1  0.76812270  0.62431370  0.75546778  1
  C  C32  1  0.98610818  0.98553335  0.26121074  1
  C  C33  1  0.98660464  0.98966618  0.76002868  1
  C  C34  1  0.99978067  0.50374074  0.25116064  1
  C  C35  1  0.23253727  0.98386347  0.01125283  1
  C  C36  1  0.23186744  0.98983428  0.51596087  1
  C  C37  1  0.24869129  0.51696053  0.00790696  1
  C  C38  1  0.26619669  0.23812859  0.93461204  1
  C  C39  1  0.26860164  0.23492785  0.45525626  1
  C  C40  1  0.25190368  0.74678584  0.00532778  1
  C  C41  1  0.97721439  0.25733098  0.26791576  1
  C  C42  1  0.99544754  0.25798938  0.77109668  1
  C  C43  1  0.99986224  0.74301237  0.25061855  1
  C  C44  1  0.00142500  0.50314861  0.74841357  1
  C  C45  1  0.50599094  0.98897728  0.22998499  1
  C  C46  1  0.50679192  0.98857454  0.73381347  1
  C  C47  1  0.49907216  0.50568823  0.25353593  1
  C  C48  1  0.49572422  0.50650706  0.75029969  1
  C  C49  1  0.24702901  0.51188766  0.50515734  1
  C  C50  1  0.74416887  0.99549041  0.99145580  1
  C  C51  1  0.73912869  0.99521025  0.49213987  1
  C  C52  1  0.75084136  0.50344484  0.00095747  1
  C  C53  1  0.74704938  0.50409379  0.50428821  1
  C  C54  1  0.25007770  0.75034394  0.50694802  1
  C  C55  1  0.75148381  0.25213693  0.00273940  1
  C  C56  1  0.74230668  0.25332655  0.50509108  1
  C  C57  1  0.75192061  0.74706447  0.99858223  1
  C  C58  1  0.74998887  0.74643517  0.50064224  1
  C  C59  1  0.00125955  0.74813014  0.74989867  1
  C  C60  1  0.51826089  0.25782901  0.25584937  1
  C  C61  1  0.51485952  0.25599773  0.74895668  1
  C  C62  1  0.49986107  0.74639174  0.25410694  1
  C  C63  1  0.49967281  0.74574137  0.75308266  1
  C  C64  1  0.11016253  0.77789096  0.11049174  1
  C  C65  1  0.10838964  0.77762956  0.60710461  1
  C  C66  1  0.56694766  0.24885069  0.09491855  1
  C  C67  1  0.57910103  0.25859789  0.58075116  1
  C  C68  1  0.61105946  0.76174332  0.11301593  1
  C  C69  1  0.61276440  0.76181664  0.60995644  1
  C  C70  1  0.39633532  0.19555264  0.36136762  1
  C  C71  1  0.39715856  0.18529119  0.85727239  1
  C  C72  1  0.39617299  0.72889089  0.40243738  1
  C  C73  1  0.39121132  0.72741874  0.90759818  1
  C  C74  1  0.89948827  0.24357526  0.40789894  1
  C  C75  1  0.92970167  0.24053806  0.91727640  1
  C  C76  1  0.89736512  0.73028013  0.38951500  1
  C  C77  1  0.89561778  0.73359846  0.89276664  1
  C  C78  1  0.15574332  0.24928074  0.33158807  1
  C  C79  1  0.17789645  0.25377838  0.78998662  1
  C  C80  1  0.14865831  0.73724685  0.35471133  1
  C  C81  1  0.14811741  0.73403755  0.85949309  1
  C  C82  1  0.65376519  0.21994856  0.34198719  1
  C  C83  1  0.66224204  0.22749634  0.85114944  1
  C  C84  1  0.64423058  0.72650413  0.35713332  1
  C  C85  1  0.64516317  0.72599422  0.86111779  1
  C  C86  1  0.35595633  0.76691400  0.14999646  1
  C  C87  1  0.35266860  0.76989386  0.64795480  1
  C  C88  1  0.85487693  0.27685903  0.15313953  1
  C  C89  1  0.87579459  0.27099972  0.65286934  1
  C  C90  1  0.86232781  0.77077103  0.14248671  1
  C  C91  1  0.86125862  0.77122828  0.64243658  1
  C  C92  1  0.36052882  0.49334973  0.13966899  1
  C  C93  1  0.35055922  0.49476046  0.64404627  1
  C  C94  1  0.35951179  0.01794198  0.12009160  1
  C  C95  1  0.35173329  0.01285671  0.64105838  1
  C  C96  1  0.86452562  0.48234598  0.13851193  1
  C  C97  1  0.85998723  0.47910962  0.64245472  1
  C  C98  1  0.85920340  0.97692914  0.14551744  1
  C  C99  1  0.85781888  0.97978369  0.64741033  1
  C  C100  1  0.14484191  0.01641278  0.36963543  1
  C  C101  1  0.15791420  0.01358366  0.86607675  1
  C  C102  1  0.14366752  0.51912565  0.35599848  1
  C  C103  1  0.14575649  0.51880288  0.85763987  1
  C  C104  1  0.63252349  0.02976981  0.34620945  1
  C  C105  1  0.63890535  0.02892480  0.84475951  1
  C  C106  1  0.64099997  0.52138046  0.36202629  1
  C  C107  1  0.64089160  0.51994656  0.86272889  1
  C  C108  1  0.38607028  0.51602610  0.40030654  1
  C  C109  1  0.38292227  0.51963849  0.89973754  1
  C  C110  1  0.88484204  0.01266722  0.38983984  1
  C  C111  1  0.89174215  0.01355830  0.89516411  1
  C  C112  1  0.89424878  0.51597970  0.38577631  1
  C  C113  1  0.89592927  0.51603145  0.88844242  1
  C  C114  1  0.11227093  0.47487074  0.10374095  1
  C  C115  1  0.10579431  0.47719070  0.60263729  1
  C  C116  1  0.10797818  0.97830629  0.11701562  1
  C  C117  1  0.10613065  0.97421166  0.61577992  1
  C  C118  1  0.61878781  0.49208237  0.11987316  1
  C  C119  1  0.61089360  0.49029341  0.61310179  1
  C  C120  1  0.60029114  0.98504976  0.07937364  1
  C  C121  1  0.59375257  0.98495434  0.57876263  1
  C  C122  1  0.01003293  0.37690160  0.28346125  1
  C  C123  1  0.01874653  0.37685842  0.78814764  1
  C  C124  1  0.00854280  0.87454343  0.29645424  1
  C  C125  1  0.01244189  0.87795545  0.79816475  1
  C  C126  1  0.49487696  0.37965881  0.28089532  1
  C  C127  1  0.49172621  0.38165226  0.76897634  1
  C  C128  1  0.50681253  0.86836373  0.28402994  1
  C  C129  1  0.50702456  0.86740618  0.78607773  1
  C  C130  1  0.48777436  0.62638481  0.21500587  1
  C  C131  1  0.48535890  0.62679878  0.71435005  1
  C  C132  1  0.99426086  0.13501950  0.22415451  1
  C  C133  1  0.00604883  0.12632049  0.73521842  1
  C  C134  1  0.99626587  0.62572245  0.20987238  1
  C  C135  1  0.99261910  0.62289882  0.71584248  1
  C  C136  1  0.19403570  0.15633627  0.02272435  1
  C  C137  1  0.21918573  0.14157460  0.53907890  1
  C  C138  1  0.22605310  0.62881602  0.04894454  1
  C  C139  1  0.22716680  0.63364466  0.53872871  1
  C  C140  1  0.75819463  0.12567745  0.03604552  1
  C  C141  1  0.74958282  0.12981881  0.54191597  1
  C  C142  1  0.75603633  0.62473276  0.03702670  1
  C  C143  1  0.75245734  0.62453901  0.53929021  1
  C  C144  1  0.29287236  0.33535923  0.52802757  1
  C  C145  1  0.28419793  0.33864423  0.00913189  1
  C  C146  1  0.28065026  0.88463419  0.46780488  1
  C  C147  1  0.27717472  0.87735342  0.96916030  1
  C  C148  1  0.74685475  0.37753063  0.46814009  1
  C  C149  1  0.74905934  0.37733422  0.96544296  1
  C  C150  1  0.74964474  0.86902508  0.46173855  1
  C  C151  1  0.74909767  0.87151886  0.96047699  1
