# generated using pymatgen
data_CuNiC7
_symmetry_space_group_name_H-M   'P 1'
_cell_length_a   6.21599800
_cell_length_b   8.59012000
_cell_length_c   38.57459081
_cell_angle_alpha   90.00000000
_cell_angle_beta   92.70107797
_cell_angle_gamma   90.00000000
_symmetry_Int_Tables_number   1
_chemical_formula_structural   CuNiC7
_chemical_formula_sum   'Cu16 Ni16 C112'
_cell_volume   2057.44697050
_cell_formula_units_Z   16
loop_
 _symmetry_equiv_pos_site_id
 _symmetry_equiv_pos_as_xyz
  1  'x, y, z'
loop_
 _atom_site_type_symbol
 _atom_site_label
 _atom_site_symmetry_multiplicity
 _atom_site_fract_x
 _atom_site_fract_y
 _atom_site_fract_z
 _atom_site_occupancy
  C  C0  1  0.71008000  0.80984400  0.59170500  1
  C  C1  1  0.28992000  0.30984400  0.90829500  1
  C  C2  1  0.28992000  0.19015600  0.40829500  1
  C  C3  1  0.71008000  0.69015600  0.09170500  1
  C  C4  1  0.37852400  0.74887000  0.65666200  1
  C  C5  1  0.62147600  0.24887000  0.84333800  1
  C  C6  1  0.62147600  0.25113000  0.34333800  1
  C  C7  1  0.37852400  0.75113000  0.15666200  1
  C  C8  1  0.35284600  0.99068300  0.78716100  1
  C  C9  1  0.64715400  0.49068300  0.71283900  1
  C  C10  1  0.64715400  0.00931700  0.21283900  1
  C  C11  1  0.35284600  0.50931700  0.28716100  1
  C  C12  1  0.61838900  0.98817000  0.77375900  1
  C  C13  1  0.38161100  0.48817000  0.72624100  1
  C  C14  1  0.38161100  0.01183000  0.22624100  1
  C  C15  1  0.61838900  0.51183000  0.27375900  1
  C  C16  1  0.07827500  0.89687600  0.75284300  1
  C  C17  1  0.92172500  0.39687600  0.74715700  1
  C  C18  1  0.92172500  0.10312400  0.24715700  1
  C  C19  1  0.07827500  0.60312400  0.25284300  1
  C  C20  1  0.12265000  0.82167200  0.71141300  1
  C  C21  1  0.87735000  0.32167200  0.78858700  1
  C  C22  1  0.87735000  0.17832800  0.28858700  1
  C  C23  1  0.12265000  0.67832800  0.21141300  1
  C  C24  1  0.01869300  0.46130900  0.57971600  1
  C  C25  1  0.98130700  0.96130900  0.92028400  1
  C  C26  1  0.98130700  0.53869100  0.42028400  1
  C  C27  1  0.01869300  0.03869100  0.07971600  1
  C  C28  1  0.11325600  0.49466800  0.62272000  1
  C  C29  1  0.88674400  0.99466800  0.87728000  1
  C  C30  1  0.88674400  0.50533200  0.37728000  1
  C  C31  1  0.11325600  0.00533200  0.12272000  1
  C  C32  1  0.26290900  0.46012800  0.53472500  1
  C  C33  1  0.73709100  0.96012800  0.96527500  1
  C  C34  1  0.73709100  0.53987200  0.46527500  1
  C  C35  1  0.26290900  0.03987200  0.03472500  1
  C  C36  1  0.52748900  0.52403900  0.54462500  1
  C  C37  1  0.47251100  0.02403900  0.95537500  1
  C  C38  1  0.47251100  0.47596100  0.45537500  1
  C  C39  1  0.52748900  0.97596100  0.04462500  1
  C  C40  1  0.85419000  0.27338200  0.64971500  1
  C  C41  1  0.14581000  0.77338200  0.85028500  1
  C  C42  1  0.14581000  0.72661800  0.35028500  1
  C  C43  1  0.85419000  0.22661800  0.14971500  1
  C  C44  1  0.74493700  0.12666600  0.62186900  1
  C  C45  1  0.25506300  0.62666600  0.87813100  1
  C  C46  1  0.25506300  0.87333400  0.37813100  1
  C  C47  1  0.74493700  0.37333400  0.12186900  1
  C  C48  1  0.18639500  0.24919500  0.67506500  1
  C  C49  1  0.81360500  0.74919500  0.82493500  1
  C  C50  1  0.81360500  0.75080500  0.32493500  1
  C  C51  1  0.18639500  0.25080500  0.17506500  1
  C  C52  1  0.33619000  0.07471500  0.67074200  1
  C  C53  1  0.66381000  0.57471500  0.82925800  1
  C  C54  1  0.66381000  0.92528500  0.32925800  1
  C  C55  1  0.33619000  0.42528500  0.17074200  1
  C  C56  1  0.76768500  0.23111700  0.49331600  1
  C  C57  1  0.23231500  0.73111700  0.00668400  1
  C  C58  1  0.23231500  0.76888300  0.50668400  1
  C  C59  1  0.76768500  0.26888300  0.99331600  1
  C  C60  1  0.49756600  0.19363100  0.50234200  1
  C  C61  1  0.50243400  0.69363100  0.99765800  1
  C  C62  1  0.50243400  0.80636900  0.49765800  1
  C  C63  1  0.49756600  0.30636900  0.00234200  1
  C  C64  1  0.03951400  0.15636000  0.53001600  1
  C  C65  1  0.96048600  0.65636000  0.96998400  1
  C  C66  1  0.96048600  0.84364000  0.46998400  1
  C  C67  1  0.03951400  0.34364000  0.03001600  1
  C  C68  1  0.99108200  0.06009400  0.56898600  1
  C  C69  1  0.00891800  0.56009400  0.93101400  1
  C  C70  1  0.00891800  0.93990600  0.43101400  1
  C  C71  1  0.99108200  0.43990600  0.06898600  1
  Ni  Ni72  1  0.39066100  0.90511100  0.73810200  1
  Ni  Ni73  1  0.60933900  0.40511100  0.76189800  1
  Ni  Ni74  1  0.60933900  0.09488900  0.26189800  1
  Ni  Ni75  1  0.39066100  0.59488900  0.23810200  1
  Ni  Ni76  1  0.34050000  0.50967400  0.58631700  1
  Ni  Ni77  1  0.65950000  0.00967400  0.91368300  1
  Ni  Ni78  1  0.65950000  0.49032600  0.41368300  1
  Ni  Ni79  1  0.34050000  0.99032600  0.08631700  1
  Ni  Ni80  1  0.04283200  0.08033000  0.64452400  1
  Ni  Ni81  1  0.95716800  0.58033000  0.85547600  1
  Ni  Ni82  1  0.95716800  0.91967000  0.35547600  1
  Ni  Ni83  1  0.04283200  0.41967000  0.14452400  1
  Ni  Ni84  1  0.72130000  0.12489900  0.54003900  1
  Ni  Ni85  1  0.27870000  0.62489900  0.95996100  1
  Ni  Ni86  1  0.27870000  0.87510100  0.45996100  1
  Ni  Ni87  1  0.72130000  0.37510100  0.04003900  1
  Cu  Cu88  1  0.57232100  0.87544400  0.70655700  1
  Cu  Cu89  1  0.42767900  0.37544400  0.79344300  1
  Cu  Cu90  1  0.42767900  0.12455600  0.29344300  1
  Cu  Cu91  1  0.57232100  0.62455600  0.20655700  1
  Cu  Cu92  1  0.54905600  0.56040700  0.61602300  1
  Cu  Cu93  1  0.45094400  0.06040700  0.88397700  1
  Cu  Cu94  1  0.45094400  0.43959300  0.38397700  1
  Cu  Cu95  1  0.54905600  0.93959300  0.11602300  1
  Cu  Cu96  1  0.06753600  0.89996800  0.62531100  1
  Cu  Cu97  1  0.93246400  0.39996800  0.87468900  1
  Cu  Cu98  1  0.93246400  0.10003200  0.37468900  1
  Cu  Cu99  1  0.06753600  0.60003200  0.12531100  1
  Cu  Cu100  1  0.53337100  0.05598200  0.56756800  1
  Cu  Cu101  1  0.46662900  0.55598200  0.93243200  1
  Cu  Cu102  1  0.46662900  0.94401800  0.43243200  1
  Cu  Cu103  1  0.53337100  0.44401800  0.06756800  1
  C  C104  1  0.84882600  0.67520200  0.52589600  1
  C  C105  1  0.15117400  0.17520200  0.97410400  1
  C  C106  1  0.15117400  0.32479800  0.47410400  1
  C  C107  1  0.84882600  0.82479800  0.02589600  1
  C  C108  1  0.03876100  0.50927900  0.68579100  1
  C  C109  1  0.96123900  0.00927900  0.81420900  1
  C  C110  1  0.96123900  0.49072100  0.31420900  1
  C  C111  1  0.03876100  0.99072100  0.18579100  1
  C  C112  1  0.46005400  0.96192300  0.76896000  1
  C  C113  1  0.53994600  0.46192300  0.73104000  1
  C  C114  1  0.53994600  0.03807700  0.23104000  1
  C  C115  1  0.46005400  0.53807700  0.26896000  1
  C  C116  1  0.18002700  0.87561500  0.73337900  1
  C  C117  1  0.81997300  0.37561500  0.76662100  1
  C  C118  1  0.81997300  0.12438500  0.26662100  1
  C  C119  1  0.18002700  0.62438500  0.23337900  1
  C  C120  1  0.14473100  0.47927800  0.59716200  1
  C  C121  1  0.85526900  0.97927800  0.90283800  1
  C  C122  1  0.85526900  0.52072200  0.40283800  1
  C  C123  1  0.14473100  0.02072200  0.09716200  1
  C  C124  1  0.37919400  0.49448100  0.55285200  1
  C  C125  1  0.62080600  0.99448100  0.94714800  1
  C  C126  1  0.62080600  0.50551900  0.44714800  1
  C  C127  1  0.37919400  0.00551900  0.05285200  1
  C  C128  1  0.86290800  0.16434400  0.63934000  1
  C  C129  1  0.13709200  0.66434400  0.86066000  1
  C  C130  1  0.13709200  0.83565600  0.36066000  1
  C  C131  1  0.86290800  0.33565600  0.13934000  1
  C  C132  1  0.20367200  0.14083700  0.66427800  1
  C  C133  1  0.79632800  0.64083700  0.83572200  1
  C  C134  1  0.79632800  0.85916300  0.33572200  1
  C  C135  1  0.20367200  0.35916300  0.16427800  1
  C  C136  1  0.65718100  0.18858000  0.50968600  1
  C  C137  1  0.34281900  0.68858000  0.99031400  1
  C  C138  1  0.34281900  0.81142000  0.49031400  1
  C  C139  1  0.65718100  0.31142000  0.00968600  1
  C  C140  1  0.93391300  0.12203700  0.54800000  1
  C  C141  1  0.06608700  0.62203700  0.95200000  1
  C  C142  1  0.06608700  0.87796300  0.45200000  1
  C  C143  1  0.93391300  0.37796300  0.04800000  1
