# generated using pymatgen
data_Cu(NiC5)2
_symmetry_space_group_name_H-M   'P 1'
_cell_length_a   5.63360735
_cell_length_b   5.63361442
_cell_length_c   11.63182300
_cell_angle_alpha   89.99993525
_cell_angle_beta   90.00009919
_cell_angle_gamma   88.60433567
_symmetry_Int_Tables_number   1
_chemical_formula_structural   Cu(NiC5)2
_chemical_formula_sum   'Cu2 Ni4 C20'
_cell_volume   369.05629647
_cell_formula_units_Z   2
loop_
 _symmetry_equiv_pos_site_id
 _symmetry_equiv_pos_as_xyz
  1  'x, y, z'
loop_
 _atom_site_type_symbol
 _atom_site_label
 _atom_site_symmetry_multiplicity
 _atom_site_fract_x
 _atom_site_fract_y
 _atom_site_fract_z
 _atom_site_occupancy
  Ni  Ni0  1  0.50001900  0.99999000  0.81868200  1
  Ni  Ni1  1  0.00001700  0.49998600  0.81868200  1
  Ni  Ni2  1  0.50002000  0.99998700  0.18131100  1
  Ni  Ni3  1  0.00002300  0.49998600  0.18131100  1
  Cu  Cu4  1  0.49998700  0.00000400  0.50003200  1
  Cu  Cu5  1  0.99998800  0.50000500  0.50003200  1
  C  C6  1  0.99996100  0.00004800  0.99988800  1
  C  C7  1  0.49999100  0.50000300  0.64709300  1
  C  C8  1  0.49999200  0.49999600  0.35291200  1
  C  C9  1  0.49996000  0.50005100  0.99988600  1
  C  C10  1  0.99999300  0.00000500  0.64709200  1
  C  C11  1  0.99999200  0.99999700  0.35294500  1
  C  C12  1  0.25003700  0.24997400  0.99996300  1
  C  C13  1  0.75003800  0.74997000  0.99996200  1
  C  C14  1  0.74999500  0.24999200  0.62223900  1
  C  C15  1  0.24998400  0.75000600  0.62223900  1
  C  C16  1  0.74998400  0.25000900  0.37785500  1
  C  C17  1  0.24999700  0.74999400  0.37785400  1
  C  C18  1  0.74999000  0.75001100  0.62343200  1
  C  C19  1  0.24998600  0.25000100  0.62343200  1
  C  C20  1  0.74998500  0.74999600  0.37663700  1
  C  C21  1  0.24999300  0.25000500  0.37663700  1
  C  C22  1  0.50001600  0.49999900  0.82314700  1
  C  C23  1  0.00001500  0.99999800  0.82314800  1
  C  C24  1  0.50002100  0.49999500  0.17679300  1
  C  C25  1  0.00001500  0.99999500  0.17680200  1
