# generated using pymatgen
data_Cu8Ni2C15
_symmetry_space_group_name_H-M   'P 1'
_cell_length_a   6.71505800
_cell_length_b   8.53143000
_cell_length_c   9.72906564
_cell_angle_alpha   90.00000000
_cell_angle_beta   110.18807876
_cell_angle_gamma   90.00000000
_symmetry_Int_Tables_number   1
_chemical_formula_structural   Cu8Ni2C15
_chemical_formula_sum   'Cu16 Ni4 C30'
_cell_volume   523.12685742
_cell_formula_units_Z   2
loop_
 _symmetry_equiv_pos_site_id
 _symmetry_equiv_pos_as_xyz
  1  'x, y, z'
loop_
 _atom_site_type_symbol
 _atom_site_label
 _atom_site_symmetry_multiplicity
 _atom_site_fract_x
 _atom_site_fract_y
 _atom_site_fract_z
 _atom_site_occupancy
  C  C0  1  0.85782800  0.25000000  0.71565700  1
  C  C1  1  0.14217200  0.75000000  0.28434300  1
  C  C2  1  0.31316700  0.25000000  0.62633400  1
  C  C3  1  0.68683300  0.75000000  0.37366600  1
  C  C4  1  0.07642700  0.94051100  0.57960300  1
  C  C5  1  0.49682300  0.05948900  0.42039700  1
  C  C6  1  0.92357300  0.44051100  0.42039700  1
  C  C7  1  0.50317700  0.55948900  0.57960300  1
  C  C8  1  0.76566400  0.50000000  0.00000000  1
  C  C9  1  0.23433600  0.00000000  0.00000000  1
  C  C10  1  0.65522100  0.25000000  0.31044100  1
  C  C11  1  0.34477900  0.75000000  0.68955900  1
  C  C12  1  0.65852200  0.17061900  0.01143900  1
  C  C13  1  0.64708300  0.82938100  0.98856100  1
  C  C14  1  0.34147800  0.67061900  0.98856100  1
  C  C15  1  0.35291700  0.32938100  0.01143900  1
  C  C16  1  0.82867800  0.10193200  0.18562900  1
  C  C17  1  0.64304800  0.89806800  0.81437100  1
  C  C18  1  0.17132200  0.60193200  0.81437100  1
  C  C19  1  0.35695200  0.39806800  0.18562900  1
  C  C20  1  0.37380700  0.25000000  0.74761400  1
  C  C21  1  0.62619300  0.75000000  0.25238600  1
  C  C22  1  0.00613500  0.02433800  0.48855000  1
  C  C23  1  0.51758400  0.97566200  0.51145000  1
  C  C24  1  0.99386500  0.52433800  0.51145000  1
  C  C25  1  0.48241600  0.47566200  0.48855000  1
  C  C26  1  0.93039800  0.50000000  0.00000000  1
  C  C27  1  0.06960200  0.00000000  0.00000000  1
  C  C28  1  0.59529600  0.25000000  0.19059200  1
  C  C29  1  0.40470400  0.75000000  0.80940800  1
  Ni  Ni30  1  0.69910000  0.16612600  0.12344800  1
  Ni  Ni31  1  0.57565200  0.83387400  0.87655200  1
  Ni  Ni32  1  0.30090000  0.66612600  0.87655200  1
  Ni  Ni33  1  0.42434800  0.33387400  0.12344800  1
  Cu  Cu34  1  0.97042800  0.42526700  0.90032600  1
  Cu  Cu35  1  0.07010200  0.57473300  0.09967400  1
  Cu  Cu36  1  0.02957200  0.92526700  0.09967400  1
  Cu  Cu37  1  0.92989800  0.07473300  0.90032600  1
  Cu  Cu38  1  0.24005200  0.23483600  0.81262300  1
  Cu  Cu39  1  0.42742800  0.76516400  0.18737700  1
  Cu  Cu40  1  0.75994800  0.73483600  0.18737700  1
  Cu  Cu41  1  0.57257200  0.26516400  0.81262300  1
  Cu  Cu42  1  0.93169900  0.15227200  0.51701600  1
  Cu  Cu43  1  0.41468300  0.84772800  0.48298400  1
  Cu  Cu44  1  0.06830100  0.65227200  0.48298400  1
  Cu  Cu45  1  0.58531700  0.34772800  0.51701600  1
  Cu  Cu46  1  0.99494900  0.48457800  0.63727100  1
  Cu  Cu47  1  0.35767800  0.51542200  0.36272900  1
  Cu  Cu48  1  0.00505100  0.98457800  0.36272900  1
  Cu  Cu49  1  0.64232200  0.01542200  0.63727100  1
