# generated using pymatgen
data_Cu4Ni2C3
_symmetry_space_group_name_H-M   'P 1'
_cell_length_a   12.63527154
_cell_length_b   12.63527154
_cell_length_c   3.58499300
_cell_angle_alpha   90.00000000
_cell_angle_beta   90.00000000
_cell_angle_gamma   119.99999757
_symmetry_Int_Tables_number   1
_chemical_formula_structural   Cu4Ni2C3
_chemical_formula_sum   'Cu16 Ni8 C12'
_cell_volume   495.66484000
_cell_formula_units_Z   4
loop_
 _symmetry_equiv_pos_site_id
 _symmetry_equiv_pos_as_xyz
  1  'x, y, z'
loop_
 _atom_site_type_symbol
 _atom_site_label
 _atom_site_symmetry_multiplicity
 _atom_site_fract_x
 _atom_site_fract_y
 _atom_site_fract_z
 _atom_site_occupancy
  Ni  Ni0  1  0.00000000  0.17165000  0.50000000  1
  Ni  Ni1  1  0.82835000  0.82835000  0.50000000  1
  Ni  Ni2  1  0.17165000  0.00000000  0.50000000  1
  Ni  Ni3  1  0.66666700  0.33333300  0.00000000  1
  Ni  Ni4  1  0.33333300  0.66666700  0.00000000  1
  Ni  Ni5  1  0.00000000  0.54441000  0.00000000  1
  Ni  Ni6  1  0.45559000  0.45559000  0.00000000  1
  Ni  Ni7  1  0.54441000  0.00000000  0.00000000  1
  Cu  Cu8  1  0.00000000  0.71619100  0.50000000  1
  Cu  Cu9  1  0.28380900  0.28380900  0.50000000  1
  Cu  Cu10  1  0.71619100  0.00000000  0.50000000  1
  Cu  Cu11  1  0.80161300  0.17427900  0.00000000  1
  Cu  Cu12  1  0.82572100  0.62733400  0.00000000  1
  Cu  Cu13  1  0.37266600  0.19838700  0.00000000  1
  Cu  Cu14  1  0.17427900  0.80161300  0.00000000  1
  Cu  Cu15  1  0.62733400  0.82572100  0.00000000  1
  Cu  Cu16  1  0.19838700  0.37266600  0.00000000  1
  Cu  Cu17  1  0.87450400  0.34264200  0.50000000  1
  Cu  Cu18  1  0.65735800  0.53186100  0.50000000  1
  Cu  Cu19  1  0.46813900  0.12549600  0.50000000  1
  Cu  Cu20  1  0.34264200  0.87450400  0.50000000  1
  Cu  Cu21  1  0.53186100  0.65735800  0.50000000  1
  Cu  Cu22  1  0.12549600  0.46813900  0.50000000  1
  Cu  Cu23  1  0.00000000  0.00000000  0.00000000  1
  C  C24  1  0.00000000  0.82596700  0.00000000  1
  C  C25  1  0.17403300  0.17403300  0.00000000  1
  C  C26  1  0.82596700  0.00000000  0.00000000  1
  C  C27  1  0.67939700  0.17046300  0.50000000  1
  C  C28  1  0.82953700  0.50893400  0.50000000  1
  C  C29  1  0.49106600  0.32060300  0.50000000  1
  C  C30  1  0.17046300  0.67939700  0.50000000  1
  C  C31  1  0.50893400  0.82953700  0.50000000  1
  C  C32  1  0.32060300  0.49106600  0.50000000  1
  C  C33  1  0.00000000  0.33659400  0.00000000  1
  C  C34  1  0.66340600  0.66340600  0.00000000  1
  C  C35  1  0.33659400  0.00000000  0.00000000  1
