# generated using pymatgen
data_Cu20Ni3C13
_symmetry_space_group_name_H-M   'P 1'
_cell_length_a   9.56932900
_cell_length_b   8.63891500
_cell_length_c   12.12487320
_cell_angle_alpha   89.40435266
_cell_angle_beta   90.00000000
_cell_angle_gamma   90.00000000
_symmetry_Int_Tables_number   1
_chemical_formula_structural   Cu20Ni3C13
_chemical_formula_sum   'Cu20 Ni3 C13'
_cell_volume   1002.29236868
_cell_formula_units_Z   1
loop_
 _symmetry_equiv_pos_site_id
 _symmetry_equiv_pos_as_xyz
  1  'x, y, z'
loop_
 _atom_site_type_symbol
 _atom_site_label
 _atom_site_symmetry_multiplicity
 _atom_site_fract_x
 _atom_site_fract_y
 _atom_site_fract_z
 _atom_site_occupancy
  C  C0  1  0.27025900  0.42237200  0.31934600  1
  C  C1  1  0.72692900  0.07980300  0.81959700  1
  C  C2  1  0.76862000  0.58591900  0.67757200  1
  C  C3  1  0.22924600  0.91602100  0.18359400  1
  C  C4  1  0.23138000  0.58591900  0.67757200  1
  C  C5  1  0.77075400  0.91602100  0.18359400  1
  C  C6  1  0.72974100  0.42237200  0.31934600  1
  C  C7  1  0.27307100  0.07980300  0.81959700  1
  C  C8  1  0.00000000  0.39332100  0.01837700  1
  C  C9  1  0.00000000  0.09962400  0.51508400  1
  C  C10  1  0.50000000  0.61031600  0.98133500  1
  C  C11  1  0.50000000  0.89592000  0.48377400  1
  C  C12  1  0.00000000  0.68744200  0.40128000  1
  Ni  Ni13  1  0.00000000  0.81158000  0.89974700  1
  Ni  Ni14  1  0.50000000  0.31056000  0.60029600  1
  Ni  Ni15  1  0.50000000  0.19048800  0.10008400  1
  Cu  Cu16  1  0.00000000  0.17681300  0.26619700  1
  Cu  Cu17  1  0.00000000  0.32793400  0.76062300  1
  Cu  Cu18  1  0.50000000  0.82444900  0.73616800  1
  Cu  Cu19  1  0.50000000  0.67552900  0.23251600  1
  Cu  Cu20  1  0.00000000  0.47552200  0.49919600  1
  Cu  Cu21  1  0.00000000  0.01816500  0.99269900  1
  Cu  Cu22  1  0.50000000  0.51790700  0.50607700  1
  Cu  Cu23  1  0.50000000  0.98357900  0.00792000  1
  Cu  Cu24  1  0.00000000  0.63227400  0.22306300  1
  Cu  Cu25  1  0.00000000  0.85895100  0.72625800  1
  Cu  Cu26  1  0.50000000  0.35680200  0.77354200  1
  Cu  Cu27  1  0.50000000  0.14422100  0.27348900  1
  Cu  Cu28  1  0.68523100  0.31219800  0.05879300  1
  Cu  Cu29  1  0.31409200  0.18989900  0.56113200  1
  Cu  Cu30  1  0.18532100  0.68959500  0.93901300  1
  Cu  Cu31  1  0.80589200  0.80849400  0.44208800  1
  Cu  Cu32  1  0.81467900  0.68959500  0.93901300  1
  Cu  Cu33  1  0.19410800  0.80849400  0.44208800  1
  Cu  Cu34  1  0.31476900  0.31219800  0.05879300  1
  Cu  Cu35  1  0.68590800  0.18989900  0.56113200  1
