# generated using pymatgen
data_Cu16(NiC10)3
_symmetry_space_group_name_H-M   'P 1'
_cell_length_a   11.62192106
_cell_length_b   11.62192106
_cell_length_c   13.59844949
_cell_angle_alpha   89.26564968
_cell_angle_beta   89.26564968
_cell_angle_gamma   39.19504250
_symmetry_Int_Tables_number   1
_chemical_formula_structural   Cu16(NiC10)3
_chemical_formula_sum   'Cu32 Ni6 C60'
_cell_volume   1160.63637113
_cell_formula_units_Z   2
loop_
 _symmetry_equiv_pos_site_id
 _symmetry_equiv_pos_as_xyz
  1  'x, y, z'
loop_
 _atom_site_type_symbol
 _atom_site_label
 _atom_site_symmetry_multiplicity
 _atom_site_fract_x
 _atom_site_fract_y
 _atom_site_fract_z
 _atom_site_occupancy
  C  C0  1  0.74132200  0.76162700  0.09243700  1
  C  C1  1  0.23837300  0.25867800  0.40756300  1
  C  C2  1  0.25867800  0.23837300  0.90756300  1
  C  C3  1  0.76162700  0.74132200  0.59243700  1
  Ni  Ni4  1  0.75595800  0.24243300  0.39952800  1
  Ni  Ni5  1  0.75756700  0.24404200  0.10047200  1
  Ni  Ni6  1  0.24404200  0.75756700  0.60047200  1
  Ni  Ni7  1  0.24243300  0.75595800  0.89952800  1
  Ni  Ni8  1  0.74273200  0.25726800  0.75000000  1
  Ni  Ni9  1  0.25726800  0.74273200  0.25000000  1
  Cu  Cu10  1  0.82209900  0.00340100  0.91921900  1
  Cu  Cu11  1  0.99659900  0.17790100  0.58078100  1
  Cu  Cu12  1  0.17790100  0.99659900  0.08078100  1
  Cu  Cu13  1  0.00340100  0.82209900  0.41921900  1
  Cu  Cu14  1  0.48746600  0.32872800  0.58583400  1
  Cu  Cu15  1  0.67127200  0.51253400  0.91416600  1
  Cu  Cu16  1  0.51253400  0.67127200  0.41416600  1
  Cu  Cu17  1  0.32872800  0.48746600  0.08583400  1
  Cu  Cu18  1  0.83003000  0.98074700  0.25738200  1
  Cu  Cu19  1  0.01925300  0.16997000  0.24261800  1
  Cu  Cu20  1  0.16997000  0.01925300  0.74261800  1
  Cu  Cu21  1  0.98074700  0.83003000  0.75738200  1
  Cu  Cu22  1  0.65096100  0.48905300  0.57877600  1
  Cu  Cu23  1  0.51094700  0.34903900  0.92122400  1
  Cu  Cu24  1  0.34903900  0.51094700  0.42122400  1
  Cu  Cu25  1  0.48905300  0.65096100  0.07877600  1
  Cu  Cu26  1  0.84161300  0.00673600  0.58612000  1
  Cu  Cu27  1  0.99326400  0.15838700  0.91388000  1
  Cu  Cu28  1  0.15838700  0.99326400  0.41388000  1
  Cu  Cu29  1  0.00673600  0.84161300  0.08612000  1
  Cu  Cu30  1  0.67649500  0.51209500  0.24975700  1
  Cu  Cu31  1  0.48790500  0.32350500  0.25024300  1
  Cu  Cu32  1  0.32350500  0.48790500  0.75024300  1
  Cu  Cu33  1  0.51209500  0.67649500  0.74975700  1
  Cu  Cu34  1  0.70555400  0.67246500  0.34012000  1
  Cu  Cu35  1  0.32753500  0.29444600  0.15988000  1
  Cu  Cu36  1  0.29444600  0.32753500  0.65988000  1
  Cu  Cu37  1  0.67246500  0.70555400  0.84012000  1
  Cu  Cu38  1  0.84605000  0.77987500  0.34432700  1
  Cu  Cu39  1  0.22012500  0.15395000  0.15567300  1
  Cu  Cu40  1  0.15395000  0.22012500  0.65567300  1
  Cu  Cu41  1  0.77987500  0.84605000  0.84432700  1
  C  C42  1  0.80709100  0.31616100  0.54239900  1
  C  C43  1  0.68383900  0.19290900  0.95760100  1
  C  C44  1  0.19290900  0.68383900  0.45760100  1
  C  C45  1  0.31616100  0.80709100  0.04239900  1
  C  C46  1  0.82890900  0.32137000  0.87702500  1
  C  C47  1  0.67863000  0.17109100  0.62297500  1
  C  C48  1  0.17109100  0.67863000  0.12297500  1
  C  C49  1  0.32137000  0.82890900  0.37702500  1
  C  C50  1  0.02240000  0.13179800  0.34965200  1
  C  C51  1  0.86820200  0.97760000  0.15034800  1
  C  C52  1  0.97760000  0.86820200  0.65034800  1
  C  C53  1  0.13179800  0.02240000  0.84965200  1
  C  C54  1  0.88999100  0.98636500  0.82122500  1
  C  C55  1  0.01363500  0.11000900  0.67877500  1
  C  C56  1  0.11000900  0.01363500  0.17877500  1
  C  C57  1  0.98636500  0.88999100  0.32122500  1
  C  C58  1  0.48994300  0.37370100  0.48360600  1
  C  C59  1  0.62629900  0.51005700  0.01639400  1
  C  C60  1  0.51005700  0.62629900  0.51639400  1
  C  C61  1  0.37370100  0.48994300  0.98360600  1
  C  C62  1  0.60893300  0.52057500  0.34614200  1
  C  C63  1  0.47942500  0.39106700  0.15385800  1
  C  C64  1  0.39106700  0.47942500  0.65385800  1
  C  C65  1  0.52057500  0.60893300  0.84614200  1
  C  C66  1  0.78840100  0.88872700  0.26602100  1
  C  C67  1  0.11127300  0.21159900  0.23397900  1
  C  C68  1  0.21159900  0.11127300  0.73397900  1
  C  C69  1  0.88872700  0.78840100  0.76602100  1
  C  C70  1  0.87794300  0.98413800  0.48653400  1
  C  C71  1  0.01586200  0.12205700  0.01346600  1
  C  C72  1  0.12205700  0.01586200  0.51346600  1
  C  C73  1  0.98413800  0.87794300  0.98653400  1
  C  C74  1  0.73123800  0.59131800  0.25641700  1
  C  C75  1  0.40868200  0.26876200  0.24358300  1
  C  C76  1  0.26876200  0.40868200  0.74358300  1
  C  C77  1  0.59131800  0.73123800  0.75641700  1
  C  C78  1  0.62974300  0.51557400  0.67895100  1
  C  C79  1  0.48442600  0.37025700  0.82104900  1
  C  C80  1  0.37025700  0.48442600  0.32104900  1
  C  C81  1  0.51557400  0.62974300  0.17895100  1
  C  C82  1  0.74044900  0.95121700  0.91904700  1
  C  C83  1  0.04878300  0.25955100  0.58095300  1
  C  C84  1  0.25955100  0.04878300  0.08095300  1
  C  C85  1  0.95121700  0.74044900  0.41904700  1
  C  C86  1  0.40444400  0.27720800  0.58342500  1
  C  C87  1  0.72279200  0.59555600  0.91657500  1
  C  C88  1  0.59555600  0.72279200  0.41657500  1
  C  C89  1  0.27720800  0.40444400  0.08342500  1
  C  C90  1  0.80235600  0.69857900  0.35300800  1
  C  C91  1  0.30142100  0.19764400  0.14699200  1
  C  C92  1  0.19764400  0.30142100  0.64699200  1
  C  C93  1  0.69857900  0.80235600  0.85300800  1
  C  C94  1  0.67519000  0.17515000  0.28595500  1
  C  C95  1  0.82485000  0.32481000  0.21404500  1
  C  C96  1  0.32481000  0.82485000  0.71404500  1
  C  C97  1  0.17515000  0.67519000  0.78595500  1
