# generated using pymatgen
data_Cu(NiC)2
_symmetry_space_group_name_H-M   'P 1'
_cell_length_a   3.58480346
_cell_length_b   3.58651963
_cell_length_c   6.34338576
_cell_angle_alpha   90.00000032
_cell_angle_beta   90.04876030
_cell_angle_gamma   120.01585554
_symmetry_Int_Tables_number   1
_chemical_formula_structural   Cu(NiC)2
_chemical_formula_sum   'Cu1 Ni2 C2'
_cell_volume   70.61885919
_cell_formula_units_Z   1
loop_
 _symmetry_equiv_pos_site_id
 _symmetry_equiv_pos_as_xyz
  1  'x, y, z'
loop_
 _atom_site_type_symbol
 _atom_site_label
 _atom_site_symmetry_multiplicity
 _atom_site_fract_x
 _atom_site_fract_y
 _atom_site_fract_z
 _atom_site_occupancy
  Ni  Ni0  1  0.66655900  0.33328000  0.14773600  1
  Ni  Ni1  1  0.33344100  0.66672000  0.85226400  1
  Cu  Cu2  1  0.00000000  0.00000000  0.50000000  1
  C  C3  1  0.66655000  0.33327400  0.78951000  1
  C  C4  1  0.33345000  0.66672600  0.21049000  1
