# generated using pymatgen
data_Cu8Ni2C15
_symmetry_space_group_name_H-M   'P 1'
_cell_length_a   6.53715116
_cell_length_b   6.64745531
_cell_length_c   6.64745531
_cell_angle_alpha   114.29045552
_cell_angle_beta   105.64060797
_cell_angle_gamma   74.35939203
_symmetry_Int_Tables_number   1
_chemical_formula_structural   Cu8Ni2C15
_chemical_formula_sum   'Cu8 Ni2 C15'
_cell_volume   249.36686794
_cell_formula_units_Z   1
loop_
 _symmetry_equiv_pos_site_id
 _symmetry_equiv_pos_as_xyz
  1  'x, y, z'
loop_
 _atom_site_type_symbol
 _atom_site_label
 _atom_site_symmetry_multiplicity
 _atom_site_fract_x
 _atom_site_fract_y
 _atom_site_fract_z
 _atom_site_occupancy
  C  C0  1  0.00000000  0.81733800  0.81733800  1
  C  C1  1  0.41416200  0.45669600  0.01082800  1
  C  C2  1  0.58583800  0.01082800  0.45669600  1
  C  C3  1  0.53604200  0.55459100  0.30014200  1
  C  C4  1  0.46395800  0.30014200  0.55459100  1
  C  C5  1  0.82283300  0.27559000  0.26198000  1
  C  C6  1  0.17716700  0.26198000  0.27559000  1
  C  C7  1  0.87331700  0.28614400  0.65761400  1
  C  C8  1  0.12668300  0.65761400  0.28614400  1
  C  C9  1  0.50000000  0.90376800  0.90376800  1
  C  C10  1  0.70894700  0.27934800  0.10689000  1
  C  C11  1  0.29105300  0.10689000  0.27934800  1
  C  C12  1  0.03570800  0.29107000  0.76496300  1
  C  C13  1  0.96429200  0.76496300  0.29107000  1
  C  C14  1  0.50000000  0.75148100  0.75148100  1
  Ni  Ni15  1  0.54069900  0.44473600  0.13923400  1
  Ni  Ni16  1  0.45930100  0.13923400  0.44473600  1
  Cu  Cu17  1  0.74216900  0.13528600  0.91866200  1
  Cu  Cu18  1  0.25783100  0.91866200  0.13528600  1
  Cu  Cu19  1  0.32928600  0.66588200  0.67258400  1
  Cu  Cu20  1  0.67071400  0.67258400  0.66588200  1
  Cu  Cu21  1  0.11786200  0.46288300  0.81156900  1
  Cu  Cu22  1  0.88213800  0.81156900  0.46288300  1
  Cu  Cu23  1  0.12644700  0.13177000  0.83215000  1
  Cu  Cu24  1  0.87355300  0.83215000  0.13177000  1
