# generated using pymatgen
data_Cu4NiC39
_symmetry_space_group_name_H-M   'P 1'
_cell_length_a   10.08421867
_cell_length_b   10.08421867
_cell_length_c   10.65058877
_cell_angle_alpha   65.35171203
_cell_angle_beta   65.35171203
_cell_angle_gamma   41.88996469
_symmetry_Int_Tables_number   1
_chemical_formula_structural   Cu4NiC39
_chemical_formula_sum   'Cu4 Ni1 C39'
_cell_volume   647.06220151
_cell_formula_units_Z   1
loop_
 _symmetry_equiv_pos_site_id
 _symmetry_equiv_pos_as_xyz
  1  'x, y, z'
loop_
 _atom_site_type_symbol
 _atom_site_label
 _atom_site_symmetry_multiplicity
 _atom_site_fract_x
 _atom_site_fract_y
 _atom_site_fract_z
 _atom_site_occupancy
  Ni  Ni0  1  0.00000000  0.00000000  0.50000000  1
  Cu  Cu1  1  0.00000000  0.50000000  0.50000000  1
  Cu  Cu2  1  0.50000000  0.00000000  0.50000000  1
  Cu  Cu3  1  0.11212600  0.11212600  0.60995600  1
  Cu  Cu4  1  0.88787400  0.88787400  0.39004400  1
  C  C5  1  0.00000000  0.00000000  0.00000000  1
  C  C6  1  0.19046600  0.19046600  0.82395100  1
  C  C7  1  0.80953400  0.80953400  0.17604900  1
  C  C8  1  0.17488800  0.69921800  0.79070900  1
  C  C9  1  0.69921800  0.17488800  0.79070900  1
  C  C10  1  0.82511200  0.30078200  0.20929100  1
  C  C11  1  0.30078200  0.82511200  0.20929100  1
  C  C12  1  0.26521900  0.26521900  0.07661900  1
  C  C13  1  0.73478100  0.73478100  0.92338100  1
  C  C14  1  0.34224200  0.34224200  0.65667200  1
  C  C15  1  0.65775800  0.65775800  0.34332800  1
  C  C16  1  0.46669300  0.46669300  0.20120500  1
  C  C17  1  0.53330700  0.53330700  0.79879500  1
  C  C18  1  0.98046300  0.98046300  0.19894300  1
  C  C19  1  0.01953700  0.01953700  0.80105700  1
  C  C20  1  0.23219300  0.23219300  0.44962700  1
  C  C21  1  0.76780700  0.76780700  0.55037300  1
  C  C22  1  0.09233600  0.09233600  0.30970800  1
  C  C23  1  0.90766400  0.90766400  0.69029200  1
  C  C24  1  0.89965700  0.27161200  0.97246200  1
  C  C25  1  0.27161200  0.89965700  0.97246200  1
  C  C26  1  0.10034300  0.72838800  0.02753800  1
  C  C27  1  0.72838800  0.10034300  0.02753800  1
  C  C28  1  0.87824800  0.22578300  0.56147400  1
  C  C29  1  0.22578300  0.87824800  0.56147400  1
  C  C30  1  0.12175200  0.77421700  0.43852600  1
  C  C31  1  0.77421700  0.12175200  0.43852600  1
  C  C32  1  0.98059700  0.35086200  0.66676400  1
  C  C33  1  0.35086200  0.98059700  0.66676400  1
  C  C34  1  0.01940300  0.64913800  0.33323600  1
  C  C35  1  0.64913800  0.01940300  0.33323600  1
  C  C36  1  0.19786400  0.19786400  0.03164000  1
  C  C37  1  0.80213600  0.80213600  0.96836000  1
  C  C38  1  0.34257200  0.34257200  0.94311000  1
  C  C39  1  0.65742800  0.65742800  0.05689000  1
  C  C40  1  0.08674700  0.42627200  0.15667100  1
  C  C41  1  0.42627200  0.08674700  0.15667100  1
  C  C42  1  0.91325300  0.57372800  0.84332900  1
  C  C43  1  0.57372800  0.91325300  0.84332900  1
