# generated using pymatgen
data_CuNiC8
_symmetry_space_group_name_H-M   'P 1'
_cell_length_a   8.57869496
_cell_length_b   8.55830532
_cell_length_c   8.47632554
_cell_angle_alpha   90.00000000
_cell_angle_beta   90.00000000
_cell_angle_gamma   90.00000000
_symmetry_Int_Tables_number   1
_chemical_formula_structural   CuNiC8
_chemical_formula_sum   'Cu4 Ni4 C32'
_cell_volume   622.32411375
_cell_formula_units_Z   4
loop_
 _symmetry_equiv_pos_site_id
 _symmetry_equiv_pos_as_xyz
  1  'x, y, z'
loop_
 _atom_site_type_symbol
 _atom_site_label
 _atom_site_symmetry_multiplicity
 _atom_site_fract_x
 _atom_site_fract_y
 _atom_site_fract_z
 _atom_site_occupancy
  C  C0  1  0.00000000  0.50000000  0.50000000  1
  C  C1  1  0.50000000  -0.00000000  0.50000000  1
  C  C2  1  0.50000000  -0.00000000  -0.00000000  1
  C  C3  1  0.00000000  0.50000000  -0.00000000  1
  Ni  Ni4  1  0.50000000  0.50000000  -0.00000000  1
  Ni  Ni5  1  0.00000000  -0.00000000  0.50000000  1
  Ni  Ni6  1  0.00000000  -0.00000000  -0.00000000  1
  Ni  Ni7  1  0.50000000  0.50000000  0.50000000  1
  Cu  Cu8  1  0.75000000  0.75000000  0.75000000  1
  Cu  Cu9  1  0.25000000  0.25000000  0.75000000  1
  Cu  Cu10  1  0.25000000  0.75000000  0.25000000  1
  Cu  Cu11  1  0.75000000  0.25000000  0.25000000  1
  C  C12  1  0.25000000  0.25000000  0.25000000  1
  C  C13  1  0.75000000  0.75000000  0.25000000  1
  C  C14  1  0.75000000  0.25000000  0.75000000  1
  C  C15  1  0.25000000  0.75000000  0.75000000  1
  C  C16  1  0.01851868  0.19562811  0.28294506  1
  C  C17  1  0.98148132  0.80437189  0.28294506  1
  C  C18  1  0.98148132  0.19562811  0.71705494  1
  C  C19  1  0.01851868  0.80437189  0.71705494  1
  C  C20  1  0.26295377  0.01898855  0.21191177  1
  C  C21  1  0.26295377  0.98101145  0.78808823  1
  C  C22  1  0.73704623  0.98101145  0.21191177  1
  C  C23  1  0.73704623  0.01898855  0.78808823  1
  C  C24  1  0.21164234  0.27481609  0.01971374  1
  C  C25  1  0.78835766  0.27481609  0.98028626  1
  C  C26  1  0.21164234  0.72518391  0.98028626  1
  C  C27  1  0.78835766  0.72518391  0.01971374  1
  C  C28  1  0.48148132  0.30437189  0.21705494  1
  C  C29  1  0.51851868  0.69562811  0.21705494  1
  C  C30  1  0.51851868  0.30437189  0.78294506  1
  C  C31  1  0.48148132  0.69562811  0.78294506  1
  C  C32  1  0.23704623  0.48101145  0.28808823  1
  C  C33  1  0.23704623  0.51898855  0.71191177  1
  C  C34  1  0.76295377  0.51898855  0.28808823  1
  C  C35  1  0.76295377  0.48101145  0.71191177  1
  C  C36  1  0.28835766  0.22518391  0.48028626  1
  C  C37  1  0.71164234  0.22518391  0.51971374  1
  C  C38  1  0.28835766  0.77481609  0.51971374  1
  C  C39  1  0.71164234  0.77481609  0.48028626  1
