# generated using pymatgen
data_CuNi8C3
_symmetry_space_group_name_H-M   'P 1'
_cell_length_a   8.53488343
_cell_length_b   8.53488343
_cell_length_c   8.53488259
_cell_angle_alpha   33.51499571
_cell_angle_beta   33.51499571
_cell_angle_gamma   33.51499516
_symmetry_Int_Tables_number   1
_chemical_formula_structural   CuNi8C3
_chemical_formula_sum   'Cu1 Ni8 C3'
_cell_volume   168.82152530
_cell_formula_units_Z   1
loop_
 _symmetry_equiv_pos_site_id
 _symmetry_equiv_pos_as_xyz
  1  'x, y, z'
loop_
 _atom_site_type_symbol
 _atom_site_label
 _atom_site_symmetry_multiplicity
 _atom_site_fract_x
 _atom_site_fract_y
 _atom_site_fract_z
 _atom_site_occupancy
  C  C0  1  0.62458400  0.62458400  0.62458400  1
  C  C1  1  0.00290700  0.00290700  0.00290700  1
  C  C2  1  0.49744000  0.49744000  0.49744000  1
  Ni  Ni3  1  0.56423700  0.06349400  0.56423700  1
  Ni  Ni4  1  0.06166400  0.56000600  0.06166400  1
  Ni  Ni5  1  0.06349400  0.56423700  0.56423700  1
  Ni  Ni6  1  0.56000600  0.06166400  0.06166400  1
  Ni  Ni7  1  0.81204600  0.81204600  0.81204600  1
  Ni  Ni8  1  0.31274200  0.31274200  0.31274200  1
  Ni  Ni9  1  0.56423700  0.56423700  0.06349400  1
  Ni  Ni10  1  0.06166400  0.06166400  0.56000600  1
  Cu  Cu11  1  0.12497900  0.12497900  0.12497900  1
