# generated using pymatgen
data_CuNiC7
_symmetry_space_group_name_H-M   'P 1'
_cell_length_a   5.84530400
_cell_length_b   9.27109800
_cell_length_c   12.44946413
_cell_angle_alpha   62.14324248
_cell_angle_beta   90.00000000
_cell_angle_gamma   90.00000000
_symmetry_Int_Tables_number   1
_chemical_formula_structural   CuNiC7
_chemical_formula_sum   'Cu4 Ni4 C28'
_cell_volume   596.48486507
_cell_formula_units_Z   4
loop_
 _symmetry_equiv_pos_site_id
 _symmetry_equiv_pos_as_xyz
  1  'x, y, z'
loop_
 _atom_site_type_symbol
 _atom_site_label
 _atom_site_symmetry_multiplicity
 _atom_site_fract_x
 _atom_site_fract_y
 _atom_site_fract_z
 _atom_site_occupancy
  Ni  Ni0  1  0.74329800  0.81385400  0.26656100  1
  Ni  Ni1  1  0.24329800  0.18614600  0.23343900  1
  Ni  Ni2  1  0.25670200  0.18614600  0.73343900  1
  Ni  Ni3  1  0.75670200  0.81385400  0.76656100  1
  Cu  Cu4  1  0.74477900  0.27399100  0.45524800  1
  Cu  Cu5  1  0.24477900  0.72600900  0.04475200  1
  Cu  Cu6  1  0.25522100  0.72600900  0.54475200  1
  Cu  Cu7  1  0.75522100  0.27399100  0.95524800  1
  C  C8  1  0.46404500  0.71179700  0.92275700  1
  C  C9  1  0.96404500  0.28820300  0.57724300  1
  C  C10  1  0.53595500  0.28820300  0.07724300  1
  C  C11  1  0.03595500  0.71179700  0.42275700  1
  C  C12  1  0.45852800  0.28211500  0.54803500  1
  C  C13  1  0.95852800  0.71788500  0.95196500  1
  C  C14  1  0.54147200  0.71788500  0.45196500  1
  C  C15  1  0.04147200  0.28211500  0.04803500  1
  C  C16  1  0.76649800  0.52211300  0.85945000  1
  C  C17  1  0.26649800  0.47788700  0.64055000  1
  C  C18  1  0.23350200  0.47788700  0.14055000  1
  C  C19  1  0.73350200  0.52211300  0.35945000  1
  C  C20  1  0.76014700  0.02664800  0.05734900  1
  C  C21  1  0.26014700  0.97335200  0.44265100  1
  C  C22  1  0.23985300  0.97335200  0.94265100  1
  C  C23  1  0.73985300  0.02664800  0.55734900  1
  C  C24  1  0.98783900  0.73359900  0.64750200  1
  C  C25  1  0.48783900  0.26640100  0.85249800  1
  C  C26  1  0.01216100  0.26640100  0.35249800  1
  C  C27  1  0.51216100  0.73359900  0.14750200  1
  C  C28  1  0.03594500  0.74547700  0.17029400  1
  C  C29  1  0.53594500  0.25452300  0.32970600  1
  C  C30  1  0.96405500  0.25452300  0.82970600  1
  C  C31  1  0.46405500  0.74547700  0.67029400  1
  C  C32  1  0.42653500  0.97194300  0.23452600  1
  C  C33  1  0.92653500  0.02805700  0.26547400  1
  C  C34  1  0.57346500  0.02805700  0.76547400  1
  C  C35  1  0.07346500  0.97194300  0.73452600  1
