# generated using pymatgen
data_Cu(NiC13)2
_symmetry_space_group_name_H-M   'P 1'
_cell_length_a   11.59567474
_cell_length_b   11.59567474
_cell_length_c   19.60863932
_cell_angle_alpha   90.00000000
_cell_angle_beta   90.00000000
_cell_angle_gamma   120.00000009
_symmetry_Int_Tables_number   1
_chemical_formula_structural   Cu(NiC13)2
_chemical_formula_sum   'Cu6 Ni12 C156'
_cell_volume   2283.33765570
_cell_formula_units_Z   6
loop_
 _symmetry_equiv_pos_site_id
 _symmetry_equiv_pos_as_xyz
  1  'x, y, z'
loop_
 _atom_site_type_symbol
 _atom_site_label
 _atom_site_symmetry_multiplicity
 _atom_site_fract_x
 _atom_site_fract_y
 _atom_site_fract_z
 _atom_site_occupancy
  Ni  Ni0  1  0.99315193  0.33026991  0.96266532  1
  Ni  Ni1  1  0.00684807  0.66973009  0.03733468  1
  Ni  Ni2  1  0.33711799  0.00684807  0.96266532  1
  Ni  Ni3  1  0.66288201  0.66973009  0.53733468  1
  Ni  Ni4  1  0.66288201  0.99315193  0.03733468  1
  Ni  Ni5  1  0.33711799  0.33026991  0.46266532  1
  Ni  Ni6  1  0.66973009  0.66288201  0.96266532  1
  Ni  Ni7  1  0.33026991  0.99315193  0.53733468  1
  Ni  Ni8  1  0.33026991  0.33711799  0.03733468  1
  Ni  Ni9  1  0.66973009  0.00684807  0.46266532  1
  Ni  Ni10  1  0.00684807  0.33711799  0.53733468  1
  Ni  Ni11  1  0.99315193  0.66288201  0.46266532  1
  Cu  Cu12  1  0.66568246  0.66568246  0.75000000  1
  Cu  Cu13  1  0.33431754  0.33431754  0.25000000  1
  Cu  Cu14  1  0.00000000  0.33431754  0.75000000  1
  Cu  Cu15  1  -0.00000000  0.66568246  0.25000000  1
  Cu  Cu16  1  0.33431754  0.00000000  0.75000000  1
  Cu  Cu17  1  0.66568246  -0.00000000  0.25000000  1
  C  C18  1  0.66666700  0.33333300  0.97708578  1
  C  C19  1  0.33333300  0.66666700  0.02291422  1
  C  C20  1  0.33333300  0.66666700  0.52291422  1
  C  C21  1  0.66666700  0.33333300  0.47708578  1
  C  C22  1  0.66666700  0.33333300  0.72701599  1
  C  C23  1  0.33333300  0.66666700  0.27298401  1
  C  C24  1  0.33333300  0.66666700  0.77298401  1
  C  C25  1  0.66666700  0.33333300  0.22701599  1
  C  C26  1  -0.00000000  -0.00000000  0.00000000  1
  C  C27  1  -0.00000000  -0.00000000  0.50000000  1
  C  C28  1  0.82737616  0.00503053  0.87339943  1
  C  C29  1  0.17262384  0.99496947  0.12660057  1
  C  C30  1  0.17765437  0.17262384  0.87339943  1
  C  C31  1  0.82234563  0.99496947  0.62660057  1
  C  C32  1  0.82234563  0.82737616  0.12660057  1
  C  C33  1  0.17765437  0.00503053  0.37339943  1
  C  C34  1  0.99496947  0.82234563  0.87339943  1
  C  C35  1  0.00503053  0.82737616  0.62660057  1
  C  C36  1  0.00503053  0.17765437  0.12660057  1
  C  C37  1  0.99496947  0.17262384  0.37339943  1
  C  C38  1  0.17262384  0.17765437  0.62660057  1
  C  C39  1  0.82737616  0.82234563  0.37339943  1
  C  C40  1  0.66098044  0.14723185  0.85047086  1
  C  C41  1  0.33901956  0.85276815  0.14952914  1
  C  C42  1  0.48625141  0.33901956  0.85047086  1
  C  C43  1  0.51374859  0.85276815  0.64952914  1
  C  C44  1  0.51374859  0.66098044  0.14952914  1
  C  C45  1  0.48625141  0.14723185  0.35047086  1
  C  C46  1  0.85276815  0.51374859  0.85047086  1
  C  C47  1  0.14723185  0.66098044  0.64952914  1
  C  C48  1  0.14723185  0.48625141  0.14952914  1
  C  C49  1  0.85276815  0.33901956  0.35047086  1
  C  C50  1  0.33901956  0.48625141  0.64952914  1
  C  C51  1  0.66098044  0.51374859  0.35047086  1
  C  C52  1  0.51023179  0.84544584  0.89333674  1
  C  C53  1  0.48976821  0.15455416  0.10666326  1
  C  C54  1  0.33521405  0.48976821  0.89333674  1
  C  C55  1  0.66478595  0.15455416  0.60666326  1
  C  C56  1  0.66478595  0.51023179  0.10666326  1
  C  C57  1  0.33521405  0.84544584  0.39333674  1
  C  C58  1  0.15455416  0.66478595  0.89333674  1
  C  C59  1  0.84544584  0.51023179  0.60666326  1
  C  C60  1  0.84544584  0.33521405  0.10666326  1
  C  C61  1  0.15455416  0.48976821  0.39333674  1
  C  C62  1  0.48976821  0.33521405  0.60666326  1
  C  C63  1  0.51023179  0.66478595  0.39333674  1
  C  C64  1  -0.00000000  -0.00000000  0.75000000  1
  C  C65  1  -0.00000000  -0.00000000  0.25000000  1
  C  C66  1  0.73612161  0.24558051  0.92250880  1
  C  C67  1  0.26387839  0.75441949  0.07749120  1
  C  C68  1  0.50945890  0.26387839  0.92250880  1
  C  C69  1  0.49054110  0.75441949  0.57749120  1
  C  C70  1  0.49054110  0.73612161  0.07749120  1
  C  C71  1  0.50945890  0.24558051  0.42250880  1
  C  C72  1  0.75441949  0.49054110  0.92250880  1
  C  C73  1  0.24558051  0.73612161  0.57749120  1
  C  C74  1  0.24558051  0.50945890  0.07749120  1
  C  C75  1  0.75441949  0.26387839  0.42250880  1
  C  C76  1  0.26387839  0.50945890  0.57749120  1
  C  C77  1  0.73612161  0.49054110  0.42250880  1
  C  C78  1  0.67763905  0.89568577  0.92050126  1
  C  C79  1  0.32236095  0.10431423  0.07949874  1
  C  C80  1  0.21804671  0.32236095  0.92050126  1
  C  C81  1  0.78195329  0.10431423  0.57949874  1
  C  C82  1  0.78195329  0.67763905  0.07949874  1
  C  C83  1  0.21804671  0.89568577  0.42050126  1
  C  C84  1  0.10431423  0.78195329  0.92050126  1
  C  C85  1  0.89568577  0.67763905  0.57949874  1
  C  C86  1  0.89568577  0.21804671  0.07949874  1
  C  C87  1  0.10431423  0.32236095  0.42050126  1
  C  C88  1  0.32236095  0.21804671  0.57949874  1
  C  C89  1  0.67763905  0.78195329  0.42050126  1
  C  C90  1  0.81960907  0.40149323  0.78231872  1
  C  C91  1  0.18039093  0.59850677  0.21768128  1
  C  C92  1  0.58188416  0.18039093  0.78231872  1
  C  C93  1  0.41811584  0.59850677  0.71768128  1
  C  C94  1  0.41811584  0.81960907  0.21768128  1
  C  C95  1  0.58188416  0.40149323  0.28231872  1
  C  C96  1  0.59850677  0.41811584  0.78231872  1
  C  C97  1  0.40149323  0.81960907  0.71768128  1
  C  C98  1  0.40149323  0.58188416  0.21768128  1
  C  C99  1  0.59850677  0.18039093  0.28231872  1
  C  C100  1  0.18039093  0.58188416  0.71768128  1
  C  C101  1  0.81960907  0.41811584  0.28231872  1
  C  C102  1  0.93874668  0.09331448  0.94100934  1
  C  C103  1  0.06125332  0.90668552  0.05899066  1
  C  C104  1  0.15456780  0.06125332  0.94100934  1
  C  C105  1  0.84543220  0.90668552  0.55899066  1
  C  C106  1  0.84543220  0.93874668  0.05899066  1
  C  C107  1  0.15456780  0.09331448  0.44100934  1
  C  C108  1  0.90668552  0.84543220  0.94100934  1
  C  C109  1  0.09331448  0.93874668  0.55899066  1
  C  C110  1  0.09331448  0.15456780  0.05899066  1
  C  C111  1  0.90668552  0.06125332  0.44100934  1
  C  C112  1  0.06125332  0.15456780  0.55899066  1
  C  C113  1  0.93874668  0.84543220  0.44100934  1
  C  C114  1  0.79622192  0.12126606  0.82512221  1
  C  C115  1  0.20377808  0.87873394  0.17487779  1
  C  C116  1  0.32504414  0.20377808  0.82512221  1
  C  C117  1  0.67495586  0.87873394  0.67487779  1
  C  C118  1  0.67495586  0.79622192  0.17487779  1
  C  C119  1  0.32504414  0.12126606  0.32512221  1
  C  C120  1  0.87873394  0.67495586  0.82512221  1
  C  C121  1  0.12126606  0.79622192  0.67487779  1
  C  C122  1  0.12126606  0.32504414  0.17487779  1
  C  C123  1  0.87873394  0.20377808  0.32512221  1
  C  C124  1  0.20377808  0.32504414  0.67487779  1
  C  C125  1  0.79622192  0.67495586  0.32512221  1
  C  C126  1  0.48134234  0.48894771  0.86515331  1
  C  C127  1  0.51865766  0.51105229  0.13484669  1
  C  C128  1  0.00760537  0.51865766  0.86515331  1
  C  C129  1  0.99239463  0.51105229  0.63484669  1
  C  C130  1  0.99239463  0.48134234  0.13484669  1
  C  C131  1  0.00760537  0.48894771  0.36515331  1
  C  C132  1  0.51105229  0.99239463  0.86515331  1
  C  C133  1  0.48894771  0.48134234  0.63484669  1
  C  C134  1  0.48894771  0.00760537  0.13484669  1
  C  C135  1  0.51105229  0.51865766  0.36515331  1
  C  C136  1  0.51865766  0.00760537  0.63484669  1
  C  C137  1  0.48134234  0.99239463  0.36515331  1
  C  C138  1  0.84612276  0.90746728  0.80863273  1
  C  C139  1  0.15387724  0.09253272  0.19136727  1
  C  C140  1  0.06134452  0.15387724  0.80863273  1
  C  C141  1  0.93865548  0.09253272  0.69136727  1
  C  C142  1  0.93865548  0.84612276  0.19136727  1
  C  C143  1  0.06134452  0.90746728  0.30863273  1
  C  C144  1  0.09253272  0.93865548  0.80863273  1
  C  C145  1  0.90746728  0.84612276  0.69136727  1
  C  C146  1  0.90746728  0.06134452  0.19136727  1
  C  C147  1  0.09253272  0.15387724  0.30863273  1
  C  C148  1  0.15387724  0.06134452  0.69136727  1
  C  C149  1  0.84612276  0.93865548  0.30863273  1
  C  C150  1  0.40392707  0.58027707  0.96839893  1
  C  C151  1  0.59607293  0.41972293  0.03160107  1
  C  C152  1  0.17635000  0.59607293  0.96839893  1
  C  C153  1  0.82365000  0.41972293  0.53160107  1
  C  C154  1  0.82365000  0.40392707  0.03160107  1
  C  C155  1  0.17635000  0.58027707  0.46839893  1
  C  C156  1  0.41972293  0.82365000  0.96839893  1
  C  C157  1  0.58027707  0.40392707  0.53160107  1
  C  C158  1  0.58027707  0.17635000  0.03160107  1
  C  C159  1  0.41972293  0.59607293  0.46839893  1
  C  C160  1  0.59607293  0.17635000  0.53160107  1
  C  C161  1  0.40392707  0.82365000  0.46839893  1
  C  C162  1  0.48743629  0.72854531  0.82956466  1
  C  C163  1  0.51256371  0.27145469  0.17043534  1
  C  C164  1  0.24110902  0.51256371  0.82956466  1
  C  C165  1  0.75889098  0.27145469  0.67043534  1
  C  C166  1  0.75889098  0.48743629  0.17043534  1
  C  C167  1  0.24110902  0.72854531  0.32956466  1
  C  C168  1  0.27145469  0.75889098  0.82956466  1
  C  C169  1  0.72854531  0.48743629  0.67043534  1
  C  C170  1  0.72854531  0.24110902  0.17043534  1
  C  C171  1  0.27145469  0.51256371  0.32956466  1
  C  C172  1  0.51256371  0.24110902  0.67043534  1
  C  C173  1  0.48743629  0.75889098  0.32956466  1
