# generated using pymatgen
data_Cu3NiC15
_symmetry_space_group_name_H-M   'P 1'
_cell_length_a   10.65369500
_cell_length_b   5.87234700
_cell_length_c   8.88768317
_cell_angle_alpha   74.32436055
_cell_angle_beta   90.00000000
_cell_angle_gamma   90.00000000
_symmetry_Int_Tables_number   1
_chemical_formula_structural   Cu3NiC15
_chemical_formula_sum   'Cu6 Ni2 C30'
_cell_volume   535.35226299
_cell_formula_units_Z   2
loop_
 _symmetry_equiv_pos_site_id
 _symmetry_equiv_pos_as_xyz
  1  'x, y, z'
loop_
 _atom_site_type_symbol
 _atom_site_label
 _atom_site_symmetry_multiplicity
 _atom_site_fract_x
 _atom_site_fract_y
 _atom_site_fract_z
 _atom_site_occupancy
  Ni  Ni0  1  0.75000000  0.43365000  0.75654900  1
  Ni  Ni1  1  0.25000000  0.56635000  0.24345100  1
  Cu  Cu2  1  0.50000000  0.00000000  0.50000000  1
  Cu  Cu3  1  0.49971400  0.01768000  0.16560600  1
  Cu  Cu4  1  0.50028600  0.98232000  0.83439400  1
  Cu  Cu5  1  0.00000000  0.00000000  0.50000000  1
  Cu  Cu6  1  0.00028600  0.01768000  0.16560600  1
  Cu  Cu7  1  0.99971400  0.98232000  0.83439400  1
  C  C8  1  0.75000000  0.57325300  0.56456500  1
  C  C9  1  0.75000000  0.64689700  0.20302800  1
  C  C10  1  0.75000000  0.60686300  0.87842700  1
  C  C11  1  0.25000000  0.42674700  0.43543500  1
  C  C12  1  0.25000000  0.39313700  0.12157300  1
  C  C13  1  0.25000000  0.35310300  0.79697200  1
  C  C14  1  0.41106100  0.12438200  0.63297200  1
  C  C15  1  0.40069700  0.11516500  0.32882700  1
  C  C16  1  0.40941400  0.13833000  0.96050000  1
  C  C17  1  0.58893900  0.87561800  0.36702800  1
  C  C18  1  0.59058600  0.86167000  0.03950000  1
  C  C19  1  0.59930300  0.88483500  0.67117300  1
  C  C20  1  0.09308800  0.73877200  0.55444500  1
  C  C21  1  0.12046100  0.75250600  0.20694500  1
  C  C22  1  0.09019900  0.72090600  0.87371500  1
  C  C23  1  0.90691200  0.26122800  0.44555500  1
  C  C24  1  0.90980100  0.27909400  0.12628500  1
  C  C25  1  0.87953900  0.24749400  0.79305500  1
  C  C26  1  0.59308800  0.26122800  0.44555500  1
  C  C27  1  0.59019900  0.27909400  0.12628500  1
  C  C28  1  0.62046100  0.24749400  0.79305500  1
  C  C29  1  0.40691200  0.73877200  0.55444500  1
  C  C30  1  0.37953900  0.75250600  0.20694500  1
  C  C31  1  0.40980100  0.72090600  0.87371500  1
  C  C32  1  0.08893900  0.12438200  0.63297200  1
  C  C33  1  0.09930300  0.11516500  0.32882700  1
  C  C34  1  0.09058600  0.13833000  0.96050000  1
  C  C35  1  0.91106100  0.87561800  0.36702800  1
  C  C36  1  0.90941400  0.86167000  0.03950000  1
  C  C37  1  0.90069700  0.88483500  0.67117300  1
