# generated using pymatgen
data_CuNiC17
_symmetry_space_group_name_H-M   'P 1'
_cell_length_a   9.94820100
_cell_length_b   9.94820100
_cell_length_c   9.94820100
_cell_angle_alpha   90.00000000
_cell_angle_beta   90.00000000
_cell_angle_gamma   90.00000000
_symmetry_Int_Tables_number   1
_chemical_formula_structural   CuNiC17
_chemical_formula_sum   'Cu4 Ni4 C68'
_cell_volume   984.54065511
_cell_formula_units_Z   4
loop_
 _symmetry_equiv_pos_site_id
 _symmetry_equiv_pos_as_xyz
  1  'x, y, z'
loop_
 _atom_site_type_symbol
 _atom_site_label
 _atom_site_symmetry_multiplicity
 _atom_site_fract_x
 _atom_site_fract_y
 _atom_site_fract_z
 _atom_site_occupancy
  C  C0  1  0.31657900  0.18342100  0.81657900  1
  C  C1  1  0.18342100  0.81657900  0.31657900  1
  C  C2  1  0.68342100  0.68342100  0.68342100  1
  C  C3  1  0.81657900  0.31657900  0.18342100  1
  C  C4  1  0.54380100  0.95619900  0.04380100  1
  C  C5  1  0.95619900  0.04380100  0.54380100  1
  C  C6  1  0.45619900  0.45619900  0.45619900  1
  C  C7  1  0.04380100  0.54380100  0.95619900  1
  Ni  Ni8  1  0.16379400  0.16379400  0.16379400  1
  Ni  Ni9  1  0.83620600  0.66379400  0.33620600  1
  Ni  Ni10  1  0.66379400  0.33620600  0.83620600  1
  Ni  Ni11  1  0.33620600  0.83620600  0.66379400  1
  Cu  Cu12  1  0.39479400  0.60520600  0.10520600  1
  Cu  Cu13  1  0.89479400  0.89479400  0.89479400  1
  Cu  Cu14  1  0.10520600  0.39479400  0.60520600  1
  Cu  Cu15  1  0.60520600  0.10520600  0.39479400  1
  C  C16  1  0.20707300  0.87530600  0.97756700  1
  C  C17  1  0.02243300  0.70707300  0.62469400  1
  C  C18  1  0.37530600  0.52243300  0.79292700  1
  C  C19  1  0.70707300  0.62469400  0.02243300  1
  C  C20  1  0.52243300  0.79292700  0.37530600  1
  C  C21  1  0.87530600  0.97756700  0.20707300  1
  C  C22  1  0.79292700  0.37530600  0.52243300  1
  C  C23  1  0.97756700  0.20707300  0.87530600  1
  C  C24  1  0.62469400  0.02243300  0.70707300  1
  C  C25  1  0.29292700  0.12469400  0.47756700  1
  C  C26  1  0.47756700  0.29292700  0.12469400  1
  C  C27  1  0.12469400  0.47756700  0.29292700  1
  C  C28  1  0.22788000  0.01237200  0.05117100  1
  C  C29  1  0.94882900  0.72788000  0.48762800  1
  C  C30  1  0.51237200  0.44882900  0.77212000  1
  C  C31  1  0.72788000  0.48762800  0.94882900  1
  C  C32  1  0.44882900  0.77212000  0.51237200  1
  C  C33  1  0.01237200  0.05117100  0.22788000  1
  C  C34  1  0.77212000  0.51237200  0.44882900  1
  C  C35  1  0.05117100  0.22788000  0.01237200  1
  C  C36  1  0.48762800  0.94882900  0.72788000  1
  C  C37  1  0.27212000  0.98762800  0.55117100  1
  C  C38  1  0.55117100  0.27212000  0.98762800  1
  C  C39  1  0.98762800  0.55117100  0.27212000  1
  C  C40  1  0.24895900  0.89759600  0.82835800  1
  C  C41  1  0.17164200  0.74895900  0.60240400  1
  C  C42  1  0.39759600  0.67164200  0.75104100  1
  C  C43  1  0.74895900  0.60240400  0.17164200  1
  C  C44  1  0.67164200  0.75104100  0.39759600  1
  C  C45  1  0.89759600  0.82835800  0.24895900  1
  C  C46  1  0.75104100  0.39759600  0.67164200  1
  C  C47  1  0.82835800  0.24895900  0.89759600  1
  C  C48  1  0.60240400  0.17164200  0.74895900  1
  C  C49  1  0.25104100  0.10240400  0.32835800  1
  C  C50  1  0.32835800  0.25104100  0.10240400  1
  C  C51  1  0.10240400  0.32835800  0.25104100  1
  C  C52  1  0.29949300  0.77508600  0.04830700  1
  C  C53  1  0.95169300  0.79949300  0.72491400  1
  C  C54  1  0.27508600  0.45169300  0.70050700  1
  C  C55  1  0.79949300  0.72491400  0.95169300  1
  C  C56  1  0.45169300  0.70050700  0.27508600  1
  C  C57  1  0.77508600  0.04830700  0.29949300  1
  C  C58  1  0.70050700  0.27508600  0.45169300  1
  C  C59  1  0.04830700  0.29949300  0.77508600  1
  C  C60  1  0.72491400  0.95169300  0.79949300  1
  C  C61  1  0.20050700  0.22491400  0.54830700  1
  C  C62  1  0.54830700  0.20050700  0.22491400  1
  C  C63  1  0.22491400  0.54830700  0.20050700  1
  C  C64  1  0.05998900  0.82738300  0.98707000  1
  C  C65  1  0.01293000  0.55998900  0.67261700  1
  C  C66  1  0.32738300  0.51293000  0.94001100  1
  C  C67  1  0.55998900  0.67261700  0.01293000  1
  C  C68  1  0.51293000  0.94001100  0.32738300  1
  C  C69  1  0.82738300  0.98707000  0.05998900  1
  C  C70  1  0.94001100  0.32738300  0.51293000  1
  C  C71  1  0.98707000  0.05998900  0.82738300  1
  C  C72  1  0.67261700  0.01293000  0.55998900  1
  C  C73  1  0.44001100  0.17261700  0.48707000  1
  C  C74  1  0.48707000  0.44001100  0.17261700  1
  C  C75  1  0.17261700  0.48707000  0.44001100  1
