# generated using pymatgen
data_CuNiC3
_symmetry_space_group_name_H-M   'P 1'
_cell_length_a   5.49785917
_cell_length_b   5.49785917
_cell_length_c   5.49785965
_cell_angle_alpha   49.69727980
_cell_angle_beta   49.69727980
_cell_angle_gamma   49.69729141
_symmetry_Int_Tables_number   1
_chemical_formula_structural   CuNiC3
_chemical_formula_sum   'Cu2 Ni2 C6'
_cell_volume   88.88601252
_cell_formula_units_Z   2
loop_
 _symmetry_equiv_pos_site_id
 _symmetry_equiv_pos_as_xyz
  1  'x, y, z'
loop_
 _atom_site_type_symbol
 _atom_site_label
 _atom_site_symmetry_multiplicity
 _atom_site_fract_x
 _atom_site_fract_y
 _atom_site_fract_z
 _atom_site_occupancy
  Ni  Ni0  1  0.50000000  0.50000000  0.50000000  1
  Ni  Ni1  1  0.00000000  0.00000000  0.00000000  1
  Cu  Cu2  1  0.25000000  0.25000000  0.25000000  1
  Cu  Cu3  1  0.75000000  0.75000000  0.75000000  1
  C  C4  1  0.95035700  0.54964300  0.25000000  1
  C  C5  1  0.25000000  0.95035700  0.54964300  1
  C  C6  1  0.54964300  0.25000000  0.95035700  1
  C  C7  1  0.75000000  0.04964300  0.45035700  1
  C  C8  1  0.45035700  0.75000000  0.04964300  1
  C  C9  1  0.04964300  0.45035700  0.75000000  1
