# generated using pymatgen
data_Cu9NiC36
_symmetry_space_group_name_H-M   'P 1'
_cell_length_a   13.87873819
_cell_length_b   13.87873819
_cell_length_c   13.87873833
_cell_angle_alpha   44.37285670
_cell_angle_beta   44.37285670
_cell_angle_gamma   44.37286158
_symmetry_Int_Tables_number   1
_chemical_formula_structural   Cu9NiC36
_chemical_formula_sum   'Cu18 Ni2 C72'
_cell_volume   1188.39670152
_cell_formula_units_Z   2
loop_
 _symmetry_equiv_pos_site_id
 _symmetry_equiv_pos_as_xyz
  1  'x, y, z'
loop_
 _atom_site_type_symbol
 _atom_site_label
 _atom_site_symmetry_multiplicity
 _atom_site_fract_x
 _atom_site_fract_y
 _atom_site_fract_z
 _atom_site_occupancy
  Ni  Ni0  1  0.68683000  0.68683000  0.68683000  1
  Ni  Ni1  1  0.18683000  0.18683000  0.18683000  1
  Cu  Cu2  1  0.94708500  0.55931500  0.97206600  1
  Cu  Cu3  1  0.16028600  0.56423500  0.57519600  1
  Cu  Cu4  1  0.57519600  0.16028600  0.56423500  1
  Cu  Cu5  1  0.55931500  0.97206600  0.94708500  1
  Cu  Cu6  1  0.97206600  0.94708500  0.55931500  1
  Cu  Cu7  1  0.47206600  0.05931500  0.44708500  1
  Cu  Cu8  1  0.05931500  0.44708500  0.47206600  1
  Cu  Cu9  1  0.44708500  0.47206600  0.05931500  1
  Cu  Cu10  1  0.34862700  0.90768600  0.93967500  1
  Cu  Cu11  1  0.90768600  0.93967500  0.34862700  1
  Cu  Cu12  1  0.56423500  0.57519600  0.16028600  1
  Cu  Cu13  1  0.43967500  0.40768600  0.84862700  1
  Cu  Cu14  1  0.40768600  0.84862700  0.43967500  1
  Cu  Cu15  1  0.84862700  0.43967500  0.40768600  1
  Cu  Cu16  1  0.66028600  0.07519600  0.06423500  1
  Cu  Cu17  1  0.07519600  0.06423500  0.66028600  1
  Cu  Cu18  1  0.06423500  0.66028600  0.07519600  1
  Cu  Cu19  1  0.93967500  0.34862700  0.90768600  1
  C  C20  1  0.00104400  0.00104400  0.00104400  1
  C  C21  1  0.50104400  0.50104400  0.50104400  1
  C  C22  1  0.80923900  0.32552200  0.77064200  1
  C  C23  1  0.22678400  0.18384400  0.68613800  1
  C  C24  1  0.18384400  0.68613800  0.22678400  1
  C  C25  1  0.68613800  0.22678400  0.18384400  1
  C  C26  1  0.32552200  0.77064200  0.80923900  1
  C  C27  1  0.77064200  0.80923900  0.32552200  1
  C  C28  1  0.72678400  0.18613800  0.68384400  1
  C  C29  1  0.30923900  0.27064200  0.82552200  1
  C  C30  1  0.27064200  0.82552200  0.30923900  1
  C  C31  1  0.82552200  0.30923900  0.27064200  1
  C  C32  1  0.76650200  0.76650200  0.76650200  1
  C  C33  1  0.26650200  0.26650200  0.26650200  1
  C  C34  1  0.68384400  0.72678400  0.18613800  1
  C  C35  1  0.18613800  0.68384400  0.72678400  1
  C  C36  1  0.11432600  0.67068900  0.69023600  1
  C  C37  1  0.67068900  0.69023600  0.11432600  1
  C  C38  1  0.69023600  0.11432600  0.67068900  1
  C  C39  1  0.19023600  0.17068900  0.61432600  1
  C  C40  1  0.17068900  0.61432600  0.19023600  1
  C  C41  1  0.61432600  0.19023600  0.17068900  1
  C  C42  1  0.36282000  0.61827300  0.64005800  1
  C  C43  1  0.61827300  0.64005800  0.36282000  1
  C  C44  1  0.64005800  0.36282000  0.61827300  1
  C  C45  1  0.14005800  0.11827300  0.86282000  1
  C  C46  1  0.11827300  0.86282000  0.14005800  1
  C  C47  1  0.86282000  0.14005800  0.11827300  1
  C  C48  1  0.12660500  0.85402000  0.67306100  1
  C  C49  1  0.85402000  0.67306100  0.12660500  1
  C  C50  1  0.67306100  0.12660500  0.85402000  1
  C  C51  1  0.17306100  0.35402000  0.62660500  1
  C  C52  1  0.35402000  0.62660500  0.17306100  1
  C  C53  1  0.62660500  0.17306100  0.35402000  1
  C  C54  1  0.14487300  0.58885800  0.89945900  1
  C  C55  1  0.58885800  0.89945900  0.14487300  1
  C  C56  1  0.89945900  0.14487300  0.58885800  1
  C  C57  1  0.39945900  0.08885800  0.64487300  1
  C  C58  1  0.38296000  0.84456700  0.63558400  1
  C  C59  1  0.08885800  0.64487300  0.39945900  1
  C  C60  1  0.14950400  0.86942100  0.87555300  1
  C  C61  1  0.86942100  0.87555300  0.14950400  1
  C  C62  1  0.87555300  0.14950400  0.86942100  1
  C  C63  1  0.37555300  0.36942100  0.64950400  1
  C  C64  1  0.36942100  0.64950400  0.37555300  1
  C  C65  1  0.64950400  0.37555300  0.36942100  1
  C  C66  1  0.33807300  0.60827500  0.89253900  1
  C  C67  1  0.60827500  0.89253900  0.33807300  1
  C  C68  1  0.89253900  0.33807300  0.60827500  1
  C  C69  1  0.39253900  0.10827500  0.83807300  1
  C  C70  1  0.10827500  0.83807300  0.39253900  1
  C  C71  1  0.83807300  0.39253900  0.10827500  1
  C  C72  1  0.30785700  0.30785700  0.30785700  1
  C  C73  1  0.80785700  0.80785700  0.80785700  1
  C  C74  1  0.25472800  0.11133400  0.39206600  1
  C  C75  1  0.39206600  0.25472800  0.11133400  1
  C  C76  1  0.11133400  0.39206600  0.25472800  1
  C  C77  1  0.61133400  0.75472800  0.89206600  1
  C  C78  1  0.89206600  0.61133400  0.75472800  1
  C  C79  1  0.75472800  0.89206600  0.61133400  1
  C  C80  1  0.91488900  0.35155300  0.25540100  1
  C  C81  1  0.25540100  0.91488900  0.35155300  1
  C  C82  1  0.35155300  0.25540100  0.91488900  1
  C  C83  1  0.85155300  0.41488900  0.75540100  1
  C  C84  1  0.75540100  0.85155300  0.41488900  1
  C  C85  1  0.41488900  0.75540100  0.85155300  1
  C  C86  1  0.88296000  0.13558400  0.34456700  1
  C  C87  1  0.34456700  0.88296000  0.13558400  1
  C  C88  1  0.13558400  0.34456700  0.88296000  1
  C  C89  1  0.63558400  0.38296000  0.84456700  1
  C  C90  1  0.84456700  0.63558400  0.38296000  1
  C  C91  1  0.64487300  0.39945900  0.08885800  1
