# generated using pymatgen
data_Cu7Ni3C
_symmetry_space_group_name_H-M   'P 1'
_cell_length_a   6.84646238
_cell_length_b   8.27667269
_cell_length_c   8.05168634
_cell_angle_alpha   97.47909280
_cell_angle_beta   91.41862219
_cell_angle_gamma   77.67358241
_symmetry_Int_Tables_number   1
_chemical_formula_structural   Cu7Ni3C
_chemical_formula_sum   'Cu14 Ni6 C2'
_cell_volume   441.94400175
_cell_formula_units_Z   2
loop_
 _symmetry_equiv_pos_site_id
 _symmetry_equiv_pos_as_xyz
  1  'x, y, z'
loop_
 _atom_site_type_symbol
 _atom_site_label
 _atom_site_symmetry_multiplicity
 _atom_site_fract_x
 _atom_site_fract_y
 _atom_site_fract_z
 _atom_site_occupancy
  C  C0  1  0.80185700  0.73662800  0.78524200  1
  C  C1  1  0.19814300  0.26337200  0.21475800  1
  Ni  Ni2  1  0.33096100  0.77357500  0.01661900  1
  Ni  Ni3  1  0.66903900  0.22642500  0.98338100  1
  Ni  Ni4  1  0.27485200  0.65683100  0.55137700  1
  Ni  Ni5  1  0.72514800  0.34316900  0.44862300  1
  Ni  Ni6  1  0.15622200  0.30136600  0.72710500  1
  Ni  Ni7  1  0.84377800  0.69863400  0.27289500  1
  Cu  Cu8  1  0.93811900  0.44031700  0.78905600  1
  Cu  Cu9  1  0.06188100  0.55968300  0.21094400  1
  Cu  Cu10  1  0.11687400  0.76448000  0.90146500  1
  Cu  Cu11  1  0.88312600  0.23552000  0.09853500  1
  Cu  Cu12  1  0.70349000  0.02657100  0.87799500  1
  Cu  Cu13  1  0.29651000  0.97342900  0.12200500  1
  Cu  Cu14  1  0.53282200  0.63902900  0.63491100  1
  Cu  Cu15  1  0.46717800  0.36097100  0.36508900  1
  Cu  Cu16  1  0.71132400  0.70147400  0.07672500  1
  Cu  Cu17  1  0.28867600  0.29852600  0.92327500  1
  Cu  Cu18  1  0.50924600  0.01285600  0.57734000  1
  Cu  Cu19  1  0.49075400  0.98714400  0.42266000  1
  Cu  Cu20  1  0.96931900  0.73105900  0.52379100  1
  Cu  Cu21  1  0.03068100  0.26894100  0.47620900  1
