# generated using pymatgen
data_CuNi3C2
_symmetry_space_group_name_H-M   'P 1'
_cell_length_a   6.23194300
_cell_length_b   7.74486500
_cell_length_c   9.06637200
_cell_angle_alpha   90.00000000
_cell_angle_beta   90.00000000
_cell_angle_gamma   90.00000000
_symmetry_Int_Tables_number   1
_chemical_formula_structural   CuNi3C2
_chemical_formula_sum   'Cu4 Ni12 C8'
_cell_volume   437.59349657
_cell_formula_units_Z   4
loop_
 _symmetry_equiv_pos_site_id
 _symmetry_equiv_pos_as_xyz
  1  'x, y, z'
loop_
 _atom_site_type_symbol
 _atom_site_label
 _atom_site_symmetry_multiplicity
 _atom_site_fract_x
 _atom_site_fract_y
 _atom_site_fract_z
 _atom_site_occupancy
  C  C0  1  0.25000000  0.34203900  0.82502000  1
  C  C1  1  0.25000000  0.15796100  0.32502000  1
  C  C2  1  0.75000000  0.65796100  0.17498000  1
  C  C3  1  0.75000000  0.84203900  0.67498000  1
  C  C4  1  0.25000000  0.80203400  0.93897200  1
  C  C5  1  0.25000000  0.69796600  0.43897200  1
  C  C6  1  0.75000000  0.19796600  0.06102700  1
  C  C7  1  0.75000000  0.30203400  0.56102800  1
  Ni  Ni8  1  0.05319300  0.70554300  0.91190100  1
  Ni  Ni9  1  0.44680700  0.79445700  0.41190100  1
  Ni  Ni10  1  0.55319300  0.29445700  0.08809900  1
  Ni  Ni11  1  0.94680700  0.20554300  0.58809900  1
  Ni  Ni12  1  0.94680700  0.29445700  0.08809900  1
  Ni  Ni13  1  0.55319300  0.20554300  0.58809900  1
  Ni  Ni14  1  0.44680700  0.70554300  0.91190100  1
  Ni  Ni15  1  0.05319300  0.79445700  0.41190100  1
  Ni  Ni16  1  0.25000000  0.91264000  0.06733000  1
  Ni  Ni17  1  0.25000000  0.58736000  0.56733000  1
  Ni  Ni18  1  0.75000000  0.08736000  0.93267000  1
  Ni  Ni19  1  0.75000000  0.41264000  0.43267000  1
  Cu  Cu20  1  0.25000000  0.94196500  0.80025800  1
  Cu  Cu21  1  0.25000000  0.55803500  0.30025800  1
  Cu  Cu22  1  0.75000000  0.05803500  0.19974200  1
  Cu  Cu23  1  0.75000000  0.44196500  0.69974200  1
