# generated using pymatgen
data_Cu3NiC14
_symmetry_space_group_name_H-M   'P 1'
_cell_length_a   9.09883940
_cell_length_b   9.09883940
_cell_length_c   11.57965860
_cell_angle_alpha   71.54723456
_cell_angle_beta   71.54723456
_cell_angle_gamma   35.71055114
_symmetry_Int_Tables_number   1
_chemical_formula_structural   Cu3NiC14
_chemical_formula_sum   'Cu6 Ni2 C28'
_cell_volume   527.71973633
_cell_formula_units_Z   2
loop_
 _symmetry_equiv_pos_site_id
 _symmetry_equiv_pos_as_xyz
  1  'x, y, z'
loop_
 _atom_site_type_symbol
 _atom_site_label
 _atom_site_symmetry_multiplicity
 _atom_site_fract_x
 _atom_site_fract_y
 _atom_site_fract_z
 _atom_site_occupancy
  Ni  Ni0  1  0.60675300  0.62024700  0.18736900  1
  Ni  Ni1  1  0.62024700  0.60675300  0.68736900  1
  Cu  Cu2  1  0.87657300  0.90269400  0.04368900  1
  Cu  Cu3  1  0.09201700  0.13324900  0.45672700  1
  Cu  Cu4  1  0.13324900  0.09201700  0.95672700  1
  Cu  Cu5  1  0.90269400  0.87657300  0.54368900  1
  Cu  Cu6  1  0.37920900  0.40184100  0.31527500  1
  Cu  Cu7  1  0.40184100  0.37920900  0.81527500  1
  C  C8  1  0.50292500  0.50011000  0.00104200  1
  C  C9  1  0.50011000  0.50292500  0.50104200  1
  C  C10  1  0.71153300  0.78926100  0.34672400  1
  C  C11  1  0.20577100  0.29279600  0.15264000  1
  C  C12  1  0.29279600  0.20577100  0.65264000  1
  C  C13  1  0.78926100  0.71153300  0.84672400  1
  C  C14  1  0.00097300  0.00271100  0.24960500  1
  C  C15  1  0.00271100  0.00097300  0.74960500  1
  C  C16  1  0.83697800  0.67735800  0.17081700  1
  C  C17  1  0.32479500  0.17637200  0.32795000  1
  C  C18  1  0.17637200  0.32479500  0.82795000  1
  C  C19  1  0.67735800  0.83697800  0.67081700  1
  C  C20  1  0.14240700  0.12577800  0.14592600  1
  C  C21  1  0.88669000  0.84492800  0.35163000  1
  C  C22  1  0.84492800  0.88669000  0.85163000  1
  C  C23  1  0.12577800  0.14240700  0.64592600  1
  C  C24  1  0.24315300  0.73002600  0.62853900  1
  C  C25  1  0.26103500  0.74797700  0.87811900  1
  C  C26  1  0.74797700  0.26103500  0.37811900  1
  C  C27  1  0.73002600  0.24315300  0.12853900  1
  C  C28  1  0.23265800  0.72602400  0.12969300  1
  C  C29  1  0.26353200  0.76772300  0.37630100  1
  C  C30  1  0.76772300  0.26353200  0.87630100  1
  C  C31  1  0.72602400  0.23265800  0.62969300  1
  C  C32  1  0.40078100  0.31880600  0.02757900  1
  C  C33  1  0.68702000  0.58729400  0.46037700  1
  C  C34  1  0.58729400  0.68702000  0.96037700  1
  C  C35  1  0.31880600  0.40078100  0.52757900  1
