# generated using pymatgen
data_Cu2Ni2C7
_symmetry_space_group_name_H-M   'P 1'
_cell_length_a   9.18042002
_cell_length_b   9.18042002
_cell_length_c   10.13582066
_cell_angle_alpha   60.42454746
_cell_angle_beta   60.42454746
_cell_angle_gamma   50.46077864
_symmetry_Int_Tables_number   1
_chemical_formula_structural   Cu2Ni2C7
_chemical_formula_sum   'Cu4 Ni4 C14'
_cell_volume   552.08441351
_cell_formula_units_Z   2
loop_
 _symmetry_equiv_pos_site_id
 _symmetry_equiv_pos_as_xyz
  1  'x, y, z'
loop_
 _atom_site_type_symbol
 _atom_site_label
 _atom_site_symmetry_multiplicity
 _atom_site_fract_x
 _atom_site_fract_y
 _atom_site_fract_z
 _atom_site_occupancy
  C  C0  1  0.10699200  0.89300800  0.75000000  1
  C  C1  1  0.89300800  0.10699200  0.25000000  1
  Ni  Ni2  1  0.21652900  0.49124100  0.08469500  1
  Ni  Ni3  1  0.50875900  0.78347100  0.41530500  1
  Ni  Ni4  1  0.78347100  0.50875900  0.91530500  1
  Ni  Ni5  1  0.49124100  0.21652900  0.58469500  1
  Cu  Cu6  1  0.27988200  0.50575200  0.87551000  1
  Cu  Cu7  1  0.49424800  0.72011800  0.62449000  1
  Cu  Cu8  1  0.72011800  0.49424800  0.12449000  1
  Cu  Cu9  1  0.50575200  0.27988200  0.37551000  1
  C  C10  1  0.21065200  0.33637000  0.18567100  1
  C  C11  1  0.66363000  0.78934800  0.31432900  1
  C  C12  1  0.78934800  0.66363000  0.81432900  1
  C  C13  1  0.33637000  0.21065200  0.68567100  1
  C  C14  1  0.19680300  0.63954100  0.09680900  1
  C  C15  1  0.36045900  0.80319700  0.40319100  1
  C  C16  1  0.80319700  0.36045900  0.90319100  1
  C  C17  1  0.63954100  0.19680300  0.59680900  1
  C  C18  1  0.78109900  0.97193900  0.93857900  1
  C  C19  1  0.02806100  0.21890100  0.56142100  1
  C  C20  1  0.21890100  0.02806100  0.06142100  1
  C  C21  1  0.97193900  0.78109900  0.43857900  1
