# generated using pymatgen
data_Cu12Ni3C4
_symmetry_space_group_name_H-M   'P 1'
_cell_length_a   8.63804900
_cell_length_b   8.80974800
_cell_length_c   12.34857700
_cell_angle_alpha   90.00000000
_cell_angle_beta   90.00000000
_cell_angle_gamma   90.00000000
_symmetry_Int_Tables_number   1
_chemical_formula_structural   Cu12Ni3C4
_chemical_formula_sum   'Cu48 Ni12 C16'
_cell_volume   939.71479211
_cell_formula_units_Z   4
loop_
 _symmetry_equiv_pos_site_id
 _symmetry_equiv_pos_as_xyz
  1  'x, y, z'
loop_
 _atom_site_type_symbol
 _atom_site_label
 _atom_site_symmetry_multiplicity
 _atom_site_fract_x
 _atom_site_fract_y
 _atom_site_fract_z
 _atom_site_occupancy
  C  C0  1  0.28561100  0.77679600  0.68128800  1
  C  C1  1  0.28561100  0.72320400  0.31871200  1
  C  C2  1  0.21438900  0.27679600  0.81871200  1
  C  C3  1  0.21438900  0.22320400  0.18128800  1
  C  C4  1  0.71438900  0.22320400  0.31871200  1
  C  C5  1  0.71438900  0.27679600  0.68128800  1
  C  C6  1  0.78561100  0.72320400  0.18128800  1
  C  C7  1  0.78561100  0.77679600  0.81871200  1
  C  C8  1  0.24536400  0.04169000  0.39096800  1
  C  C9  1  0.24536400  0.45831000  0.60903200  1
  C  C10  1  0.25463600  0.95831000  0.89096800  1
  C  C11  1  0.25463600  0.54169000  0.10903200  1
  C  C12  1  0.75463600  0.54169000  0.39096800  1
  C  C13  1  0.75463600  0.95831000  0.60903200  1
  C  C14  1  0.74536400  0.04169000  0.10903200  1
  C  C15  1  0.74536400  0.45831000  0.89096800  1
  Ni  Ni16  1  0.95250600  0.25000000  0.50000000  1
  Ni  Ni17  1  0.54749400  0.75000000  0.00000000  1
  Ni  Ni18  1  0.60613800  0.60414200  0.64838500  1
  Ni  Ni19  1  0.45250600  0.25000000  0.00000000  1
  Ni  Ni20  1  0.04749400  0.75000000  0.50000000  1
  Ni  Ni21  1  0.60613800  0.89585800  0.35161500  1
  Ni  Ni22  1  0.89386200  0.10414200  0.85161500  1
  Ni  Ni23  1  0.89386200  0.39585800  0.14838500  1
  Ni  Ni24  1  0.39386200  0.39585800  0.35161500  1
  Ni  Ni25  1  0.39386200  0.10414200  0.64838500  1
  Ni  Ni26  1  0.10613800  0.89585800  0.14838500  1
  Ni  Ni27  1  0.10613800  0.60414200  0.85161500  1
  Cu  Cu28  1  0.33239200  0.25636700  0.68050000  1
  Cu  Cu29  1  0.16990400  0.48667900  0.77638700  1
  Cu  Cu30  1  0.16990400  0.01332100  0.22361300  1
  Cu  Cu31  1  0.33009600  0.98667900  0.72361300  1
  Cu  Cu32  1  0.33009600  0.51332100  0.27638700  1
  Cu  Cu33  1  0.83009600  0.51332100  0.22361300  1
  Cu  Cu34  1  0.83009600  0.98667900  0.77638700  1
  Cu  Cu35  1  0.66990400  0.01332100  0.27638700  1
  Cu  Cu36  1  0.66990400  0.48667900  0.72361300  1
  Cu  Cu37  1  0.15105300  0.56674200  0.96272700  1
  Cu  Cu38  1  0.15105300  0.93325800  0.03727300  1
  Cu  Cu39  1  0.34894700  0.06674200  0.53727300  1
  Cu  Cu40  1  0.34894700  0.43325800  0.46272700  1
  Cu  Cu41  1  0.84894700  0.43325800  0.03727300  1
  Cu  Cu42  1  0.84894700  0.06674200  0.96272700  1
  Cu  Cu43  1  0.65105300  0.93325800  0.46272700  1
  Cu  Cu44  1  0.65105300  0.56674200  0.53727300  1
  Cu  Cu45  1  0.16760800  0.75636700  0.81950000  1
  Cu  Cu46  1  0.83239200  0.24363300  0.18050000  1
  Cu  Cu47  1  0.33239200  0.24363300  0.31950000  1
  Cu  Cu48  1  0.15105300  0.66819600  0.57771600  1
  Cu  Cu49  1  0.15105300  0.83180400  0.42228400  1
  Cu  Cu50  1  0.34894700  0.16819600  0.92228400  1
  Cu  Cu51  1  0.34894700  0.33180400  0.07771600  1
  Cu  Cu52  1  0.84894700  0.33180400  0.42228400  1
  Cu  Cu53  1  0.84894700  0.16819600  0.57771600  1
  Cu  Cu54  1  0.65105300  0.83180400  0.07771600  1
  Cu  Cu55  1  0.65105300  0.66819600  0.92228400  1
  Cu  Cu56  1  0.95419000  0.85791100  0.56245400  1
  Cu  Cu57  1  0.95419000  0.64208900  0.43754600  1
  Cu  Cu58  1  0.54581000  0.35791100  0.93754600  1
  Cu  Cu59  1  0.54581000  0.14208900  0.06245400  1
  Cu  Cu60  1  0.04581000  0.14208900  0.43754600  1
  Cu  Cu61  1  0.04581000  0.35791100  0.56245400  1
  Cu  Cu62  1  0.45419000  0.64208900  0.06245400  1
  Cu  Cu63  1  0.45419000  0.85791100  0.93754600  1
  Cu  Cu64  1  0.43423300  0.60703500  0.65846000  1
  Cu  Cu65  1  0.43423300  0.89296500  0.34154000  1
  Cu  Cu66  1  0.06576700  0.10703500  0.84154000  1
  Cu  Cu67  1  0.06576700  0.39296500  0.15846000  1
  Cu  Cu68  1  0.56576700  0.39296500  0.34154000  1
  Cu  Cu69  1  0.56576700  0.10703500  0.65846000  1
  Cu  Cu70  1  0.93423300  0.89296500  0.15846000  1
  Cu  Cu71  1  0.93423300  0.60703500  0.84154000  1
  Cu  Cu72  1  0.66760800  0.75636700  0.68050000  1
  Cu  Cu73  1  0.66760800  0.74363300  0.31950000  1
  Cu  Cu74  1  0.83239200  0.25636700  0.81950000  1
  Cu  Cu75  1  0.16760800  0.74363300  0.18050000  1
