# generated using pymatgen
data_Cu(Ni3C4)4
_symmetry_space_group_name_H-M   'P 1'
_cell_length_a   9.18474327
_cell_length_b   9.18474327
_cell_length_c   9.18474327
_cell_angle_alpha   109.47122063
_cell_angle_beta   109.47122063
_cell_angle_gamma   109.47122063
_symmetry_Int_Tables_number   1
_chemical_formula_structural   Cu(Ni3C4)4
_chemical_formula_sum   'Cu1 Ni12 C16'
_cell_volume   596.45704683
_cell_formula_units_Z   1
loop_
 _symmetry_equiv_pos_site_id
 _symmetry_equiv_pos_as_xyz
  1  'x, y, z'
loop_
 _atom_site_type_symbol
 _atom_site_label
 _atom_site_symmetry_multiplicity
 _atom_site_fract_x
 _atom_site_fract_y
 _atom_site_fract_z
 _atom_site_occupancy
  C  C0  1  0.34868900  0.00000000  0.00000000  1
  C  C1  1  0.59863700  0.31488400  0.00000000  1
  C  C2  1  0.31488400  0.59863700  0.00000000  1
  C  C3  1  0.00000000  0.34868900  0.00000000  1
  C  C4  1  0.40136300  0.40136300  0.71624700  1
  C  C5  1  0.28375300  0.68511600  0.68511600  1
  C  C6  1  0.68511600  0.28375300  0.68511600  1
  C  C7  1  0.65131100  0.65131100  0.65131100  1
  C  C8  1  0.31488400  0.00000000  0.59863700  1
  C  C9  1  0.00000000  0.31488400  0.59863700  1
  C  C10  1  0.71624700  0.40136300  0.40136300  1
  C  C11  1  0.40136300  0.71624700  0.40136300  1
  C  C12  1  0.00000000  0.00000000  0.34868900  1
  C  C13  1  0.00000000  0.59863700  0.31488400  1
  C  C14  1  0.59863700  0.00000000  0.31488400  1
  C  C15  1  0.68511600  0.68511600  0.28375300  1
  Ni  Ni16  1  0.62732100  0.81197000  0.00000000  1
  Ni  Ni17  1  0.81197000  0.62732100  0.00000000  1
  Ni  Ni18  1  0.18803000  0.18803000  0.81535100  1
  Ni  Ni19  1  0.62732100  0.00000000  0.81197000  1
  Ni  Ni20  1  0.00000000  0.62732100  0.81197000  1
  Ni  Ni21  1  0.81197000  0.00000000  0.62732100  1
  Ni  Ni22  1  0.00000000  0.81197000  0.62732100  1
  Ni  Ni23  1  0.37267900  0.18464900  0.37267900  1
  Ni  Ni24  1  0.18464900  0.37267900  0.37267900  1
  Ni  Ni25  1  0.18803000  0.81535100  0.18803000  1
  Ni  Ni26  1  0.81535100  0.18803000  0.18803000  1
  Ni  Ni27  1  0.37267900  0.37267900  0.18464900  1
  Cu  Cu28  1  0.00000000  0.00000000  0.00000000  1
