# generated using pymatgen
data_Cu3Ni2C5
_symmetry_space_group_name_H-M   'P 1'
_cell_length_a   8.04280581
_cell_length_b   8.04280581
_cell_length_c   8.04280581
_cell_angle_alpha   143.86993669
_cell_angle_beta   103.93678903
_cell_angle_gamma   87.21823428
_symmetry_Int_Tables_number   1
_chemical_formula_structural   Cu3Ni2C5
_chemical_formula_sum   'Cu6 Ni4 C10'
_cell_volume   287.87471961
_cell_formula_units_Z   2
loop_
 _symmetry_equiv_pos_site_id
 _symmetry_equiv_pos_as_xyz
  1  'x, y, z'
loop_
 _atom_site_type_symbol
 _atom_site_label
 _atom_site_symmetry_multiplicity
 _atom_site_fract_x
 _atom_site_fract_y
 _atom_site_fract_z
 _atom_site_occupancy
  Ni  Ni0  1  0.12808200  0.23716300  0.36524500  1
  Ni  Ni1  1  0.87191800  0.76283700  0.63475500  1
  Ni  Ni2  1  0.62808200  0.26283700  0.89091900  1
  Ni  Ni3  1  0.37191800  0.73716300  0.10908100  1
  Cu  Cu4  1  0.49004700  0.25000000  0.24004700  1
  Cu  Cu5  1  0.50995300  0.75000000  0.75995300  1
  Cu  Cu6  1  0.00995300  0.25000000  0.75995300  1
  Cu  Cu7  1  0.99004700  0.75000000  0.24004700  1
  Cu  Cu8  1  0.25000000  0.25000000  0.00000000  1
  Cu  Cu9  1  0.75000000  0.75000000  0.00000000  1
  C  C10  1  0.25000000  0.75000000  0.50000000  1
  C  C11  1  0.75000000  0.25000000  0.50000000  1
  C  C12  1  0.44762300  0.59592900  0.38497900  1
  C  C13  1  0.55237700  0.40407100  0.61502100  1
  C  C14  1  0.21095000  0.06264500  0.61502100  1
  C  C15  1  0.28905000  0.90407100  0.85169400  1
  C  C16  1  0.78905000  0.93735500  0.38497900  1
  C  C17  1  0.71095000  0.09592900  0.14830600  1
  C  C18  1  0.05237700  0.43735500  0.14830600  1
  C  C19  1  0.94762300  0.56264500  0.85169400  1
