# generated using pymatgen
data_Cu(NiC26)2
_symmetry_space_group_name_H-M   'P 1'
_cell_length_a   7.87863700
_cell_length_b   20.71522500
_cell_length_c   12.79874308
_cell_angle_alpha   90.00000000
_cell_angle_beta   97.55246556
_cell_angle_gamma   90.00000000
_symmetry_Int_Tables_number   1
_chemical_formula_structural   Cu(NiC26)2
_chemical_formula_sum   'Cu4 Ni8 C208'
_cell_volume   2070.73294101
_cell_formula_units_Z   4
loop_
 _symmetry_equiv_pos_site_id
 _symmetry_equiv_pos_as_xyz
  1  'x, y, z'
loop_
 _atom_site_type_symbol
 _atom_site_label
 _atom_site_symmetry_multiplicity
 _atom_site_fract_x
 _atom_site_fract_y
 _atom_site_fract_z
 _atom_site_occupancy
  C  C0  1  0.42595500  0.75000000  0.05468400  1
  C  C1  1  0.57404500  0.25000000  0.94531600  1
  C  C2  1  0.93310200  0.75000000  0.03884100  1
  C  C3  1  0.06689800  0.25000000  0.96115900  1
  C  C4  1  0.70006300  0.95452400  0.20956700  1
  C  C5  1  0.29993700  0.45452400  0.79043300  1
  C  C6  1  0.29993700  0.04547600  0.79043300  1
  C  C7  1  0.70006300  0.54547600  0.20956700  1
  Ni  Ni8  1  0.63365100  0.82636500  0.88908500  1
  Ni  Ni9  1  0.36634900  0.32636500  0.11091500  1
  Ni  Ni10  1  0.36634900  0.17363500  0.11091500  1
  Ni  Ni11  1  0.63365100  0.67363500  0.88908500  1
  Ni  Ni12  1  0.20278200  0.82631300  0.21720400  1
  Ni  Ni13  1  0.79721800  0.32631300  0.78279600  1
  Ni  Ni14  1  0.79721800  0.17368700  0.78279600  1
  Ni  Ni15  1  0.20278200  0.67368700  0.21720400  1
  C  C16  1  0.72648400  0.78855300  0.17661900  1
  C  C17  1  0.27351600  0.28855300  0.82338100  1
  C  C18  1  0.27351600  0.21144700  0.82338100  1
  C  C19  1  0.72648400  0.71144700  0.17661900  1
  C  C20  1  0.15743300  0.78844400  0.91025300  1
  C  C21  1  0.84256700  0.28844400  0.08974700  1
  C  C22  1  0.84256700  0.21155600  0.08974700  1
  C  C23  1  0.15743300  0.71155600  0.91025300  1
  C  C24  1  0.54790200  0.84256600  0.22392000  1
  C  C25  1  0.45209800  0.34256600  0.77608000  1
  C  C26  1  0.45209800  0.15743400  0.77608000  1
  C  C27  1  0.54790200  0.65743400  0.22392000  1
  C  C28  1  0.69720300  0.84606800  0.32419100  1
  C  C29  1  0.30279700  0.34606800  0.67580900  1
  C  C30  1  0.30279700  0.15393200  0.67580900  1
  C  C31  1  0.69720300  0.65393200  0.32419100  1
  C  C32  1  0.40459300  0.93837800  0.30564900  1
  C  C33  1  0.59540700  0.43837800  0.69435100  1
  C  C34  1  0.59540700  0.06162200  0.69435100  1
  C  C35  1  0.40459300  0.56162200  0.30564900  1
  C  C36  1  0.47957400  0.00648500  0.34355300  1
  C  C37  1  0.52042600  0.50648500  0.65644700  1
  C  C38  1  0.52042600  0.99351500  0.65644700  1
  C  C39  1  0.47957400  0.49351500  0.34355300  1
  C  C40  1  0.58324500  0.07737200  0.18642800  1
  C  C41  1  0.41675500  0.57737200  0.81357200  1
  C  C42  1  0.41675500  0.92262800  0.81357200  1
  C  C43  1  0.58324500  0.42262800  0.18642800  1
  C  C44  1  0.78439400  0.08167700  0.17978600  1
  C  C45  1  0.21560600  0.58167700  0.82021400  1
  C  C46  1  0.21560600  0.91832300  0.82021400  1
  C  C47  1  0.78439400  0.41832300  0.17978600  1
  C  C48  1  0.93938700  0.89545500  0.11038700  1
  C  C49  1  0.06061300  0.39545500  0.88961300  1
  C  C50  1  0.06061300  0.10454500  0.88961300  1
  C  C51  1  0.93938700  0.60454500  0.11038700  1
  C  C52  1  0.85028800  0.95276200  0.03673600  1
  C  C53  1  0.14971200  0.45276200  0.96326400  1
  C  C54  1  0.14971200  0.04723800  0.96326400  1
  C  C55  1  0.85028800  0.54723800  0.03673600  1
  C  C56  1  0.49360100  0.89787800  0.04427400  1
  C  C57  1  0.50639900  0.39787800  0.95572600  1
  C  C58  1  0.50639900  0.10212200  0.95572600  1
  C  C59  1  0.49360100  0.60212200  0.04427400  1
  C  C60  1  0.40031300  0.96221500  0.07720800  1
  C  C61  1  0.59968700  0.46221500  0.92279200  1
  C  C62  1  0.59968700  0.03778500  0.92279200  1
  C  C63  1  0.40031300  0.53778500  0.07720800  1
  C  C64  1  0.89070000  0.95073600  0.40345300  1
  C  C65  1  0.10930000  0.45073600  0.59654700  1
  C  C66  1  0.10930000  0.04926400  0.59654700  1
  C  C67  1  0.89070000  0.54926400  0.40345300  1
  C  C68  1  0.01026500  0.92974000  0.31583100  1
  C  C69  1  0.98973500  0.42974000  0.68416900  1
  C  C70  1  0.98973500  0.07026000  0.68416900  1
  C  C71  1  0.01026500  0.57026000  0.31583100  1
  C  C72  1  0.59182900  0.88889000  0.67604700  1
  C  C73  1  0.40817100  0.38889000  0.32395300  1
  C  C74  1  0.40817100  0.11111000  0.32395300  1
  C  C75  1  0.59182900  0.61111000  0.67604700  1
  C  C76  1  0.45966400  0.89887900  0.56657400  1
  C  C77  1  0.54033600  0.39887900  0.43342600  1
  C  C78  1  0.54033600  0.10112100  0.43342600  1
  C  C79  1  0.45966400  0.60112100  0.56657400  1
  C  C80  1  0.97137000  0.85089200  0.86264000  1
  C  C81  1  0.02863000  0.35089200  0.13736000  1
  C  C82  1  0.02863000  0.14910800  0.13736000  1
  C  C83  1  0.97137000  0.64910800  0.86264000  1
  C  C84  1  0.05487800  0.84156900  0.75578100  1
  C  C85  1  0.94512200  0.34156900  0.24421900  1
  C  C86  1  0.94512200  0.15843100  0.24421900  1
  C  C87  1  0.05487800  0.65843100  0.75578100  1
  C  C88  1  0.88125600  0.00626300  0.88690900  1
  C  C89  1  0.11874400  0.50626300  0.11309100  1
  C  C90  1  0.11874400  0.99373700  0.11309100  1
  C  C91  1  0.88125600  0.49373700  0.88690900  1
  C  C92  1  0.73653400  0.95034200  0.87020800  1
  C  C93  1  0.26346600  0.45034200  0.12979200  1
  C  C94  1  0.26346600  0.04965800  0.12979200  1
  C  C95  1  0.73653400  0.54965800  0.87020800  1
  C  C96  1  0.73864500  0.94823300  0.55607700  1
  C  C97  1  0.26135500  0.44823300  0.44392300  1
  C  C98  1  0.26135500  0.05176700  0.44392300  1
  C  C99  1  0.73864500  0.55176700  0.55607700  1
  C  C100  1  0.93164300  0.96795100  0.58805100  1
  C  C101  1  0.06835700  0.46795100  0.41194900  1
  C  C102  1  0.06835700  0.03204900  0.41194900  1
  C  C103  1  0.93164300  0.53204900  0.58805100  1
  C  C104  1  0.63774700  0.79639000  0.45573300  1
  C  C105  1  0.36225300  0.29639000  0.54426700  1
  C  C106  1  0.36225300  0.20361000  0.54426700  1
  C  C107  1  0.63774700  0.70361000  0.45573300  1
  C  C108  1  0.69380000  0.85848700  0.51346600  1
  C  C109  1  0.30620000  0.35848700  0.48653400  1
  C  C110  1  0.30620000  0.14151300  0.48653400  1
  C  C111  1  0.69380000  0.64151300  0.51346600  1
  C  C112  1  0.22448100  0.94439800  0.49779600  1
  C  C113  1  0.77551900  0.44439800  0.50220400  1
  C  C114  1  0.77551900  0.05560200  0.50220400  1
  C  C115  1  0.22448100  0.55560200  0.49779600  1
  C  C116  1  0.24894900  0.88517100  0.42601100  1
  C  C117  1  0.75105100  0.38517100  0.57398900  1
  C  C118  1  0.75105100  0.11482900  0.57398900  1
  C  C119  1  0.24894900  0.61482900  0.42601100  1
  C  C120  1  0.12889200  0.84922200  0.57958000  1
  C  C121  1  0.87110800  0.34922200  0.42042000  1
  C  C122  1  0.87110800  0.15077800  0.42042000  1
  C  C123  1  0.12889200  0.65077800  0.57958000  1
  C  C124  1  0.94967100  0.81549100  0.56885400  1
  C  C125  1  0.05032900  0.31549100  0.43114600  1
  C  C126  1  0.05032900  0.18450900  0.43114600  1
  C  C127  1  0.94967100  0.68450900  0.56885400  1
  Cu  Cu128  1  0.59515400  0.75000000  0.80981200  1
  Cu  Cu129  1  0.40484600  0.25000000  0.19018800  1
  Cu  Cu130  1  0.19186600  0.75000000  0.29629500  1
  Cu  Cu131  1  0.80813400  0.25000000  0.70370500  1
  C  C132  1  0.38416300  0.75000000  0.73931100  1
  C  C133  1  0.61583700  0.25000000  0.26068900  1
  C  C134  1  0.74673600  0.75000000  0.71634600  1
  C  C135  1  0.25326400  0.25000000  0.28365400  1
  C  C136  1  0.37304500  0.75000000  0.40204600  1
  C  C137  1  0.62695500  0.25000000  0.59795400  1
  C  C138  1  0.00577700  0.75000000  0.36001900  1
  C  C139  1  0.99422300  0.25000000  0.63998100  1
  C  C140  1  0.71465000  0.75000000  0.12893900  1
  C  C141  1  0.28535000  0.25000000  0.87106100  1
  C  C142  1  0.16967500  0.75000000  0.95938600  1
  C  C143  1  0.83032500  0.25000000  0.04061400  1
  C  C144  1  0.67265200  0.85423800  0.24705000  1
  C  C145  1  0.32734800  0.35423800  0.75295000  1
  C  C146  1  0.32734800  0.14576200  0.75295000  1
  C  C147  1  0.67265200  0.64576200  0.24705000  1
  C  C148  1  0.51236000  0.96339500  0.32107700  1
  C  C149  1  0.48764000  0.46339500  0.67892300  1
  C  C150  1  0.48764000  0.03660500  0.67892300  1
  C  C151  1  0.51236000  0.53660500  0.32107700  1
  C  C152  1  0.69225100  0.05208800  0.19651200  1
  C  C153  1  0.30774900  0.55208800  0.80348800  1
  C  C154  1  0.30774900  0.94791200  0.80348800  1
  C  C155  1  0.69225100  0.44791200  0.19651200  1
  C  C156  1  0.89377300  0.94061100  0.11106700  1
  C  C157  1  0.10622700  0.44061100  0.88893300  1
  C  C158  1  0.10622700  0.05938900  0.88893300  1
  C  C159  1  0.89377300  0.55938900  0.11106700  1
  C  C160  1  0.51169000  0.93919800  0.08300000  1
  C  C161  1  0.48831000  0.43919800  0.91700000  1
  C  C162  1  0.48831000  0.06080200  0.91700000  1
  C  C163  1  0.51169000  0.56080200  0.08300000  1
  C  C164  1  0.91300800  0.95756700  0.32960000  1
  C  C165  1  0.08699200  0.45756700  0.67040000  1
  C  C166  1  0.08699200  0.04243300  0.67040000  1
  C  C167  1  0.91300800  0.54243300  0.32960000  1
  C  C168  1  0.50273500  0.82512000  0.96813600  1
  C  C169  1  0.49726500  0.32512000  0.03186400  1
  C  C170  1  0.49726500  0.17488000  0.03186400  1
  C  C171  1  0.50273500  0.67488000  0.96813600  1
  C  C172  1  0.82059000  0.82198700  0.94094700  1
  C  C173  1  0.17941000  0.32198700  0.05905300  1
  C  C174  1  0.17941000  0.17801300  0.05905300  1
  C  C175  1  0.82059000  0.67801300  0.94094700  1
  C  C176  1  0.60784700  0.88402500  0.81300400  1
  C  C177  1  0.39215300  0.38402500  0.18699600  1
  C  C178  1  0.39215300  0.11597500  0.18699600  1
  C  C179  1  0.60784700  0.61597500  0.81300400  1
  C  C180  1  0.36822000  0.81815900  0.16659500  1
  C  C181  1  0.63178000  0.31815900  0.83340500  1
  C  C182  1  0.63178000  0.18184100  0.83340500  1
  C  C183  1  0.36822000  0.68184100  0.16659500  1
  C  C184  1  0.20860700  0.88436800  0.29183500  1
  C  C185  1  0.79139300  0.38436800  0.70816500  1
  C  C186  1  0.79139300  0.11563200  0.70816500  1
  C  C187  1  0.20860700  0.61563200  0.29183500  1
  C  C188  1  0.04078200  0.82361400  0.13701600  1
  C  C189  1  0.95921800  0.32361400  0.86298400  1
  C  C190  1  0.95921800  0.17638600  0.86298400  1
  C  C191  1  0.04078200  0.67638600  0.13701600  1
  C  C192  1  0.58100900  0.90499300  0.60163000  1
  C  C193  1  0.41899100  0.40499300  0.39837000  1
  C  C194  1  0.41899100  0.09500700  0.39837000  1
  C  C195  1  0.58100900  0.59500700  0.60163000  1
  C  C196  1  0.08111900  0.85315800  0.83187400  1
  C  C197  1  0.91888100  0.35315800  0.16812600  1
  C  C198  1  0.91888100  0.14684200  0.16812600  1
  C  C199  1  0.08111900  0.64684200  0.83187400  1
  C  C200  1  0.78275500  0.98724500  0.91542400  1
  C  C201  1  0.21724500  0.48724500  0.08457600  1
  C  C202  1  0.21724500  0.01275500  0.08457600  1
  C  C203  1  0.78275500  0.51275500  0.91542400  1
  C  C204  1  0.83770000  0.96999400  0.52974800  1
  C  C205  1  0.16230000  0.46999400  0.47025200  1
  C  C206  1  0.16230000  0.03000600  0.47025200  1
  C  C207  1  0.83770000  0.53000600  0.52974800  1
  C  C208  1  0.73235800  0.82711400  0.46268100  1
  C  C209  1  0.26764200  0.32711400  0.53731900  1
  C  C210  1  0.26764200  0.17288600  0.53731900  1
  C  C211  1  0.73235800  0.67288600  0.46268100  1
  C  C212  1  0.26227600  0.89874200  0.50182200  1
  C  C213  1  0.73772400  0.39874200  0.49817800  1
  C  C214  1  0.73772400  0.10125800  0.49817800  1
  C  C215  1  0.26227600  0.60125800  0.50182200  1
  C  C216  1  0.04192900  0.83155100  0.62079300  1
  C  C217  1  0.95807100  0.33155100  0.37920700  1
  C  C218  1  0.95807100  0.16844900  0.37920700  1
  C  C219  1  0.04192900  0.66844900  0.62079300  1
