# generated using pymatgen
data_Cu(NiC2)3
_symmetry_space_group_name_H-M   'P 1'
_cell_length_a   7.27109370
_cell_length_b   7.27109370
_cell_length_c   7.27109370
_cell_angle_alpha   119.98785890
_cell_angle_beta   119.98785890
_cell_angle_gamma   90.02103029
_symmetry_Int_Tables_number   1
_chemical_formula_structural   Cu(NiC2)3
_chemical_formula_sum   'Cu1 Ni3 C6'
_cell_volume   271.87162689
_cell_formula_units_Z   1
loop_
 _symmetry_equiv_pos_site_id
 _symmetry_equiv_pos_as_xyz
  1  'x, y, z'
loop_
 _atom_site_type_symbol
 _atom_site_label
 _atom_site_symmetry_multiplicity
 _atom_site_fract_x
 _atom_site_fract_y
 _atom_site_fract_z
 _atom_site_occupancy
  Ni  Ni0  1  0.75000000  0.25000000  0.50000000  1
  Ni  Ni1  1  0.25000000  0.75000000  0.50000000  1
  Ni  Ni2  1  0.50000000  0.50000000  0.00000000  1
  Cu  Cu3  1  0.00000000  0.00000000  0.00000000  1
  C  C4  1  0.00000000  0.30495800  0.30495800  1
  C  C5  1  0.00000000  0.69504200  0.69504200  1
  C  C6  1  0.30495800  0.00000000  0.30495800  1
  C  C7  1  0.69504200  0.00000000  0.69504200  1
  C  C8  1  0.22598300  0.22598300  0.00000000  1
  C  C9  1  0.77401700  0.77401700  0.00000000  1
