# generated using pymatgen
data_Cu2Ni8C13
_symmetry_space_group_name_H-M   'P 1'
_cell_length_a   5.62897300
_cell_length_b   6.45074509
_cell_length_c   13.35795522
_cell_angle_alpha   84.72546053
_cell_angle_beta   77.83677711
_cell_angle_gamma   64.13170038
_symmetry_Int_Tables_number   1
_chemical_formula_structural   Cu2Ni8C13
_chemical_formula_sum   'Cu4 Ni16 C26'
_cell_volume   426.64264293
_cell_formula_units_Z   2
loop_
 _symmetry_equiv_pos_site_id
 _symmetry_equiv_pos_as_xyz
  1  'x, y, z'
loop_
 _atom_site_type_symbol
 _atom_site_label
 _atom_site_symmetry_multiplicity
 _atom_site_fract_x
 _atom_site_fract_y
 _atom_site_fract_z
 _atom_site_occupancy
  C  C0  1  0.62500000  0.75000000  0.75000000  1
  C  C1  1  0.37500000  0.25000000  0.25000000  1
  Ni  Ni2  1  0.46212100  0.78470100  0.55289600  1
  Ni  Ni3  1  0.29971800  0.71529900  0.94710400  1
  Ni  Ni4  1  0.75317800  0.78470100  0.94710400  1
  Ni  Ni5  1  0.98498300  0.71529900  0.55289600  1
  Ni  Ni6  1  0.53787900  0.21529900  0.44710400  1
  Ni  Ni7  1  0.70028200  0.28470100  0.05289600  1
  Ni  Ni8  1  0.24682200  0.21529900  0.05289600  1
  Ni  Ni9  1  0.01501700  0.28470100  0.44710400  1
  Ni  Ni10  1  0.25371700  0.00798300  0.61909100  1
  Ni  Ni11  1  0.38079100  0.49201700  0.88090900  1
  Ni  Ni12  1  0.73830000  0.00798300  0.88090900  1
  Ni  Ni13  1  0.12719200  0.49201700  0.61909100  1
  Ni  Ni14  1  0.74628300  0.99201700  0.38090900  1
  Ni  Ni15  1  0.61920900  0.50798300  0.11909100  1
  Ni  Ni16  1  0.26170000  0.99201700  0.11909100  1
  Ni  Ni17  1  0.87280800  0.50798300  0.38090900  1
  Cu  Cu18  1  0.68163900  0.25000000  0.63672200  1
  Cu  Cu19  1  0.06836100  0.25000000  0.86327800  1
  Cu  Cu20  1  0.31836100  0.75000000  0.36327800  1
  Cu  Cu21  1  0.93163900  0.75000000  0.13672200  1
  C  C22  1  0.42141900  0.86388400  0.61902700  1
  C  C23  1  0.40433000  0.63611600  0.88097300  1
  C  C24  1  0.71469700  0.86388400  0.88097300  1
  C  C25  1  0.95955400  0.63611600  0.61902700  1
  C  C26  1  0.57858100  0.13611600  0.38097300  1
  C  C27  1  0.59567000  0.36388400  0.11902700  1
  C  C28  1  0.28530300  0.13611600  0.11902700  1
  C  C29  1  0.04044600  0.36388400  0.38097300  1
  C  C30  1  0.94898100  0.20242500  0.57275300  1
  C  C31  1  0.22415900  0.29757500  0.92724700  1
  C  C32  1  0.84859400  0.20242500  0.92724700  1
  C  C33  1  0.47826600  0.29757500  0.57275300  1
  C  C34  1  0.05101900  0.79757500  0.42724700  1
  C  C35  1  0.77584100  0.70242500  0.07275300  1
  C  C36  1  0.15140600  0.79757500  0.07275300  1
  C  C37  1  0.52173400  0.70242500  0.42724700  1
  C  C38  1  0.58199100  0.45295400  0.70568400  1
  C  C39  1  0.24062900  0.04704600  0.79431600  1
  C  C40  1  0.96505500  0.45295400  0.79431600  1
  C  C41  1  0.71232500  0.04704600  0.70568400  1
  C  C42  1  0.41800900  0.54704600  0.29431600  1
  C  C43  1  0.75937100  0.95295400  0.20568400  1
  C  C44  1  0.03494500  0.54704600  0.20568400  1
  C  C45  1  0.28767500  0.95295400  0.29431600  1
