# generated using pymatgen
data_Cu3NiC2
_symmetry_space_group_name_H-M   'P 1'
_cell_length_a   7.36962589
_cell_length_b   7.36962589
_cell_length_c   7.36962589
_cell_angle_alpha   145.65294077
_cell_angle_beta   132.36473193
_cell_angle_gamma   60.03420659
_symmetry_Int_Tables_number   1
_chemical_formula_structural   Cu3NiC2
_chemical_formula_sum   'Cu3 Ni1 C2'
_cell_volume   165.29577042
_cell_formula_units_Z   1
loop_
 _symmetry_equiv_pos_site_id
 _symmetry_equiv_pos_as_xyz
  1  'x, y, z'
loop_
 _atom_site_type_symbol
 _atom_site_label
 _atom_site_symmetry_multiplicity
 _atom_site_fract_x
 _atom_site_fract_y
 _atom_site_fract_z
 _atom_site_occupancy
  C  C0  1  0.09566000  0.83237300  0.26328700  1
  C  C1  1  0.43091400  0.16762700  0.26328700  1
  Ni  Ni2  1  0.73941500  0.50000000  0.23941500  1
  Cu  Cu3  1  0.66691300  0.67329600  0.99361700  1
  Cu  Cu4  1  0.32032100  0.32670400  0.99361700  1
  Cu  Cu5  1  0.01977700  0.00000000  0.01977700  1
