# generated using pymatgen
data_CuNi2C7
_symmetry_space_group_name_H-M   'P 1'
_cell_length_a   5.30654247
_cell_length_b   5.45684504
_cell_length_c   7.68554612
_cell_angle_alpha   89.90213651
_cell_angle_beta   90.27289406
_cell_angle_gamma   89.98542280
_symmetry_Int_Tables_number   1
_chemical_formula_structural   CuNi2C7
_chemical_formula_sum   'Cu2 Ni4 C14'
_cell_volume   222.54734827
_cell_formula_units_Z   2
loop_
 _symmetry_equiv_pos_site_id
 _symmetry_equiv_pos_as_xyz
  1  'x, y, z'
loop_
 _atom_site_type_symbol
 _atom_site_label
 _atom_site_symmetry_multiplicity
 _atom_site_fract_x
 _atom_site_fract_y
 _atom_site_fract_z
 _atom_site_occupancy
  Ni  Ni0  1  0.98794300  0.94756500  0.25229400  1
  Ni  Ni1  1  0.01202900  0.05239700  0.74772500  1
  Ni  Ni2  1  0.48815900  0.55203200  0.75201800  1
  Ni  Ni3  1  0.51186400  0.44797700  0.24799200  1
  Cu  Cu4  1  0.00004200  0.49995600  0.49997000  1
  Cu  Cu5  1  0.49995000  0.00000800  0.99997100  1
  C  C6  1  0.49999900  0.99998800  0.49999000  1
  C  C7  1  0.99997400  0.49999400  0.00000000  1
  C  C8  1  0.18994700  0.80852700  0.56144400  1
  C  C9  1  0.68953600  0.69065900  0.06131800  1
  C  C10  1  0.81007400  0.19145700  0.43857100  1
  C  C11  1  0.31045500  0.30939800  0.93869000  1
  C  C12  1  0.18711300  0.80546000  0.93353500  1
  C  C13  1  0.68675200  0.69440300  0.43349100  1
  C  C14  1  0.81284200  0.19454300  0.06646900  1
  C  C15  1  0.31330000  0.30558600  0.56653500  1
  C  C16  1  0.62011600  0.94307500  0.74835000  1
  C  C17  1  0.12052400  0.55687200  0.24825800  1
  C  C18  1  0.37987400  0.05695800  0.25163900  1
  C  C19  1  0.87950800  0.44314300  0.75173800  1
