# generated using pymatgen
data_Cu2NiC9
_symmetry_space_group_name_H-M   'P 1'
_cell_length_a   8.06421800
_cell_length_b   8.06421800
_cell_length_c   5.22891200
_cell_angle_alpha   90.00000000
_cell_angle_beta   90.00000000
_cell_angle_gamma   90.00000000
_symmetry_Int_Tables_number   1
_chemical_formula_structural   Cu2NiC9
_chemical_formula_sum   'Cu4 Ni2 C18'
_cell_volume   340.04457611
_cell_formula_units_Z   2
loop_
 _symmetry_equiv_pos_site_id
 _symmetry_equiv_pos_as_xyz
  1  'x, y, z'
loop_
 _atom_site_type_symbol
 _atom_site_label
 _atom_site_symmetry_multiplicity
 _atom_site_fract_x
 _atom_site_fract_y
 _atom_site_fract_z
 _atom_site_occupancy
  C  C0  1  0.33289300  0.83289300  0.50864900  1
  C  C1  1  0.16710700  0.33289300  0.49135100  1
  C  C2  1  0.83289300  0.66710700  0.49135100  1
  C  C3  1  0.66710700  0.16710700  0.50864900  1
  Ni  Ni4  1  0.50000000  0.50000000  0.00000000  1
  Ni  Ni5  1  0.00000000  0.00000000  0.00000000  1
  Cu  Cu6  1  0.14488900  0.64488900  0.94325400  1
  Cu  Cu7  1  0.35511100  0.14488900  0.05674600  1
  Cu  Cu8  1  0.64488900  0.85511100  0.05674600  1
  Cu  Cu9  1  0.85511100  0.35511100  0.94325400  1
  C  C10  1  0.67350000  0.41283700  0.77436300  1
  C  C11  1  0.32650000  0.58716300  0.77436300  1
  C  C12  1  0.41283700  0.32650000  0.22563700  1
  C  C13  1  0.58716300  0.67350000  0.22563700  1
  C  C14  1  0.91283700  0.17350000  0.77436300  1
  C  C15  1  0.82650000  0.91283700  0.22563700  1
  C  C16  1  0.17350000  0.08716300  0.22563700  1
  C  C17  1  0.08716300  0.82650000  0.77436300  1
  C  C18  1  0.86003500  0.36003500  0.27533200  1
  C  C19  1  0.63996500  0.86003500  0.72466800  1
  C  C20  1  0.50000000  0.00000000  0.20422200  1
  C  C21  1  0.00000000  0.50000000  0.79577800  1
  C  C22  1  0.13996500  0.63996500  0.27533200  1
  C  C23  1  0.36003500  0.13996500  0.72466800  1
