# generated using pymatgen
data_CuNi2C7
_symmetry_space_group_name_H-M   'P 1'
_cell_length_a   9.98046048
_cell_length_b   9.98046048
_cell_length_c   10.13333700
_cell_angle_alpha   90.00000000
_cell_angle_beta   90.00000000
_cell_angle_gamma   133.37478728
_symmetry_Int_Tables_number   1
_chemical_formula_structural   CuNi2C7
_chemical_formula_sum   'Cu6 Ni12 C42'
_cell_volume   733.69328051
_cell_formula_units_Z   6
loop_
 _symmetry_equiv_pos_site_id
 _symmetry_equiv_pos_as_xyz
  1  'x, y, z'
loop_
 _atom_site_type_symbol
 _atom_site_label
 _atom_site_symmetry_multiplicity
 _atom_site_fract_x
 _atom_site_fract_y
 _atom_site_fract_z
 _atom_site_occupancy
  C  C0  1  0.23831100  0.85140800  0.28191500  1
  C  C1  1  0.85140800  0.23831100  0.28191500  1
  C  C2  1  0.76168900  0.14859200  0.78191500  1
  C  C3  1  0.14859200  0.76168900  0.78191500  1
  C  C4  1  0.55843400  0.38154900  0.73555600  1
  C  C5  1  0.38154900  0.55843400  0.73555600  1
  C  C6  1  0.44156600  0.61845100  0.23555600  1
  C  C7  1  0.61845100  0.44156600  0.23555600  1
  C  C8  1  0.80763700  0.80763700  0.51728900  1
  C  C9  1  0.19236300  0.19236300  0.01728900  1
  Ni  Ni10  1  0.48161000  0.48161000  0.52142500  1
  Ni  Ni11  1  0.51839000  0.51839000  0.02142500  1
  Ni  Ni12  1  0.19964300  0.19964300  0.76919200  1
  Ni  Ni13  1  0.80035700  0.80035700  0.26919200  1
  Ni  Ni14  1  0.91573700  0.72551500  0.07944100  1
  Ni  Ni15  1  0.72551500  0.91573700  0.07944100  1
  Ni  Ni16  1  0.08426300  0.27448500  0.57944100  1
  Ni  Ni17  1  0.27448500  0.08426300  0.57944100  1
  Ni  Ni18  1  0.91915300  0.57038700  0.07607000  1
  Ni  Ni19  1  0.57038700  0.91915300  0.07607000  1
  Ni  Ni20  1  0.08084700  0.42961300  0.57607000  1
  Ni  Ni21  1  0.42961300  0.08084700  0.57607000  1
  Cu  Cu22  1  0.87651100  0.52171200  0.50554400  1
  Cu  Cu23  1  0.52171200  0.87651100  0.50554400  1
  Cu  Cu24  1  0.12348900  0.47828800  0.00554400  1
  Cu  Cu25  1  0.47828800  0.12348900  0.00554400  1
  Cu  Cu26  1  0.81721300  0.81721300  0.84497000  1
  Cu  Cu27  1  0.18278700  0.18278700  0.34497000  1
  C  C28  1  0.55221800  0.55221800  0.60078700  1
  C  C29  1  0.44778200  0.44778200  0.10078700  1
  C  C30  1  0.30652800  0.30652800  0.81844900  1
  C  C31  1  0.69347200  0.69347200  0.31844900  1
  C  C32  1  0.36429400  0.10045900  0.63614000  1
  C  C33  1  0.10045900  0.36429400  0.63614000  1
  C  C34  1  0.63570600  0.89954100  0.13614000  1
  C  C35  1  0.89954100  0.63570600  0.13614000  1
  C  C36  1  0.73747400  0.41628800  0.39831000  1
  C  C37  1  0.41628800  0.73747400  0.39831000  1
  C  C38  1  0.26252600  0.58371200  0.89831000  1
  C  C39  1  0.58371200  0.26252600  0.89831000  1
  C  C40  1  0.78974500  0.43184200  0.63647600  1
  C  C41  1  0.43184200  0.78974500  0.63647600  1
  C  C42  1  0.21025500  0.56815800  0.13647600  1
  C  C43  1  0.56815800  0.21025500  0.13647600  1
  C  C44  1  0.02589300  0.52588800  0.47947800  1
  C  C45  1  0.52588800  0.02589300  0.47947800  1
  C  C46  1  0.97410700  0.47411200  0.97947800  1
  C  C47  1  0.47411200  0.97410700  0.97947800  1
  C  C48  1  0.95849400  0.71572800  0.50925400  1
  C  C49  1  0.71572800  0.95849400  0.50925400  1
  C  C50  1  0.04150600  0.28427200  0.00925400  1
  C  C51  1  0.28427200  0.04150600  0.00925400  1
  C  C52  1  0.64226500  0.77562200  0.84501900  1
  C  C53  1  0.77562200  0.64226500  0.84501900  1
  C  C54  1  0.35773500  0.22437800  0.34501900  1
  C  C55  1  0.22437800  0.35773500  0.34501900  1
  C  C56  1  0.93059700  0.93059700  0.72704200  1
  C  C57  1  0.06940300  0.06940300  0.22704200  1
  C  C58  1  0.91916400  0.91916400  0.96933200  1
  C  C59  1  0.08083600  0.08083600  0.46933200  1
