# generated using pymatgen
data_CuNiC5
_symmetry_space_group_name_H-M   'P 1'
_cell_length_a   5.33502400
_cell_length_b   6.52651400
_cell_length_c   11.53200200
_cell_angle_alpha   90.00000000
_cell_angle_beta   90.00000000
_cell_angle_gamma   90.00000000
_symmetry_Int_Tables_number   1
_chemical_formula_structural   CuNiC5
_chemical_formula_sum   'Cu4 Ni4 C20'
_cell_volume   401.53403262
_cell_formula_units_Z   4
loop_
 _symmetry_equiv_pos_site_id
 _symmetry_equiv_pos_as_xyz
  1  'x, y, z'
loop_
 _atom_site_type_symbol
 _atom_site_label
 _atom_site_symmetry_multiplicity
 _atom_site_fract_x
 _atom_site_fract_y
 _atom_site_fract_z
 _atom_site_occupancy
  Ni  Ni0  1  0.00000000  0.00000000  0.00000000  1
  Ni  Ni1  1  0.00000000  0.50000000  0.00000000  1
  Ni  Ni2  1  0.50000000  0.00000000  0.50000000  1
  Ni  Ni3  1  0.50000000  0.50000000  0.50000000  1
  Cu  Cu4  1  0.00394200  0.75000000  0.27766700  1
  Cu  Cu5  1  0.99605800  0.25000000  0.72233300  1
  Cu  Cu6  1  0.49605800  0.75000000  0.77766700  1
  Cu  Cu7  1  0.50394200  0.25000000  0.22233300  1
  C  C8  1  0.94568500  0.25000000  0.40272100  1
  C  C9  1  0.55431500  0.25000000  0.90272100  1
  C  C10  1  0.05431500  0.75000000  0.59727900  1
  C  C11  1  0.44568500  0.75000000  0.09727900  1
  C  C12  1  0.79233100  0.45720400  0.32605800  1
  C  C13  1  0.29233100  0.54279600  0.17394200  1
  C  C14  1  0.20766900  0.95720400  0.67394200  1
  C  C15  1  0.70766900  0.04279600  0.82605800  1
  C  C16  1  0.20766900  0.54279600  0.67394200  1
  C  C17  1  0.70766900  0.45720400  0.82605800  1
  C  C18  1  0.79233100  0.04279600  0.32605800  1
  C  C19  1  0.29233100  0.95720400  0.17394200  1
  C  C20  1  0.17417200  0.75000000  0.45471500  1
  C  C21  1  0.67417200  0.25000000  0.04528500  1
  C  C22  1  0.82582800  0.25000000  0.54528500  1
  C  C23  1  0.32582800  0.75000000  0.95471500  1
  C  C24  1  0.72803300  0.75000000  0.61052400  1
  C  C25  1  0.22803300  0.25000000  0.88947600  1
  C  C26  1  0.27196700  0.25000000  0.38947600  1
  C  C27  1  0.77196700  0.75000000  0.11052400  1
