# generated using pymatgen
data_Cu3NiC2
_symmetry_space_group_name_H-M   'P 1'
_cell_length_a   7.41491800
_cell_length_b   8.95636900
_cell_length_c   16.47682100
_cell_angle_alpha   90.00000000
_cell_angle_beta   90.00000000
_cell_angle_gamma   90.00000000
_symmetry_Int_Tables_number   1
_chemical_formula_structural   Cu3NiC2
_chemical_formula_sum   'Cu24 Ni8 C16'
_cell_volume   1094.23790368
_cell_formula_units_Z   8
loop_
 _symmetry_equiv_pos_site_id
 _symmetry_equiv_pos_as_xyz
  1  'x, y, z'
loop_
 _atom_site_type_symbol
 _atom_site_label
 _atom_site_symmetry_multiplicity
 _atom_site_fract_x
 _atom_site_fract_y
 _atom_site_fract_z
 _atom_site_occupancy
  C  C0  1  0.13829100  0.97787600  0.17528200  1
  C  C1  1  0.86170900  0.02212400  0.82471800  1
  C  C2  1  0.36170900  0.02212400  0.67528200  1
  C  C3  1  0.86170900  0.47787600  0.32471800  1
  C  C4  1  0.63829100  0.97787600  0.32471800  1
  C  C5  1  0.13829100  0.52212400  0.67528200  1
  C  C6  1  0.63829100  0.52212400  0.82471800  1
  C  C7  1  0.36170900  0.47787600  0.17528200  1
  Ni  Ni8  1  0.17784800  0.19106500  0.45178400  1
  Ni  Ni9  1  0.82215200  0.80893500  0.54821600  1
  Ni  Ni10  1  0.32215200  0.80893500  0.95178400  1
  Ni  Ni11  1  0.82215200  0.69106500  0.04821600  1
  Ni  Ni12  1  0.67784800  0.19106500  0.04821600  1
  Ni  Ni13  1  0.17784800  0.30893500  0.95178400  1
  Ni  Ni14  1  0.67784800  0.30893500  0.54821600  1
  Ni  Ni15  1  0.32215200  0.69106500  0.45178400  1
  C  C16  1  0.01089200  0.41285100  0.17301600  1
  C  C17  1  0.98910800  0.58714900  0.82698400  1
  C  C18  1  0.48910800  0.58714900  0.67301600  1
  C  C19  1  0.98910800  0.91285100  0.32698400  1
  C  C20  1  0.51089200  0.41285100  0.32698400  1
  C  C21  1  0.01089200  0.08714900  0.67301600  1
  C  C22  1  0.51089200  0.08714900  0.82698400  1
  C  C23  1  0.48910800  0.91285100  0.17301600  1
  Cu  Cu24  1  0.16678700  0.03341500  0.06377400  1
  Cu  Cu25  1  0.83321300  0.96658500  0.93622600  1
  Cu  Cu26  1  0.33321300  0.96658500  0.56377400  1
  Cu  Cu27  1  0.83321300  0.53341500  0.43622600  1
  Cu  Cu28  1  0.66678700  0.03341500  0.43622600  1
  Cu  Cu29  1  0.16678700  0.46658500  0.56377400  1
  Cu  Cu30  1  0.66678700  0.46658500  0.93622600  1
  Cu  Cu31  1  0.33321300  0.53341500  0.06377400  1
  Cu  Cu32  1  0.38234300  0.02156000  0.33462500  1
  Cu  Cu33  1  0.61765700  0.97844000  0.66537500  1
  Cu  Cu34  1  0.11765700  0.97844000  0.83462500  1
  Cu  Cu35  1  0.61765700  0.52156000  0.16537500  1
  Cu  Cu36  1  0.88234300  0.02156000  0.16537500  1
  Cu  Cu37  1  0.38234300  0.47844000  0.83462500  1
  Cu  Cu38  1  0.88234300  0.47844000  0.66537500  1
  Cu  Cu39  1  0.11765700  0.52156000  0.33462500  1
  Cu  Cu40  1  0.38572900  0.26547700  0.15949000  1
  Cu  Cu41  1  0.61427100  0.73452300  0.84051000  1
  Cu  Cu42  1  0.11427100  0.73452300  0.65949000  1
  Cu  Cu43  1  0.61427100  0.76547700  0.34051000  1
  Cu  Cu44  1  0.88572900  0.26547700  0.34051000  1
  Cu  Cu45  1  0.38572900  0.23452300  0.65949000  1
  Cu  Cu46  1  0.88572900  0.23452300  0.84051000  1
  Cu  Cu47  1  0.11427100  0.76547700  0.15949000  1
