# generated using pymatgen
data_Cu4Ni2C
_symmetry_space_group_name_H-M   'P 1'
_cell_length_a   5.01494563
_cell_length_b   9.56923573
_cell_length_c   8.94637203
_cell_angle_alpha   88.06310657
_cell_angle_beta   85.44148472
_cell_angle_gamma   78.78714291
_symmetry_Int_Tables_number   1
_chemical_formula_structural   Cu4Ni2C
_chemical_formula_sum   'Cu16 Ni8 C4'
_cell_volume   419.72791698
_cell_formula_units_Z   4
loop_
 _symmetry_equiv_pos_site_id
 _symmetry_equiv_pos_as_xyz
  1  'x, y, z'
loop_
 _atom_site_type_symbol
 _atom_site_label
 _atom_site_symmetry_multiplicity
 _atom_site_fract_x
 _atom_site_fract_y
 _atom_site_fract_z
 _atom_site_occupancy
  C  C0  1  0.97978600  0.73564900  0.42149000  1
  C  C1  1  0.02021400  0.26435100  0.57851000  1
  C  C2  1  0.04024200  0.25526500  0.07270400  1
  C  C3  1  0.95975800  0.74473500  0.92729600  1
  Ni  Ni4  1  0.48064500  0.55763000  0.68077100  1
  Ni  Ni5  1  0.51935500  0.44237000  0.31922900  1
  Ni  Ni6  1  0.43369600  0.44098200  0.80410900  1
  Ni  Ni7  1  0.56630400  0.55901800  0.19589100  1
  Ni  Ni8  1  0.59921600  0.00614000  0.68403300  1
  Ni  Ni9  1  0.40078400  0.99386000  0.31596700  1
  Ni  Ni10  1  0.37099000  0.98935100  0.80972400  1
  Ni  Ni11  1  0.62901000  0.01064900  0.19027600  1
  Cu  Cu12  1  0.28431800  0.66154800  0.66778900  1
  Cu  Cu13  1  0.71568200  0.33845200  0.33221100  1
  Cu  Cu14  1  0.70926400  0.53994800  0.60498900  1
  Cu  Cu15  1  0.29073600  0.46005200  0.39501100  1
  Cu  Cu16  1  0.18702000  0.44877300  0.85705600  1
  Cu  Cu17  1  0.81298000  0.55122700  0.14294400  1
  Cu  Cu18  1  0.63627700  0.35003400  0.84115600  1
  Cu  Cu19  1  0.36372300  0.64996600  0.15884400  1
  Cu  Cu20  1  0.80085000  0.90300200  0.67032100  1
  Cu  Cu21  1  0.19915000  0.09699800  0.32967900  1
  Cu  Cu22  1  0.56869600  0.12096500  0.60714900  1
  Cu  Cu23  1  0.43130400  0.87903500  0.39285100  1
  Cu  Cu24  1  0.15922700  0.08729200  0.81991400  1
  Cu  Cu25  1  0.84077300  0.91270800  0.18008600  1
  Cu  Cu26  1  0.41182200  0.87931700  0.89409600  1
  Cu  Cu27  1  0.58817800  0.12068300  0.10590400  1
