# generated using pymatgen
data_CuNiC
_symmetry_space_group_name_H-M   'P 1'
_cell_length_a   6.21905600
_cell_length_b   6.21905600
_cell_length_c   6.21905600
_cell_angle_alpha   90.00000000
_cell_angle_beta   90.00000000
_cell_angle_gamma   90.00000000
_symmetry_Int_Tables_number   1
_chemical_formula_structural   CuNiC
_chemical_formula_sum   'Cu4 Ni4 C4'
_cell_volume   240.53229908
_cell_formula_units_Z   4
loop_
 _symmetry_equiv_pos_site_id
 _symmetry_equiv_pos_as_xyz
  1  'x, y, z'
loop_
 _atom_site_type_symbol
 _atom_site_label
 _atom_site_symmetry_multiplicity
 _atom_site_fract_x
 _atom_site_fract_y
 _atom_site_fract_z
 _atom_site_occupancy
  Ni  Ni0  1  0.12863100  0.62863100  0.87136900  1
  Ni  Ni1  1  0.62863100  0.87136900  0.12863100  1
  Ni  Ni2  1  0.87136900  0.12863100  0.62863100  1
  Ni  Ni3  1  0.37136900  0.37136900  0.37136900  1
  Cu  Cu4  1  0.47735200  0.97735200  0.52264800  1
  Cu  Cu5  1  0.97735200  0.52264800  0.47735200  1
  Cu  Cu6  1  0.52264800  0.47735200  0.97735200  1
  Cu  Cu7  1  0.02264800  0.02264800  0.02264800  1
  C  C8  1  0.88171800  0.38171800  0.11828200  1
  C  C9  1  0.38171800  0.11828200  0.88171800  1
  C  C10  1  0.11828200  0.88171800  0.38171800  1
  C  C11  1  0.61828200  0.61828200  0.61828200  1
