# generated using pymatgen
data_CuNi4C11
_symmetry_space_group_name_H-M   'P 1'
_cell_length_a   18.37804208
_cell_length_b   18.37804208
_cell_length_c   18.37804208
_cell_angle_alpha   164.60624636
_cell_angle_beta   164.60624636
_cell_angle_gamma   21.83655573
_symmetry_Int_Tables_number   1
_chemical_formula_structural   CuNi4C11
_chemical_formula_sum   'Cu1 Ni4 C11'
_cell_volume   437.31465634
_cell_formula_units_Z   1
loop_
 _symmetry_equiv_pos_site_id
 _symmetry_equiv_pos_as_xyz
  1  'x, y, z'
loop_
 _atom_site_type_symbol
 _atom_site_label
 _atom_site_symmetry_multiplicity
 _atom_site_fract_x
 _atom_site_fract_y
 _atom_site_fract_z
 _atom_site_occupancy
  Ni  Ni0  1  0.10227900  0.10227900  0.00000000  1
  Ni  Ni1  1  0.89772100  0.89772100  0.00000000  1
  Ni  Ni2  1  0.29951900  0.29951900  0.00000000  1
  Ni  Ni3  1  0.70048100  0.70048100  0.00000000  1
  Cu  Cu4  1  0.50000000  0.50000000  0.00000000  1
  C  C5  1  0.15133400  0.65133400  0.50000000  1
  C  C6  1  0.34866600  0.84866600  0.50000000  1
  C  C7  1  0.75000000  0.25000000  0.50000000  1
  C  C8  1  0.55498400  0.05498400  0.50000000  1
  C  C9  1  0.94501600  0.44501600  0.50000000  1
  C  C10  1  0.05498400  0.55498400  0.50000000  1
  C  C11  1  0.25000000  0.75000000  0.50000000  1
  C  C12  1  0.65133400  0.15133400  0.50000000  1
  C  C13  1  0.44501600  0.94501600  0.50000000  1
  C  C14  1  0.84866600  0.34866600  0.50000000  1
  C  C15  1  0.00000000  0.00000000  0.00000000  1
