# generated using pymatgen
data_CuNiC8
_symmetry_space_group_name_H-M   'P 1'
_cell_length_a   6.23811383
_cell_length_b   6.23811383
_cell_length_c   8.77249800
_cell_angle_alpha   90.00000000
_cell_angle_beta   90.00000000
_cell_angle_gamma   119.99999820
_symmetry_Int_Tables_number   1
_chemical_formula_structural   CuNiC8
_chemical_formula_sum   'Cu2 Ni2 C16'
_cell_volume   295.63817187
_cell_formula_units_Z   2
loop_
 _symmetry_equiv_pos_site_id
 _symmetry_equiv_pos_as_xyz
  1  'x, y, z'
loop_
 _atom_site_type_symbol
 _atom_site_label
 _atom_site_symmetry_multiplicity
 _atom_site_fract_x
 _atom_site_fract_y
 _atom_site_fract_z
 _atom_site_occupancy
  Ni  Ni0  1  0.00000000  0.00000000  0.50000000  1
  Ni  Ni1  1  0.00000000  0.00000000  0.00000000  1
  C  C2  1  0.66666700  0.33333300  0.53655200  1
  C  C3  1  0.33333300  0.66666700  0.46344800  1
  C  C4  1  0.66666700  0.33333300  0.96344800  1
  C  C5  1  0.33333300  0.66666700  0.03655200  1
  C  C6  1  0.72410500  0.04445000  0.65318100  1
  C  C7  1  0.27589500  0.95555000  0.34681900  1
  C  C8  1  0.95555000  0.67965500  0.65318100  1
  C  C9  1  0.72410500  0.67965500  0.84681900  1
  C  C10  1  0.04445000  0.32034500  0.34681900  1
  C  C11  1  0.27589500  0.32034500  0.15318100  1
  C  C12  1  0.32034500  0.27589500  0.65318100  1
  C  C13  1  0.95555000  0.27589500  0.84681900  1
  C  C14  1  0.67965500  0.72410500  0.34681900  1
  C  C15  1  0.04445000  0.72410500  0.15318100  1
  C  C16  1  0.32034500  0.04445000  0.84681900  1
  C  C17  1  0.67965500  0.95555000  0.15318100  1
  Cu  Cu18  1  0.33333300  0.66666700  0.75000000  1
  Cu  Cu19  1  0.66666700  0.33333300  0.25000000  1
