# generated using pymatgen
data_CuNiC5
_symmetry_space_group_name_H-M   'P 1'
_cell_length_a   6.13775500
_cell_length_b   7.15011200
_cell_length_c   11.91313900
_cell_angle_alpha   90.00000000
_cell_angle_beta   90.00000000
_cell_angle_gamma   90.00000000
_symmetry_Int_Tables_number   1
_chemical_formula_structural   CuNiC5
_chemical_formula_sum   'Cu4 Ni4 C20'
_cell_volume   522.81567794
_cell_formula_units_Z   4
loop_
 _symmetry_equiv_pos_site_id
 _symmetry_equiv_pos_as_xyz
  1  'x, y, z'
loop_
 _atom_site_type_symbol
 _atom_site_label
 _atom_site_symmetry_multiplicity
 _atom_site_fract_x
 _atom_site_fract_y
 _atom_site_fract_z
 _atom_site_occupancy
  Ni  Ni0  1  0.03790000  0.75000000  0.24718600  1
  Ni  Ni1  1  0.96210000  0.25000000  0.75281400  1
  Ni  Ni2  1  0.53790000  0.25000000  0.25281400  1
  Ni  Ni3  1  0.46210000  0.75000000  0.74718600  1
  Cu  Cu4  1  0.50000000  0.00000000  0.00000000  1
  Cu  Cu5  1  0.00000000  0.00000000  0.50000000  1
  Cu  Cu6  1  0.00000000  0.50000000  0.50000000  1
  Cu  Cu7  1  0.50000000  0.50000000  0.00000000  1
  C  C8  1  0.92539500  0.25000000  0.10096900  1
  C  C9  1  0.07460500  0.75000000  0.89903100  1
  C  C10  1  0.42539500  0.75000000  0.39903100  1
  C  C11  1  0.57460500  0.25000000  0.60096900  1
  C  C12  1  0.71443800  0.98079000  0.17376300  1
  C  C13  1  0.28556200  0.01921000  0.82623700  1
  C  C14  1  0.21443800  0.01921000  0.32623700  1
  C  C15  1  0.78556200  0.98079000  0.67376300  1
  C  C16  1  0.78556200  0.51921000  0.67376300  1
  C  C17  1  0.21443800  0.48079000  0.32623700  1
  C  C18  1  0.28556200  0.48079000  0.82623700  1
  C  C19  1  0.71443800  0.51921000  0.17376300  1
  C  C20  1  0.27540600  0.75000000  0.08847400  1
  C  C21  1  0.72459400  0.25000000  0.91152600  1
  C  C22  1  0.77540600  0.25000000  0.41152600  1
  C  C23  1  0.22459400  0.75000000  0.58847400  1
  C  C24  1  0.31434000  0.25000000  0.08355600  1
  C  C25  1  0.68566000  0.75000000  0.91644400  1
  C  C26  1  0.81434000  0.75000000  0.41644400  1
  C  C27  1  0.18566000  0.25000000  0.58355600  1
