# generated using pymatgen
data_Cu2NiC8
_symmetry_space_group_name_H-M   'P 1'
_cell_length_a   7.81459700
_cell_length_b   7.28369700
_cell_length_c   9.41157110
_cell_angle_alpha   68.34277841
_cell_angle_beta   90.00000000
_cell_angle_gamma   90.00000000
_symmetry_Int_Tables_number   1
_chemical_formula_structural   Cu2NiC8
_chemical_formula_sum   'Cu8 Ni4 C32'
_cell_volume   497.88284927
_cell_formula_units_Z   4
loop_
 _symmetry_equiv_pos_site_id
 _symmetry_equiv_pos_as_xyz
  1  'x, y, z'
loop_
 _atom_site_type_symbol
 _atom_site_label
 _atom_site_symmetry_multiplicity
 _atom_site_fract_x
 _atom_site_fract_y
 _atom_site_fract_z
 _atom_site_occupancy
  C  C0  1  0.47410300  0.70956800  0.29701100  1
  C  C1  1  0.97410300  0.29043200  0.20298900  1
  C  C2  1  0.52589700  0.29043200  0.70298900  1
  C  C3  1  0.02589700  0.70956800  0.79701100  1
  Ni  Ni4  1  0.98964800  0.26005200  0.75270700  1
  Ni  Ni5  1  0.48964800  0.73994800  0.74729300  1
  Ni  Ni6  1  0.01035200  0.73994800  0.24729300  1
  Ni  Ni7  1  0.51035200  0.26005200  0.25270700  1
  Cu  Cu8  1  0.75552500  0.07144200  0.04977100  1
  Cu  Cu9  1  0.25552500  0.92855800  0.45022900  1
  Cu  Cu10  1  0.24447500  0.92855800  0.95022900  1
  Cu  Cu11  1  0.74447500  0.07144200  0.54977100  1
  Cu  Cu12  1  0.70707200  0.66979000  0.04736700  1
  Cu  Cu13  1  0.20707200  0.33021000  0.45263300  1
  Cu  Cu14  1  0.29292800  0.33021000  0.95263300  1
  Cu  Cu15  1  0.79292800  0.66979000  0.54736700  1
  C  C16  1  0.69086500  0.68544200  0.88184000  1
  C  C17  1  0.19086500  0.31455800  0.61816000  1
  C  C18  1  0.30913500  0.31455800  0.11816000  1
  C  C19  1  0.80913500  0.68544200  0.38184000  1
  C  C20  1  0.79323300  0.19067800  0.88202400  1
  C  C21  1  0.29323300  0.80932200  0.61797600  1
  C  C22  1  0.20676700  0.80932200  0.11797600  1
  C  C23  1  0.70676700  0.19067800  0.38202400  1
  C  C24  1  0.89492900  0.64255200  0.10066600  1
  C  C25  1  0.39492900  0.35744800  0.39933400  1
  C  C26  1  0.10507100  0.35744800  0.89933400  1
  C  C27  1  0.60507100  0.64255200  0.60066600  1
  C  C28  1  0.91734300  0.99809700  0.14668000  1
  C  C29  1  0.41734300  0.00190300  0.35332000  1
  C  C30  1  0.08265700  0.00190300  0.85332000  1
  C  C31  1  0.58265700  0.99809700  0.64668000  1
  C  C32  1  0.85434300  0.87702900  0.56081300  1
  C  C33  1  0.35434300  0.12297100  0.93918700  1
  C  C34  1  0.14565700  0.12297100  0.43918700  1
  C  C35  1  0.64565700  0.87702900  0.06081300  1
  C  C36  1  0.91410000  0.52313700  0.65896000  1
  C  C37  1  0.41410000  0.47686300  0.84104000  1
  C  C38  1  0.08590000  0.47686300  0.34104000  1
  C  C39  1  0.58590000  0.52313700  0.15896000  1
  C  C40  1  0.86188900  0.18550800  0.61462500  1
  C  C41  1  0.36188900  0.81449200  0.88537500  1
  C  C42  1  0.13811100  0.81449200  0.38537500  1
  C  C43  1  0.63811100  0.18550800  0.11462500  1
