# generated using pymatgen
data_Cu8Ni4C3
_symmetry_space_group_name_H-M   'P 1'
_cell_length_a   12.93821800
_cell_length_b   7.91632900
_cell_length_c   9.71498067
_cell_angle_alpha   82.56855440
_cell_angle_beta   90.00000000
_cell_angle_gamma   90.00000000
_symmetry_Int_Tables_number   1
_chemical_formula_structural   Cu8Ni4C3
_chemical_formula_sum   'Cu32 Ni16 C12'
_cell_volume   986.68130872
_cell_formula_units_Z   4
loop_
 _symmetry_equiv_pos_site_id
 _symmetry_equiv_pos_as_xyz
  1  'x, y, z'
loop_
 _atom_site_type_symbol
 _atom_site_label
 _atom_site_symmetry_multiplicity
 _atom_site_fract_x
 _atom_site_fract_y
 _atom_site_fract_z
 _atom_site_occupancy
  C  C0  1  0.81695700  0.35032300  0.65840800  1
  C  C1  1  0.31695700  0.14967700  0.34159200  1
  C  C2  1  0.18304300  0.64967700  0.34159200  1
  C  C3  1  0.68304300  0.85032300  0.65840800  1
  C  C4  1  0.65692600  0.08432600  0.18908100  1
  C  C5  1  0.15692600  0.41567400  0.81091900  1
  C  C6  1  0.34307400  0.91567400  0.81091900  1
  C  C7  1  0.84307400  0.58432600  0.18908100  1
  C  C8  1  0.50000000  0.50000000  0.50000000  1
  C  C9  1  0.00000000  0.00000000  0.50000000  1
  C  C10  1  0.00000000  0.00000000  0.00000000  1
  C  C11  1  0.50000000  0.50000000  0.00000000  1
  Ni  Ni12  1  0.52144600  0.24556900  0.58062700  1
  Ni  Ni13  1  0.63675800  0.48762900  0.39465700  1
  Ni  Ni14  1  0.13675800  0.01237100  0.60534300  1
  Ni  Ni15  1  0.36324200  0.51237100  0.60534300  1
  Ni  Ni16  1  0.86324200  0.98762900  0.39465700  1
  Ni  Ni17  1  0.02144600  0.25443100  0.41937300  1
  Ni  Ni18  1  0.47855400  0.75443100  0.41937300  1
  Ni  Ni19  1  0.97855400  0.74556900  0.58062700  1
  Ni  Ni20  1  0.93327400  0.23531500  0.00737600  1
  Ni  Ni21  1  0.43327400  0.26468500  0.99262400  1
  Ni  Ni22  1  0.06672600  0.76468500  0.99262400  1
  Ni  Ni23  1  0.56672600  0.73531500  0.00737600  1
  Ni  Ni24  1  0.37280800  0.56913300  0.10801400  1
  Ni  Ni25  1  0.87280800  0.93086700  0.89198600  1
  Ni  Ni26  1  0.62719200  0.43086700  0.89198600  1
  Ni  Ni27  1  0.12719200  0.06913300  0.10801400  1
  Cu  Cu28  1  0.89203600  0.69722000  0.62771800  1
  Cu  Cu29  1  0.39203600  0.80278000  0.37228200  1
  Cu  Cu30  1  0.10796400  0.30278000  0.37228200  1
  Cu  Cu31  1  0.60796400  0.19722000  0.62771800  1
  Cu  Cu32  1  0.78646800  0.06675000  0.43264900  1
  Cu  Cu33  1  0.28646800  0.43325000  0.56735100  1
  Cu  Cu34  1  0.21353200  0.93325000  0.56735100  1
  Cu  Cu35  1  0.64481300  0.40056500  0.29678700  1
  Cu  Cu36  1  0.71353200  0.56675000  0.43264900  1
  Cu  Cu37  1  0.85518700  0.90056500  0.29678700  1
  Cu  Cu38  1  0.35518700  0.59943500  0.70321300  1
  Cu  Cu39  1  0.14481300  0.09943500  0.70321300  1
  Cu  Cu40  1  0.32379700  0.70184500  0.06628200  1
  Cu  Cu41  1  0.82379700  0.79815500  0.93371800  1
  Cu  Cu42  1  0.67620300  0.29815500  0.93371800  1
  Cu  Cu43  1  0.17620300  0.20184500  0.06628200  1
  Cu  Cu44  1  0.34468700  0.47711600  0.21629500  1
  Cu  Cu45  1  0.84468700  0.02288400  0.78370500  1
  Cu  Cu46  1  0.65531300  0.52288400  0.78370500  1
  Cu  Cu47  1  0.15531300  0.97711600  0.21629500  1
  Cu  Cu48  1  0.54992000  0.85240500  0.91034700  1
  Cu  Cu49  1  0.04992000  0.64759500  0.08965300  1
  Cu  Cu50  1  0.45008000  0.14759500  0.08965300  1
  Cu  Cu51  1  0.95008000  0.35240500  0.91034700  1
  Cu  Cu52  1  0.62345800  0.76011700  0.10677100  1
  Cu  Cu53  1  0.12345800  0.73988300  0.89322900  1
  Cu  Cu54  1  0.37654200  0.23988300  0.89322900  1
  Cu  Cu55  1  0.87654200  0.26011700  0.10677100  1
  Cu  Cu56  1  0.05138800  0.64157000  0.58062500  1
  Cu  Cu57  1  0.55138800  0.85843000  0.41937500  1
  Cu  Cu58  1  0.94861200  0.35843000  0.41937500  1
  Cu  Cu59  1  0.44861200  0.14157000  0.58062500  1
