# generated using pymatgen
data_Cu3Ni5C32
_symmetry_space_group_name_H-M   'P 1'
_cell_length_a   7.82906864
_cell_length_b   7.82906864
_cell_length_c   7.84236712
_cell_angle_alpha   89.97837182
_cell_angle_beta   89.97837182
_cell_angle_gamma   90.01145711
_symmetry_Int_Tables_number   1
_chemical_formula_structural   Cu3Ni5C32
_chemical_formula_sum   'Cu3 Ni5 C32'
_cell_volume   480.69244872
_cell_formula_units_Z   1
loop_
 _symmetry_equiv_pos_site_id
 _symmetry_equiv_pos_as_xyz
  1  'x, y, z'
loop_
 _atom_site_type_symbol
 _atom_site_label
 _atom_site_symmetry_multiplicity
 _atom_site_fract_x
 _atom_site_fract_y
 _atom_site_fract_z
 _atom_site_occupancy
  C  C0  1  0.75170600  0.24837600  0.24549500  1
  C  C1  1  0.24884000  0.24884000  0.24581500  1
  C  C2  1  0.75154100  0.24825100  0.75454800  1
  C  C3  1  0.24821200  0.24821200  0.75481300  1
  C  C4  1  0.24837600  0.75170600  0.24549500  1
  C  C5  1  0.75118400  0.75118400  0.75424400  1
  C  C6  1  0.24825100  0.75154100  0.75454800  1
  C  C7  1  0.75205700  0.75205700  0.24458300  1
  Ni  Ni8  1  0.99959700  0.99959700  0.49954300  1
  Ni  Ni9  1  0.50042200  0.99956600  0.49960200  1
  Ni  Ni10  1  0.50044200  0.50044200  0.00049100  1
  Ni  Ni11  1  0.99956600  0.50042200  0.49960200  1
  Ni  Ni12  1  0.50041400  0.50041400  0.49961700  1
  Cu  Cu13  1  0.99972000  0.99972000  0.00028000  1
  Cu  Cu14  1  0.50035300  0.99971800  0.00030300  1
  Cu  Cu15  1  0.99971800  0.50035300  0.00030300  1
  C  C16  1  0.99989700  0.24494000  0.99984600  1
  C  C17  1  0.50017100  0.25761400  0.00018000  1
  C  C18  1  0.99984500  0.24987800  0.49979400  1
  C  C19  1  0.50019700  0.25016900  0.49977400  1
  C  C20  1  0.99804700  0.75513800  0.00219800  1
  C  C21  1  0.50175300  0.74258200  0.00179600  1
  C  C22  1  0.99835900  0.75010800  0.49837800  1
  C  C23  1  0.50151700  0.74983300  0.49850400  1
  C  C24  1  0.99821100  0.99821100  0.25038500  1
  C  C25  1  0.50162700  0.99821300  0.25781200  1
  C  C26  1  0.99970500  0.99970500  0.74942200  1
  C  C27  1  0.50016600  0.99985300  0.74213400  1
  C  C28  1  0.99821300  0.50162700  0.25781200  1
  C  C29  1  0.50158400  0.50158400  0.24854900  1
  C  C30  1  0.99985300  0.50016600  0.74213400  1
  C  C31  1  0.50019400  0.50019400  0.75153100  1
  C  C32  1  0.75513800  0.99804700  0.00219800  1
  C  C33  1  0.24494000  0.99989700  0.99984600  1
  C  C34  1  0.75010800  0.99835900  0.49837800  1
  C  C35  1  0.24987800  0.99984500  0.49979400  1
  C  C36  1  0.74258200  0.50175300  0.00179600  1
  C  C37  1  0.25761400  0.50017100  0.00018000  1
  C  C38  1  0.74983300  0.50151700  0.49850400  1
  C  C39  1  0.25016900  0.50019700  0.49977400  1
