# generated using pymatgen
data_Cu(NiC2)2
_symmetry_space_group_name_H-M   'P 1'
_cell_length_a   2.95133200
_cell_length_b   9.47097000
_cell_length_c   10.82969800
_cell_angle_alpha   90.00000000
_cell_angle_beta   90.00000000
_cell_angle_gamma   90.00000000
_symmetry_Int_Tables_number   1
_chemical_formula_structural   Cu(NiC2)2
_chemical_formula_sum   'Cu4 Ni8 C16'
_cell_volume   302.71146759
_cell_formula_units_Z   4
loop_
 _symmetry_equiv_pos_site_id
 _symmetry_equiv_pos_as_xyz
  1  'x, y, z'
loop_
 _atom_site_type_symbol
 _atom_site_label
 _atom_site_symmetry_multiplicity
 _atom_site_fract_x
 _atom_site_fract_y
 _atom_site_fract_z
 _atom_site_occupancy
  Ni  Ni0  1  0.75000000  0.41330500  0.59925900  1
  Ni  Ni1  1  0.25000000  0.08669500  0.09925900  1
  Ni  Ni2  1  0.75000000  0.91330500  0.90074100  1
  Ni  Ni3  1  0.25000000  0.58669500  0.40074100  1
  Ni  Ni4  1  0.25000000  0.56317000  0.87972000  1
  Ni  Ni5  1  0.75000000  0.43683000  0.12028000  1
  Ni  Ni6  1  0.25000000  0.06317000  0.62028000  1
  Ni  Ni7  1  0.75000000  0.93683000  0.37972000  1
  Cu  Cu8  1  0.25000000  0.25463000  0.86221100  1
  Cu  Cu9  1  0.75000000  0.74537000  0.13778900  1
  Cu  Cu10  1  0.25000000  0.75463000  0.63778900  1
  Cu  Cu11  1  0.75000000  0.24537000  0.36221100  1
  C  C12  1  0.75000000  0.91751600  0.57010200  1
  C  C13  1  0.25000000  0.08248400  0.42989800  1
  C  C14  1  0.75000000  0.41751600  0.92989800  1
  C  C15  1  0.25000000  0.58248400  0.07010200  1
  C  C16  1  0.75000000  0.03619900  0.21889200  1
  C  C17  1  0.25000000  0.96380100  0.78110800  1
  C  C18  1  0.75000000  0.53619900  0.28110800  1
  C  C19  1  0.25000000  0.46380100  0.71889200  1
  C  C20  1  0.75000000  0.61559300  0.53221900  1
  C  C21  1  0.25000000  0.38440700  0.46778100  1
  C  C22  1  0.75000000  0.11559300  0.96778100  1
  C  C23  1  0.25000000  0.88440700  0.03221900  1
  C  C24  1  0.25000000  0.79508400  0.36220300  1
  C  C25  1  0.75000000  0.20491600  0.63779700  1
  C  C26  1  0.75000000  0.70491600  0.86220300  1
  C  C27  1  0.25000000  0.29508400  0.13779700  1
