# generated using pymatgen
data_Cu11Ni3C2
_symmetry_space_group_name_H-M   'P 1'
_cell_length_a   8.38997872
_cell_length_b   8.38997872
_cell_length_c   8.38997866
_cell_angle_alpha   69.25954971
_cell_angle_beta   69.25954971
_cell_angle_gamma   69.25954673
_symmetry_Int_Tables_number   1
_chemical_formula_structural   Cu11Ni3C2
_chemical_formula_sum   'Cu22 Ni6 C4'
_cell_volume   498.54286405
_cell_formula_units_Z   2
loop_
 _symmetry_equiv_pos_site_id
 _symmetry_equiv_pos_as_xyz
  1  'x, y, z'
loop_
 _atom_site_type_symbol
 _atom_site_label
 _atom_site_symmetry_multiplicity
 _atom_site_fract_x
 _atom_site_fract_y
 _atom_site_fract_z
 _atom_site_occupancy
  C  C0  1  0.50000000  0.50000000  0.50000000  1
  C  C1  1  0.00000000  0.00000000  0.00000000  1
  C  C2  1  0.75000000  0.75000000  0.75000000  1
  C  C3  1  0.25000000  0.25000000  0.25000000  1
  Ni  Ni4  1  0.75000000  0.44340100  0.05659900  1
  Ni  Ni5  1  0.05659900  0.75000000  0.44340100  1
  Ni  Ni6  1  0.44340100  0.05659900  0.75000000  1
  Ni  Ni7  1  0.25000000  0.55659900  0.94340100  1
  Ni  Ni8  1  0.94340100  0.25000000  0.55659900  1
  Ni  Ni9  1  0.55659900  0.94340100  0.25000000  1
  Cu  Cu10  1  0.65572400  0.65572400  0.65572400  1
  Cu  Cu11  1  0.84427600  0.84427600  0.84427600  1
  Cu  Cu12  1  0.15572400  0.15572400  0.15572400  1
  Cu  Cu13  1  0.34427600  0.34427600  0.34427600  1
  Cu  Cu14  1  0.87439400  0.44362000  0.91181700  1
  Cu  Cu15  1  0.58818300  0.05638000  0.62560600  1
  Cu  Cu16  1  0.05638000  0.62560600  0.58818300  1
  Cu  Cu17  1  0.62560600  0.58818300  0.05638000  1
  Cu  Cu18  1  0.68542500  0.81457500  0.25000000  1
  Cu  Cu19  1  0.81457500  0.25000000  0.68542500  1
  Cu  Cu20  1  0.25000000  0.68542500  0.81457500  1
  Cu  Cu21  1  0.31457500  0.18542500  0.75000000  1
  Cu  Cu22  1  0.18542500  0.75000000  0.31457500  1
  Cu  Cu23  1  0.75000000  0.31457500  0.18542500  1
  Cu  Cu24  1  0.55638000  0.08818300  0.12560600  1
  Cu  Cu25  1  0.08818300  0.12560600  0.55638000  1
  Cu  Cu26  1  0.12560600  0.55638000  0.08818300  1
  Cu  Cu27  1  0.41181700  0.94362000  0.37439400  1
  Cu  Cu28  1  0.94362000  0.37439400  0.41181700  1
  Cu  Cu29  1  0.37439400  0.41181700  0.94362000  1
  Cu  Cu30  1  0.44362000  0.91181700  0.87439400  1
  Cu  Cu31  1  0.91181700  0.87439400  0.44362000  1
