# generated using pymatgen
data_CuNi3C16
_symmetry_space_group_name_H-M   'P 1'
_cell_length_a   8.22908998
_cell_length_b   8.22908998
_cell_length_c   11.18278131
_cell_angle_alpha   68.44780871
_cell_angle_beta   68.44780871
_cell_angle_gamma   60.67510476
_symmetry_Int_Tables_number   1
_chemical_formula_structural   CuNi3C16
_chemical_formula_sum   'Cu2 Ni6 C32'
_cell_volume   597.44393156
_cell_formula_units_Z   2
loop_
 _symmetry_equiv_pos_site_id
 _symmetry_equiv_pos_as_xyz
  1  'x, y, z'
loop_
 _atom_site_type_symbol
 _atom_site_label
 _atom_site_symmetry_multiplicity
 _atom_site_fract_x
 _atom_site_fract_y
 _atom_site_fract_z
 _atom_site_occupancy
  Ni  Ni0  1  0.45265500  0.48830100  0.53979800  1
  Ni  Ni1  1  0.48830100  0.45265500  0.03979800  1
  Ni  Ni2  1  0.67573900  0.95103500  0.53809500  1
  Ni  Ni3  1  0.95103500  0.67573900  0.03809500  1
  Ni  Ni4  1  0.99532900  0.17614500  0.53814800  1
  Ni  Ni5  1  0.17614500  0.99532900  0.03814800  1
  Cu  Cu6  1  0.95843400  0.45783300  0.78354000  1
  Cu  Cu7  1  0.45783300  0.95843400  0.28354000  1
  C  C8  1  0.30455900  0.80033900  0.75303300  1
  C  C9  1  0.80033900  0.30455900  0.25303300  1
  C  C10  1  0.07714000  0.57995600  0.42262000  1
  C  C11  1  0.57995600  0.07714000  0.92262000  1
  C  C12  1  0.24280200  0.74460000  0.93083400  1
  C  C13  1  0.74460000  0.24280200  0.43083400  1
  C  C14  1  0.56012100  0.72210600  0.69168700  1
  C  C15  1  0.72210600  0.56012100  0.19168700  1
  C  C16  1  0.19267200  0.05550700  0.68700100  1
  C  C17  1  0.05550700  0.19267200  0.18700100  1
  C  C18  1  0.22642800  0.68146800  0.69217000  1
  C  C19  1  0.68146800  0.22642800  0.19217000  1
  C  C20  1  0.27851300  0.64678400  0.37095900  1
  C  C21  1  0.64678400  0.27851300  0.87095900  1
  C  C22  1  0.14290500  0.36750300  0.37064700  1
  C  C23  1  0.36750300  0.14290500  0.87064700  1
  C  C24  1  0.86315900  0.77740100  0.37133000  1
  C  C25  1  0.77740100  0.86315900  0.87133000  1
  C  C26  1  0.02028400  0.52082400  0.59502200  1
  C  C27  1  0.52082400  0.02028400  0.09502200  1
  C  C28  1  0.69996800  0.63242700  0.88344500  1
  C  C29  1  0.63242700  0.69996800  0.38344500  1
  C  C30  1  0.13932100  0.44352600  0.88013300  1
  C  C31  1  0.44352600  0.13932100  0.38013300  1
  C  C32  1  0.93503700  0.20000900  0.88663200  1
  C  C33  1  0.20000900  0.93503700  0.38663200  1
  C  C34  1  0.41880700  0.18647000  0.64413300  1
  C  C35  1  0.18647000  0.41880700  0.14413300  1
  C  C36  1  0.69348600  0.39174800  0.64733600  1
  C  C37  1  0.39174800  0.69348600  0.14733600  1
  C  C38  1  0.89014800  0.92911100  0.64733600  1
  C  C39  1  0.92911100  0.89014800  0.14733600  1
