# generated using pymatgen
data_CuNiC2
_symmetry_space_group_name_H-M   'P 1'
_cell_length_a   5.76454200
_cell_length_b   9.84318000
_cell_length_c   12.94034800
_cell_angle_alpha   90.00000000
_cell_angle_beta   90.00000000
_cell_angle_gamma   90.00000000
_symmetry_Int_Tables_number   1
_chemical_formula_structural   CuNiC2
_chemical_formula_sum   'Cu16 Ni16 C32'
_cell_volume   734.25377935
_cell_formula_units_Z   16
loop_
 _symmetry_equiv_pos_site_id
 _symmetry_equiv_pos_as_xyz
  1  'x, y, z'
loop_
 _atom_site_type_symbol
 _atom_site_label
 _atom_site_symmetry_multiplicity
 _atom_site_fract_x
 _atom_site_fract_y
 _atom_site_fract_z
 _atom_site_occupancy
  Ni  Ni0  1  0.77834400  0.05716500  0.29046800  1
  Ni  Ni1  1  0.27834400  0.44283500  0.70953200  1
  Ni  Ni2  1  0.22165600  0.55716500  0.20953200  1
  Ni  Ni3  1  0.72165600  0.94283500  0.79046800  1
  Ni  Ni4  1  0.22165600  0.94283500  0.70953200  1
  Ni  Ni5  1  0.72165600  0.55716500  0.29046800  1
  Ni  Ni6  1  0.77834400  0.44283500  0.79046800  1
  Ni  Ni7  1  0.27834400  0.05716500  0.20953200  1
  Ni  Ni8  1  0.85858200  0.34453400  0.45937500  1
  Ni  Ni9  1  0.35858200  0.15546600  0.54062500  1
  Ni  Ni10  1  0.14141800  0.84453400  0.04062500  1
  Ni  Ni11  1  0.64141800  0.65546600  0.95937500  1
  Ni  Ni12  1  0.14141800  0.65546600  0.54062500  1
  Ni  Ni13  1  0.64141800  0.84453400  0.45937500  1
  Ni  Ni14  1  0.85858200  0.15546600  0.95937500  1
  Ni  Ni15  1  0.35858200  0.34453400  0.04062500  1
  Cu  Cu16  1  0.18341500  0.95187500  0.42275600  1
  Cu  Cu17  1  0.68341500  0.54812500  0.57724400  1
  Cu  Cu18  1  0.81658500  0.45187500  0.07724400  1
  Cu  Cu19  1  0.31658500  0.04812500  0.92275600  1
  Cu  Cu20  1  0.81658500  0.04812500  0.57724400  1
  Cu  Cu21  1  0.31658500  0.45187500  0.42275600  1
  Cu  Cu22  1  0.18341500  0.54812500  0.92275600  1
  Cu  Cu23  1  0.68341500  0.95187500  0.07724400  1
  Cu  Cu24  1  0.09908700  0.28112200  0.29650900  1
  Cu  Cu25  1  0.59908700  0.21887800  0.70349100  1
  Cu  Cu26  1  0.90091300  0.78112200  0.20349100  1
  Cu  Cu27  1  0.40091300  0.71887800  0.79650900  1
  Cu  Cu28  1  0.90091300  0.71887800  0.70349100  1
  Cu  Cu29  1  0.40091300  0.78112200  0.29650900  1
  Cu  Cu30  1  0.09908700  0.21887800  0.79650900  1
  Cu  Cu31  1  0.59908700  0.28112200  0.20349100  1
  C  C32  1  0.19977900  0.27621200  0.43687800  1
  C  C33  1  0.69977900  0.22378800  0.56312200  1
  C  C34  1  0.80022100  0.77621200  0.06312200  1
  C  C35  1  0.30022100  0.72378800  0.93687800  1
  C  C36  1  0.80022100  0.72378800  0.56312200  1
  C  C37  1  0.30022100  0.77621200  0.43687800  1
  C  C38  1  0.19977900  0.22378800  0.93687800  1
  C  C39  1  0.69977900  0.27621200  0.06312200  1
  C  C40  1  0.63357800  0.50213700  0.43495100  1
  C  C41  1  0.13357800  0.99786300  0.56504900  1
  C  C42  1  0.36642200  0.00213700  0.06504900  1
  C  C43  1  0.86642200  0.49786300  0.93495100  1
  C  C44  1  0.36642200  0.49786300  0.56504900  1
  C  C45  1  0.86642200  0.00213700  0.43495100  1
  C  C46  1  0.63357800  0.99786300  0.93495100  1
  C  C47  1  0.13357800  0.50213700  0.06504900  1
  C  C48  1  0.77154500  0.25865400  0.32568600  1
  C  C49  1  0.27154500  0.24134600  0.67431400  1
  C  C50  1  0.22845500  0.75865400  0.17431400  1
  C  C51  1  0.72845500  0.74134600  0.82568600  1
  C  C52  1  0.22845500  0.74134600  0.67431400  1
  C  C53  1  0.72845500  0.75865400  0.32568600  1
  C  C54  1  0.77154500  0.24134600  0.82568600  1
  C  C55  1  0.27154500  0.25865400  0.17431400  1
  C  C56  1  0.55289000  0.48569700  0.16309500  1
  C  C57  1  0.05289000  0.01430300  0.83690500  1
  C  C58  1  0.44711000  0.98569700  0.33690500  1
  C  C59  1  0.94711000  0.51430300  0.66309500  1
  C  C60  1  0.44711000  0.51430300  0.83690500  1
  C  C61  1  0.94711000  0.98569700  0.16309500  1
  C  C62  1  0.55289000  0.01430300  0.66309500  1
  C  C63  1  0.05289000  0.48569700  0.33690500  1
