# generated using pymatgen
data_Cu2Ni2C21
_symmetry_space_group_name_H-M   'P 1'
_cell_length_a   7.66002134
_cell_length_b   7.84334549
_cell_length_c   9.55072608
_cell_angle_alpha   89.33263817
_cell_angle_beta   88.75710907
_cell_angle_gamma   87.92525108
_symmetry_Int_Tables_number   1
_chemical_formula_structural   Cu2Ni2C21
_chemical_formula_sum   'Cu4 Ni4 C42'
_cell_volume   573.26451606
_cell_formula_units_Z   2
loop_
 _symmetry_equiv_pos_site_id
 _symmetry_equiv_pos_as_xyz
  1  'x, y, z'
loop_
 _atom_site_type_symbol
 _atom_site_label
 _atom_site_symmetry_multiplicity
 _atom_site_fract_x
 _atom_site_fract_y
 _atom_site_fract_z
 _atom_site_occupancy
  Ni  Ni0  1  0.50000000  0.00000000  0.50000000  1
  Ni  Ni1  1  0.00000000  0.50000000  0.00000000  1
  Ni  Ni2  1  0.49955700  0.49870200  0.25113000  1
  Ni  Ni3  1  0.50044300  0.50129800  0.74887000  1
  Cu  Cu4  1  0.72642200  0.61532500  0.48691000  1
  Cu  Cu5  1  0.27357800  0.38467500  0.51309000  1
  Cu  Cu6  1  0.37047400  0.71644100  0.01293200  1
  Cu  Cu7  1  0.62952600  0.28355900  0.98706800  1
  C  C8  1  0.89932800  0.67104900  0.47236600  1
  C  C9  1  0.10067200  0.32895100  0.52763400  1
  C  C10  1  0.28770500  0.88007600  0.02033500  1
  C  C11  1  0.71229500  0.11992400  0.97966500  1
  C  C12  1  0.52771300  0.88660100  0.77470500  1
  C  C13  1  0.47228700  0.11339900  0.22529500  1
  C  C14  1  0.53378900  0.09040900  0.76352900  1
  C  C15  1  0.46621100  0.90959100  0.23647100  1
  C  C16  1  0.83800500  0.07299700  0.39583800  1
  C  C17  1  0.16199500  0.92700300  0.60416200  1
  C  C18  1  0.72765300  0.24171600  0.43647600  1
  C  C19  1  0.27234700  0.75828400  0.56352400  1
  C  C20  1  0.89917400  0.42004400  0.26415500  1
  C  C21  1  0.10082600  0.57995600  0.73584500  1
  C  C22  1  0.10678600  0.40868800  0.25483300  1
  C  C23  1  0.89321400  0.59131200  0.74516700  1
  C  C24  1  0.74731500  0.73172300  0.10236400  1
  C  C25  1  0.25268500  0.26827700  0.89763600  1
  C  C26  1  0.93119000  0.81289000  0.14094500  1
  C  C27  1  0.06881000  0.18711000  0.85905500  1
  C  C28  1  0.59686900  0.76053400  0.45507200  1
  C  C29  1  0.40313100  0.23946600  0.54492800  1
  C  C30  1  0.71538000  0.54158300  0.63739300  1
  C  C31  1  0.28462000  0.45841700  0.36260700  1
  C  C32  1  0.70996500  0.47237300  0.37528400  1
  C  C33  1  0.29003500  0.52762700  0.62471600  1
  C  C34  1  0.23940700  0.57891900  0.04129200  1
  C  C35  1  0.76059300  0.42108100  0.95870800  1
  C  C36  1  0.45983900  0.70882800  0.86656100  1
  C  C37  1  0.54016100  0.29117200  0.13343900  1
  C  C38  1  0.50662400  0.71146600  0.13340900  1
  C  C39  1  0.49337600  0.28853400  0.86659100  1
  C  C40  1  0.56834600  0.98306700  0.71533300  1
  C  C41  1  0.43165400  0.01693300  0.28466700  1
  C  C42  1  0.74710300  0.12012700  0.46119900  1
  C  C43  1  0.25289700  0.87987300  0.53880100  1
  C  C44  1  0.99927200  0.37973100  0.20440300  1
  C  C45  1  0.00072800  0.62026900  0.79559700  1
  C  C46  1  0.87500900  0.72794300  0.08387100  1
  C  C47  1  0.12499100  0.27205700  0.91612900  1
  C  C48  1  0.99291400  0.98438000  0.26230000  1
  C  C49  1  0.00708600  0.01562000  0.73770000  1
