# generated using pymatgen
data_Cu2NiC4
_symmetry_space_group_name_H-M   'P 1'
_cell_length_a   3.94439365
_cell_length_b   3.94439365
_cell_length_c   6.73766845
_cell_angle_alpha   72.97960531
_cell_angle_beta   72.97960531
_cell_angle_gamma   60.00000591
_symmetry_Int_Tables_number   1
_chemical_formula_structural   Cu2NiC4
_chemical_formula_sum   'Cu2 Ni1 C4'
_cell_volume   85.43950157
_cell_formula_units_Z   1
loop_
 _symmetry_equiv_pos_site_id
 _symmetry_equiv_pos_as_xyz
  1  'x, y, z'
loop_
 _atom_site_type_symbol
 _atom_site_label
 _atom_site_symmetry_multiplicity
 _atom_site_fract_x
 _atom_site_fract_y
 _atom_site_fract_z
 _atom_site_occupancy
  Ni  Ni0  1  0.50000000  0.50000000  0.50000000  1
  Cu  Cu1  1  0.73169300  0.73169300  0.80492300  1
  Cu  Cu2  1  0.26830700  0.26830700  0.19507700  1
  C  C3  1  0.60722000  0.60722000  0.17834000  1
  C  C4  1  0.39278000  0.39278000  0.82166000  1
  C  C5  1  0.86174600  0.86174600  0.41476300  1
  C  C6  1  0.13825400  0.13825400  0.58523700  1
