# generated using pymatgen
data_Cu15(NiC)2
_symmetry_space_group_name_H-M   'P 1'
_cell_length_a   8.37196700
_cell_length_b   8.38334030
_cell_length_c   8.38334030
_cell_angle_alpha   119.96636472
_cell_angle_beta   90.00000000
_cell_angle_gamma   90.00000000
_symmetry_Int_Tables_number   1
_chemical_formula_structural   Cu15(NiC)2
_chemical_formula_sum   'Cu30 Ni4 C4'
_cell_volume   509.72909847
_cell_formula_units_Z   2
loop_
 _symmetry_equiv_pos_site_id
 _symmetry_equiv_pos_as_xyz
  1  'x, y, z'
loop_
 _atom_site_type_symbol
 _atom_site_label
 _atom_site_symmetry_multiplicity
 _atom_site_fract_x
 _atom_site_fract_y
 _atom_site_fract_z
 _atom_site_occupancy
  C  C0  1  0.75000000  0.99989000  0.00011000  1
  C  C1  1  0.25000000  0.00011000  0.99989000  1
  C  C2  1  0.25000000  0.66666100  0.33333900  1
  C  C3  1  0.75000000  0.33333900  0.66666100  1
  Ni  Ni4  1  0.60072100  0.66667000  0.33333000  1
  Ni  Ni5  1  0.39927900  0.33333000  0.66667000  1
  Ni  Ni6  1  0.10072100  0.33333000  0.66667000  1
  Ni  Ni7  1  0.89927900  0.66667000  0.33333000  1
  Cu  Cu8  1  0.50000000  0.50000000  0.00000000  1
  Cu  Cu9  1  0.50000000  0.50000000  0.50000000  1
  Cu  Cu10  1  0.50000000  0.00000000  0.50000000  1
  Cu  Cu11  1  0.00000000  0.50000000  0.00000000  1
  Cu  Cu12  1  0.00000000  0.50000000  0.50000000  1
  Cu  Cu13  1  0.00000000  0.00000000  0.50000000  1
  Cu  Cu14  1  0.75000000  0.66929700  0.02745100  1
  Cu  Cu15  1  0.75000000  0.35816500  0.33075900  1
  Cu  Cu16  1  0.75000000  0.97248600  0.64162400  1
  Cu  Cu17  1  0.75000000  0.35837600  0.02751400  1
  Cu  Cu18  1  0.75000000  0.97254900  0.33070300  1
  Cu  Cu19  1  0.75000000  0.66924100  0.64183500  1
  Cu  Cu20  1  0.25000000  0.33070300  0.97254900  1
  Cu  Cu21  1  0.25000000  0.64183500  0.66924100  1
  Cu  Cu22  1  0.25000000  0.02751400  0.35837600  1
  Cu  Cu23  1  0.25000000  0.64162400  0.97248600  1
  Cu  Cu24  1  0.25000000  0.02745100  0.66929700  1
  Cu  Cu25  1  0.25000000  0.33075900  0.35816500  1
  Cu  Cu26  1  0.48799500  0.83508100  0.67023400  1
  Cu  Cu27  1  0.48812800  0.83519900  0.16480100  1
  Cu  Cu28  1  0.48799500  0.32976600  0.16491900  1
  Cu  Cu29  1  0.51200500  0.16491900  0.32976600  1
  Cu  Cu30  1  0.51187200  0.16480100  0.83519900  1
  Cu  Cu31  1  0.51200500  0.67023400  0.83508100  1
  Cu  Cu32  1  0.98799500  0.16491900  0.32976600  1
  Cu  Cu33  1  0.98812800  0.16480100  0.83519900  1
  Cu  Cu34  1  0.98799500  0.67023400  0.83508100  1
  Cu  Cu35  1  0.01200500  0.83508100  0.67023400  1
  Cu  Cu36  1  0.01187200  0.83519900  0.16480100  1
  Cu  Cu37  1  0.01200500  0.32976600  0.16491900  1
