# generated using pymatgen
data_Cu21(Ni3C)2
_symmetry_space_group_name_H-M   'P 1'
_cell_length_a   13.38856300
_cell_length_b   7.31776100
_cell_length_c   18.44396993
_cell_angle_alpha   87.06856109
_cell_angle_beta   90.00000000
_cell_angle_gamma   90.00000000
_symmetry_Int_Tables_number   1
_chemical_formula_structural   Cu21(Ni3C)2
_chemical_formula_sum   'Cu84 Ni24 C8'
_cell_volume   1804.67051700
_cell_formula_units_Z   4
loop_
 _symmetry_equiv_pos_site_id
 _symmetry_equiv_pos_as_xyz
  1  'x, y, z'
loop_
 _atom_site_type_symbol
 _atom_site_label
 _atom_site_symmetry_multiplicity
 _atom_site_fract_x
 _atom_site_fract_y
 _atom_site_fract_z
 _atom_site_occupancy
  C  C0  1  0.74579000  0.93867800  0.50902700  1
  C  C1  1  0.24579000  0.06132200  0.99097300  1
  C  C2  1  0.25421000  0.06132200  0.49097300  1
  C  C3  1  0.75421000  0.93867800  0.00902700  1
  C  C4  1  0.13227100  0.70100400  0.75401700  1
  C  C5  1  0.63227100  0.29899600  0.74598300  1
  C  C6  1  0.86772900  0.29899600  0.24598300  1
  C  C7  1  0.36772900  0.70100400  0.25401700  1
  Ni  Ni8  1  0.19551200  0.55888100  0.59467400  1
  Ni  Ni9  1  0.69551200  0.44111900  0.90532600  1
  Ni  Ni10  1  0.80448800  0.44111900  0.40532600  1
  Ni  Ni11  1  0.30448800  0.55888100  0.09467400  1
  Ni  Ni12  1  0.02202900  0.78499900  0.59814700  1
  Ni  Ni13  1  0.52202900  0.21500100  0.90185300  1
  Ni  Ni14  1  0.97797100  0.21500100  0.40185300  1
  Ni  Ni15  1  0.47797100  0.78499900  0.09814700  1
  Ni  Ni16  1  0.26694300  0.06018000  0.76809400  1
  Ni  Ni17  1  0.76694300  0.93982000  0.73190600  1
  Ni  Ni18  1  0.73305700  0.93982000  0.23190600  1
  Ni  Ni19  1  0.23305700  0.06018000  0.26809400  1
  Ni  Ni20  1  0.35205700  0.73788100  0.83661100  1
  Ni  Ni21  1  0.85205700  0.26211900  0.66338900  1
  Ni  Ni22  1  0.64794300  0.26211900  0.16338900  1
  Ni  Ni23  1  0.14794300  0.73788100  0.33661100  1
  Ni  Ni24  1  0.01140400  0.78595400  0.90109900  1
  Ni  Ni25  1  0.51140400  0.21404600  0.59890100  1
  Ni  Ni26  1  0.98859600  0.21404600  0.09890100  1
  Ni  Ni27  1  0.48859600  0.78595400  0.40109900  1
  Ni  Ni28  1  0.04827500  0.39954400  0.87615900  1
  Ni  Ni29  1  0.54827500  0.60045600  0.62384100  1
  Ni  Ni30  1  0.95172500  0.60045600  0.12384100  1
  Ni  Ni31  1  0.45172500  0.39954400  0.37615900  1
  Cu  Cu32  1  0.02909800  0.76210900  0.67976600  1
  Cu  Cu33  1  0.52909800  0.23789100  0.82023400  1
  Cu  Cu34  1  0.97090200  0.23789100  0.32023400  1
  Cu  Cu35  1  0.47090200  0.76210900  0.17976600  1
  Cu  Cu36  1  0.19324300  0.56378000  0.67626100  1
  Cu  Cu37  1  0.69324300  0.43622000  0.82373900  1
  Cu  Cu38  1  0.80675700  0.43622000  0.32373900  1
  Cu  Cu39  1  0.30675700  0.56378000  0.17626100  1
  Cu  Cu40  1  0.92137400  0.76136000  0.57389500  1
  Cu  Cu41  1  0.42137400  0.23864000  0.92610500  1
  Cu  Cu42  1  0.07862600  0.23864000  0.42610500  1
  Cu  Cu43  1  0.57862600  0.76136000  0.07389500  1
  Cu  Cu44  1  0.07760800  0.59892800  0.57149800  1
  Cu  Cu45  1  0.57760800  0.40107200  0.92850200  1
  Cu  Cu46  1  0.92239200  0.40107200  0.42850200  1
  Cu  Cu47  1  0.42239200  0.59892800  0.07149800  1
  Cu  Cu48  1  0.07764700  0.94216900  0.57036600  1
  Cu  Cu49  1  0.57764700  0.05783100  0.92963400  1
  Cu  Cu50  1  0.92235300  0.05783100  0.42963400  1
  Cu  Cu51  1  0.42235300  0.94216900  0.07036600  1
  Cu  Cu52  1  0.25510500  0.70581100  0.56329300  1
  Cu  Cu53  1  0.75510500  0.29418900  0.93670700  1
  Cu  Cu54  1  0.74489500  0.29418900  0.43670700  1
  Cu  Cu55  1  0.24489500  0.70581100  0.06329300  1
  Cu  Cu56  1  0.25035200  0.66429500  0.81585300  1
  Cu  Cu57  1  0.75035200  0.33570500  0.68414700  1
  Cu  Cu58  1  0.74964800  0.33570500  0.18414700  1
  Cu  Cu59  1  0.24964800  0.66429500  0.31585300  1
  Cu  Cu60  1  0.19537400  0.93912700  0.72759200  1
  Cu  Cu61  1  0.69537400  0.06087300  0.77240800  1
  Cu  Cu62  1  0.80462600  0.06087300  0.27240800  1
  Cu  Cu63  1  0.30462600  0.93912700  0.22759200  1
  Cu  Cu64  1  0.22652900  0.09717800  0.83846500  1
  Cu  Cu65  1  0.72652900  0.90282200  0.66153500  1
  Cu  Cu66  1  0.77347100  0.90282200  0.16153500  1
  Cu  Cu67  1  0.27347100  0.09717800  0.33846500  1
  Cu  Cu68  1  0.36397300  0.92277900  0.78145800  1
  Cu  Cu69  1  0.86397300  0.07722100  0.71854200  1
  Cu  Cu70  1  0.63602700  0.07722100  0.21854200  1
  Cu  Cu71  1  0.13602700  0.92277900  0.28145800  1
  Cu  Cu72  1  0.34836200  0.79992200  0.90958700  1
  Cu  Cu73  1  0.84836200  0.20007800  0.59041300  1
  Cu  Cu74  1  0.65163800  0.20007800  0.09041300  1
  Cu  Cu75  1  0.15163800  0.79992200  0.40958700  1
  Cu  Cu76  1  0.21021400  0.37678700  0.57182000  1
  Cu  Cu77  1  0.71021400  0.62321300  0.92818000  1
  Cu  Cu78  1  0.78978600  0.62321300  0.42818000  1
  Cu  Cu79  1  0.28978600  0.37678700  0.07182000  1
  Cu  Cu80  1  0.30500300  0.20556000  0.72198900  1
  Cu  Cu81  1  0.80500300  0.79444000  0.77801100  1
  Cu  Cu82  1  0.69499700  0.79444000  0.27801100  1
  Cu  Cu83  1  0.19499700  0.20556000  0.22198900  1
  Cu  Cu84  1  0.43175100  0.62286000  0.81605200  1
  Cu  Cu85  1  0.93175100  0.37714000  0.68394800  1
  Cu  Cu86  1  0.56824900  0.37714000  0.18394800  1
  Cu  Cu87  1  0.06824900  0.62286000  0.31605200  1
  Cu  Cu88  1  0.08280600  0.47707600  0.80221400  1
  Cu  Cu89  1  0.58280600  0.52292400  0.69778600  1
  Cu  Cu90  1  0.91719400  0.52292400  0.19778600  1
  Cu  Cu91  1  0.41719400  0.47707600  0.30221400  1
  Cu  Cu92  1  0.97786300  0.56939400  0.90423700  1
  Cu  Cu93  1  0.47786300  0.43060600  0.59576300  1
  Cu  Cu94  1  0.02213700  0.43060600  0.09576300  1
  Cu  Cu95  1  0.52213700  0.56939400  0.40423700  1
  Cu  Cu96  1  0.04447900  0.82246500  0.82351700  1
  Cu  Cu97  1  0.54447900  0.17753500  0.67648300  1
  Cu  Cu98  1  0.95552100  0.17753500  0.17648300  1
  Cu  Cu99  1  0.45552100  0.82246500  0.32351700  1
  Cu  Cu100  1  0.91856600  0.87371500  0.91636100  1
  Cu  Cu101  1  0.41856600  0.12628500  0.58363900  1
  Cu  Cu102  1  0.08143400  0.12628500  0.08363900  1
  Cu  Cu103  1  0.58143400  0.87371500  0.41636100  1
  Cu  Cu104  1  0.09378600  0.80856700  0.95015700  1
  Cu  Cu105  1  0.59378600  0.19143300  0.54984300  1
  Cu  Cu106  1  0.90621400  0.19143300  0.04984300  1
  Cu  Cu107  1  0.40621400  0.80856700  0.45015700  1
  Cu  Cu108  1  0.97844500  0.25494900  0.86911100  1
  Cu  Cu109  1  0.47844500  0.74505100  0.63088900  1
  Cu  Cu110  1  0.02155500  0.74505100  0.13088900  1
  Cu  Cu111  1  0.52155500  0.25494900  0.36911100  1
  Cu  Cu112  1  0.13065900  0.37670400  0.92620700  1
  Cu  Cu113  1  0.63065900  0.62329600  0.57379300  1
  Cu  Cu114  1  0.86934100  0.62329600  0.07379300  1
  Cu  Cu115  1  0.36934100  0.37670400  0.42620700  1
