# generated using pymatgen
data_Cu2Ni4C21
_symmetry_space_group_name_H-M   'P 1'
_cell_length_a   7.06183900
_cell_length_b   7.09057273
_cell_length_c   10.16048470
_cell_angle_alpha   99.15444383
_cell_angle_beta   93.92285022
_cell_angle_gamma   110.92129932
_symmetry_Int_Tables_number   1
_chemical_formula_structural   Cu2Ni4C21
_chemical_formula_sum   'Cu2 Ni4 C21'
_cell_volume   464.82046414
_cell_formula_units_Z   1
loop_
 _symmetry_equiv_pos_site_id
 _symmetry_equiv_pos_as_xyz
  1  'x, y, z'
loop_
 _atom_site_type_symbol
 _atom_site_label
 _atom_site_symmetry_multiplicity
 _atom_site_fract_x
 _atom_site_fract_y
 _atom_site_fract_z
 _atom_site_occupancy
  Ni  Ni0  1  0.75771900  0.03866700  0.59994800  1
  Ni  Ni1  1  0.24228100  0.96133300  0.40005200  1
  Ni  Ni2  1  0.80852600  0.16352500  0.96271100  1
  Ni  Ni3  1  0.19147400  0.83647500  0.03728900  1
  Cu  Cu4  1  0.72747900  0.47931700  0.40077600  1
  Cu  Cu5  1  0.27252100  0.52068300  0.59922400  1
  C  C6  1  0.50000000  0.50000000  0.00000000  1
  C  C7  1  0.24121400  0.03642200  0.73723000  1
  C  C8  1  0.75878600  0.96357800  0.26277000  1
  C  C9  1  0.82920900  0.62374500  0.73504600  1
  C  C10  1  0.17079100  0.37625500  0.26495400  1
  C  C11  1  0.38848000  0.17219200  0.89644100  1
  C  C12  1  0.61152000  0.82780800  0.10355900  1
  C  C13  1  0.18650000  0.18956100  0.63364800  1
  C  C14  1  0.81350000  0.81043900  0.36635200  1
  C  C15  1  0.34692300  0.87297300  0.65067300  1
  C  C16  1  0.65307700  0.12702700  0.34932700  1
  C  C17  1  0.99932500  0.89063500  0.79295900  1
  C  C18  1  0.00067500  0.10936500  0.20704100  1
  C  C19  1  0.62823500  0.61816200  0.62007200  1
  C  C20  1  0.37176500  0.38183800  0.37992800  1
  C  C21  1  0.93304800  0.47606100  0.62924800  1
  C  C22  1  0.06695200  0.52393900  0.37075200  1
  C  C23  1  0.77321500  0.54405300  0.88900700  1
  C  C24  1  0.22678500  0.45594700  0.11099300  1
  C  C25  1  0.63883900  0.43072200  0.13869800  1
  C  C26  1  0.36116100  0.56927800  0.86130200  1
