# generated using pymatgen
data_Cu2Ni6C23
_symmetry_space_group_name_H-M   'P 1'
_cell_length_a   6.27482685
_cell_length_b   9.07964137
_cell_length_c   9.09698744
_cell_angle_alpha   98.97672492
_cell_angle_beta   90.00000000
_cell_angle_gamma   90.00000000
_symmetry_Int_Tables_number   1
_chemical_formula_structural   Cu2Ni6C23
_chemical_formula_sum   'Cu2 Ni6 C23'
_cell_volume   511.93623408
_cell_formula_units_Z   1
loop_
 _symmetry_equiv_pos_site_id
 _symmetry_equiv_pos_as_xyz
  1  'x, y, z'
loop_
 _atom_site_type_symbol
 _atom_site_label
 _atom_site_symmetry_multiplicity
 _atom_site_fract_x
 _atom_site_fract_y
 _atom_site_fract_z
 _atom_site_occupancy
  Ni  Ni0  1  0.25000000  0.83948802  0.60018527  1
  Ni  Ni1  1  0.75000000  0.63308242  0.86589523  1
  Ni  Ni2  1  0.25000000  0.39890621  0.16036435  1
  Ni  Ni3  1  0.75000000  0.07471427  0.92666024  1
  Ni  Ni4  1  0.25000000  0.89173869  0.10839123  1
  Ni  Ni5  1  0.75000000  0.13485472  0.36849952  1
  C  C6  1  0.75000000  0.29458301  0.70625839  1
  Cu  Cu7  1  0.25000000  0.27610897  0.72335698  1
  Cu  Cu8  1  0.75000000  0.71792297  0.28154987  1
  C  C9  1  0.25000000  0.47309008  0.52543524  1
  C  C10  1  0.75000000  0.52514790  0.47591085  1
  C  C11  1  0.25000000  0.56701865  0.43224583  1
  C  C12  1  0.75000000  0.66882618  0.52112893  1
  C  C13  1  0.25000000  0.51777259  0.66974857  1
  C  C14  1  0.25000000  0.32845906  0.48014273  1
  C  C15  1  0.75000000  0.43012349  0.57156693  1
  C  C16  1  0.75000000  0.47876524  0.33272725  1
  C  C17  1  0.49099432  0.15240378  0.15333498  1
  C  C18  1  0.25000000  0.12892873  0.87559168  1
  C  C19  1  0.75000000  0.88243305  0.11635365  1
  C  C20  1  0.48989538  0.84821454  0.84761322  1
  C  C21  1  0.54205288  0.13854507  0.64285464  1
  C  C22  1  0.50733940  0.63371751  0.11600765  1
  C  C23  1  0.95840097  0.35877875  0.86127703  1
  C  C24  1  0.54159903  0.35877875  0.86127703  1
  C  C25  1  0.95794712  0.13854507  0.64285464  1
  C  C26  1  0.99293925  0.88378672  0.36504912  1
  C  C27  1  0.01010462  0.84821454  0.84761322  1
  C  C28  1  0.00900568  0.15240378  0.15333498  1
  C  C29  1  0.99266060  0.63371751  0.11600765  1
  C  C30  1  0.50706075  0.88378672  0.36504912  1
