# generated using pymatgen
data_CuNiC5
_symmetry_space_group_name_H-M   'P 1'
_cell_length_a   7.73919900
_cell_length_b   8.85829642
_cell_length_c   11.46923410
_cell_angle_alpha   77.07347076
_cell_angle_beta   74.43542386
_cell_angle_gamma   69.43553059
_symmetry_Int_Tables_number   1
_chemical_formula_structural   CuNiC5
_chemical_formula_sum   'Cu6 Ni6 C30'
_cell_volume   701.84308771
_cell_formula_units_Z   6
loop_
 _symmetry_equiv_pos_site_id
 _symmetry_equiv_pos_as_xyz
  1  'x, y, z'
loop_
 _atom_site_type_symbol
 _atom_site_label
 _atom_site_symmetry_multiplicity
 _atom_site_fract_x
 _atom_site_fract_y
 _atom_site_fract_z
 _atom_site_occupancy
  Ni  Ni0  1  0.74048300  0.66401200  0.07903500  1
  Ni  Ni1  1  0.25951700  0.33598800  0.92096500  1
  Ni  Ni2  1  0.22398300  0.99928000  0.26619700  1
  Ni  Ni3  1  0.77601700  0.00072000  0.73380300  1
  Ni  Ni4  1  0.23098800  0.66411600  0.57004900  1
  Ni  Ni5  1  0.76901200  0.33588400  0.42995100  1
  Cu  Cu6  1  0.23886200  0.18038900  0.59434900  1
  Cu  Cu7  1  0.76113800  0.81961100  0.40565100  1
  Cu  Cu8  1  0.77176100  0.16127100  0.05330800  1
  Cu  Cu9  1  0.22823900  0.83872900  0.94669200  1
  Cu  Cu10  1  0.21639600  0.53396800  0.24242200  1
  Cu  Cu11  1  0.78360400  0.46603200  0.75757800  1
  C  C12  1  0.10728500  0.39490100  0.70394500  1
  C  C13  1  0.89271500  0.60509900  0.29605500  1
  C  C14  1  0.19770700  0.36903000  0.42761800  1
  C  C15  1  0.80229300  0.63097000  0.57238200  1
  C  C16  1  0.48759200  0.24262300  0.62125200  1
  C  C17  1  0.51240800  0.75737700  0.37874800  1
  C  C18  1  0.08890600  0.06408100  0.04254700  1
  C  C19  1  0.91109400  0.93591900  0.95745300  1
  C  C20  1  0.33850100  0.73401800  0.12368100  1
  C  C21  1  0.66149900  0.26598200  0.87631900  1
  C  C22  1  0.08006100  0.74022400  0.35865600  1
  C  C23  1  0.91993900  0.25977600  0.64134400  1
  C  C24  1  0.15397800  0.01118400  0.52216900  1
  C  C25  1  0.84602200  0.98881600  0.47783100  1
  C  C26  1  0.14987300  0.32645000  0.19536500  1
  C  C27  1  0.85012700  0.67355000  0.80463500  1
  C  C28  1  0.49152300  0.33905800  0.15303000  1
  C  C29  1  0.50847700  0.66094200  0.84697000  1
  C  C30  1  0.45516200  0.53631800  0.33474700  1
  C  C31  1  0.54483800  0.46368200  0.66525300  1
  C  C32  1  0.51518000  0.05206900  0.06621300  1
  C  C33  1  0.48482000  0.94793100  0.93378700  1
  C  C34  1  0.49476000  0.07532000  0.42199100  1
  C  C35  1  0.50524000  0.92468000  0.57800900  1
  C  C36  1  0.22153000  0.03125900  0.77855500  1
  C  C37  1  0.77847000  0.96874100  0.22144500  1
  C  C38  1  0.81047200  0.29695700  0.18946600  1
  C  C39  1  0.18952800  0.70304300  0.81053400  1
  C  C40  1  0.13343700  0.62245400  0.05676800  1
  C  C41  1  0.86656300  0.37754600  0.94323200  1
