# generated using pymatgen
data_CuNiC8
_symmetry_space_group_name_H-M   'P 1'
_cell_length_a   5.30593200
_cell_length_b   5.56098100
_cell_length_c   7.49695900
_cell_angle_alpha   90.00000000
_cell_angle_beta   90.00000000
_cell_angle_gamma   90.00000000
_symmetry_Int_Tables_number   1
_chemical_formula_structural   CuNiC8
_chemical_formula_sum   'Cu2 Ni2 C16'
_cell_volume   221.20667448
_cell_formula_units_Z   2
loop_
 _symmetry_equiv_pos_site_id
 _symmetry_equiv_pos_as_xyz
  1  'x, y, z'
loop_
 _atom_site_type_symbol
 _atom_site_label
 _atom_site_symmetry_multiplicity
 _atom_site_fract_x
 _atom_site_fract_y
 _atom_site_fract_z
 _atom_site_occupancy
  Ni  Ni0  1  0.48896400  0.19320300  0.00000000  1
  Ni  Ni1  1  0.98896400  0.80679700  0.50000000  1
  Cu  Cu2  1  0.51881300  0.32295300  0.50000000  1
  Cu  Cu3  1  0.01881300  0.67704700  0.00000000  1
  C  C4  1  0.50105200  0.75413300  0.75026100  1
  C  C5  1  0.50105200  0.75413300  0.24973900  1
  C  C6  1  0.00105200  0.24586700  0.74973900  1
  C  C7  1  0.00105200  0.24586700  0.25026100  1
  C  C8  1  0.79019400  0.54221100  0.29929100  1
  C  C9  1  0.19120600  0.93808700  0.80473100  1
  C  C10  1  0.19120600  0.93808700  0.19526900  1
  C  C11  1  0.79019400  0.54221100  0.70070900  1
  C  C12  1  0.29019400  0.45778900  0.20070900  1
  C  C13  1  0.69120600  0.06191300  0.69526900  1
  C  C14  1  0.69120600  0.06191300  0.30473100  1
  C  C15  1  0.29019400  0.45778900  0.79929100  1
  C  C16  1  0.61814100  0.77966500  0.00000000  1
  C  C17  1  0.40870200  0.70837700  0.50000000  1
  C  C18  1  0.11814100  0.22033500  0.50000000  1
  C  C19  1  0.90870200  0.29162300  0.00000000  1
