# generated using pymatgen
data_Cu2Ni
_symmetry_space_group_name_H-M   'P 1'
_cell_length_a   7.47207630
_cell_length_b   7.47207630
_cell_length_c   4.66974800
_cell_angle_alpha   90.00000000
_cell_angle_beta   90.00000000
_cell_angle_gamma   156.99083548
_symmetry_Int_Tables_number   1
_chemical_formula_structural   Cu2Ni
_chemical_formula_sum   'Cu4 Ni2'
_cell_volume   101.91020320
_cell_formula_units_Z   2
loop_
 _symmetry_equiv_pos_site_id
 _symmetry_equiv_pos_as_xyz
  1  'x, y, z'
loop_
 _atom_site_type_symbol
 _atom_site_label
 _atom_site_symmetry_multiplicity
 _atom_site_fract_x
 _atom_site_fract_y
 _atom_site_fract_z
 _atom_site_occupancy
  Ni  Ni0  1  0.11020300  0.88979700  0.25000000  1
  Ni  Ni1  1  0.88979700  0.11020300  0.75000000  1
  Cu  Cu2  1  0.44333400  0.55666600  0.25000000  1
  Cu  Cu3  1  0.77933900  0.22066100  0.25000000  1
  Cu  Cu4  1  0.22066100  0.77933900  0.75000000  1
  Cu  Cu5  1  0.55666600  0.44333400  0.75000000  1
