# generated using pymatgen
data_Cu12Ni3C4
_symmetry_space_group_name_H-M   'P 1'
_cell_length_a   11.08834100
_cell_length_b   7.15586100
_cell_length_c   17.24799682
_cell_angle_alpha   71.57623659
_cell_angle_beta   90.00000000
_cell_angle_gamma   90.00000000
_symmetry_Int_Tables_number   1
_chemical_formula_structural   Cu12Ni3C4
_chemical_formula_sum   'Cu48 Ni12 C16'
_cell_volume   1298.42431488
_cell_formula_units_Z   4
loop_
 _symmetry_equiv_pos_site_id
 _symmetry_equiv_pos_as_xyz
  1  'x, y, z'
loop_
 _atom_site_type_symbol
 _atom_site_label
 _atom_site_symmetry_multiplicity
 _atom_site_fract_x
 _atom_site_fract_y
 _atom_site_fract_z
 _atom_site_occupancy
  C  C0  1  0.65789500  0.90035700  0.47112800  1
  C  C1  1  0.84210500  0.90035700  0.97112800  1
  C  C2  1  0.34210500  0.09964300  0.52887200  1
  C  C3  1  0.15789500  0.09964300  0.02887200  1
  C  C4  1  0.83348300  0.11300100  0.38882600  1
  C  C5  1  0.66651700  0.11300100  0.88882600  1
  C  C6  1  0.16651700  0.88699900  0.61117400  1
  C  C7  1  0.33348300  0.88699900  0.11117400  1
  C  C8  1  0.55833200  0.18541000  0.30817900  1
  C  C9  1  0.94166800  0.18541000  0.80817900  1
  C  C10  1  0.44166800  0.81459000  0.69182100  1
  C  C11  1  0.05833200  0.81459000  0.19182100  1
  C  C12  1  0.66992300  0.53131300  0.53076700  1
  C  C13  1  0.83007700  0.53131300  0.03076700  1
  C  C14  1  0.33007700  0.46868700  0.46923300  1
  C  C15  1  0.16992300  0.46868700  0.96923300  1
  Ni  Ni16  1  0.94568300  0.26815100  0.27022400  1
  Ni  Ni17  1  0.55431700  0.26815100  0.77022400  1
  Ni  Ni18  1  0.05431700  0.73184900  0.72977600  1
  Ni  Ni19  1  0.44568300  0.73184900  0.22977600  1
  Ni  Ni20  1  0.93970100  0.26065300  0.57980400  1
  Ni  Ni21  1  0.56029900  0.26065300  0.07980400  1
  Ni  Ni22  1  0.06029900  0.73934700  0.42019600  1
  Ni  Ni23  1  0.43970100  0.73934700  0.92019600  1
  Ni  Ni24  1  0.77926200  0.63186000  0.27765200  1
  Ni  Ni25  1  0.72073800  0.63186000  0.77765200  1
  Ni  Ni26  1  0.22073800  0.36814000  0.72234800  1
  Ni  Ni27  1  0.27926200  0.36814000  0.22234800  1
  Cu  Cu28  1  0.53351600  0.07699400  0.51522500  1
  Cu  Cu29  1  0.96648400  0.07699400  0.01522500  1
  Cu  Cu30  1  0.46648400  0.92300600  0.48477500  1
  Cu  Cu31  1  0.03351600  0.92300600  0.98477500  1
  Cu  Cu32  1  0.64395400  0.62760200  0.45233700  1
  Cu  Cu33  1  0.85604600  0.62760200  0.95233700  1
  Cu  Cu34  1  0.35604600  0.37239800  0.54766300  1
  Cu  Cu35  1  0.14395400  0.37239800  0.04766300  1
  Cu  Cu36  1  0.57758200  0.34042000  0.31532300  1
  Cu  Cu37  1  0.92241800  0.34042000  0.81532300  1
  Cu  Cu38  1  0.42241800  0.65958000  0.68467700  1
  Cu  Cu39  1  0.07758200  0.65958000  0.18467700  1
  Cu  Cu40  1  0.69891600  0.67247100  0.56930800  1
  Cu  Cu41  1  0.80108400  0.67247100  0.06930800  1
  Cu  Cu42  1  0.30108400  0.32752900  0.43069200  1
  Cu  Cu43  1  0.19891600  0.32752900  0.93069200  1
  Cu  Cu44  1  0.92252700  0.24348100  0.34880000  1
  Cu  Cu45  1  0.57747300  0.24348100  0.84880000  1
  Cu  Cu46  1  0.07747300  0.75651900  0.65120000  1
  Cu  Cu47  1  0.42252700  0.75651900  0.15120000  1
  Cu  Cu48  1  0.54134100  0.02328100  0.30715200  1
  Cu  Cu49  1  0.95865900  0.02328100  0.80715200  1
  Cu  Cu50  1  0.45865900  0.97671900  0.69284800  1
  Cu  Cu51  1  0.04134100  0.97671900  0.19284800  1
  Cu  Cu52  1  0.80567300  0.11805700  0.45972600  1
  Cu  Cu53  1  0.69432700  0.11805700  0.95972600  1
  Cu  Cu54  1  0.19432700  0.88194300  0.54027400  1
  Cu  Cu55  1  0.30567300  0.88194300  0.04027400  1
  Cu  Cu56  1  0.78103000  0.99775800  0.35664500  1
  Cu  Cu57  1  0.71897000  0.99775800  0.85664500  1
  Cu  Cu58  1  0.21897000  0.00224200  0.64335500  1
  Cu  Cu59  1  0.28103000  0.00224200  0.14335500  1
  Cu  Cu60  1  0.56831600  0.32256800  0.13778500  1
  Cu  Cu61  1  0.93168400  0.32256800  0.63778500  1
  Cu  Cu62  1  0.43168400  0.67743200  0.86221500  1
  Cu  Cu63  1  0.06831600  0.67743200  0.36221500  1
  Cu  Cu64  1  0.66903100  0.35567100  0.56563700  1
  Cu  Cu65  1  0.83096900  0.35567100  0.06563700  1
  Cu  Cu66  1  0.33096900  0.64432900  0.43436300  1
  Cu  Cu67  1  0.16903100  0.64432900  0.93436300  1
  Cu  Cu68  1  0.70902600  0.70886700  0.22840800  1
  Cu  Cu69  1  0.79097400  0.70886700  0.72840800  1
  Cu  Cu70  1  0.29097400  0.29113300  0.77159200  1
  Cu  Cu71  1  0.20902600  0.29113300  0.27159200  1
  Cu  Cu72  1  0.51834500  0.71441100  0.97216000  1
  Cu  Cu73  1  0.98165500  0.71441100  0.47216000  1
  Cu  Cu74  1  0.48165500  0.28558900  0.02784000  1
  Cu  Cu75  1  0.01834500  0.28558900  0.52784000  1
