# generated using pymatgen
data_CuNiC3
_symmetry_space_group_name_H-M   'P 1'
_cell_length_a   5.11995600
_cell_length_b   5.49427290
_cell_length_c   8.87612392
_cell_angle_alpha   105.62937613
_cell_angle_beta   89.96055967
_cell_angle_gamma   117.53975767
_symmetry_Int_Tables_number   1
_chemical_formula_structural   CuNiC3
_chemical_formula_sum   'Cu4 Ni4 C12'
_cell_volume   210.95516884
_cell_formula_units_Z   4
loop_
 _symmetry_equiv_pos_site_id
 _symmetry_equiv_pos_as_xyz
  1  'x, y, z'
loop_
 _atom_site_type_symbol
 _atom_site_label
 _atom_site_symmetry_multiplicity
 _atom_site_fract_x
 _atom_site_fract_y
 _atom_site_fract_z
 _atom_site_occupancy
  Ni  Ni0  1  0.97462900  0.12019100  0.82635200  1
  Ni  Ni1  1  0.77561700  0.12813400  0.42564900  1
  Ni  Ni2  1  0.22438300  0.87186600  0.57435100  1
  Ni  Ni3  1  0.02537000  0.87980900  0.17364800  1
  Cu  Cu4  1  0.47551500  0.62875900  0.32331100  1
  Cu  Cu5  1  0.27323800  0.62212100  0.92394500  1
  Cu  Cu6  1  0.72676200  0.37787900  0.07605500  1
  Cu  Cu7  1  0.52448500  0.37124100  0.67668900  1
  C  C8  1  0.02555800  0.77242400  0.97341600  1
  C  C9  1  0.52900200  0.28189500  0.47283400  1
  C  C10  1  0.07446600  0.12773400  0.62552200  1
  C  C11  1  0.92553400  0.87226600  0.37447800  1
  C  C12  1  0.47511900  0.02739600  0.22302900  1
  C  C13  1  0.97162400  0.52512500  0.72418900  1
  C  C14  1  0.52488100  0.97260400  0.77697100  1
  C  C15  1  0.02837600  0.47487500  0.27581100  1
  C  C16  1  0.56908000  0.62376900  0.12353500  1
  C  C17  1  0.43092000  0.37623100  0.87646500  1
  C  C18  1  0.97444200  0.22757600  0.02658400  1
  C  C19  1  0.47099800  0.71810500  0.52716600  1
