# generated using pymatgen
data_Cu5Ni2C25
_symmetry_space_group_name_H-M   'P 1'
_cell_length_a   19.42377542
_cell_length_b   19.42377542
_cell_length_c   5.18320574
_cell_angle_alpha   88.18402685
_cell_angle_beta   88.18402685
_cell_angle_gamma   8.55029315
_symmetry_Int_Tables_number   1
_chemical_formula_structural   Cu5Ni2C25
_chemical_formula_sum   'Cu5 Ni2 C25'
_cell_volume   290.59730478
_cell_formula_units_Z   1
loop_
 _symmetry_equiv_pos_site_id
 _symmetry_equiv_pos_as_xyz
  1  'x, y, z'
loop_
 _atom_site_type_symbol
 _atom_site_label
 _atom_site_symmetry_multiplicity
 _atom_site_fract_x
 _atom_site_fract_y
 _atom_site_fract_z
 _atom_site_occupancy
  C  C0  1  0.43392900  0.43392900  0.20023600  1
  C  C1  1  0.31358200  0.31358200  0.55490900  1
  C  C2  1  0.18806300  0.18806300  0.93761700  1
  C  C3  1  0.06381500  0.06381500  0.30994600  1
  C  C4  1  0.93378800  0.93378800  0.69851900  1
  C  C5  1  0.81447200  0.81447200  0.05459100  1
  C  C6  1  0.68801000  0.68801000  0.43613200  1
  C  C7  1  0.56403400  0.56403400  0.80898500  1
  C  C8  1  0.87464600  0.87464600  0.37633400  1
  Ni  Ni9  1  0.99948200  0.99948200  0.00229300  1
  Ni  Ni10  1  0.49881200  0.49881200  0.50227500  1
  Cu  Cu11  1  0.75050900  0.75050900  0.74921800  1
  Cu  Cu12  1  0.62533600  0.62533600  0.12369500  1
  Cu  Cu13  1  0.37473300  0.37473300  0.87474400  1
  Cu  Cu14  1  0.25102800  0.25102800  0.24905900  1
  Cu  Cu15  1  0.12546500  0.12546500  0.62389300  1
  C  C16  1  0.47039800  0.47039800  0.87452200  1
  C  C17  1  0.34828200  0.34828200  0.16699200  1
  C  C18  1  0.22155600  0.22155600  0.59165500  1
  C  C19  1  0.09649300  0.09649300  0.96909900  1
  C  C20  1  0.96938100  0.96938100  0.37327300  1
  C  C21  1  0.84767300  0.84767300  0.73494700  1
  C  C22  1  0.72170500  0.72170500  0.09390800  1
  C  C23  1  0.59601400  0.59601400  0.46773600  1
  C  C24  1  0.40165100  0.40165100  0.58141900  1
  C  C25  1  0.27941600  0.27941600  0.90371800  1
  C  C26  1  0.15359100  0.15359100  0.27759900  1
  C  C27  1  0.02839900  0.02839900  0.62889300  1
  C  C28  1  0.90206400  0.90206400  0.01490500  1
  C  C29  1  0.78059000  0.78059000  0.40597300  1
  C  C30  1  0.65431400  0.65431400  0.78082300  1
  C  C31  1  0.52877000  0.52877000  0.13209100  1
