# generated using pymatgen
data_CuNi3C2
_symmetry_space_group_name_H-M   'P 1'
_cell_length_a   6.04081100
_cell_length_b   7.55605600
_cell_length_c   8.82252200
_cell_angle_alpha   90.00000000
_cell_angle_beta   90.00000000
_cell_angle_gamma   90.00000000
_symmetry_Int_Tables_number   1
_chemical_formula_structural   CuNi3C2
_chemical_formula_sum   'Cu4 Ni12 C8'
_cell_volume   402.70142465
_cell_formula_units_Z   4
loop_
 _symmetry_equiv_pos_site_id
 _symmetry_equiv_pos_as_xyz
  1  'x, y, z'
loop_
 _atom_site_type_symbol
 _atom_site_label
 _atom_site_symmetry_multiplicity
 _atom_site_fract_x
 _atom_site_fract_y
 _atom_site_fract_z
 _atom_site_occupancy
  C  C0  1  0.25000000  0.34161900  0.67748000  1
  C  C1  1  0.25000000  0.15838100  0.17748000  1
  C  C2  1  0.75000000  0.65838100  0.32252000  1
  C  C3  1  0.75000000  0.84161900  0.82252000  1
  C  C4  1  0.25000000  0.80047300  0.55569800  1
  C  C5  1  0.25000000  0.69952700  0.05569800  1
  C  C6  1  0.75000000  0.19952700  0.44430200  1
  C  C7  1  0.75000000  0.30047300  0.94430200  1
  Ni  Ni8  1  0.04719800  0.70216800  0.58380400  1
  Ni  Ni9  1  0.45280200  0.79783200  0.08380400  1
  Ni  Ni10  1  0.54719800  0.29783200  0.41619600  1
  Ni  Ni11  1  0.95280200  0.20216800  0.91619600  1
  Ni  Ni12  1  0.95280200  0.29783200  0.41619600  1
  Ni  Ni13  1  0.54719800  0.20216800  0.91619600  1
  Ni  Ni14  1  0.45280200  0.70216800  0.58380400  1
  Ni  Ni15  1  0.04719800  0.79783200  0.08380400  1
  Ni  Ni16  1  0.25000000  0.91202300  0.42286200  1
  Ni  Ni17  1  0.25000000  0.58797700  0.92286200  1
  Ni  Ni18  1  0.75000000  0.08797700  0.57713800  1
  Ni  Ni19  1  0.75000000  0.41202300  0.07713800  1
  Cu  Cu20  1  0.25000000  0.94580300  0.69689500  1
  Cu  Cu21  1  0.25000000  0.55419700  0.19689500  1
  Cu  Cu22  1  0.75000000  0.05419700  0.30310500  1
  Cu  Cu23  1  0.75000000  0.44580300  0.80310500  1
