# generated using pymatgen
data_Cu2Ni3C17
_symmetry_space_group_name_H-M   'P 1'
_cell_length_a   19.23317300
_cell_length_b   5.23722400
_cell_length_c   7.11281697
_cell_angle_alpha   85.85966956
_cell_angle_beta   90.00000000
_cell_angle_gamma   90.00000000
_symmetry_Int_Tables_number   1
_chemical_formula_structural   Cu2Ni3C17
_chemical_formula_sum   'Cu4 Ni6 C34'
_cell_volume   714.59310456
_cell_formula_units_Z   2
loop_
 _symmetry_equiv_pos_site_id
 _symmetry_equiv_pos_as_xyz
  1  'x, y, z'
loop_
 _atom_site_type_symbol
 _atom_site_label
 _atom_site_symmetry_multiplicity
 _atom_site_fract_x
 _atom_site_fract_y
 _atom_site_fract_z
 _atom_site_occupancy
  C  C0  1  0.57413500  0.78607800  0.24163600  1
  C  C1  1  0.07413500  0.21392200  0.75836400  1
  C  C2  1  0.42586500  0.21392200  0.75836400  1
  C  C3  1  0.92586500  0.78607800  0.24163600  1
  Ni  Ni4  1  0.25000000  0.03275400  0.66393700  1
  Ni  Ni5  1  0.75000000  0.96724600  0.33606300  1
  Ni  Ni6  1  0.55194600  0.68665100  0.76253000  1
  Ni  Ni7  1  0.05194600  0.31334900  0.23747000  1
  Ni  Ni8  1  0.44805400  0.31334900  0.23747000  1
  Ni  Ni9  1  0.94805400  0.68665100  0.76253000  1
  Cu  Cu10  1  0.69872300  0.31078200  0.80864000  1
  Cu  Cu11  1  0.19872300  0.68921800  0.19136000  1
  Cu  Cu12  1  0.30127700  0.68921800  0.19136000  1
  Cu  Cu13  1  0.80127700  0.31078200  0.80864000  1
  C  C14  1  0.25000000  0.34657300  0.58024700  1
  C  C15  1  0.75000000  0.65342700  0.41975300  1
  C  C16  1  0.25000000  0.84589200  0.25296100  1
  C  C17  1  0.75000000  0.15410800  0.74703900  1
  C  C18  1  0.32158000  0.97232900  0.79729700  1
  C  C19  1  0.82158000  0.02767100  0.20270300  1
  C  C20  1  0.67842000  0.02767100  0.20270300  1
  C  C21  1  0.17842000  0.97232900  0.79729700  1
  C  C22  1  0.47580200  0.82321000  0.80768300  1
  C  C23  1  0.97580200  0.17679000  0.19231700  1
  C  C24  1  0.52419800  0.17679000  0.19231700  1
  C  C25  1  0.02419800  0.82321000  0.80768300  1
  C  C26  1  0.46520600  0.61652200  0.28256200  1
  C  C27  1  0.96520600  0.38347800  0.71743800  1
  C  C28  1  0.53479400  0.38347800  0.71743800  1
  C  C29  1  0.03479400  0.61652200  0.28256200  1
  C  C30  1  0.59299800  0.83335600  0.57191000  1
  C  C31  1  0.09299800  0.16664400  0.42809000  1
  C  C32  1  0.40700200  0.16664400  0.42809000  1
  C  C33  1  0.90700200  0.83335600  0.57191000  1
  C  C34  1  0.60667000  0.70283600  0.94336700  1
  C  C35  1  0.10667000  0.29716400  0.05663300  1
  C  C36  1  0.39333000  0.29716400  0.05663300  1
  C  C37  1  0.89333000  0.70283600  0.94336700  1
  C  C38  1  0.63841100  0.48959400  0.43523400  1
  C  C39  1  0.13841100  0.51040600  0.56476600  1
  C  C40  1  0.36158900  0.51040600  0.56476600  1
  C  C41  1  0.86158900  0.48959400  0.43523400  1
  C  C42  1  0.25000000  0.53190800  0.13156600  1
  C  C43  1  0.75000000  0.46809200  0.86843400  1
