# generated using pymatgen
data_Cu3Ni2C5
_symmetry_space_group_name_H-M   'P 1'
_cell_length_a   7.78766700
_cell_length_b   9.38622400
_cell_length_c   9.74497700
_cell_angle_alpha   90.00000000
_cell_angle_beta   90.00000000
_cell_angle_gamma   90.00000000
_symmetry_Int_Tables_number   1
_chemical_formula_structural   Cu3Ni2C5
_chemical_formula_sum   'Cu12 Ni8 C20'
_cell_volume   712.32650711
_cell_formula_units_Z   4
loop_
 _symmetry_equiv_pos_site_id
 _symmetry_equiv_pos_as_xyz
  1  'x, y, z'
loop_
 _atom_site_type_symbol
 _atom_site_label
 _atom_site_symmetry_multiplicity
 _atom_site_fract_x
 _atom_site_fract_y
 _atom_site_fract_z
 _atom_site_occupancy
  Ni  Ni0  1  0.24676900  0.50000000  0.00000000  1
  Ni  Ni1  1  0.25323100  0.00000000  0.50000000  1
  Ni  Ni2  1  0.75323100  0.50000000  0.00000000  1
  Ni  Ni3  1  0.74676900  0.00000000  0.50000000  1
  Ni  Ni4  1  0.50000000  0.26397900  0.74982700  1
  Ni  Ni5  1  0.50000000  0.73602100  0.25017300  1
  Ni  Ni6  1  0.00000000  0.76397900  0.75017300  1
  Ni  Ni7  1  0.00000000  0.23602100  0.24982700  1
  Cu  Cu8  1  0.24961500  0.51668800  0.65081600  1
  Cu  Cu9  1  0.24961500  0.48331200  0.34918400  1
  Cu  Cu10  1  0.25038500  0.01668800  0.84918400  1
  Cu  Cu11  1  0.25038500  0.98331200  0.15081600  1
  Cu  Cu12  1  0.00000000  0.24024900  0.91506500  1
  Cu  Cu13  1  0.00000000  0.75975100  0.08493500  1
  Cu  Cu14  1  0.50000000  0.74024900  0.58493500  1
  Cu  Cu15  1  0.50000000  0.25975100  0.41506500  1
  Cu  Cu16  1  0.74961500  0.98331200  0.15081600  1
  Cu  Cu17  1  0.75038500  0.48331200  0.34918400  1
  Cu  Cu18  1  0.75038500  0.51668800  0.65081600  1
  Cu  Cu19  1  0.74961500  0.01668800  0.84918400  1
  C  C20  1  0.00000000  0.72731000  0.37892000  1
  C  C21  1  0.00000000  0.27269000  0.62108000  1
  C  C22  1  0.50000000  0.22731000  0.12108000  1
  C  C23  1  0.50000000  0.77269000  0.87892000  1
  C  C24  1  0.50000000  0.04829400  0.27766800  1
  C  C25  1  0.50000000  0.95170600  0.72233200  1
  C  C26  1  0.00000000  0.54829400  0.22233200  1
  C  C27  1  0.00000000  0.45170600  0.77766800  1
  C  C28  1  0.25488700  0.80160800  0.98416600  1
  C  C29  1  0.25488700  0.19839200  0.01583400  1
  C  C30  1  0.24511300  0.30160800  0.51583400  1
  C  C31  1  0.24511300  0.69839200  0.48416600  1
  C  C32  1  0.74511300  0.19839200  0.01583400  1
  C  C33  1  0.74511300  0.80160800  0.98416600  1
  C  C34  1  0.75488700  0.69839200  0.48416600  1
  C  C35  1  0.75488700  0.30160800  0.51583400  1
  C  C36  1  0.50000000  0.43887500  0.22361400  1
  C  C37  1  0.00000000  0.06112500  0.72361400  1
  C  C38  1  0.50000000  0.56112500  0.77638600  1
  C  C39  1  0.00000000  0.93887500  0.27638600  1
