# generated using pymatgen
data_Cu3(NiC9)2
_symmetry_space_group_name_H-M   'P 1'
_cell_length_a   3.81495400
_cell_length_b   3.81495400
_cell_length_c   22.33676578
_cell_angle_alpha   94.89881366
_cell_angle_beta   94.89881366
_cell_angle_gamma   90.00000000
_symmetry_Int_Tables_number   1
_chemical_formula_structural   Cu3(NiC9)2
_chemical_formula_sum   'Cu3 Ni2 C18'
_cell_volume   322.70706556
_cell_formula_units_Z   1
loop_
 _symmetry_equiv_pos_site_id
 _symmetry_equiv_pos_as_xyz
  1  'x, y, z'
loop_
 _atom_site_type_symbol
 _atom_site_label
 _atom_site_symmetry_multiplicity
 _atom_site_fract_x
 _atom_site_fract_y
 _atom_site_fract_z
 _atom_site_occupancy
  Ni  Ni0  1  0.84879100  0.84879100  0.69758300  1
  Ni  Ni1  1  0.15120900  0.15120900  0.30241700  1
  Cu  Cu2  1  0.00000000  0.00000000  0.00000000  1
  Cu  Cu3  1  0.92583100  0.92583100  0.85166200  1
  Cu  Cu4  1  0.07416900  0.07416900  0.14833800  1
  C  C5  1  0.46292400  0.46292400  0.92584800  1
  C  C6  1  0.53707600  0.53707600  0.07415200  1
  C  C7  1  0.39103700  0.39103700  0.78207400  1
  C  C8  1  0.60896300  0.60896300  0.21792600  1
  C  C9  1  0.28338300  0.28338300  0.56676600  1
  C  C10  1  0.71661700  0.71661700  0.43323400  1
  C  C11  1  0.96322000  0.46322000  0.92644000  1
  C  C12  1  0.46322000  0.96322000  0.92644000  1
  C  C13  1  0.03678000  0.53678000  0.07356000  1
  C  C14  1  0.53678000  0.03678000  0.07356000  1
  C  C15  1  0.88958400  0.38958400  0.77916800  1
  C  C16  1  0.38958400  0.88958400  0.77916800  1
  C  C17  1  0.11041600  0.61041600  0.22083200  1
  C  C18  1  0.61041600  0.11041600  0.22083200  1
  C  C19  1  0.32986100  0.32986100  0.65972200  1
  C  C20  1  0.67013900  0.67013900  0.34027800  1
  C  C21  1  0.21705300  0.21705300  0.43410600  1
  C  C22  1  0.78294700  0.78294700  0.56589400  1
