# generated using pymatgen
data_CuNi5C8
_symmetry_space_group_name_H-M   'P 1'
_cell_length_a   5.97311500
_cell_length_b   6.03675527
_cell_length_c   24.66371742
_cell_angle_alpha   96.50873011
_cell_angle_beta   89.95766884
_cell_angle_gamma   119.43259165
_symmetry_Int_Tables_number   1
_chemical_formula_structural   CuNi5C8
_chemical_formula_sum   'Cu5 Ni25 C40'
_cell_volume   768.00193393
_cell_formula_units_Z   5
loop_
 _symmetry_equiv_pos_site_id
 _symmetry_equiv_pos_as_xyz
  1  'x, y, z'
loop_
 _atom_site_type_symbol
 _atom_site_label
 _atom_site_symmetry_multiplicity
 _atom_site_fract_x
 _atom_site_fract_y
 _atom_site_fract_z
 _atom_site_occupancy
  Ni  Ni0  1  0.51264000  0.97902000  0.07367000  1
  Ni  Ni1  1  0.00000000  0.00000000  0.00000000  1
  Ni  Ni2  1  0.19791600  0.30192800  0.09893800  1
  Ni  Ni3  1  0.11298000  0.35792600  0.87295900  1
  Ni  Ni4  1  0.50000000  0.50000000  0.00000000  1
  Ni  Ni5  1  0.80208400  0.69807200  0.90106200  1
  Ni  Ni6  1  0.71453800  0.75445100  0.67358300  1
  Ni  Ni7  1  0.10056500  0.90476500  0.80029500  1
  Ni  Ni8  1  0.48736000  0.02098000  0.92633000  1
  Ni  Ni9  1  0.40204400  0.10357100  0.70028900  1
  Ni  Ni10  1  0.31212500  0.15064300  0.47312300  1
  Ni  Ni11  1  0.60230400  0.90359500  0.80060400  1
  Ni  Ni12  1  0.70121100  0.30165000  0.60044000  1
  Ni  Ni13  1  0.08871300  0.45290500  0.72722300  1
  Ni  Ni14  1  0.20084600  0.30222100  0.60025500  1
  Ni  Ni15  1  0.91128700  0.54709500  0.27277700  1
  Ni  Ni16  1  0.00000000  0.50000000  0.50000000  1
  Ni  Ni17  1  0.29878900  0.69835000  0.39956000  1
  Ni  Ni18  1  0.39769600  0.09640500  0.19939600  1
  Ni  Ni19  1  0.79915400  0.69777900  0.39974500  1
  Ni  Ni20  1  0.68787500  0.84935700  0.52687700  1
  Ni  Ni21  1  0.59795600  0.89642900  0.29971100  1
  Ni  Ni22  1  0.89943500  0.09523500  0.19970500  1
  Ni  Ni23  1  0.28546200  0.24554900  0.32641700  1
  Ni  Ni24  1  0.88702000  0.64207400  0.12704100  1
  Cu  Cu25  1  0.00000000  0.50000000  0.00000000  1
  Cu  Cu26  1  0.20157300  0.80268100  0.60014900  1
  Cu  Cu27  1  0.59911200  0.40321600  0.80000400  1
  Cu  Cu28  1  0.40088800  0.59678400  0.19999600  1
  Cu  Cu29  1  0.79842700  0.19731900  0.39985100  1
  C  C30  1  0.86117800  0.17069100  0.04694600  1
  C  C31  1  0.14193400  0.35780500  0.95360200  1
  C  C32  1  0.33378300  0.17056400  0.04632300  1
  C  C33  1  0.32706100  0.63360400  0.04697500  1
  C  C34  1  0.67293900  0.36639600  0.95302500  1
  C  C35  1  0.46422700  0.54453700  0.84740300  1
  C  C36  1  0.66621700  0.82943600  0.95367700  1
  C  C37  1  0.85806600  0.64219500  0.04639800  1
  C  C38  1  0.74141600  0.73281300  0.75434900  1
  C  C39  1  0.92768300  0.55040800  0.84651100  1
  C  C40  1  0.93103000  0.01727900  0.84624400  1
  C  C41  1  0.13882200  0.82930900  0.95305400  1
  C  C42  1  0.27245000  0.79435300  0.75370200  1
  C  C43  1  0.06637600  0.94547600  0.64778700  1
  C  C44  1  0.45878500  0.07159500  0.84555300  1
  C  C45  1  0.27110700  0.25805700  0.75427100  1
  C  C46  1  0.34212400  0.13126500  0.55399900  1
  C  C47  1  0.52846300  0.94549400  0.64679800  1
  C  C48  1  0.73614300  0.26236500  0.75285100  1
  C  C49  1  0.53048400  0.41357800  0.64743200  1
  C  C50  1  0.87122500  0.19075000  0.55297400  1
  C  C51  1  0.66345200  0.34105500  0.44698800  1
  C  C52  1  0.87487100  0.65883300  0.55377400  1
  C  C53  1  0.06058900  0.47388400  0.64644900  1
  C  C54  1  0.93941100  0.52611600  0.35355100  1
  C  C55  1  0.12512900  0.34116700  0.44622600  1
  C  C56  1  0.33654800  0.65894500  0.55301200  1
  C  C57  1  0.12877500  0.80925000  0.44702600  1
  C  C58  1  0.26385700  0.73763500  0.24714900  1
  C  C59  1  0.46951600  0.58642200  0.35256800  1
  C  C60  1  0.65787600  0.86873500  0.44600100  1
  C  C61  1  0.47153700  0.05450600  0.35320200  1
  C  C62  1  0.54121500  0.92840500  0.15444700  1
  C  C63  1  0.72889300  0.74194300  0.24572900  1
  C  C64  1  0.72755000  0.20564700  0.24629800  1
  C  C65  1  0.93362400  0.05452400  0.35221300  1
  C  C66  1  0.06897000  0.98272100  0.15375600  1
  C  C67  1  0.07231700  0.44959200  0.15348900  1
  C  C68  1  0.25858400  0.26718700  0.24565100  1
  C  C69  1  0.53577300  0.45546300  0.15259700  1
