# generated using pymatgen
data_Cu14Ni3C7
_symmetry_space_group_name_H-M   'P 1'
_cell_length_a   8.35376900
_cell_length_b   13.23829600
_cell_length_c   20.00483200
_cell_angle_alpha   90.00000000
_cell_angle_beta   90.00000000
_cell_angle_gamma   90.00000000
_symmetry_Int_Tables_number   1
_chemical_formula_structural   Cu14Ni3C7
_chemical_formula_sum   'Cu56 Ni12 C28'
_cell_volume   2212.32770402
_cell_formula_units_Z   4
loop_
 _symmetry_equiv_pos_site_id
 _symmetry_equiv_pos_as_xyz
  1  'x, y, z'
loop_
 _atom_site_type_symbol
 _atom_site_label
 _atom_site_symmetry_multiplicity
 _atom_site_fract_x
 _atom_site_fract_y
 _atom_site_fract_z
 _atom_site_occupancy
  C  C0  1  0.75135100  0.46245900  0.68660600  1
  C  C1  1  0.25135100  0.03754100  0.81339400  1
  C  C2  1  0.24864900  0.53754100  0.18660600  1
  C  C3  1  0.74864900  0.96245900  0.31339400  1
  C  C4  1  0.24864900  0.53754100  0.31339400  1
  C  C5  1  0.74864900  0.96245900  0.18660600  1
  C  C6  1  0.75135100  0.46245900  0.81339400  1
  C  C7  1  0.25135100  0.03754100  0.68660600  1
  C  C8  1  0.86741200  0.26054900  0.57605600  1
  C  C9  1  0.36741200  0.23945100  0.92394400  1
  C  C10  1  0.13258800  0.73945100  0.07605600  1
  C  C11  1  0.63258800  0.76054900  0.42394400  1
  C  C12  1  0.13258800  0.73945100  0.42394400  1
  C  C13  1  0.63258800  0.76054900  0.07605600  1
  C  C14  1  0.86741200  0.26054900  0.92394400  1
  C  C15  1  0.36741200  0.23945100  0.57605600  1
  C  C16  1  0.84938300  0.67331800  0.60122800  1
  C  C17  1  0.34938300  0.82668200  0.89877200  1
  C  C18  1  0.15061700  0.32668200  0.10122800  1
  C  C19  1  0.65061700  0.17331800  0.39877200  1
  C  C20  1  0.15061700  0.32668200  0.39877200  1
  C  C21  1  0.65061700  0.17331800  0.10122800  1
  C  C22  1  0.84938300  0.67331800  0.89877200  1
  C  C23  1  0.34938300  0.82668200  0.60122800  1
  C  C24  1  0.13103300  0.43118500  0.75000000  1
  C  C25  1  0.63103300  0.06881500  0.75000000  1
  C  C26  1  0.86896700  0.56881500  0.25000000  1
  C  C27  1  0.36896700  0.93118500  0.25000000  1
  Ni  Ni28  1  0.55684500  0.72462000  0.75000000  1
  Ni  Ni29  1  0.05684500  0.77538000  0.75000000  1
  Ni  Ni30  1  0.44315500  0.27538000  0.25000000  1
  Ni  Ni31  1  0.94315500  0.22462000  0.25000000  1
  Ni  Ni32  1  0.76901600  0.95962000  0.54708800  1
  Ni  Ni33  1  0.26901600  0.54038000  0.95291200  1
  Ni  Ni34  1  0.23098400  0.04038000  0.04708800  1
  Ni  Ni35  1  0.73098400  0.45962000  0.45291200  1
  Ni  Ni36  1  0.23098400  0.04038000  0.45291200  1
  Ni  Ni37  1  0.73098400  0.45962000  0.04708800  1
  Ni  Ni38  1  0.76901600  0.95962000  0.95291200  1
  Ni  Ni39  1  0.26901600  0.54038000  0.54708800  1
  Cu  Cu40  1  0.57540600  0.49999400  0.64783000  1
  Cu  Cu41  1  0.07540600  0.00000600  0.85217000  1
  Cu  Cu42  1  0.42459400  0.50000600  0.14783000  1
  Cu  Cu43  1  0.92459400  0.99999400  0.35217000  1
  Cu  Cu44  1  0.42459400  0.50000600  0.35217000  1
  Cu  Cu45  1  0.92459400  0.99999400  0.14783000  1
  Cu  Cu46  1  0.57540600  0.49999400  0.85217000  1
  Cu  Cu47  1  0.07540600  0.00000600  0.64783000  1
  Cu  Cu48  1  0.79353900  0.34970300  0.75000000  1
  Cu  Cu49  1  0.29353900  0.15029700  0.75000000  1
  Cu  Cu50  1  0.20646100  0.65029700  0.25000000  1
  Cu  Cu51  1  0.70646100  0.84970300  0.25000000  1
  Cu  Cu52  1  0.85259100  0.55793200  0.75000000  1
  Cu  Cu53  1  0.35259100  0.94206800  0.75000000  1
  Cu  Cu54  1  0.14740900  0.44206800  0.25000000  1
  Cu  Cu55  1  0.64740900  0.05793200  0.25000000  1
  Cu  Cu56  1  0.83993900  0.34152400  0.59799500  1
  Cu  Cu57  1  0.33993900  0.15847600  0.90200500  1
  Cu  Cu58  1  0.16006100  0.65847600  0.09799500  1
  Cu  Cu59  1  0.66006100  0.84152400  0.40200500  1
  Cu  Cu60  1  0.16006100  0.65847600  0.40200500  1
  Cu  Cu61  1  0.66006100  0.84152400  0.09799500  1
  Cu  Cu62  1  0.83993900  0.34152400  0.90200500  1
  Cu  Cu63  1  0.33993900  0.15847600  0.59799500  1
  Cu  Cu64  1  0.89979600  0.59240200  0.58763000  1
  Cu  Cu65  1  0.39979600  0.90759800  0.91237000  1
  Cu  Cu66  1  0.10020400  0.40759800  0.08763000  1
  Cu  Cu67  1  0.60020400  0.09240200  0.41237000  1
  Cu  Cu68  1  0.10020400  0.40759800  0.41237000  1
  Cu  Cu69  1  0.60020400  0.09240200  0.08763000  1
  Cu  Cu70  1  0.89979600  0.59240200  0.91237000  1
  Cu  Cu71  1  0.39979600  0.90759800  0.58763000  1
  Cu  Cu72  1  0.13047000  0.43083600  0.69117200  1
  Cu  Cu73  1  0.63047000  0.06916400  0.80882800  1
  Cu  Cu74  1  0.86953000  0.56916400  0.19117200  1
  Cu  Cu75  1  0.36953000  0.93083600  0.30882800  1
  Cu  Cu76  1  0.86953000  0.56916400  0.30882800  1
  Cu  Cu77  1  0.36953000  0.93083600  0.19117200  1
  Cu  Cu78  1  0.13047000  0.43083600  0.80882800  1
  Cu  Cu79  1  0.63047000  0.06916400  0.69117200  1
  Cu  Cu80  1  0.89518500  0.18143100  0.55272000  1
  Cu  Cu81  1  0.39518500  0.31856900  0.94728000  1
  Cu  Cu82  1  0.10481500  0.81856900  0.05272000  1
  Cu  Cu83  1  0.60481500  0.68143100  0.44728000  1
  Cu  Cu84  1  0.10481500  0.81856900  0.44728000  1
  Cu  Cu85  1  0.60481500  0.68143100  0.05272000  1
  Cu  Cu86  1  0.89518500  0.18143100  0.94728000  1
  Cu  Cu87  1  0.39518500  0.31856900  0.55272000  1
  Cu  Cu88  1  0.79975500  0.75385100  0.61370200  1
  Cu  Cu89  1  0.29975500  0.74614900  0.88629800  1
  Cu  Cu90  1  0.20024500  0.24614900  0.11370200  1
  Cu  Cu91  1  0.70024500  0.25385100  0.38629800  1
  Cu  Cu92  1  0.20024500  0.24614900  0.38629800  1
  Cu  Cu93  1  0.70024500  0.25385100  0.11370200  1
  Cu  Cu94  1  0.79975500  0.75385100  0.88629800  1
  Cu  Cu95  1  0.29975500  0.74614900  0.61370200  1
