# generated using pymatgen
data_CuNiC6
_symmetry_space_group_name_H-M   'P 1'
_cell_length_a   6.32787791
_cell_length_b   6.32787791
_cell_length_c   5.20036200
_cell_angle_alpha   90.00000000
_cell_angle_beta   90.00000000
_cell_angle_gamma   119.99999909
_symmetry_Int_Tables_number   1
_chemical_formula_structural   CuNiC6
_chemical_formula_sum   'Cu1 Ni1 C6'
_cell_volume   180.33515393
_cell_formula_units_Z   1
loop_
 _symmetry_equiv_pos_site_id
 _symmetry_equiv_pos_as_xyz
  1  'x, y, z'
loop_
 _atom_site_type_symbol
 _atom_site_label
 _atom_site_symmetry_multiplicity
 _atom_site_fract_x
 _atom_site_fract_y
 _atom_site_fract_z
 _atom_site_occupancy
  C  C0  1  0.66644000  0.83322000  0.50000000  1
  C  C1  1  0.16678000  0.83322000  0.50000000  1
  C  C2  1  0.16678000  0.33356000  0.50000000  1
  C  C3  1  0.33475400  0.16737700  0.00000000  1
  C  C4  1  0.83262300  0.16737700  0.00000000  1
  C  C5  1  0.83262300  0.66524600  0.00000000  1
  Ni  Ni6  1  0.66666700  0.33333300  0.50000000  1
  Cu  Cu7  1  0.33333300  0.66666700  0.00000000  1
