# generated using pymatgen
data_Cu2NiC9
_symmetry_space_group_name_H-M   'P 1'
_cell_length_a   5.33639500
_cell_length_b   9.82409600
_cell_length_c   15.45447700
_cell_angle_alpha   90.00000000
_cell_angle_beta   90.00000000
_cell_angle_gamma   90.00000000
_symmetry_Int_Tables_number   1
_chemical_formula_structural   Cu2NiC9
_chemical_formula_sum   'Cu8 Ni4 C36'
_cell_volume   810.20492503
_cell_formula_units_Z   4
loop_
 _symmetry_equiv_pos_site_id
 _symmetry_equiv_pos_as_xyz
  1  'x, y, z'
loop_
 _atom_site_type_symbol
 _atom_site_label
 _atom_site_symmetry_multiplicity
 _atom_site_fract_x
 _atom_site_fract_y
 _atom_site_fract_z
 _atom_site_occupancy
  C  C0  1  0.76252900  0.33826000  0.76116400  1
  C  C1  1  0.73747100  0.66174000  0.26116400  1
  C  C2  1  0.26252900  0.16174000  0.23883600  1
  C  C3  1  0.23747100  0.83826000  0.73883600  1
  Ni  Ni4  1  0.79357800  0.98722300  0.97883700  1
  Ni  Ni5  1  0.70642200  0.01277700  0.47883700  1
  Ni  Ni6  1  0.29357800  0.51277700  0.02116300  1
  Ni  Ni7  1  0.20642200  0.48722300  0.52116300  1
  Cu  Cu8  1  0.73686100  0.65490400  0.58376300  1
  Cu  Cu9  1  0.76313900  0.34509600  0.08376300  1
  Cu  Cu10  1  0.23686100  0.84509600  0.41623700  1
  Cu  Cu11  1  0.26313900  0.15490400  0.91623700  1
  Cu  Cu12  1  0.72803500  0.67201100  0.90243600  1
  Cu  Cu13  1  0.77196500  0.32798900  0.40243600  1
  Cu  Cu14  1  0.22803500  0.82798900  0.09756400  1
  Cu  Cu15  1  0.27196500  0.17201100  0.59756400  1
  C  C16  1  0.74027200  0.78123100  0.63280700  1
  C  C17  1  0.75972800  0.21876900  0.13280700  1
  C  C18  1  0.24027200  0.71876900  0.36719300  1
  C  C19  1  0.25972800  0.28123100  0.86719300  1
  C  C20  1  0.74252800  0.33150400  0.98965700  1
  C  C21  1  0.75747200  0.66849600  0.48965700  1
  C  C22  1  0.24252800  0.16849600  0.01034300  1
  C  C23  1  0.25747200  0.83150400  0.51034300  1
  C  C24  1  0.51043400  0.57057700  0.60934400  1
  C  C25  1  0.98956600  0.42942300  0.10934400  1
  C  C26  1  0.01043400  0.92942300  0.39065600  1
  C  C27  1  0.48956600  0.07057700  0.89065600  1
  C  C28  1  0.96789000  0.56858600  0.61624500  1
  C  C29  1  0.53211000  0.43141400  0.11624500  1
  C  C30  1  0.46789000  0.93141400  0.38375500  1
  C  C31  1  0.03211000  0.06858600  0.88375500  1
  C  C32  1  0.98639900  0.62421900  0.89237000  1
  C  C33  1  0.51360100  0.37578100  0.39237000  1
  C  C34  1  0.48639900  0.87578100  0.10763000  1
  C  C35  1  0.01360100  0.12421900  0.60763000  1
  C  C36  1  0.55398400  0.61998800  0.83796700  1
  C  C37  1  0.94601600  0.38001200  0.33796700  1
  C  C38  1  0.05398400  0.88001200  0.16203300  1
  C  C39  1  0.44601600  0.11998800  0.66203300  1
  C  C40  1  0.63657700  0.64470500  0.99349000  1
  C  C41  1  0.86342300  0.35529500  0.49349000  1
  C  C42  1  0.13657700  0.85529500  0.00651000  1
  C  C43  1  0.36342300  0.14470500  0.50651000  1
  C  C44  1  0.72468600  0.83063400  0.89141700  1
  C  C45  1  0.77531400  0.16936600  0.39141700  1
  C  C46  1  0.22468600  0.66936600  0.10858300  1
  C  C47  1  0.27531400  0.33063400  0.60858300  1
