# generated using pymatgen
data_Cu14NiC
_symmetry_space_group_name_H-M   'P 1'
_cell_length_a   9.87327300
_cell_length_b   11.09709400
_cell_length_c   13.50772700
_cell_angle_alpha   90.00000000
_cell_angle_beta   90.00000000
_cell_angle_gamma   90.00000000
_symmetry_Int_Tables_number   1
_chemical_formula_structural   Cu14NiC
_chemical_formula_sum   'Cu56 Ni4 C4'
_cell_volume   1479.96922664
_cell_formula_units_Z   4
loop_
 _symmetry_equiv_pos_site_id
 _symmetry_equiv_pos_as_xyz
  1  'x, y, z'
loop_
 _atom_site_type_symbol
 _atom_site_label
 _atom_site_symmetry_multiplicity
 _atom_site_fract_x
 _atom_site_fract_y
 _atom_site_fract_z
 _atom_site_occupancy
  Ni  Ni0  1  0.25000000  0.90261300  0.16669000  1
  Ni  Ni1  1  0.75000000  0.09738700  0.83331000  1
  Ni  Ni2  1  0.75000000  0.40261300  0.33331000  1
  Ni  Ni3  1  0.25000000  0.59738700  0.66669000  1
  C  C4  1  0.25000000  0.99641000  0.81659500  1
  C  C5  1  0.75000000  0.00359000  0.18340500  1
  C  C6  1  0.75000000  0.49641000  0.68340500  1
  C  C7  1  0.25000000  0.50359000  0.31659500  1
  Cu  Cu8  1  0.25000000  0.83772800  0.97453100  1
  Cu  Cu9  1  0.75000000  0.16227200  0.02546900  1
  Cu  Cu10  1  0.75000000  0.33772800  0.52546900  1
  Cu  Cu11  1  0.25000000  0.66227200  0.47453100  1
  Cu  Cu12  1  0.25000000  0.39218500  0.90887900  1
  Cu  Cu13  1  0.75000000  0.60781500  0.09112100  1
  Cu  Cu14  1  0.75000000  0.89218500  0.59112100  1
  Cu  Cu15  1  0.25000000  0.10781500  0.40887900  1
  Cu  Cu16  1  0.07611400  0.15253700  0.02343000  1
  Cu  Cu17  1  0.57611400  0.84746300  0.97657000  1
  Cu  Cu18  1  0.92388600  0.65253700  0.47657000  1
  Cu  Cu19  1  0.42388600  0.34746300  0.52343000  1
  Cu  Cu20  1  0.92388600  0.84746300  0.97657000  1
  Cu  Cu21  1  0.42388600  0.15253700  0.02343000  1
  Cu  Cu22  1  0.07611400  0.34746300  0.52343000  1
  Cu  Cu23  1  0.57611400  0.65253700  0.47657000  1
  Cu  Cu24  1  0.58224700  0.28896900  0.05664800  1
  Cu  Cu25  1  0.08224700  0.71103100  0.94335200  1
  Cu  Cu26  1  0.41775300  0.78896900  0.44335200  1
  Cu  Cu27  1  0.91775300  0.21103100  0.55664800  1
  Cu  Cu28  1  0.41775300  0.71103100  0.94335200  1
  Cu  Cu29  1  0.91775300  0.28896900  0.05664800  1
  Cu  Cu30  1  0.58224700  0.21103100  0.55664800  1
  Cu  Cu31  1  0.08224700  0.78896900  0.44335200  1
  Cu  Cu32  1  0.07736200  0.58967000  0.08154500  1
  Cu  Cu33  1  0.57736200  0.41033000  0.91845500  1
  Cu  Cu34  1  0.92263800  0.08967000  0.41845500  1
  Cu  Cu35  1  0.42263800  0.91033000  0.58154500  1
  Cu  Cu36  1  0.92263800  0.41033000  0.91845500  1
  Cu  Cu37  1  0.42263800  0.58967000  0.08154500  1
  Cu  Cu38  1  0.07736200  0.91033000  0.58154500  1
  Cu  Cu39  1  0.57736200  0.08967000  0.41845500  1
  Cu  Cu40  1  0.07638400  0.17665500  0.32071200  1
  Cu  Cu41  1  0.57638400  0.82334500  0.67928800  1
  Cu  Cu42  1  0.92361600  0.67665500  0.17928800  1
  Cu  Cu43  1  0.42361600  0.32334500  0.82071200  1
  Cu  Cu44  1  0.92361600  0.82334500  0.67928800  1
  Cu  Cu45  1  0.42361600  0.17665500  0.32071200  1
  Cu  Cu46  1  0.07638400  0.32334500  0.82071200  1
  Cu  Cu47  1  0.57638400  0.67665500  0.17928800  1
  Cu  Cu48  1  0.04510000  0.36588600  0.36293200  1
  Cu  Cu49  1  0.54510000  0.63411400  0.63706800  1
  Cu  Cu50  1  0.95490000  0.86588600  0.13706800  1
  Cu  Cu51  1  0.45490000  0.13411400  0.86293200  1
  Cu  Cu52  1  0.95490000  0.63411400  0.63706800  1
  Cu  Cu53  1  0.45490000  0.36588600  0.36293200  1
  Cu  Cu54  1  0.04510000  0.13411400  0.86293200  1
  Cu  Cu55  1  0.54510000  0.86588600  0.13706800  1
  Cu  Cu56  1  0.25000000  0.27711400  0.04583200  1
  Cu  Cu57  1  0.75000000  0.72288600  0.95416800  1
  Cu  Cu58  1  0.75000000  0.77711400  0.45416800  1
  Cu  Cu59  1  0.25000000  0.22288600  0.54583200  1
  Cu  Cu60  1  0.25000000  0.65623600  0.17144700  1
  Cu  Cu61  1  0.75000000  0.34376400  0.82855300  1
  Cu  Cu62  1  0.75000000  0.15623600  0.32855300  1
  Cu  Cu63  1  0.25000000  0.84376400  0.67144700  1
