# generated using pymatgen
data_Cu(NiC15)2
_symmetry_space_group_name_H-M   'P 1'
_cell_length_a   7.16255004
_cell_length_b   10.49861867
_cell_length_c   12.34099038
_cell_angle_alpha   93.09877036
_cell_angle_beta   90.94421370
_cell_angle_gamma   99.17336996
_symmetry_Int_Tables_number   1
_chemical_formula_structural   Cu(NiC15)2
_chemical_formula_sum   'Cu2 Ni4 C60'
_cell_volume   914.49919032
_cell_formula_units_Z   2
loop_
 _symmetry_equiv_pos_site_id
 _symmetry_equiv_pos_as_xyz
  1  'x, y, z'
loop_
 _atom_site_type_symbol
 _atom_site_label
 _atom_site_symmetry_multiplicity
 _atom_site_fract_x
 _atom_site_fract_y
 _atom_site_fract_z
 _atom_site_occupancy
  Ni  Ni0  1  0.92946400  0.65136700  0.99409900  1
  Ni  Ni1  1  0.38051200  0.53843700  0.75589700  1
  Ni  Ni2  1  0.36525400  0.32424100  0.19712300  1
  Ni  Ni3  1  0.84116700  0.42272000  0.44586800  1
  Cu  Cu4  1  0.50111500  0.99738600  0.98949200  1
  Cu  Cu5  1  0.72681800  0.96537200  0.21320300  1
  C  C6  1  0.02553900  0.10253600  0.69238400  1
  C  C7  1  0.52201000  0.10547300  0.68100100  1
  C  C8  1  0.20363700  0.85988000  0.51026100  1
  C  C9  1  0.70633600  0.85598200  0.52159800  1
  C  C10  1  0.01808200  0.99381500  0.00055500  1
  C  C11  1  0.21080900  0.97135200  0.20471700  1
  C  C12  1  0.54272100  0.29150700  0.91161400  1
  C  C13  1  0.11638600  0.29786300  0.92109900  1
  C  C14  1  0.98413200  0.11174100  0.40998100  1
  C  C15  1  0.53755500  0.10840300  0.40257700  1
  C  C16  1  0.24214900  0.85176500  0.79403000  1
  C  C17  1  0.69007700  0.85593000  0.79970200  1
  C  C18  1  0.11345900  0.66718800  0.28411500  1
  C  C19  1  0.68342700  0.67116100  0.28906400  1
  C  C20  1  0.31012100  0.29675700  0.51594700  1
  C  C21  1  0.83531800  0.26170800  0.09260000  1
  C  C22  1  0.39757300  0.70354800  0.11160200  1
  C  C23  1  0.38232200  0.58394100  0.45095100  1
  C  C24  1  0.91691700  0.66629400  0.68648500  1
  C  C25  1  0.84434300  0.37837800  0.75109600  1
  C  C26  1  0.82973100  0.30969400  0.22056100  1
  C  C27  1  0.10827500  0.25590700  0.44601400  1
  C  C28  1  0.47904000  0.25257700  0.43839200  1
  C  C29  1  0.35290000  0.45626400  0.52486700  1
  C  C30  1  0.05872500  0.06162900  0.29422100  1
  C  C31  1  0.70308700  0.81420300  0.34053100  1
  C  C32  1  0.38527600  0.66044900  0.98199000  1
  C  C33  1  0.82476100  0.10605600  0.07697600  1
  C  C34  1  0.03079800  0.33746800  0.03962900  1
  C  C35  1  0.65136900  0.30929600  0.03276000  1
  C  C36  1  0.58316800  0.65313500  0.16549100  1
  C  C37  1  0.20577900  0.62701400  0.16795700  1
  C  C38  1  0.88472000  0.61586000  0.27244400  1
  C  C39  1  0.55486600  0.56404400  0.36545200  1
  C  C40  1  0.18486900  0.57576400  0.37685900  1
  C  C41  1  0.76817900  0.14039000  0.38770300  1
  C  C42  1  0.03764300  0.38881100  0.82992500  1
  C  C43  1  0.05613500  0.14633600  0.88779400  1
  C  C44  1  0.34507100  0.35125700  0.93128900  1
  C  C45  1  0.16914200  0.90098500  0.91058000  1
  C  C46  1  0.78775400  0.90513100  0.91741000  1
  C  C47  1  0.74556800  0.71142500  0.76137000  1
  C  C48  1  0.23360100  0.94805400  0.69657100  1
  C  C49  1  0.73776200  0.95375500  0.70298400  1
  C  C50  1  0.80875100  0.24861700  0.67482100  1
  C  C51  1  0.30282800  0.23911100  0.63355700  1
  C  C52  1  0.92780200  0.72367600  0.56894600  1
  C  C53  1  0.42131800  0.71375500  0.52747500  1
  C  C54  1  0.48919800  0.01094400  0.49924600  1
  C  C55  1  0.11612900  0.70691200  0.75977100  1
  C  C56  1  0.45954200  0.82568200  0.81482100  1
  C  C57  1  0.87545800  0.50667100  0.67768600  1
  C  C58  1  0.44305100  0.05926400  0.28406900  1
  C  C59  1  0.98983600  0.01342600  0.50613300  1
  C  C60  1  0.51428800  0.14742600  0.86196300  1
  C  C61  1  0.99590200  0.88362200  0.11428100  1
  C  C62  1  0.23378300  0.08010500  0.08987500  1
  C  C63  1  0.66711200  0.39656800  0.83286100  1
  C  C64  1  0.17584800  0.81877500  0.31688300  1
  C  C65  1  0.40769200  0.85919500  0.12778400  1
