# generated using pymatgen
data_CuNiC9
_symmetry_space_group_name_H-M   'P 1'
_cell_length_a   8.86676900
_cell_length_b   9.40350329
_cell_length_c   11.16692586
_cell_angle_alpha   102.40826916
_cell_angle_beta   90.00000000
_cell_angle_gamma   90.00000000
_symmetry_Int_Tables_number   1
_chemical_formula_structural   CuNiC9
_chemical_formula_sum   'Cu6 Ni6 C54'
_cell_volume   909.33474063
_cell_formula_units_Z   6
loop_
 _symmetry_equiv_pos_site_id
 _symmetry_equiv_pos_as_xyz
  1  'x, y, z'
loop_
 _atom_site_type_symbol
 _atom_site_label
 _atom_site_symmetry_multiplicity
 _atom_site_fract_x
 _atom_site_fract_y
 _atom_site_fract_z
 _atom_site_occupancy
  Ni  Ni0  1  0.42497000  0.15428700  0.57870300  1
  Ni  Ni1  1  0.92531700  0.50000000  0.75000000  1
  Ni  Ni2  1  0.42497000  0.84571300  0.92129700  1
  Ni  Ni3  1  0.07468300  0.50000000  0.25000000  1
  Ni  Ni4  1  0.57503000  0.84571300  0.42129700  1
  Ni  Ni5  1  0.57503000  0.15428700  0.07870300  1
  Cu  Cu6  1  0.92953400  0.81558200  0.40945300  1
  Cu  Cu7  1  0.07046600  0.18441800  0.59054700  1
  Cu  Cu8  1  0.43670900  0.50000000  0.25000000  1
  Cu  Cu9  1  0.92953400  0.18441800  0.09054700  1
  Cu  Cu10  1  0.56329100  0.50000000  0.75000000  1
  Cu  Cu11  1  0.07046600  0.81558200  0.90945300  1
  C  C12  1  0.24220200  0.20158800  0.29321500  1
  C  C13  1  0.75557800  0.12311600  0.37252300  1
  C  C14  1  0.24442200  0.12311600  0.87252300  1
  C  C15  1  0.75779800  0.20158800  0.79321500  1
  C  C16  1  0.26384000  0.53473200  0.95929300  1
  C  C17  1  0.75557800  0.87688400  0.12747700  1
  C  C18  1  0.73616000  0.53473200  0.45929300  1
  C  C19  1  0.24442200  0.87688400  0.62747700  1
  C  C20  1  0.26384000  0.46526800  0.54070700  1
  C  C21  1  0.73616000  0.46526800  0.04070700  1
  C  C22  1  0.75779800  0.79841200  0.70678500  1
  C  C23  1  0.24220200  0.79841200  0.20678500  1
  C  C24  1  0.75334400  0.21997200  0.97126500  1
  C  C25  1  0.76020000  0.89152600  0.31045300  1
  C  C26  1  0.81190100  0.00000000  0.75000000  1
  C  C27  1  0.91517900  0.45239100  0.11010000  1
  C  C28  1  0.42270400  0.91786200  0.55584200  1
  C  C29  1  0.92256100  0.27303100  0.71829900  1
  C  C30  1  0.29370600  0.33893200  0.91377800  1
  C  C31  1  0.08482100  0.45239100  0.61010000  1
  C  C32  1  0.73628200  0.44524400  0.86568800  1
  C  C33  1  0.42270400  0.08213800  0.94415800  1
  C  C34  1  0.73628200  0.55475600  0.63431200  1
  C  C35  1  0.42070100  0.59958400  0.88024900  1
  C  C36  1  0.92917000  0.86455800  0.04748600  1
  C  C37  1  0.07743900  0.27303100  0.21829900  1
  C  C38  1  0.70629400  0.66106800  0.08622200  1
  C  C39  1  0.29370600  0.66106800  0.58622200  1
  C  C40  1  0.92256100  0.72696900  0.78170100  1
  C  C41  1  0.57729600  0.08213800  0.44415800  1
  C  C42  1  0.24665600  0.21997200  0.47126500  1
  C  C43  1  0.57929900  0.40041600  0.11975100  1
  C  C44  1  0.41702100  0.80288500  0.28594600  1
  C  C45  1  0.26371800  0.55475600  0.13431200  1
  C  C46  1  0.07083000  0.86455800  0.54748600  1
  C  C47  1  0.26371800  0.44524400  0.36568800  1
  C  C48  1  0.91517900  0.54760900  0.38990000  1
  C  C49  1  0.57929900  0.59958400  0.38024900  1
  C  C50  1  0.08482100  0.54760900  0.88990000  1
  C  C51  1  0.58297900  0.80288500  0.78594600  1
  C  C52  1  0.58297900  0.19711500  0.71405400  1
  C  C53  1  0.07083000  0.13544200  0.95251400  1
  C  C54  1  0.07743900  0.72696900  0.28170100  1
  C  C55  1  0.75334400  0.78002700  0.52873500  1
  C  C56  1  0.18809900  0.00000000  0.25000000  1
  C  C57  1  0.23980000  0.89152600  0.81045300  1
  C  C58  1  0.57729600  0.91786200  0.05584200  1
  C  C59  1  0.92917000  0.13544200  0.45251400  1
  C  C60  1  0.24665600  0.78002700  0.02873500  1
  C  C61  1  0.76020000  0.10847400  0.18954700  1
  C  C62  1  0.42070100  0.40041600  0.61975100  1
  C  C63  1  0.70629400  0.33893200  0.41377800  1
  C  C64  1  0.23980000  0.10847400  0.68954700  1
  C  C65  1  0.41702100  0.19711500  0.21405400  1
