# generated using pymatgen
data_Cu8Ni2C5
_symmetry_space_group_name_H-M   'P 1'
_cell_length_a   13.51106937
_cell_length_b   13.51106937
_cell_length_c   12.42941200
_cell_angle_alpha   90.00000000
_cell_angle_beta   90.00000000
_cell_angle_gamma   123.96938313
_symmetry_Int_Tables_number   1
_chemical_formula_structural   Cu8Ni2C5
_chemical_formula_sum   'Cu32 Ni8 C20'
_cell_volume   1881.74464819
_cell_formula_units_Z   4
loop_
 _symmetry_equiv_pos_site_id
 _symmetry_equiv_pos_as_xyz
  1  'x, y, z'
loop_
 _atom_site_type_symbol
 _atom_site_label
 _atom_site_symmetry_multiplicity
 _atom_site_fract_x
 _atom_site_fract_y
 _atom_site_fract_z
 _atom_site_occupancy
  C  C0  1  0.09697100  0.89680100  0.34340900  1
  C  C1  1  0.10319900  0.90302900  0.65659100  1
  C  C2  1  0.60319900  0.40302900  0.84340900  1
  C  C3  1  0.59697100  0.39680100  0.15659100  1
  C  C4  1  0.90302900  0.10319900  0.65659100  1
  C  C5  1  0.89680100  0.09697100  0.34340900  1
  C  C6  1  0.39680100  0.59697100  0.15659100  1
  C  C7  1  0.40302900  0.60319900  0.84340900  1
  C  C8  1  0.93854000  0.74485500  0.00484800  1
  C  C9  1  0.25514500  0.06146000  0.99515200  1
  C  C10  1  0.75514500  0.56146000  0.50484800  1
  C  C11  1  0.43854000  0.24485500  0.49515200  1
  C  C12  1  0.06146000  0.25514500  0.99515200  1
  C  C13  1  0.74485500  0.93854000  0.00484800  1
  C  C14  1  0.24485500  0.43854000  0.49515200  1
  C  C15  1  0.56146000  0.75514500  0.50484800  1
  C  C16  1  0.99524700  0.49524700  0.25000000  1
  C  C17  1  0.50475300  0.00475300  0.75000000  1
  C  C18  1  0.00475300  0.50475300  0.75000000  1
  C  C19  1  0.49524700  0.99524700  0.25000000  1
  Ni  Ni20  1  0.68627300  0.68627300  0.23010200  1
  Ni  Ni21  1  0.31372700  0.31372700  0.76989800  1
  Ni  Ni22  1  0.81372700  0.81372700  0.73010200  1
  Ni  Ni23  1  0.18627300  0.18627300  0.26989800  1
  Ni  Ni24  1  0.25014300  0.74985700  0.00000000  1
  Ni  Ni25  1  0.75014300  0.24985700  0.50000000  1
  Ni  Ni26  1  0.74985700  0.25014300  0.00000000  1
  Ni  Ni27  1  0.24985700  0.75014300  0.50000000  1
  Cu  Cu28  1  0.52392200  0.52392200  0.34814300  1
  Cu  Cu29  1  0.47607800  0.47607800  0.65185700  1
  Cu  Cu30  1  0.97607800  0.97607800  0.84814300  1
  Cu  Cu31  1  0.02392200  0.02392200  0.15185700  1
  Cu  Cu32  1  0.18581300  0.81283400  0.15149500  1
  Cu  Cu33  1  0.18716600  0.81418700  0.84850500  1
  Cu  Cu34  1  0.68716600  0.31418700  0.65149500  1
  Cu  Cu35  1  0.68581300  0.31283400  0.34850500  1
  Cu  Cu36  1  0.81418700  0.18716600  0.84850500  1
  Cu  Cu37  1  0.81283400  0.18581300  0.15149500  1
  Cu  Cu38  1  0.31283400  0.68581300  0.34850500  1
  Cu  Cu39  1  0.31418700  0.68716600  0.65149500  1
  Cu  Cu40  1  0.83804000  0.46379400  0.00176300  1
  Cu  Cu41  1  0.53620600  0.16196000  0.99823700  1
  Cu  Cu42  1  0.03620600  0.66196000  0.50176300  1
  Cu  Cu43  1  0.33804000  0.96379400  0.49823700  1
  Cu  Cu44  1  0.16196000  0.53620600  0.99823700  1
  Cu  Cu45  1  0.46379400  0.83804000  0.00176300  1
  Cu  Cu46  1  0.96379400  0.33804000  0.49823700  1
  Cu  Cu47  1  0.66196000  0.03620600  0.50176300  1
  Cu  Cu48  1  0.84783600  0.66232100  0.25754500  1
  Cu  Cu49  1  0.33767900  0.15216400  0.74245500  1
  Cu  Cu50  1  0.83767900  0.65216400  0.75754500  1
  Cu  Cu51  1  0.34783600  0.16232100  0.24245500  1
  Cu  Cu52  1  0.15216400  0.33767900  0.74245500  1
  Cu  Cu53  1  0.66232100  0.84783600  0.25754500  1
  Cu  Cu54  1  0.16232100  0.34783600  0.24245500  1
  Cu  Cu55  1  0.65216400  0.83767900  0.75754500  1
  Cu  Cu56  1  0.64609700  0.64609700  0.03218000  1
  Cu  Cu57  1  0.35390300  0.35390300  0.96782000  1
  Cu  Cu58  1  0.85390300  0.85390300  0.53218000  1
  Cu  Cu59  1  0.14609700  0.14609700  0.46782000  1
