# generated using pymatgen
data_CuNiC5
_symmetry_space_group_name_H-M   'P 1'
_cell_length_a   6.80469000
_cell_length_b   8.00014025
_cell_length_c   9.59198562
_cell_angle_alpha   108.73566534
_cell_angle_beta   90.00000000
_cell_angle_gamma   90.00000000
_symmetry_Int_Tables_number   1
_chemical_formula_structural   CuNiC5
_chemical_formula_sum   'Cu4 Ni4 C20'
_cell_volume   494.50338414
_cell_formula_units_Z   4
loop_
 _symmetry_equiv_pos_site_id
 _symmetry_equiv_pos_as_xyz
  1  'x, y, z'
loop_
 _atom_site_type_symbol
 _atom_site_label
 _atom_site_symmetry_multiplicity
 _atom_site_fract_x
 _atom_site_fract_y
 _atom_site_fract_z
 _atom_site_occupancy
  C  C0  1  0.43668200  0.70015000  0.21732000  1
  C  C1  1  0.93668200  0.79985000  0.78268000  1
  C  C2  1  0.56331800  0.29985000  0.78268000  1
  C  C3  1  0.06331800  0.20015000  0.21732000  1
  Ni  Ni4  1  0.87141800  0.75778000  0.24027500  1
  Ni  Ni5  1  0.37141800  0.74222000  0.75972500  1
  Ni  Ni6  1  0.12858100  0.24222000  0.75972500  1
  Ni  Ni7  1  0.62858200  0.25778000  0.24027500  1
  Cu  Cu8  1  0.25441600  0.80992400  0.40190000  1
  Cu  Cu9  1  0.75441600  0.69007600  0.59810000  1
  Cu  Cu10  1  0.74558400  0.19007600  0.59810000  1
  Cu  Cu11  1  0.24558400  0.30992400  0.40190000  1
  C  C12  1  0.29805800  0.62482200  0.09911000  1
  C  C13  1  0.79805800  0.87517800  0.90089000  1
  C  C14  1  0.70194200  0.37517800  0.90089000  1
  C  C15  1  0.20194200  0.12482200  0.09911000  1
  C  C16  1  0.56129900  0.57573600  0.26008100  1
  C  C17  1  0.06129900  0.92426400  0.73991900  1
  C  C18  1  0.43870100  0.42426400  0.73991900  1
  C  C19  1  0.93870100  0.07573600  0.26008100  1
  C  C20  1  0.54986500  0.85063800  0.20390900  1
  C  C21  1  0.04986500  0.64936200  0.79609100  1
  C  C22  1  0.45013500  0.14936200  0.79609100  1
  C  C23  1  0.95013500  0.35063800  0.20390900  1
  C  C24  1  0.92525200  0.67498200  0.13038600  1
  C  C25  1  0.42525200  0.82501800  0.86961400  1
  C  C26  1  0.07474800  0.32501800  0.86961400  1
  C  C27  1  0.57474800  0.17498200  0.13038600  1
