# generated using pymatgen
data_CuNi4C9
_symmetry_space_group_name_H-M   'P 1'
_cell_length_a   8.55721400
_cell_length_b   8.55721400
_cell_length_c   4.76161700
_cell_angle_alpha   90.00000000
_cell_angle_beta   90.00000000
_cell_angle_gamma   90.00000000
_symmetry_Int_Tables_number   1
_chemical_formula_structural   CuNi4C9
_chemical_formula_sum   'Cu2 Ni8 C18'
_cell_volume   348.67374476
_cell_formula_units_Z   2
loop_
 _symmetry_equiv_pos_site_id
 _symmetry_equiv_pos_as_xyz
  1  'x, y, z'
loop_
 _atom_site_type_symbol
 _atom_site_label
 _atom_site_symmetry_multiplicity
 _atom_site_fract_x
 _atom_site_fract_y
 _atom_site_fract_z
 _atom_site_occupancy
  Ni  Ni0  1  0.09043300  0.78227900  0.60331900  1
  Ni  Ni1  1  0.21772100  0.09043300  0.39668100  1
  Ni  Ni2  1  0.71772100  0.59043300  0.60331900  1
  Ni  Ni3  1  0.59043300  0.28227900  0.39668100  1
  Ni  Ni4  1  0.90956700  0.21772100  0.60331900  1
  Ni  Ni5  1  0.28227900  0.40956700  0.60331900  1
  Ni  Ni6  1  0.40956700  0.71772100  0.39668100  1
  Ni  Ni7  1  0.78227900  0.90956700  0.39668100  1
  Cu  Cu8  1  0.00000000  0.50000000  0.00592500  1
  Cu  Cu9  1  0.50000000  0.00000000  0.99407500  1
  C  C10  1  0.00000000  0.00000000  0.50000000  1
  C  C11  1  0.50000000  0.50000000  0.50000000  1
  C  C12  1  0.72177000  0.93534000  0.04743800  1
  C  C13  1  0.43534000  0.77823000  0.04743800  1
  C  C14  1  0.56466000  0.22177000  0.04743800  1
  C  C15  1  0.27823000  0.06466000  0.04743800  1
  C  C16  1  0.77823000  0.56466000  0.95256200  1
  C  C17  1  0.06466000  0.72177000  0.95256200  1
  C  C18  1  0.93534000  0.27823000  0.95256200  1
  C  C19  1  0.22177000  0.43534000  0.95256200  1
  C  C20  1  0.10859200  0.28776700  0.46985100  1
  C  C21  1  0.78776700  0.39140800  0.46985100  1
  C  C22  1  0.21223300  0.60859200  0.46985100  1
  C  C23  1  0.89140800  0.71223300  0.46985100  1
  C  C24  1  0.60859200  0.78776700  0.53014900  1
  C  C25  1  0.71223300  0.10859200  0.53014900  1
  C  C26  1  0.28776700  0.89140800  0.53014900  1
  C  C27  1  0.39140800  0.21223300  0.53014900  1
