# generated using pymatgen
data_Cu2NiC18
_symmetry_space_group_name_H-M   'P 1'
_cell_length_a   5.97700152
_cell_length_b   6.33307212
_cell_length_c   8.92090229
_cell_angle_alpha   86.50879138
_cell_angle_beta   86.94670602
_cell_angle_gamma   86.13486773
_symmetry_Int_Tables_number   1
_chemical_formula_structural   Cu2NiC18
_chemical_formula_sum   'Cu2 Ni1 C18'
_cell_volume   335.87767029
_cell_formula_units_Z   1
loop_
 _symmetry_equiv_pos_site_id
 _symmetry_equiv_pos_as_xyz
  1  'x, y, z'
loop_
 _atom_site_type_symbol
 _atom_site_label
 _atom_site_symmetry_multiplicity
 _atom_site_fract_x
 _atom_site_fract_y
 _atom_site_fract_z
 _atom_site_occupancy
  Ni  Ni0  1  0.81527100  0.76520300  0.12734000  1
  Cu  Cu1  1  0.53023600  0.41704700  0.74547100  1
  Cu  Cu2  1  0.04449900  0.13107500  0.32592300  1
  C  C3  1  0.99957000  0.58995400  0.51836600  1
  C  C4  1  0.38042800  0.94286400  0.94828800  1
  C  C5  1  0.02794400  0.42537400  0.93433200  1
  C  C6  1  0.52809500  0.98132100  0.51397600  1
  C  C7  1  0.35533300  0.59991800  0.25364400  1
  C  C8  1  0.97690600  0.94551400  0.74594200  1
  C  C9  1  0.68784800  0.95751400  0.31367800  1
  C  C10  1  0.12406400  0.49362600  0.71939300  1
  C  C11  1  0.39411700  0.03247100  0.72230400  1
  C  C12  1  0.99516900  0.50852200  0.30711300  1
  C  C13  1  0.25069100  0.81784100  0.46230200  1
  C  C14  1  0.58215000  0.69278900  0.93781400  1
  C  C15  1  0.79108000  0.15762500  0.56583600  1
  C  C16  1  0.30875300  0.25941700  0.97482700  1
  C  C17  1  0.35206300  0.24576800  0.44657200  1
  C  C18  1  0.81660000  0.21188900  0.89912400  1
  C  C19  1  0.69763000  0.70621700  0.58841100  1
  C  C20  1  0.16298100  0.88888200  0.12434300  1
