# generated using pymatgen
data_Cu3Ni39C56
_symmetry_space_group_name_H-M   'P 1'
_cell_length_a   13.53735164
_cell_length_b   8.51689309
_cell_length_c   10.45831293
_cell_angle_alpha   65.97200642
_cell_angle_beta   97.36238116
_cell_angle_gamma   90.00000000
_symmetry_Int_Tables_number   1
_chemical_formula_structural   Cu3Ni39C56
_chemical_formula_sum   'Cu3 Ni39 C56'
_cell_volume   1090.42314360
_cell_formula_units_Z   1
loop_
 _symmetry_equiv_pos_site_id
 _symmetry_equiv_pos_as_xyz
  1  'x, y, z'
loop_
 _atom_site_type_symbol
 _atom_site_label
 _atom_site_symmetry_multiplicity
 _atom_site_fract_x
 _atom_site_fract_y
 _atom_site_fract_z
 _atom_site_occupancy
  Ni  Ni0  1  0.03633570  0.68814218  0.85981976  1
  Ni  Ni1  1  0.03653144  0.69291459  0.36012111  1
  Ni  Ni2  1  0.10652130  0.83367594  0.56875224  1
  Ni  Ni3  1  0.17871145  0.98870463  0.78603075  1
  Ni  Ni4  1  0.14482483  0.28604305  0.42621426  1
  Ni  Ni5  1  0.28747996  0.57508339  0.85855784  1
  Ni  Ni6  1  0.99803217  0.99797131  0.00235774  1
  Ni  Ni7  1  0.39445887  0.91067988  0.93269780  1
  Ni  Ni8  1  0.31844308  0.27168003  0.71390152  1
  Ni  Ni9  1  0.25060957  0.62602771  0.49947184  1
  Ni  Ni10  1  0.17921645  0.98001781  0.28470297  1
  Ni  Ni11  1  0.10632556  0.33875071  0.06844989  1
  Ni  Ni12  1  0.21509938  0.67701820  0.14385676  1
  Ni  Ni13  1  0.35471966  0.96788679  0.57016553  1
  Ni  Ni14  1  0.39459768  0.41516547  0.42938831  1
  Ni  Ni15  1  0.46278118  0.55426412  0.63883625  1
  Ni  Ni16  1  0.53747001  0.69609657  0.85014653  1
  Ni  Ni17  1  0.32287343  0.26588408  0.21417957  1
  Ni  Ni18  1  0.24905684  0.12548155  0.00188318  1
  Ni  Ni19  1  0.57142900  0.13903719  0.71428600  1
  Ni  Ni20  1  0.60538699  0.83195710  0.57842447  1
  Ni  Ni21  1  0.46790593  0.55110232  0.14574001  1
  Ni  Ni22  1  0.53529507  0.19443104  0.35207636  1
  Ni  Ni23  1  0.68007582  0.47881537  0.78973475  1
  Ni  Ni24  1  0.78813734  0.82376632  0.85840647  1
  Ni  Ni25  1  0.49937714  0.25005978  0.99707964  1
  Ni  Ni26  1  0.64347986  0.53285343  0.43149236  1
  Ni  Ni27  1  0.89224743  0.41121455  0.92909916  1
  Ni  Ni28  1  0.67495107  0.98255634  0.28283099  1
  Ni  Ni29  1  0.82441392  0.27129555  0.71466948  1
  Ni  Ni30  1  0.60756193  0.83222240  0.07649464  1
  Ni  Ni31  1  0.74839813  0.12909268  0.49587320  1
  Ni  Ni32  1  0.85537704  0.71935623  0.57001316  1
  Ni  Ni33  1  0.81998357  0.76577765  0.21439243  1
  Ni  Ni34  1  0.89380116  0.41307973  0.42668782  1
  Ni  Ni35  1  0.74825932  0.13026778  0.99918369  1
  Ni  Ni36  1  0.96414555  0.06044938  0.64254025  1
  Ni  Ni37  1  0.92775762  0.10658896  0.28471424  1
  Ni  Ni38  1  0.96364055  0.55043478  0.14386903  1
  Cu  Cu39  1  0.07142900  0.39299206  0.71428600  1
  Cu  Cu40  1  0.42892512  0.85964563  0.28423894  1
  Cu  Cu41  1  0.71393188  0.42959857  0.14433306  1
  C  C42  1  0.04065231  0.44787950  0.84157498  1
  C  C43  1  0.03783881  0.94336676  0.84627131  1
  C  C44  1  0.03176075  0.44328419  0.35644657  1
  C  C45  1  0.10501819  0.07535207  0.58229969  1
  C  C46  1  0.17062944  0.74481502  0.78035054  1
  C  C47  1  0.03817041  0.93898499  0.36975594  1
  C  C48  1  0.25163825  0.88268200  0.98662016  1
  C  C49  1  0.16660107  0.24329315  0.77620187  1
  C  C50  1  0.10220469  0.57516849  0.58699702  1
  C  C51  1  0.17615832  0.72863749  0.29131464  1
  C  C52  1  0.24129033  0.87037512  0.50420784  1
  C  C53  1  0.10468659  0.59445593  0.05881606  1
  C  C54  1  0.38732777  0.15246927  0.92373256  1
  C  C55  1  0.31625125  0.01302614  0.72697483  1
  C  C56  1  0.18684518  0.22952346  0.28087285  1
  C  C57  1  0.11109625  0.08544575  0.07212443  1
  C  C58  1  0.39959339  0.67129427  0.93461381  1
  C  C59  1  0.32331861  0.52235490  0.71039977  1
  C  C60  1  0.25821852  0.37811180  0.49978291  1
  C  C61  1  0.46125063  0.30705754  0.63245530  1
  C  C62  1  0.33289305  0.00803629  0.22401195  1
  C  C63  1  0.25277165  0.36942589  0.00994278  1
  C  C64  1  0.53025356  0.93308432  0.86580246  1
  C  C65  1  0.39642110  0.67638034  0.40947072  1
  C  C66  1  0.53749576  0.45628360  0.85388658  1
  C  C67  1  0.32558421  0.50406424  0.22246441  1
  C  C68  1  0.39083265  0.17552216  0.42046620  1
  C  C69  1  0.46716524  0.80668442  0.64304246  1
  C  C70  1  0.45850785  0.30049166  0.14557570  1
  C  C71  1  0.67569176  0.73544089  0.78552954  1
  C  C72  1  0.60536124  0.59588418  0.57468442  1
  C  C73  1  0.53007987  0.44285904  0.35783813  1
  C  C74  1  0.74643590  0.37156506  0.01910028  1
  C  C75  1  0.68160637  0.22522684  0.79611670  1
  C  C76  1  0.61260344  0.08460178  0.56276854  1
  C  C77  1  0.45747754  0.81622850  0.14911784  1
  C  C78  1  0.52638079  0.93771752  0.35085692  1
  C  C79  1  0.81953839  0.51846867  0.71817223  1
  C  C80  1  0.61647621  0.57428844  0.07771508  1
  C  C81  1  0.74326461  0.89162208  0.49395719  1
  C  C82  1  0.88463848  0.16360871  0.92878909  1
  C  C83  1  0.68537946  0.25106134  0.27945316  1
  C  C84  1  0.82660575  0.02571497  0.70159717  1
  C  C85  1  0.75552923  0.36191583  0.50483844  1
  C  C86  1  0.61277713  0.08641117  0.07073387  1
  C  C87  1  0.68434915  0.73178236  0.28299530  1
  C  C88  1  0.90156667  0.66029795  0.92436316  1
  C  C89  1  0.97625593  0.30520902  0.65236913  1
  C  C90  1  0.81727279  0.01224165  0.20610759  1
  C  C91  1  0.89121875  0.15501616  0.44195084  1
  C  C92  1  0.75202435  0.88170236  0.00810580  1
  C  C93  1  0.89008535  0.66508267  0.41862922  1
  C  C94  1  0.97222756  0.81087956  0.64822146  1
  C  C95  1  0.80996395  0.51776224  0.20456005  1
  C  C96  1  0.95601182  0.79611032  0.14769815  1
  C  C97  1  0.96669868  0.30566612  0.13725736  1
