# generated using pymatgen
data_CuNiC9
_symmetry_space_group_name_H-M   'P 1'
_cell_length_a   7.41857699
_cell_length_b   7.41857699
_cell_length_c   7.41857699
_cell_angle_alpha   120.73947924
_cell_angle_beta   118.99525683
_cell_angle_gamma   90.23648983
_symmetry_Int_Tables_number   1
_chemical_formula_structural   CuNiC9
_chemical_formula_sum   'Cu2 Ni2 C18'
_cell_volume   289.19276959
_cell_formula_units_Z   2
loop_
 _symmetry_equiv_pos_site_id
 _symmetry_equiv_pos_as_xyz
  1  'x, y, z'
loop_
 _atom_site_type_symbol
 _atom_site_label
 _atom_site_symmetry_multiplicity
 _atom_site_fract_x
 _atom_site_fract_y
 _atom_site_fract_z
 _atom_site_occupancy
  C  C0  1  0.50000000  0.00000000  0.00000000  1
  C  C1  1  0.50000000  0.50000000  0.50000000  1
  C  C2  1  0.00000000  0.00000000  0.00000000  1
  C  C3  1  0.50000000  0.50000000  0.00000000  1
  Ni  Ni4  1  0.50000000  0.00000000  0.50000000  1
  Ni  Ni5  1  0.00000000  0.50000000  0.50000000  1
  Cu  Cu6  1  0.00000000  0.00000000  0.50000000  1
  Cu  Cu7  1  0.00000000  0.50000000  0.00000000  1
  C  C8  1  0.10049200  0.25000000  0.85049200  1
  C  C9  1  0.89950800  0.75000000  0.14950800  1
  C  C10  1  0.67725000  0.40829600  0.26895300  1
  C  C11  1  0.32275000  0.59170400  0.73104700  1
  C  C12  1  0.63934300  0.90829600  0.73104700  1
  C  C13  1  0.36065700  0.09170400  0.26895300  1
  C  C14  1  0.94635500  0.18191100  0.36195300  1
  C  C15  1  0.05364500  0.41559800  0.23555600  1
  C  C16  1  0.31995800  0.68191100  0.23555600  1
  C  C17  1  0.68004200  0.91559800  0.36195300  1
  C  C18  1  0.05364500  0.81808900  0.63804700  1
  C  C19  1  0.94635500  0.58440200  0.76444400  1
  C  C20  1  0.68004200  0.31808900  0.76444400  1
  C  C21  1  0.31995800  0.08440200  0.63804700  1
