# generated using pymatgen
data_Cu6Ni2C29
_symmetry_space_group_name_H-M   'P 1'
_cell_length_a   8.34764780
_cell_length_b   8.34764780
_cell_length_c   17.40769500
_cell_angle_alpha   90.00000000
_cell_angle_beta   90.00000000
_cell_angle_gamma   119.99999842
_symmetry_Int_Tables_number   1
_chemical_formula_structural   Cu6Ni2C29
_chemical_formula_sum   'Cu12 Ni4 C58'
_cell_volume   1050.50988169
_cell_formula_units_Z   2
loop_
 _symmetry_equiv_pos_site_id
 _symmetry_equiv_pos_as_xyz
  1  'x, y, z'
loop_
 _atom_site_type_symbol
 _atom_site_label
 _atom_site_symmetry_multiplicity
 _atom_site_fract_x
 _atom_site_fract_y
 _atom_site_fract_z
 _atom_site_occupancy
  C  C0  1  0.66666700  0.33333300  0.75000000  1
  C  C1  1  0.33333300  0.66666700  0.25000000  1
  C  C2  1  0.33333300  0.66666700  0.75000000  1
  C  C3  1  0.66666700  0.33333300  0.25000000  1
  C  C4  1  0.66666700  0.33333300  0.52346000  1
  C  C5  1  0.33333300  0.66666700  0.47654000  1
  C  C6  1  0.66666700  0.33333300  0.97654000  1
  C  C7  1  0.33333300  0.66666700  0.02346000  1
  Ni  Ni8  1  0.00000000  0.00000000  0.59186200  1
  Ni  Ni9  1  0.00000000  0.00000000  0.40813800  1
  Ni  Ni10  1  0.00000000  0.00000000  0.90813800  1
  Ni  Ni11  1  0.00000000  0.00000000  0.09186200  1
  Cu  Cu12  1  0.33246700  0.38288900  0.60943200  1
  Cu  Cu13  1  0.66753300  0.61711100  0.39056800  1
  Cu  Cu14  1  0.61711100  0.94957800  0.60943200  1
  Cu  Cu15  1  0.33246700  0.94957800  0.89056800  1
  Cu  Cu16  1  0.38288900  0.05042200  0.39056800  1
  Cu  Cu17  1  0.66753300  0.05042200  0.10943200  1
  Cu  Cu18  1  0.05042200  0.66753300  0.60943200  1
  Cu  Cu19  1  0.61711100  0.66753300  0.89056800  1
  Cu  Cu20  1  0.94957800  0.33246700  0.39056800  1
  Cu  Cu21  1  0.38288900  0.33246700  0.10943200  1
  Cu  Cu22  1  0.05042200  0.38288900  0.89056800  1
  Cu  Cu23  1  0.94957800  0.61711100  0.10943200  1
  C  C24  1  0.83321300  0.02901700  0.62476100  1
  C  C25  1  0.16678700  0.97098300  0.37523900  1
  C  C26  1  0.97098300  0.80419500  0.62476100  1
  C  C27  1  0.83321300  0.80419500  0.87523900  1
  C  C28  1  0.02901700  0.19580500  0.37523900  1
  C  C29  1  0.16678700  0.19580500  0.12476100  1
  C  C30  1  0.19580500  0.16678700  0.62476100  1
  C  C31  1  0.97098300  0.16678700  0.87523900  1
  C  C32  1  0.80419500  0.83321300  0.37523900  1
  C  C33  1  0.02901700  0.83321300  0.12476100  1
  C  C34  1  0.19580500  0.02901700  0.87523900  1
  C  C35  1  0.80419500  0.97098300  0.12476100  1
  C  C36  1  0.34001200  0.47533100  0.68576900  1
  C  C37  1  0.65998800  0.52466900  0.31423100  1
  C  C38  1  0.52466900  0.86468100  0.68576900  1
  C  C39  1  0.34001200  0.86468100  0.81423100  1
  C  C40  1  0.47533100  0.13531900  0.31423100  1
  C  C41  1  0.65998800  0.13531900  0.18576900  1
  C  C42  1  0.13531900  0.65998800  0.68576900  1
  C  C43  1  0.52466900  0.65998800  0.81423100  1
  C  C44  1  0.86468100  0.34001200  0.31423100  1
  C  C45  1  0.47533100  0.34001200  0.18576900  1
  C  C46  1  0.13531900  0.47533100  0.81423100  1
  C  C47  1  0.86468100  0.52466900  0.18576900  1
  C  C48  1  0.59622600  0.11800600  0.59163100  1
  C  C49  1  0.40377400  0.88199400  0.40836900  1
  C  C50  1  0.88199400  0.47822000  0.59163100  1
  C  C51  1  0.59622600  0.47822000  0.90836900  1
  C  C52  1  0.11800600  0.52178000  0.40836900  1
  C  C53  1  0.40377400  0.52178000  0.09163100  1
  C  C54  1  0.52178000  0.40377400  0.59163100  1
  C  C55  1  0.88199400  0.40377400  0.90836900  1
  C  C56  1  0.47822000  0.59622600  0.40836900  1
  C  C57  1  0.11800600  0.59622600  0.09163100  1
  C  C58  1  0.52178000  0.11800600  0.90836900  1
  C  C59  1  0.47822000  0.88199400  0.09163100  1
  C  C60  1  0.25535900  0.44439000  0.54315000  1
  C  C61  1  0.74464100  0.55561000  0.45685000  1
  C  C62  1  0.55561000  0.81096900  0.54315000  1
  C  C63  1  0.25535900  0.81096900  0.95685000  1
  C  C64  1  0.44439000  0.18903100  0.45685000  1
  C  C65  1  0.74464100  0.18903100  0.04315000  1
  C  C66  1  0.18903100  0.74464100  0.54315000  1
  C  C67  1  0.55561000  0.74464100  0.95685000  1
  C  C68  1  0.81096900  0.25535900  0.45685000  1
  C  C69  1  0.44439000  0.25535900  0.04315000  1
  C  C70  1  0.18903100  0.44439000  0.95685000  1
  C  C71  1  0.81096900  0.55561000  0.04315000  1
  C  C72  1  0.00000000  0.00000000  0.50000000  1
  C  C73  1  0.00000000  0.00000000  0.00000000  1
