# generated using pymatgen
data_CuNi6C
_symmetry_space_group_name_H-M   'P 1'
_cell_length_a   5.06416100
_cell_length_b   6.30932200
_cell_length_c   10.78542400
_cell_angle_alpha   90.00000000
_cell_angle_beta   90.00000000
_cell_angle_gamma   90.00000000
_symmetry_Int_Tables_number   1
_chemical_formula_structural   CuNi6C
_chemical_formula_sum   'Cu2 Ni12 C2'
_cell_volume   344.60963808
_cell_formula_units_Z   2
loop_
 _symmetry_equiv_pos_site_id
 _symmetry_equiv_pos_as_xyz
  1  'x, y, z'
loop_
 _atom_site_type_symbol
 _atom_site_label
 _atom_site_symmetry_multiplicity
 _atom_site_fract_x
 _atom_site_fract_y
 _atom_site_fract_z
 _atom_site_occupancy
  Ni  Ni0  1  0.00000000  0.24375300  0.08161200  1
  Ni  Ni1  1  0.00000000  0.75624700  0.08161200  1
  Ni  Ni2  1  0.00000000  0.50000000  0.83367400  1
  Ni  Ni3  1  0.50000000  0.24456900  0.91454700  1
  Ni  Ni4  1  0.50000000  0.75543100  0.91454700  1
  Ni  Ni5  1  0.50000000  0.50000000  0.66775600  1
  Ni  Ni6  1  0.00000000  0.74375300  0.58161200  1
  Ni  Ni7  1  0.00000000  0.25624700  0.58161200  1
  Ni  Ni8  1  0.00000000  0.00000000  0.33367400  1
  Ni  Ni9  1  0.50000000  0.74456900  0.41454700  1
  Ni  Ni10  1  0.50000000  0.25543100  0.41454700  1
  Ni  Ni11  1  0.50000000  0.00000000  0.16775600  1
  Cu  Cu12  1  0.00000000  0.50000000  0.33464800  1
  Cu  Cu13  1  0.00000000  0.00000000  0.83464800  1
  C  C14  1  0.50000000  0.50000000  0.17160400  1
  C  C15  1  0.50000000  0.00000000  0.67160400  1
