# generated using pymatgen
data_CuNi2C11
_symmetry_space_group_name_H-M   'P 1'
_cell_length_a   7.38659597
_cell_length_b   7.38717925
_cell_length_c   7.38739343
_cell_angle_alpha   59.24692937
_cell_angle_beta   59.24356273
_cell_angle_gamma   59.24356873
_symmetry_Int_Tables_number   1
_chemical_formula_structural   CuNi2C11
_chemical_formula_sum   'Cu1 Ni2 C11'
_cell_volume   280.13185483
_cell_formula_units_Z   1
loop_
 _symmetry_equiv_pos_site_id
 _symmetry_equiv_pos_as_xyz
  1  'x, y, z'
loop_
 _atom_site_type_symbol
 _atom_site_label
 _atom_site_symmetry_multiplicity
 _atom_site_fract_x
 _atom_site_fract_y
 _atom_site_fract_z
 _atom_site_occupancy
  Ni  Ni0  1  0.87492200  0.87492900  0.87492700  1
  Ni  Ni1  1  0.12508800  0.12507200  0.12508000  1
  C  C2  1  0.50000800  0.49999000  0.00003500  1
  C  C3  1  0.00000600  0.50002100  0.50001700  1
  C  C4  1  0.49993400  0.99996600  0.50002900  1
  Cu  Cu5  1  0.50004500  0.50003300  0.49991900  1
  C  C6  1  0.73639800  0.73639700  0.73641900  1
  C  C7  1  0.25031100  0.25030400  0.71656100  1
  C  C8  1  0.25028700  0.71656100  0.25030000  1
  C  C9  1  0.71656600  0.25030100  0.25027200  1
  C  C10  1  0.74968400  0.28343200  0.74970300  1
  C  C11  1  0.28343200  0.74969700  0.74969100  1
  C  C12  1  0.26358800  0.26359000  0.26361100  1
  C  C13  1  0.74973400  0.74970200  0.28343900  1
