# generated using pymatgen
data_Cu2(NiC4)3
_symmetry_space_group_name_H-M   'P 1'
_cell_length_a   5.41240700
_cell_length_b   11.12301700
_cell_length_c   18.50727100
_cell_angle_alpha   90.00000000
_cell_angle_beta   90.00000000
_cell_angle_gamma   90.00000000
_symmetry_Int_Tables_number   1
_chemical_formula_structural   Cu2(NiC4)3
_chemical_formula_sum   'Cu8 Ni12 C48'
_cell_volume   1114.18018972
_cell_formula_units_Z   4
loop_
 _symmetry_equiv_pos_site_id
 _symmetry_equiv_pos_as_xyz
  1  'x, y, z'
loop_
 _atom_site_type_symbol
 _atom_site_label
 _atom_site_symmetry_multiplicity
 _atom_site_fract_x
 _atom_site_fract_y
 _atom_site_fract_z
 _atom_site_occupancy
  Ni  Ni0  1  0.17359600  0.81415900  0.25000000  1
  Ni  Ni1  1  0.32640400  0.31415900  0.25000000  1
  Ni  Ni2  1  0.82640400  0.18584100  0.75000000  1
  Ni  Ni3  1  0.67359600  0.68584100  0.75000000  1
  Ni  Ni4  1  0.21654400  0.65372300  0.99667600  1
  Ni  Ni5  1  0.28345600  0.15372300  0.50332400  1
  Ni  Ni6  1  0.78345600  0.34627700  0.49667600  1
  Ni  Ni7  1  0.71654400  0.84627700  0.00332400  1
  Ni  Ni8  1  0.78345600  0.34627700  0.00332400  1
  Ni  Ni9  1  0.71654400  0.84627700  0.49667600  1
  Ni  Ni10  1  0.21654400  0.65372300  0.50332400  1
  Ni  Ni11  1  0.28345600  0.15372300  0.99667600  1
  Cu  Cu12  1  0.23120700  0.89962500  0.08522400  1
  Cu  Cu13  1  0.26879300  0.39962500  0.41477600  1
  Cu  Cu14  1  0.76879300  0.10037500  0.58522400  1
  Cu  Cu15  1  0.73120700  0.60037500  0.91477600  1
  Cu  Cu16  1  0.76879300  0.10037500  0.91477600  1
  Cu  Cu17  1  0.73120700  0.60037500  0.58522400  1
  Cu  Cu18  1  0.23120700  0.89962500  0.41477600  1
  Cu  Cu19  1  0.26879300  0.39962500  0.08522400  1
  C  C20  1  0.36601800  0.80964800  0.03133000  1
  C  C21  1  0.13398200  0.30964800  0.46867000  1
  C  C22  1  0.63398200  0.19035200  0.53133000  1
  C  C23  1  0.86601800  0.69035200  0.96867000  1
  C  C24  1  0.63398200  0.19035200  0.96867000  1
  C  C25  1  0.86601800  0.69035200  0.53133000  1
  C  C26  1  0.36601800  0.80964800  0.46867000  1
  C  C27  1  0.13398200  0.30964800  0.03133000  1
  C  C28  1  0.31606300  0.02760800  0.06742000  1
  C  C29  1  0.18393700  0.52760800  0.43258000  1
  C  C30  1  0.68393700  0.97239200  0.56742000  1
  C  C31  1  0.81606300  0.47239200  0.93258000  1
  C  C32  1  0.68393700  0.97239200  0.93258000  1
  C  C33  1  0.81606300  0.47239200  0.56742000  1
  C  C34  1  0.31606300  0.02760800  0.43258000  1
  C  C35  1  0.18393700  0.52760800  0.06742000  1
  C  C36  1  0.32484300  0.87262800  0.16235800  1
  C  C37  1  0.17515700  0.37262800  0.33764200  1
  C  C38  1  0.67515700  0.12737200  0.66235800  1
  C  C39  1  0.82484300  0.62737200  0.83764200  1
  C  C40  1  0.67515700  0.12737200  0.83764200  1
  C  C41  1  0.82484300  0.62737200  0.66235800  1
  C  C42  1  0.32484300  0.87262800  0.33764200  1
  C  C43  1  0.17515700  0.37262800  0.16235800  1
  C  C44  1  0.95105700  0.88012300  0.07977900  1
  C  C45  1  0.54894300  0.38012300  0.42022100  1
  C  C46  1  0.04894300  0.11987700  0.57977900  1
  C  C47  1  0.45105700  0.61987700  0.92022100  1
  C  C48  1  0.04894300  0.11987700  0.92022100  1
  C  C49  1  0.45105700  0.61987700  0.57977900  1
  C  C50  1  0.95105700  0.88012300  0.42022100  1
  C  C51  1  0.54894300  0.38012300  0.07977900  1
  C  C52  1  0.74560300  0.61889600  0.21674400  1
  C  C53  1  0.75439700  0.11889600  0.28325600  1
  C  C54  1  0.25439700  0.38110400  0.71674400  1
  C  C55  1  0.24560300  0.88110400  0.78325600  1
  C  C56  1  0.25439700  0.38110400  0.78325600  1
  C  C57  1  0.24560300  0.88110400  0.71674400  1
  C  C58  1  0.74560300  0.61889600  0.28325600  1
  C  C59  1  0.75439700  0.11889600  0.21674400  1
  C  C60  1  0.84436200  0.87463200  0.25000000  1
  C  C61  1  0.65563800  0.37463200  0.25000000  1
  C  C62  1  0.15563800  0.12536800  0.75000000  1
  C  C63  1  0.34436200  0.62536800  0.75000000  1
  C  C64  1  0.25018700  0.64778300  0.25000000  1
  C  C65  1  0.24981300  0.14778300  0.25000000  1
  C  C66  1  0.74981300  0.35221700  0.75000000  1
  C  C67  1  0.75018700  0.85221700  0.75000000  1
