# generated using pymatgen
data_Cu15(NiC2)2
_symmetry_space_group_name_H-M   'P 1'
_cell_length_a   8.08023900
_cell_length_b   9.99391733
_cell_length_c   10.85683443
_cell_angle_alpha   113.06304201
_cell_angle_beta   97.93135793
_cell_angle_gamma   110.25584045
_symmetry_Int_Tables_number   1
_chemical_formula_structural   Cu15(NiC2)2
_chemical_formula_sum   'Cu30 Ni4 C8'
_cell_volume   717.73922440
_cell_formula_units_Z   2
loop_
 _symmetry_equiv_pos_site_id
 _symmetry_equiv_pos_as_xyz
  1  'x, y, z'
loop_
 _atom_site_type_symbol
 _atom_site_label
 _atom_site_symmetry_multiplicity
 _atom_site_fract_x
 _atom_site_fract_y
 _atom_site_fract_z
 _atom_site_occupancy
  C  C0  1  0.19540100  0.01333400  0.56325800  1
  C  C1  1  0.80459900  0.98666600  0.43674200  1
  C  C2  1  0.83549600  0.59365100  0.77950700  1
  C  C3  1  0.16450400  0.40634900  0.22049300  1
  C  C4  1  0.66619600  0.85531300  0.79337400  1
  C  C5  1  0.33380400  0.14468700  0.20662600  1
  C  C6  1  0.97236200  0.22930000  0.58443900  1
  C  C7  1  0.02763800  0.77070000  0.41556100  1
  Ni  Ni8  1  0.29984100  0.46157800  0.65400500  1
  Ni  Ni9  1  0.70015900  0.53842200  0.34599500  1
  Ni  Ni10  1  0.06382200  0.78750700  0.03506900  1
  Ni  Ni11  1  0.93617800  0.21249300  0.96493100  1
  Cu  Cu12  1  0.03702000  0.07060600  0.68954800  1
  Cu  Cu13  1  0.96298000  0.92939400  0.31045200  1
  Cu  Cu14  1  0.74549100  0.05120500  0.61018800  1
  Cu  Cu15  1  0.25450900  0.94879500  0.38981200  1
  Cu  Cu16  1  0.96872700  0.61299600  0.57944700  1
  Cu  Cu17  1  0.03127300  0.38700400  0.42055300  1
  Cu  Cu18  1  0.75634000  0.71478500  0.87265400  1
  Cu  Cu19  1  0.24366000  0.28521500  0.12734600  1
  Cu  Cu20  1  0.85354900  0.84316900  0.58062800  1
  Cu  Cu21  1  0.14645100  0.15683100  0.41937200  1
  Cu  Cu22  1  0.12070200  0.81741000  0.68149200  1
  Cu  Cu23  1  0.87929800  0.18259000  0.31850800  1
  Cu  Cu24  1  0.63081300  0.93652500  0.91325500  1
  Cu  Cu25  1  0.36918700  0.06347500  0.08674500  1
  Cu  Cu26  1  0.88296500  0.28642300  0.71153900  1
  Cu  Cu27  1  0.11703500  0.71357700  0.28846100  1
  Cu  Cu28  1  0.44020500  0.73969200  0.81056800  1
  Cu  Cu29  1  0.55979500  0.26030800  0.18943200  1
  Cu  Cu30  1  0.28896700  0.39510500  0.58020500  1
  Cu  Cu31  1  0.71103300  0.60489500  0.41979500  1
  Cu  Cu32  1  0.61141500  0.46682000  0.79861600  1
  Cu  Cu33  1  0.38858500  0.53318000  0.20138400  1
  Cu  Cu34  1  0.89964300  0.48297400  0.88912600  1
  Cu  Cu35  1  0.10035700  0.51702600  0.11087400  1
  Cu  Cu36  1  0.42802000  0.12513800  0.53758300  1
  Cu  Cu37  1  0.57198000  0.87486200  0.46241700  1
  Cu  Cu38  1  0.10152200  0.26728700  0.91652800  1
  Cu  Cu39  1  0.89847800  0.73271300  0.08347200  1
  Cu  Cu40  1  0.45423600  0.17762000  0.75437200  1
  Cu  Cu41  1  0.54576400  0.82238000  0.24562800  1
