# generated using pymatgen
data_Cu4NiC
_symmetry_space_group_name_H-M   'P 1'
_cell_length_a   11.66584100
_cell_length_b   8.71807000
_cell_length_c   10.23528977
_cell_angle_alpha   82.30751528
_cell_angle_beta   90.00000000
_cell_angle_gamma   90.00000000
_symmetry_Int_Tables_number   1
_chemical_formula_structural   Cu4NiC
_chemical_formula_sum   'Cu24 Ni6 C6'
_cell_volume   1031.59810856
_cell_formula_units_Z   6
loop_
 _symmetry_equiv_pos_site_id
 _symmetry_equiv_pos_as_xyz
  1  'x, y, z'
loop_
 _atom_site_type_symbol
 _atom_site_label
 _atom_site_symmetry_multiplicity
 _atom_site_fract_x
 _atom_site_fract_y
 _atom_site_fract_z
 _atom_site_occupancy
  C  C0  1  0.86174800  0.70596500  0.24533100  1
  C  C1  1  0.36174800  0.29403500  0.75466900  1
  C  C2  1  0.13825200  0.29403500  0.75466900  1
  C  C3  1  0.63825200  0.70596500  0.24533100  1
  C  C4  1  0.75000000  0.82765200  0.41807400  1
  C  C5  1  0.25000000  0.17234800  0.58192600  1
  Ni  Ni6  1  0.00570600  0.22968500  0.17726500  1
  Ni  Ni7  1  0.50570600  0.77031500  0.82273500  1
  Ni  Ni8  1  0.99429400  0.77031500  0.82273500  1
  Ni  Ni9  1  0.49429400  0.22968500  0.17726500  1
  Ni  Ni10  1  0.75000000  0.19997200  0.65913000  1
  Ni  Ni11  1  0.25000000  0.80002800  0.34087000  1
  Cu  Cu12  1  0.88277800  0.47001900  0.37077400  1
  Cu  Cu13  1  0.38277800  0.52998100  0.62922600  1
  Cu  Cu14  1  0.11722200  0.52998100  0.62922600  1
  Cu  Cu15  1  0.61722200  0.47001900  0.37077400  1
  Cu  Cu16  1  0.88514200  0.93020900  0.10480400  1
  Cu  Cu17  1  0.38514200  0.06979100  0.89519600  1
  Cu  Cu18  1  0.11485800  0.06979100  0.89519600  1
  Cu  Cu19  1  0.61485800  0.93020900  0.10480400  1
  Cu  Cu20  1  0.75000000  0.08290300  0.35272600  1
  Cu  Cu21  1  0.25000000  0.91709700  0.64727400  1
  Cu  Cu22  1  0.75000000  0.65861500  0.60271700  1
  Cu  Cu23  1  0.25000000  0.34138500  0.39728300  1
  Cu  Cu24  1  0.03614900  0.63191100  0.14453200  1
  Cu  Cu25  1  0.53614900  0.36808900  0.85546800  1
  Cu  Cu26  1  0.96385100  0.36808900  0.85546800  1
  Cu  Cu27  1  0.46385100  0.63191100  0.14453200  1
  Cu  Cu28  1  0.75000000  0.02123400  0.72343100  1
  Cu  Cu29  1  0.25000000  0.97876600  0.27656900  1
  Cu  Cu30  1  0.75000000  0.59320500  0.08741900  1
  Cu  Cu31  1  0.25000000  0.40679500  0.91258100  1
  Cu  Cu32  1  0.95531700  0.82579100  0.41702600  1
  Cu  Cu33  1  0.45531700  0.17420900  0.58297400  1
  Cu  Cu34  1  0.04468300  0.17420900  0.58297400  1
  Cu  Cu35  1  0.54468300  0.82579100  0.41702600  1
