# generated using pymatgen
data_CuNiC10
_symmetry_space_group_name_H-M   'P 1'
_cell_length_a   8.50536800
_cell_length_b   8.53052181
_cell_length_c   8.96577623
_cell_angle_alpha   91.09072082
_cell_angle_beta   90.19317235
_cell_angle_gamma   104.38948416
_symmetry_Int_Tables_number   1
_chemical_formula_structural   CuNiC10
_chemical_formula_sum   'Cu4 Ni4 C40'
_cell_volume   629.97030400
_cell_formula_units_Z   4
loop_
 _symmetry_equiv_pos_site_id
 _symmetry_equiv_pos_as_xyz
  1  'x, y, z'
loop_
 _atom_site_type_symbol
 _atom_site_label
 _atom_site_symmetry_multiplicity
 _atom_site_fract_x
 _atom_site_fract_y
 _atom_site_fract_z
 _atom_site_occupancy
  C  C0  1  0.37383300  0.38035100  0.23760600  1
  C  C1  1  0.63260600  0.12539200  0.23657200  1
  C  C2  1  0.13895900  0.61827700  0.25702500  1
  C  C3  1  0.87068400  0.88652500  0.25650800  1
  C  C4  1  0.14673900  0.12483200  0.74419700  1
  C  C5  1  0.86154800  0.36950400  0.75419000  1
  C  C6  1  0.61218500  0.61396100  0.76160500  1
  C  C7  1  0.02914700  0.76250700  0.91346800  1
  C  C8  1  0.73492900  0.48829400  0.35310400  1
  C  C9  1  0.23772500  0.98469900  0.35748900  1
  C  C10  1  0.26547100  0.52160400  0.64896600  1
  C  C11  1  0.75759900  0.01543900  0.64991900  1
  Ni  Ni12  1  0.02055300  0.27140500  0.42466500  1
  Ni  Ni13  1  0.52047500  0.76736400  0.42279700  1
  Ni  Ni14  1  0.48074000  0.23297100  0.57342600  1
  Ni  Ni15  1  0.97163500  0.72498700  0.58154800  1
  Cu  Cu16  1  0.25509500  0.01016600  0.07804800  1
  Cu  Cu17  1  0.77261300  0.52042400  0.07410000  1
  Cu  Cu18  1  0.23589000  0.48563900  0.92377600  1
  Cu  Cu19  1  0.73949000  0.98603800  0.92483600  1
  C  C20  1  0.22742300  0.48083800  0.06321300  1
  C  C21  1  0.74372900  0.98172000  0.06464900  1
  C  C22  1  0.66330400  0.41089400  0.14592200  1
  C  C23  1  0.15174300  0.89825500  0.15779900  1
  C  C24  1  0.36134900  0.11034800  0.16134300  1
  C  C25  1  0.87513600  0.62077300  0.16074600  1
  C  C26  1  0.07896800  0.14265200  0.33131000  1
  C  C27  1  0.58278500  0.64427600  0.32392300  1
  C  C28  1  0.89168400  0.33164300  0.33480200  1
  C  C29  1  0.39099200  0.82594500  0.33345600  1
  C  C30  1  0.17029600  0.42217100  0.45493500  1
  C  C31  1  0.54282300  0.29934900  0.41766700  1
  C  C32  1  0.04651100  0.79236000  0.43187800  1
  C  C33  1  0.67028900  0.91683100  0.45578200  1
  C  C34  1  0.33010200  0.08391700  0.54209900  1
  C  C35  1  0.95363700  0.20143100  0.57662700  1
  C  C36  1  0.45388400  0.69312900  0.57228200  1
  C  C37  1  0.81516900  0.58240000  0.54535900  1
  C  C38  1  0.61496700  0.18111700  0.65950100  1
  C  C39  1  0.42006200  0.35769600  0.66838000  1
  C  C40  1  0.08429500  0.65169900  0.67799900  1
  C  C41  1  0.92028300  0.85501000  0.67849700  1
  C  C42  1  0.13731400  0.38734600  0.83121000  1
  C  C43  1  0.64248600  0.88361500  0.83701000  1
  C  C44  1  0.84236500  0.10104100  0.84975000  1
  C  C45  1  0.34496000  0.59679800  0.85357400  1
  C  C46  1  0.24079200  0.00930900  0.93976900  1
  C  C47  1  0.77721000  0.52743500  0.93339900  1
