# generated using pymatgen
data_CuNiC8
_symmetry_space_group_name_H-M   'P 1'
_cell_length_a   5.65124800
_cell_length_b   5.35625700
_cell_length_c   9.37616839
_cell_angle_alpha   55.59024394
_cell_angle_beta   90.00000000
_cell_angle_gamma   90.00000000
_symmetry_Int_Tables_number   1
_chemical_formula_structural   CuNiC8
_chemical_formula_sum   'Cu2 Ni2 C16'
_cell_volume   234.15003109
_cell_formula_units_Z   2
loop_
 _symmetry_equiv_pos_site_id
 _symmetry_equiv_pos_as_xyz
  1  'x, y, z'
loop_
 _atom_site_type_symbol
 _atom_site_label
 _atom_site_symmetry_multiplicity
 _atom_site_fract_x
 _atom_site_fract_y
 _atom_site_fract_z
 _atom_site_occupancy
  C  C0  1  0.06487600  0.72850600  0.75311900  1
  C  C1  1  0.93512400  0.27149400  0.24688100  1
  C  C2  1  0.56487600  0.27149400  0.74688100  1
  C  C3  1  0.43512400  0.72850600  0.25311900  1
  Ni  Ni4  1  0.50000000  0.50000000  0.00000000  1
  Ni  Ni5  1  0.00000000  0.50000000  0.50000000  1
  Cu  Cu6  1  0.50000000  0.00000000  0.50000000  1
  Cu  Cu7  1  0.00000000  0.00000000  0.00000000  1
  C  C8  1  0.45769400  0.86947700  0.74280200  1
  C  C9  1  0.54230600  0.13052300  0.25719800  1
  C  C10  1  0.95769400  0.13052300  0.75719800  1
  C  C11  1  0.04230600  0.86947700  0.24280200  1
  C  C12  1  0.79334600  0.74914400  0.56271800  1
  C  C13  1  0.20665400  0.25085600  0.43728200  1
  C  C14  1  0.29334600  0.25085600  0.93728200  1
  C  C15  1  0.70665400  0.74914400  0.06271800  1
  C  C16  1  0.31011200  0.64867900  0.55348100  1
  C  C17  1  0.68988800  0.35132100  0.44651900  1
  C  C18  1  0.81011200  0.35132100  0.94651900  1
  C  C19  1  0.18988800  0.64867900  0.05348100  1
