# generated using pymatgen
data_CuNiC7
_symmetry_space_group_name_H-M   'P 1'
_cell_length_a   5.58486400
_cell_length_b   9.02567800
_cell_length_c   17.77338900
_cell_angle_alpha   90.00000000
_cell_angle_beta   90.00000000
_cell_angle_gamma   90.00000000
_symmetry_Int_Tables_number   1
_chemical_formula_structural   CuNiC7
_chemical_formula_sum   'Cu4 Ni4 C28'
_cell_volume   895.90649208
_cell_formula_units_Z   4
loop_
 _symmetry_equiv_pos_site_id
 _symmetry_equiv_pos_as_xyz
  1  'x, y, z'
loop_
 _atom_site_type_symbol
 _atom_site_label
 _atom_site_symmetry_multiplicity
 _atom_site_fract_x
 _atom_site_fract_y
 _atom_site_fract_z
 _atom_site_occupancy
  Ni  Ni0  1  0.50907200  0.40607200  0.19898000  1
  Ni  Ni1  1  0.99092800  0.59392800  0.69898000  1
  Ni  Ni2  1  0.49092800  0.90607200  0.30102000  1
  Ni  Ni3  1  0.00907200  0.09392800  0.80102000  1
  Cu  Cu4  1  0.48971900  0.47085000  0.47050800  1
  Cu  Cu5  1  0.01028100  0.52915000  0.97050800  1
  Cu  Cu6  1  0.51028100  0.97085000  0.02949200  1
  Cu  Cu7  1  0.98971900  0.02915000  0.52949200  1
  C  C8  1  0.03864400  0.23461100  0.33013200  1
  C  C9  1  0.46135600  0.76538900  0.83013200  1
  C  C10  1  0.96135600  0.73461100  0.16986800  1
  C  C11  1  0.53864400  0.26538900  0.66986800  1
  C  C12  1  0.80777800  0.90676000  0.67327000  1
  C  C13  1  0.69222200  0.09324000  0.17327000  1
  C  C14  1  0.19222200  0.40676000  0.82673000  1
  C  C15  1  0.30777800  0.59324000  0.32673000  1
  C  C16  1  0.99381800  0.96758400  0.35883400  1
  C  C17  1  0.50618200  0.03241600  0.85883400  1
  C  C18  1  0.00618200  0.46758400  0.14116600  1
  C  C19  1  0.49381800  0.53241600  0.64116600  1
  C  C20  1  0.99207600  0.32322000  0.45904400  1
  C  C21  1  0.50792400  0.67678000  0.95904400  1
  C  C22  1  0.00792400  0.82322000  0.04095600  1
  C  C23  1  0.49207600  0.17678000  0.54095600  1
  C  C24  1  0.68152300  0.59589700  0.32915700  1
  C  C25  1  0.81847700  0.40410300  0.82915700  1
  C  C26  1  0.31847700  0.09589700  0.17084300  1
  C  C27  1  0.18152300  0.90410300  0.67084300  1
  C  C28  1  0.48544100  0.23109000  0.34591500  1
  C  C29  1  0.01455900  0.76891000  0.84591500  1
  C  C30  1  0.51455900  0.73109000  0.15408500  1
  C  C31  1  0.98544100  0.26891000  0.65408500  1
  C  C32  1  0.50962300  0.34736900  0.02700900  1
  C  C33  1  0.99037700  0.65263100  0.52700900  1
  C  C34  1  0.49037700  0.84736900  0.47299100  1
  C  C35  1  0.00962300  0.15263100  0.97299100  1
