# generated using pymatgen
data_Cu2NiC6
_symmetry_space_group_name_H-M   'P 1'
_cell_length_a   6.51968221
_cell_length_b   6.51967938
_cell_length_c   8.13028300
_cell_angle_alpha   90.00001875
_cell_angle_beta   90.00001875
_cell_angle_gamma   90.00006214
_symmetry_Int_Tables_number   1
_chemical_formula_structural   Cu2NiC6
_chemical_formula_sum   'Cu4 Ni2 C12'
_cell_volume   345.58774131
_cell_formula_units_Z   2
loop_
 _symmetry_equiv_pos_site_id
 _symmetry_equiv_pos_as_xyz
  1  'x, y, z'
loop_
 _atom_site_type_symbol
 _atom_site_label
 _atom_site_symmetry_multiplicity
 _atom_site_fract_x
 _atom_site_fract_y
 _atom_site_fract_z
 _atom_site_occupancy
  C  C0  1  0.00000000  0.00000000  0.50000000  1
  C  C1  1  0.50000000  0.50000000  0.50000000  1
  C  C2  1  0.25000300  0.25000300  0.25398700  1
  C  C3  1  0.74999600  0.74999600  0.25398700  1
  C  C4  1  0.25000300  0.74999600  0.25399900  1
  C  C5  1  0.74999600  0.25000300  0.25399900  1
  C  C6  1  0.25000400  0.25000400  0.74599800  1
  C  C7  1  0.74999700  0.74999700  0.74599800  1
  C  C8  1  0.25000400  0.74999700  0.74601600  1
  C  C9  1  0.74999700  0.25000400  0.74601600  1
  C  C10  1  0.50000000  0.50000000  0.00000000  1
  C  C11  1  0.00000000  0.00000000  0.00000000  1
  Ni  Ni12  1  0.50000000  0.00000000  0.50000000  1
  Ni  Ni13  1  0.00000000  0.50000000  0.50000000  1
  Cu  Cu14  1  0.00000000  0.00000000  0.78192900  1
  Cu  Cu15  1  0.50000000  0.50000000  0.78194100  1
  Cu  Cu16  1  0.00000000  0.00000000  0.21807100  1
  Cu  Cu17  1  0.50000000  0.50000000  0.21805900  1
