# generated using pymatgen
data_Cu3NiC17
_symmetry_space_group_name_H-M   'P 1'
_cell_length_a   11.99600174
_cell_length_b   11.99600174
_cell_length_c   11.38038200
_cell_angle_alpha   90.00000000
_cell_angle_beta   90.00000000
_cell_angle_gamma   114.72602424
_symmetry_Int_Tables_number   1
_chemical_formula_structural   Cu3NiC17
_chemical_formula_sum   'Cu12 Ni4 C68'
_cell_volume   1487.53754953
_cell_formula_units_Z   4
loop_
 _symmetry_equiv_pos_site_id
 _symmetry_equiv_pos_as_xyz
  1  'x, y, z'
loop_
 _atom_site_type_symbol
 _atom_site_label
 _atom_site_symmetry_multiplicity
 _atom_site_fract_x
 _atom_site_fract_y
 _atom_site_fract_z
 _atom_site_occupancy
  C  C0  1  0.39859300  0.39859300  0.58454300  1
  C  C1  1  0.60140700  0.60140700  0.41545700  1
  C  C2  1  0.10140700  0.10140700  0.08454300  1
  C  C3  1  0.89859300  0.89859300  0.91545700  1
  C  C4  1  0.83046300  0.79348600  0.64198700  1
  C  C5  1  0.20651400  0.16953700  0.35801300  1
  C  C6  1  0.70651400  0.66953700  0.14198700  1
  C  C7  1  0.33046300  0.29348600  0.85801300  1
  C  C8  1  0.16953700  0.20651400  0.35801300  1
  C  C9  1  0.79348600  0.83046300  0.64198700  1
  C  C10  1  0.29348600  0.33046300  0.85801300  1
  C  C11  1  0.66953700  0.70651400  0.14198700  1
  C  C12  1  0.51150700  0.25192500  0.01001100  1
  C  C13  1  0.74807500  0.48849300  0.98998900  1
  C  C14  1  0.24807500  0.98849300  0.51001100  1
  C  C15  1  0.01150700  0.75192500  0.48998900  1
  C  C16  1  0.48849300  0.74807500  0.98998900  1
  C  C17  1  0.25192500  0.51150700  0.01001100  1
  C  C18  1  0.75192500  0.01150700  0.48998900  1
  C  C19  1  0.98849300  0.24807500  0.51001100  1
  C  C20  1  0.59687700  0.33173600  0.56277700  1
  C  C21  1  0.66826400  0.40312300  0.43722300  1
  C  C22  1  0.16826400  0.90312300  0.06277700  1
  C  C23  1  0.09687700  0.83173600  0.93722300  1
  C  C24  1  0.40312300  0.66826400  0.43722300  1
  C  C25  1  0.33173600  0.59687700  0.56277700  1
  C  C26  1  0.83173600  0.09687700  0.93722300  1
  C  C27  1  0.90312300  0.16826400  0.06277700  1
  C  C28  1  0.31310000  0.97035400  0.90783900  1
  C  C29  1  0.02964600  0.68690000  0.09216100  1
  C  C30  1  0.52964600  0.18690000  0.40783900  1
  C  C31  1  0.81310000  0.47035400  0.59216100  1
  C  C32  1  0.68690000  0.02964600  0.09216100  1
  C  C33  1  0.97035400  0.31310000  0.90783900  1
  C  C34  1  0.47035400  0.81310000  0.59216100  1
  C  C35  1  0.18690000  0.52964600  0.40783900  1
  C  C36  1  0.28988600  0.81456500  0.87910900  1
  C  C37  1  0.18543500  0.71011400  0.12089100  1
  C  C38  1  0.68543500  0.21011400  0.37910900  1
  C  C39  1  0.78988600  0.31456500  0.62089100  1
  C  C40  1  0.71011400  0.18543500  0.12089100  1
  C  C41  1  0.81456500  0.28988600  0.87911000  1
  C  C42  1  0.31456500  0.78988600  0.62089100  1
  C  C43  1  0.21011400  0.68543500  0.37911000  1
  C  C44  1  0.61404200  0.14501200  0.51561300  1
  C  C45  1  0.85498800  0.38595800  0.48438700  1
  C  C46  1  0.35498800  0.88595800  0.01561300  1
  C  C47  1  0.11404200  0.64501200  0.98438700  1
  C  C48  1  0.38595800  0.85498800  0.48438700  1
  C  C49  1  0.14501200  0.61404200  0.51561300  1
  C  C50  1  0.64501200  0.11404200  0.98438700  1
  C  C51  1  0.88595800  0.35498800  0.01561300  1
  C  C52  1  0.28861800  0.87955100  0.94628900  1
  C  C53  1  0.12044900  0.71138200  0.05371100  1
  C  C54  1  0.62044900  0.21138200  0.44628900  1
  C  C55  1  0.78861800  0.37955100  0.55371100  1
  C  C56  1  0.71138200  0.12044900  0.05371100  1
  C  C57  1  0.87955100  0.28861800  0.94628900  1
  C  C58  1  0.37955100  0.78861800  0.55371100  1
  C  C59  1  0.21138200  0.62044900  0.44628900  1
  Ni  Ni60  1  0.66438200  0.33561800  0.50000000  1
  Ni  Ni61  1  0.16438200  0.83561800  0.00000000  1
  Ni  Ni62  1  0.33561800  0.66438200  0.50000000  1
  Ni  Ni63  1  0.83561800  0.16438200  0.00000000  1
  Cu  Cu64  1  0.08621100  0.08621100  0.88072500  1
  Cu  Cu65  1  0.91378900  0.91378900  0.11927500  1
  Cu  Cu66  1  0.41378900  0.41378900  0.38072500  1
  Cu  Cu67  1  0.58621100  0.58621100  0.61927500  1
  Cu  Cu68  1  0.52091000  0.24933100  0.89731300  1
  Cu  Cu69  1  0.75066900  0.47909000  0.10268700  1
  Cu  Cu70  1  0.25066900  0.97909000  0.39731300  1
  Cu  Cu71  1  0.02091000  0.74933100  0.60268700  1
  Cu  Cu72  1  0.47909000  0.75066900  0.10268700  1
  Cu  Cu73  1  0.24933100  0.52091000  0.89731300  1
  Cu  Cu74  1  0.74933100  0.02091000  0.60268700  1
  Cu  Cu75  1  0.97909000  0.25066900  0.39731300  1
  C  C76  1  0.20419600  0.04769400  0.13195000  1
  C  C77  1  0.95230600  0.79580400  0.86805000  1
  C  C78  1  0.45230600  0.29580400  0.63195000  1
  C  C79  1  0.70419600  0.54769400  0.36805000  1
  C  C80  1  0.79580400  0.95230600  0.86805000  1
  C  C81  1  0.04769400  0.20419600  0.13195000  1
  C  C82  1  0.54769400  0.70419600  0.36805000  1
  C  C83  1  0.29580400  0.45230600  0.63195000  1
