# generated using pymatgen
data_Cu2Ni14C9
_symmetry_space_group_name_H-M   'P 1'
_cell_length_a   7.30933740
_cell_length_b   8.04411766
_cell_length_c   5.91983122
_cell_angle_alpha   115.84345939
_cell_angle_beta   111.19500292
_cell_angle_gamma   79.24091428
_symmetry_Int_Tables_number   1
_chemical_formula_structural   Cu2Ni14C9
_chemical_formula_sum   'Cu2 Ni14 C9'
_cell_volume   291.89267254
_cell_formula_units_Z   1
loop_
 _symmetry_equiv_pos_site_id
 _symmetry_equiv_pos_as_xyz
  1  'x, y, z'
loop_
 _atom_site_type_symbol
 _atom_site_label
 _atom_site_symmetry_multiplicity
 _atom_site_fract_x
 _atom_site_fract_y
 _atom_site_fract_z
 _atom_site_occupancy
  C  C0  1  0.25705400  0.23663000  0.96473800  1
  C  C1  1  0.75412900  0.23655600  0.49386100  1
  C  C2  1  0.54264700  0.96426500  0.99074100  1
  C  C3  1  0.22390700  0.31142200  0.48210000  1
  C  C4  1  0.75711400  0.77594300  0.47664200  1
  C  C5  1  0.50023700  0.53300000  0.97397700  1
  C  C6  1  0.00898600  0.95149300  0.03647400  1
  C  C7  1  0.26031700  0.74520500  0.50364000  1
  C  C8  1  0.98369600  0.52090700  0.99679300  1
  Ni  Ni9  1  0.98645200  0.17798900  0.34309200  1
  Ni  Ni10  1  0.95335500  0.25937200  0.82927200  1
  Ni  Ni11  1  0.55905500  0.22187100  0.15404400  1
  Ni  Ni12  1  0.34118800  0.99934100  0.70715600  1
  Ni  Ni13  1  0.51869700  0.33452800  0.65643000  1
  Ni  Ni14  1  0.77349400  0.57628900  0.15180800  1
  Ni  Ni15  1  0.73954400  0.91511800  0.81793500  1
  Ni  Ni16  1  0.23884300  0.44322000  0.84987300  1
  Ni  Ni17  1  0.49217500  0.68579700  0.32543200  1
  Ni  Ni18  1  0.69682800  0.96791800  0.32558200  1
  Ni  Ni19  1  0.19273100  0.47151700  0.30287000  1
  Ni  Ni20  1  0.44418300  0.72577300  0.83559900  1
  Ni  Ni21  1  0.07863500  0.76668700  0.17528100  1
  Ni  Ni22  1  0.02874500  0.81144400  0.66120100  1
  Cu  Cu23  1  0.81641100  0.51510100  0.64187900  1
  Cu  Cu24  1  0.26824400  0.07483800  0.16072000  1
