# generated using pymatgen
data_Cu5(NiC2)2
_symmetry_space_group_name_H-M   'P 1'
_cell_length_a   7.93095000
_cell_length_b   7.93095000
_cell_length_c   13.05841400
_cell_angle_alpha   90.00000000
_cell_angle_beta   90.00000000
_cell_angle_gamma   90.00000000
_symmetry_Int_Tables_number   1
_chemical_formula_structural   Cu5(NiC2)2
_chemical_formula_sum   'Cu20 Ni8 C16'
_cell_volume   821.37382146
_cell_formula_units_Z   4
loop_
 _symmetry_equiv_pos_site_id
 _symmetry_equiv_pos_as_xyz
  1  'x, y, z'
loop_
 _atom_site_type_symbol
 _atom_site_label
 _atom_site_symmetry_multiplicity
 _atom_site_fract_x
 _atom_site_fract_y
 _atom_site_fract_z
 _atom_site_occupancy
  Ni  Ni0  1  0.09746700  0.90253300  0.25000000  1
  Ni  Ni1  1  0.40253300  0.90253300  0.75000000  1
  Ni  Ni2  1  0.09746700  0.59746700  0.75000000  1
  Ni  Ni3  1  0.40253300  0.59746700  0.25000000  1
  Ni  Ni4  1  0.90253300  0.09746700  0.75000000  1
  Ni  Ni5  1  0.59746700  0.09746700  0.25000000  1
  Ni  Ni6  1  0.90253300  0.40253300  0.25000000  1
  Ni  Ni7  1  0.59746700  0.40253300  0.75000000  1
  Cu  Cu8  1  0.75000000  0.75000000  0.37381700  1
  Cu  Cu9  1  0.75000000  0.75000000  0.87381700  1
  Cu  Cu10  1  0.25000000  0.25000000  0.62618300  1
  Cu  Cu11  1  0.25000000  0.25000000  0.12618300  1
  Cu  Cu12  1  0.13231800  0.57803600  0.41522500  1
  Cu  Cu13  1  0.36768200  0.57803600  0.91522500  1
  Cu  Cu14  1  0.13231800  0.92196400  0.91522500  1
  Cu  Cu15  1  0.36768200  0.92196400  0.41522500  1
  Cu  Cu16  1  0.57803600  0.13231800  0.91522500  1
  Cu  Cu17  1  0.92196400  0.13231800  0.41522500  1
  Cu  Cu18  1  0.57803600  0.36768200  0.41522500  1
  Cu  Cu19  1  0.92196400  0.36768200  0.91522500  1
  Cu  Cu20  1  0.86768200  0.42196400  0.58477500  1
  Cu  Cu21  1  0.63231800  0.42196400  0.08477500  1
  Cu  Cu22  1  0.86768200  0.07803600  0.08477500  1
  Cu  Cu23  1  0.63231800  0.07803600  0.58477500  1
  Cu  Cu24  1  0.42196400  0.86768200  0.08477500  1
  Cu  Cu25  1  0.07803600  0.86768200  0.58477500  1
  Cu  Cu26  1  0.42196400  0.63231800  0.58477500  1
  Cu  Cu27  1  0.07803600  0.63231800  0.08477500  1
  C  C28  1  0.63517400  0.05327900  0.39421500  1
  C  C29  1  0.86482600  0.05327900  0.89421500  1
  C  C30  1  0.63517400  0.44672100  0.89421500  1
  C  C31  1  0.86482600  0.44672100  0.39421500  1
  C  C32  1  0.05327900  0.63517400  0.89421500  1
  C  C33  1  0.44672100  0.63517400  0.39421500  1
  C  C34  1  0.05327900  0.86482600  0.39421500  1
  C  C35  1  0.44672100  0.86482600  0.89421500  1
  C  C36  1  0.36482600  0.94672100  0.60578500  1
  C  C37  1  0.13517400  0.94672100  0.10578500  1
  C  C38  1  0.36482600  0.55327900  0.10578500  1
  C  C39  1  0.13517400  0.55327900  0.60578500  1
  C  C40  1  0.94672100  0.36482600  0.10578500  1
  C  C41  1  0.55327900  0.36482600  0.60578500  1
  C  C42  1  0.94672100  0.13517400  0.60578500  1
  C  C43  1  0.55327900  0.13517400  0.10578500  1
