# generated using pymatgen
data_Cu3(Ni3C2)2
_symmetry_space_group_name_H-M   'P 1'
_cell_length_a   7.08908533
_cell_length_b   7.08908533
_cell_length_c   7.08908492
_cell_angle_alpha   59.82606602
_cell_angle_beta   59.82606602
_cell_angle_gamma   59.82606707
_symmetry_Int_Tables_number   1
_chemical_formula_structural   Cu3(Ni3C2)2
_chemical_formula_sum   'Cu3 Ni6 C4'
_cell_volume   250.92139121
_cell_formula_units_Z   1
loop_
 _symmetry_equiv_pos_site_id
 _symmetry_equiv_pos_as_xyz
  1  'x, y, z'
loop_
 _atom_site_type_symbol
 _atom_site_label
 _atom_site_symmetry_multiplicity
 _atom_site_fract_x
 _atom_site_fract_y
 _atom_site_fract_z
 _atom_site_occupancy
  C  C0  1  0.40045800  0.40045800  0.40045800  1
  C  C1  1  0.39850900  0.79655200  0.39850900  1
  C  C2  1  0.79655200  0.39850900  0.39850900  1
  C  C3  1  0.39850900  0.39850900  0.79655200  1
  Ni  Ni4  1  0.00041700  0.00041700  0.00041700  1
  Ni  Ni5  1  0.14330100  0.14330100  0.14330100  1
  Ni  Ni6  1  0.14291100  0.56839200  0.14291100  1
  Ni  Ni7  1  0.56839200  0.14291100  0.14291100  1
  Ni  Ni8  1  0.14291100  0.14291100  0.56839200  1
  Ni  Ni9  1  0.63977400  0.63977400  0.63977400  1
  Cu  Cu10  1  0.63092400  0.10642000  0.63092400  1
  Cu  Cu11  1  0.10642000  0.63092400  0.63092400  1
  Cu  Cu12  1  0.63092400  0.63092400  0.10642000  1
