# generated using pymatgen
data_CuNiC9
_symmetry_space_group_name_H-M   'P 1'
_cell_length_a   9.69783290
_cell_length_b   7.30127200
_cell_length_c   11.94603389
_cell_angle_alpha   90.00000000
_cell_angle_beta   90.18348689
_cell_angle_gamma   90.00000000
_symmetry_Int_Tables_number   1
_chemical_formula_structural   CuNiC9
_chemical_formula_sum   'Cu4 Ni4 C36'
_cell_volume   845.85269949
_cell_formula_units_Z   4
loop_
 _symmetry_equiv_pos_site_id
 _symmetry_equiv_pos_as_xyz
  1  'x, y, z'
loop_
 _atom_site_type_symbol
 _atom_site_label
 _atom_site_symmetry_multiplicity
 _atom_site_fract_x
 _atom_site_fract_y
 _atom_site_fract_z
 _atom_site_occupancy
  Ni  Ni0  1  0.34232000  0.19242400  0.87339100  1
  Ni  Ni1  1  0.65768000  0.69242400  0.12660900  1
  Ni  Ni2  1  0.07317500  0.18351400  0.30478000  1
  Ni  Ni3  1  0.92682500  0.68351400  0.69522000  1
  Cu  Cu4  1  0.44512200  0.68902000  0.85660600  1
  Cu  Cu5  1  0.55487800  0.18902000  0.14339400  1
  Cu  Cu6  1  0.11463400  0.70173600  0.41401700  1
  Cu  Cu7  1  0.88536600  0.20173600  0.58598300  1
  C  C8  1  0.04352200  0.89313900  0.35429500  1
  C  C9  1  0.95647800  0.39313900  0.64570500  1
  C  C10  1  0.16008900  0.19044900  0.90076000  1
  C  C11  1  0.83991100  0.69044900  0.09924000  1
  C  C12  1  0.20808300  0.20371500  0.41135300  1
  C  C13  1  0.79191700  0.70371500  0.58864700  1
  C  C14  1  0.05128600  0.51755600  0.35074300  1
  C  C15  1  0.94871400  0.01755600  0.64925700  1
  C  C16  1  0.34564300  0.50161800  0.88090000  1
  C  C17  1  0.65435700  0.00161800  0.11910000  1
  C  C18  1  0.51880400  0.19321600  0.82738900  1
  C  C19  1  0.48119600  0.69321600  0.17261100  1
  C  C20  1  0.58014500  0.69164500  0.94676100  1
  C  C21  1  0.41985500  0.19164500  0.05323900  1
  C  C22  1  0.34999300  0.88261900  0.87226400  1
  C  C23  1  0.65000700  0.38261900  0.12773600  1
  C  C24  1  0.50146300  0.68096400  0.73135800  1
  C  C25  1  0.49853700  0.18096400  0.26864200  1
  C  C26  1  0.93078300  0.22037400  0.20603400  1
  C  C27  1  0.06921700  0.72037400  0.79396600  1
  C  C28  1  0.08091900  0.70368400  0.55435200  1
  C  C29  1  0.91908100  0.20368400  0.44564800  1
  C  C30  1  0.27829400  0.71070000  0.39816700  1
  C  C31  1  0.72170600  0.21070000  0.60183300  1
  C  C32  1  0.17646800  0.09424500  0.18084900  1
  C  C33  1  0.82353200  0.59424500  0.81915100  1
  C  C34  1  0.18932000  0.47152800  0.14367700  1
  C  C35  1  0.81068100  0.97152800  0.85632300  1
  C  C36  1  0.31546400  0.20618600  0.65641400  1
  C  C37  1  0.68453600  0.70618600  0.34358600  1
  C  C38  1  0.36181000  0.04772800  0.61528500  1
  C  C39  1  0.63819000  0.54772800  0.38471500  1
  C  C40  1  0.12941300  0.60042100  0.10017000  1
  C  C41  1  0.87058700  0.10042100  0.89983000  1
  C  C42  1  0.42195000  0.05334900  0.52283600  1
  C  C43  1  0.57805000  0.55334900  0.47716400  1
