# generated using pymatgen
data_Cu(NiC7)3
_symmetry_space_group_name_H-M   'P 1'
_cell_length_a   7.34582900
_cell_length_b   15.12566000
_cell_length_c   16.07544200
_cell_angle_alpha   90.00000000
_cell_angle_beta   90.00000000
_cell_angle_gamma   90.00000000
_symmetry_Int_Tables_number   1
_chemical_formula_structural   Cu(NiC7)3
_chemical_formula_sum   'Cu4 Ni12 C84'
_cell_volume   1786.15058919
_cell_formula_units_Z   4
loop_
 _symmetry_equiv_pos_site_id
 _symmetry_equiv_pos_as_xyz
  1  'x, y, z'
loop_
 _atom_site_type_symbol
 _atom_site_label
 _atom_site_symmetry_multiplicity
 _atom_site_fract_x
 _atom_site_fract_y
 _atom_site_fract_z
 _atom_site_occupancy
  Ni  Ni0  1  0.00000000  0.88117000  0.20261900  1
  Ni  Ni1  1  0.00000000  0.11883000  0.79738100  1
  Ni  Ni2  1  0.00000000  0.61883000  0.70261900  1
  Ni  Ni3  1  0.00000000  0.38117000  0.29738100  1
  Ni  Ni4  1  0.50000000  0.61867700  0.35232800  1
  Ni  Ni5  1  0.50000000  0.38132300  0.64767200  1
  Ni  Ni6  1  0.50000000  0.88132300  0.85232800  1
  Ni  Ni7  1  0.50000000  0.11867700  0.14767200  1
  Ni  Ni8  1  0.50000000  0.91073700  0.43662000  1
  Ni  Ni9  1  0.50000000  0.08926300  0.56338000  1
  Ni  Ni10  1  0.50000000  0.58926300  0.93662000  1
  Ni  Ni11  1  0.50000000  0.41073700  0.06338000  1
  Cu  Cu12  1  0.00000000  0.50000000  0.50000000  1
  Cu  Cu13  1  0.00000000  0.00000000  0.00000000  1
  Cu  Cu14  1  0.00000000  0.50000000  0.00000000  1
  Cu  Cu15  1  0.00000000  0.00000000  0.50000000  1
  C  C16  1  0.00000000  0.62786200  0.28940300  1
  C  C17  1  0.00000000  0.37213800  0.71059700  1
  C  C18  1  0.00000000  0.87213800  0.78940300  1
  C  C19  1  0.00000000  0.12786200  0.21059700  1
  C  C20  1  0.71233300  0.63489700  0.14477000  1
  C  C21  1  0.71233300  0.36510300  0.85522900  1
  C  C22  1  0.28766700  0.86510300  0.64477100  1
  C  C23  1  0.28766700  0.13489700  0.35522900  1
  C  C24  1  0.28766700  0.36510300  0.85522900  1
  C  C25  1  0.28766700  0.63489700  0.14477000  1
  C  C26  1  0.71233300  0.13489700  0.35522900  1
  C  C27  1  0.71233300  0.86510300  0.64477100  1
  C  C28  1  0.00000000  0.78143700  0.40783000  1
  C  C29  1  0.00000000  0.21856300  0.59217000  1
  C  C30  1  0.00000000  0.71856300  0.90783000  1
  C  C31  1  0.00000000  0.28143700  0.09217000  1
  C  C32  1  0.71823500  0.80013600  0.03729800  1
  C  C33  1  0.71823500  0.19986400  0.96270200  1
  C  C34  1  0.28176500  0.69986400  0.53729800  1
  C  C35  1  0.28176500  0.30013600  0.46270200  1
  C  C36  1  0.28176500  0.19986400  0.96270200  1
  C  C37  1  0.28176500  0.80013600  0.03729800  1
  C  C38  1  0.71823500  0.30013600  0.46270200  1
  C  C39  1  0.71823500  0.69986400  0.53729800  1
  C  C40  1  0.81377900  0.74563900  0.45462300  1
  C  C41  1  0.81377900  0.25436100  0.54537700  1
  C  C42  1  0.18622100  0.75436100  0.95462300  1
  C  C43  1  0.18622100  0.24563900  0.04537700  1
  C  C44  1  0.18622100  0.25436100  0.54537700  1
  C  C45  1  0.18622100  0.74563900  0.45462300  1
  C  C46  1  0.81377900  0.24563900  0.04537700  1
  C  C47  1  0.81377900  0.75436100  0.95462300  1
  C  C48  1  0.00000000  0.88650000  0.39746300  1
  C  C49  1  0.00000000  0.11350000  0.60253700  1
  C  C50  1  0.00000000  0.61350000  0.89746300  1
  C  C51  1  0.00000000  0.38650000  0.10253700  1
  C  C52  1  0.00000000  0.73427600  0.31445600  1
  C  C53  1  0.00000000  0.26572400  0.68554400  1
  C  C54  1  0.00000000  0.76572400  0.81445600  1
  C  C55  1  0.00000000  0.23427600  0.18554400  1
  C  C56  1  0.00000000  0.56180600  0.36639100  1
  C  C57  1  0.00000000  0.43819400  0.63360900  1
  C  C58  1  0.00000000  0.93819400  0.86639100  1
  C  C59  1  0.00000000  0.06180600  0.13360900  1
  C  C60  1  0.81793800  0.61129300  0.23202700  1
  C  C61  1  0.81793800  0.38870700  0.76797300  1
  C  C62  1  0.18206200  0.88870700  0.73202700  1
  C  C63  1  0.18206200  0.11129300  0.26797300  1
  C  C64  1  0.18206200  0.38870700  0.76797300  1
  C  C65  1  0.18206200  0.61129300  0.23202700  1
  C  C66  1  0.81793800  0.11129300  0.26797300  1
  C  C67  1  0.81793800  0.88870700  0.73202700  1
  C  C68  1  0.50000000  0.63267600  0.17786100  1
  C  C69  1  0.50000000  0.36732400  0.82213900  1
  C  C70  1  0.50000000  0.86732400  0.67786100  1
  C  C71  1  0.50000000  0.13267600  0.32213900  1
  C  C72  1  0.74796200  0.56676600  0.07040200  1
  C  C73  1  0.74796200  0.43323400  0.92959800  1
  C  C74  1  0.25203800  0.93323400  0.57040200  1
  C  C75  1  0.25203800  0.06676600  0.42959800  1
  C  C76  1  0.25203800  0.43323400  0.92959800  1
  C  C77  1  0.25203800  0.56676600  0.07040200  1
  C  C78  1  0.74796200  0.06676600  0.42959800  1
  C  C79  1  0.74796200  0.93323400  0.57040200  1
  C  C80  1  0.76199100  0.73834400  0.12014300  1
  C  C81  1  0.76199100  0.26165600  0.87985700  1
  C  C82  1  0.23800900  0.76165600  0.62014300  1
  C  C83  1  0.23800900  0.23834400  0.37985700  1
  C  C84  1  0.23800900  0.26165600  0.87985700  1
  C  C85  1  0.23800900  0.73834400  0.12014300  1
  C  C86  1  0.76199100  0.23834400  0.37985700  1
  C  C87  1  0.76199100  0.76165600  0.62014300  1
  C  C88  1  0.78063800  0.89922000  0.05373600  1
  C  C89  1  0.78063800  0.10078000  0.94626400  1
  C  C90  1  0.21936200  0.60078000  0.55373600  1
  C  C91  1  0.21936200  0.39922000  0.44626400  1
  C  C92  1  0.21936200  0.10078000  0.94626400  1
  C  C93  1  0.21936200  0.89922000  0.05373600  1
  C  C94  1  0.78063800  0.39922000  0.44626400  1
  C  C95  1  0.78063800  0.60078000  0.55373600  1
  C  C96  1  0.50000000  0.78845600  0.01270700  1
  C  C97  1  0.50000000  0.21154400  0.98729300  1
  C  C98  1  0.50000000  0.71154400  0.51270700  1
  C  C99  1  0.50000000  0.28845600  0.48729300  1
