# generated using pymatgen
data_Cu2Ni2C7
_symmetry_space_group_name_H-M   'P 1'
_cell_length_a   5.01343434
_cell_length_b   7.14796800
_cell_length_c   10.41157912
_cell_angle_alpha   90.00000000
_cell_angle_beta   92.76522989
_cell_angle_gamma   90.00000000
_symmetry_Int_Tables_number   1
_chemical_formula_structural   Cu2Ni2C7
_chemical_formula_sum   'Cu8 Ni8 C28'
_cell_volume   372.67352976
_cell_formula_units_Z   4
loop_
 _symmetry_equiv_pos_site_id
 _symmetry_equiv_pos_as_xyz
  1  'x, y, z'
loop_
 _atom_site_type_symbol
 _atom_site_label
 _atom_site_symmetry_multiplicity
 _atom_site_fract_x
 _atom_site_fract_y
 _atom_site_fract_z
 _atom_site_occupancy
  C  C0  1  0.36440100  0.36324500  0.31540100  1
  C  C1  1  0.63559900  0.86324500  0.18459900  1
  C  C2  1  0.63559900  0.63675500  0.68459900  1
  C  C3  1  0.36440100  0.13675500  0.81540100  1
  C  C4  1  0.25927500  0.16318500  0.48770700  1
  C  C5  1  0.74072500  0.66318500  0.01229300  1
  C  C6  1  0.74072500  0.83681500  0.51229300  1
  C  C7  1  0.25927500  0.33681500  0.98770700  1
  C  C8  1  0.02269200  0.15974000  0.37193000  1
  C  C9  1  0.97730800  0.65974000  0.12807000  1
  C  C10  1  0.97730800  0.84026000  0.62807000  1
  C  C11  1  0.02269200  0.34026000  0.87193000  1
  C  C12  1  0.30815500  0.04889800  0.35251800  1
  C  C13  1  0.69184500  0.54889800  0.14748200  1
  C  C14  1  0.69184500  0.95110200  0.64748200  1
  C  C15  1  0.30815500  0.45110200  0.85251800  1
  C  C16  1  0.29189000  0.67990400  0.33080000  1
  C  C17  1  0.70811000  0.17990400  0.16920000  1
  C  C18  1  0.70811000  0.32009600  0.66920000  1
  C  C19  1  0.29189000  0.82009600  0.83080000  1
  C  C20  1  0.01583500  0.56480200  0.36201900  1
  C  C21  1  0.98416500  0.06480200  0.13798100  1
  C  C22  1  0.98416500  0.43519800  0.63798100  1
  C  C23  1  0.01583500  0.93519800  0.86201900  1
  C  C24  1  0.26079300  0.58589600  0.47386000  1
  C  C25  1  0.73920700  0.08589600  0.02614000  1
  C  C26  1  0.73920700  0.41410400  0.52614000  1
  C  C27  1  0.26079300  0.91410400  0.97386000  1
  Ni  Ni28  1  0.22506800  0.16785400  0.38925000  1
  Ni  Ni29  1  0.77493200  0.66785400  0.11075000  1
  Ni  Ni30  1  0.77493200  0.83214600  0.61075000  1
  Ni  Ni31  1  0.22506800  0.33214600  0.88925000  1
  Ni  Ni32  1  0.21929500  0.56478000  0.37677900  1
  Ni  Ni33  1  0.78070500  0.06478000  0.12322100  1
  Ni  Ni34  1  0.78070500  0.43522000  0.62322100  1
  Ni  Ni35  1  0.21929500  0.93522000  0.87677900  1
  Cu  Cu36  1  0.66936500  0.36699500  0.35160800  1
  Cu  Cu37  1  0.33063500  0.86699500  0.14839200  1
  Cu  Cu38  1  0.33063500  0.63300500  0.64839200  1
  Cu  Cu39  1  0.66936500  0.13300500  0.85160800  1
  Cu  Cu40  1  0.30744100  0.35408900  0.16883300  1
  Cu  Cu41  1  0.69255900  0.85408900  0.33116700  1
  Cu  Cu42  1  0.69255900  0.64591100  0.83116700  1
  Cu  Cu43  1  0.30744100  0.14591100  0.66883300  1
