# generated using pymatgen
data_Cu3Ni2C5
_symmetry_space_group_name_H-M   'P 1'
_cell_length_a   11.00387700
_cell_length_b   11.00387700
_cell_length_c   5.49446400
_cell_angle_alpha   90.00000000
_cell_angle_beta   90.00000000
_cell_angle_gamma   90.00000000
_symmetry_Int_Tables_number   1
_chemical_formula_structural   Cu3Ni2C5
_chemical_formula_sum   'Cu12 Ni8 C20'
_cell_volume   665.29887140
_cell_formula_units_Z   4
loop_
 _symmetry_equiv_pos_site_id
 _symmetry_equiv_pos_as_xyz
  1  'x, y, z'
loop_
 _atom_site_type_symbol
 _atom_site_label
 _atom_site_symmetry_multiplicity
 _atom_site_fract_x
 _atom_site_fract_y
 _atom_site_fract_z
 _atom_site_occupancy
  Ni  Ni0  1  0.57454100  0.73553100  0.50000000  1
  Ni  Ni1  1  0.42545900  0.26446900  0.50000000  1
  Ni  Ni2  1  0.07454100  0.76446900  0.00000000  1
  Ni  Ni3  1  0.92545900  0.23553100  0.00000000  1
  Ni  Ni4  1  0.26446900  0.57454100  0.50000000  1
  Ni  Ni5  1  0.73553100  0.42545900  0.50000000  1
  Ni  Ni6  1  0.23553100  0.07454100  0.00000000  1
  Ni  Ni7  1  0.76446900  0.92545900  0.00000000  1
  Cu  Cu8  1  0.87729000  0.85815000  0.50000000  1
  Cu  Cu9  1  0.12271000  0.14185000  0.50000000  1
  Cu  Cu10  1  0.37729000  0.64185000  0.00000000  1
  Cu  Cu11  1  0.62271000  0.35815000  0.00000000  1
  Cu  Cu12  1  0.14185000  0.87729000  0.50000000  1
  Cu  Cu13  1  0.85815000  0.12271000  0.50000000  1
  Cu  Cu14  1  0.35815000  0.37729000  0.00000000  1
  Cu  Cu15  1  0.64185000  0.62271000  0.00000000  1
  Cu  Cu16  1  0.50000000  0.00000000  0.25000000  1
  Cu  Cu17  1  0.00000000  0.50000000  0.75000000  1
  Cu  Cu18  1  0.00000000  0.50000000  0.25000000  1
  Cu  Cu19  1  0.50000000  0.00000000  0.75000000  1
  C  C20  1  0.67461500  0.17461500  0.25000000  1
  C  C21  1  0.32538500  0.82538500  0.25000000  1
  C  C22  1  0.17461500  0.32538500  0.75000000  1
  C  C23  1  0.82538500  0.67461500  0.75000000  1
  C  C24  1  0.82538500  0.67461500  0.25000000  1
  C  C25  1  0.17461500  0.32538500  0.25000000  1
  C  C26  1  0.67461500  0.17461500  0.75000000  1
  C  C27  1  0.32538500  0.82538500  0.75000000  1
  C  C28  1  0.50000000  0.50000000  0.26996300  1
  C  C29  1  0.00000000  0.00000000  0.76996300  1
  C  C30  1  0.50000000  0.50000000  0.73003700  1
  C  C31  1  0.00000000  0.00000000  0.23003700  1
  C  C32  1  0.68543300  0.97342000  0.50000000  1
  C  C33  1  0.31456700  0.02658000  0.50000000  1
  C  C34  1  0.18543300  0.52658000  0.00000000  1
  C  C35  1  0.81456700  0.47342000  0.00000000  1
  C  C36  1  0.02658000  0.68543300  0.50000000  1
  C  C37  1  0.97342000  0.31456700  0.50000000  1
  C  C38  1  0.47342000  0.18543300  0.00000000  1
  C  C39  1  0.52658000  0.81456700  0.00000000  1
