# generated using pymatgen
data_Cu3NiC34
_symmetry_space_group_name_H-M   'P 1'
_cell_length_a   6.46395376
_cell_length_b   6.46395376
_cell_length_c   12.91718415
_cell_angle_alpha   83.08014821
_cell_angle_beta   83.08014821
_cell_angle_gamma   83.08937671
_symmetry_Int_Tables_number   1
_chemical_formula_structural   Cu3NiC34
_chemical_formula_sum   'Cu3 Ni1 C34'
_cell_volume   528.80613994
_cell_formula_units_Z   1
loop_
 _symmetry_equiv_pos_site_id
 _symmetry_equiv_pos_as_xyz
  1  'x, y, z'
loop_
 _atom_site_type_symbol
 _atom_site_label
 _atom_site_symmetry_multiplicity
 _atom_site_fract_x
 _atom_site_fract_y
 _atom_site_fract_z
 _atom_site_occupancy
  Ni  Ni0  1  0.34120400  0.34120400  0.67069400  1
  Cu  Cu1  1  0.34181800  0.34181800  0.17078700  1
  Cu  Cu2  1  0.65742800  0.65742800  0.82860900  1
  Cu  Cu3  1  0.65824600  0.65824600  0.32922200  1
  C  C4  1  0.15440100  0.65679400  0.82809200  1
  C  C5  1  0.15370300  0.65781300  0.32906000  1
  C  C6  1  0.65653100  0.65653100  0.57735100  1
  C  C7  1  0.65789900  0.65789900  0.07674600  1
  C  C8  1  0.65679400  0.15440100  0.82809200  1
  C  C9  1  0.65781300  0.15370300  0.32906000  1
  C  C10  1  0.84641200  0.34222800  0.67129500  1
  C  C11  1  0.84639300  0.34222100  0.17101600  1
  C  C12  1  0.34215600  0.34215600  0.92212800  1
  C  C13  1  0.34248300  0.34248300  0.42422100  1
  C  C14  1  0.34222800  0.84641200  0.67129500  1
  C  C15  1  0.34222100  0.84639300  0.17101600  1
  C  C16  1  0.00065800  0.00065800  0.74971600  1
  C  C17  1  0.00007700  0.00007700  0.25006000  1
  C  C18  1  0.00050800  0.49955100  0.50068300  1
  C  C19  1  0.00016200  0.50004100  0.99973700  1
  C  C20  1  0.50004100  0.00016200  0.99973700  1
  C  C21  1  0.49955100  0.00050800  0.50068300  1
  C  C22  1  0.09776000  0.09776000  0.54908100  1
  C  C23  1  0.09711800  0.09711800  0.04835100  1
  C  C24  1  0.90312800  0.90312800  0.95127500  1
  C  C25  1  0.90301900  0.90301900  0.45183700  1
  C  C26  1  0.71022300  0.28975300  0.99973700  1
  C  C27  1  0.70836700  0.29075600  0.50083700  1
  C  C28  1  0.29045600  0.00123100  0.85400000  1
  C  C29  1  0.28986300  0.99981200  0.35523200  1
  C  C30  1  0.00104000  0.70855700  0.64540200  1
  C  C31  1  0.00003300  0.71015800  0.14487100  1
  C  C32  1  0.70855700  0.00104000  0.64540200  1
  C  C33  1  0.71015800  0.00003300  0.14487100  1
  C  C34  1  0.00123100  0.29045600  0.85400000  1
  C  C35  1  0.99981200  0.28986300  0.35523200  1
  C  C36  1  0.28975300  0.71022300  0.99973700  1
  C  C37  1  0.29075600  0.70836700  0.50083700  1
