# generated using pymatgen
data_Cu2NiC31
_symmetry_space_group_name_H-M   'P 1'
_cell_length_a   7.13315600
_cell_length_b   7.21949185
_cell_length_c   19.04357664
_cell_angle_alpha   94.25633686
_cell_angle_beta   89.34693063
_cell_angle_gamma   119.49129340
_symmetry_Int_Tables_number   1
_chemical_formula_structural   Cu2NiC31
_chemical_formula_sum   'Cu4 Ni2 C62'
_cell_volume   850.92115458
_cell_formula_units_Z   2
loop_
 _symmetry_equiv_pos_site_id
 _symmetry_equiv_pos_as_xyz
  1  'x, y, z'
loop_
 _atom_site_type_symbol
 _atom_site_label
 _atom_site_symmetry_multiplicity
 _atom_site_fract_x
 _atom_site_fract_y
 _atom_site_fract_z
 _atom_site_occupancy
  Ni  Ni0  1  0.84519100  0.00946300  0.08074300  1
  Ni  Ni1  1  0.15480900  0.99053700  0.91925700  1
  Cu  Cu2  1  0.36044500  0.90422700  0.22341200  1
  Cu  Cu3  1  0.63955500  0.09577300  0.77658800  1
  Cu  Cu4  1  0.28380000  0.61847700  0.42769900  1
  Cu  Cu5  1  0.71620000  0.38152300  0.57230100  1
  C  C6  1  0.63418400  0.29671600  0.37682200  1
  C  C7  1  0.36581600  0.70328400  0.62317800  1
  C  C8  1  0.70105100  0.59950400  0.24192800  1
  C  C9  1  0.29894900  0.40049600  0.75807200  1
  C  C10  1  0.17118000  0.64478100  0.04984800  1
  C  C11  1  0.82882000  0.35521900  0.95015200  1
  C  C12  1  0.46405700  0.50657200  0.10333100  1
  C  C13  1  0.53594300  0.49342800  0.89666900  1
  C  C14  1  0.99175000  0.06327700  0.24693700  1
  C  C15  1  0.00825000  0.93672300  0.75306300  1
  C  C16  1  0.24969600  0.43965000  0.26921200  1
  C  C17  1  0.75030400  0.56035000  0.73078800  1
  C  C18  1  0.16289900  0.99720500  0.40043300  1
  C  C19  1  0.83710100  0.00279500  0.59956700  1
  C  C20  1  0.74907300  0.38691600  0.11776200  1
  C  C21  1  0.25092700  0.61308400  0.88223800  1
  C  C22  1  0.78808300  0.73517200  0.42727900  1
  C  C23  1  0.21191700  0.26482800  0.57272100  1
  C  C24  1  0.86870200  0.33549900  0.24335100  1
  C  C25  1  0.13129800  0.66450100  0.75664900  1
  C  C26  1  0.36025300  0.12822500  0.08322600  1
  C  C27  1  0.63974700  0.87177500  0.91677400  1
  C  C28  1  0.89633300  0.11639200  0.42719000  1
  C  C29  1  0.10366700  0.88360800  0.57281000  1
  C  C30  1  0.35653200  0.02537400  0.38304600  1
  C  C31  1  0.64346800  0.97462600  0.61695400  1
  C  C32  1  0.19195900  0.93053300  0.07025000  1
  C  C33  1  0.80804100  0.06946700  0.92975000  1
  C  C34  1  0.74014700  0.90355400  0.43440800  1
  C  C35  1  0.25985300  0.09644600  0.56559200  1
  C  C36  1  0.68894600  0.34100700  0.27906500  1
  C  C37  1  0.31105400  0.65899300  0.72093500  1
  C  C38  1  0.33175000  0.30313200  0.06926400  1
  C  C39  1  0.66825000  0.69686800  0.93073600  1
  C  C40  1  0.85956800  0.42929000  0.05306200  1
  C  C41  1  0.14043200  0.57071000  0.94693800  1
  C  C42  1  0.96915800  0.86982700  0.25476900  1
  C  C43  1  0.03084200  0.13017300  0.74523100  1
  C  C44  1  0.63045000  0.53569300  0.43435700  1
  C  C45  1  0.36955000  0.46430700  0.56564300  1
  C  C46  1  0.65644700  0.54279900  0.13585500  1
  C  C47  1  0.34355300  0.45720100  0.86414500  1
  C  C48  1  0.85426500  0.27763600  0.43731700  1
  C  C49  1  0.14573500  0.72236400  0.56268300  1
  C  C50  1  0.10738400  0.15990900  0.41027300  1
  C  C51  1  0.89261600  0.84009100  0.58972700  1
  C  C52  1  0.89781700  0.41931000  0.17514400  1
  C  C53  1  0.10218300  0.58069000  0.82485600  1
  C  C54  1  0.00239300  0.79004100  0.41535800  1
  C  C55  1  0.99760700  0.20995900  0.58464200  1
  C  C56  1  0.45020800  0.60729200  0.28404600  1
  C  C57  1  0.54979200  0.39270800  0.71595400  1
  C  C58  1  0.41040500  0.66195100  0.10705400  1
  C  C59  1  0.58959500  0.33804900  0.89294600  1
  C  C60  1  0.55310300  0.16646700  0.11419300  1
  C  C61  1  0.44689700  0.83353300  0.88580700  1
  C  C62  1  0.07856700  0.47402800  0.28511600  1
  C  C63  1  0.92143300  0.52597200  0.71488400  1
  C  C64  1  0.82459900  0.10579500  0.23983900  1
  C  C65  1  0.17540100  0.89420500  0.76016100  1
  C  C66  1  0.20778100  0.23456100  0.24496300  1
  C  C67  1  0.79221900  0.76543900  0.75503700  1
