# generated using pymatgen
data_Cu2NiC12
_symmetry_space_group_name_H-M   'P 1'
_cell_length_a   5.55609400
_cell_length_b   7.74046700
_cell_length_c   16.62937500
_cell_angle_alpha   90.00000000
_cell_angle_beta   90.00000000
_cell_angle_gamma   90.00000000
_symmetry_Int_Tables_number   1
_chemical_formula_structural   Cu2NiC12
_chemical_formula_sum   'Cu8 Ni4 C48'
_cell_volume   715.17557709
_cell_formula_units_Z   4
loop_
 _symmetry_equiv_pos_site_id
 _symmetry_equiv_pos_as_xyz
  1  'x, y, z'
loop_
 _atom_site_type_symbol
 _atom_site_label
 _atom_site_symmetry_multiplicity
 _atom_site_fract_x
 _atom_site_fract_y
 _atom_site_fract_z
 _atom_site_occupancy
  Ni  Ni0  1  0.00731000  0.75000000  0.34255300  1
  Ni  Ni1  1  0.49269000  0.75000000  0.84255300  1
  Ni  Ni2  1  0.99269000  0.25000000  0.65744700  1
  Ni  Ni3  1  0.50731000  0.25000000  0.15744700  1
  Cu  Cu4  1  0.00320900  0.75000000  0.00589200  1
  Cu  Cu5  1  0.00665700  0.75000000  0.67615900  1
  Cu  Cu6  1  0.49334300  0.75000000  0.17615900  1
  Cu  Cu7  1  0.49679100  0.75000000  0.50589200  1
  Cu  Cu8  1  0.99334300  0.25000000  0.32384100  1
  Cu  Cu9  1  0.99679100  0.25000000  0.99410800  1
  Cu  Cu10  1  0.50320900  0.25000000  0.49410800  1
  Cu  Cu11  1  0.50665700  0.25000000  0.82384100  1
  C  C12  1  0.49948500  0.50094300  0.33254500  1
  C  C13  1  0.50000000  0.50000000  0.00000000  1
  C  C14  1  0.50051500  0.49905700  0.66745500  1
  C  C15  1  0.99948500  0.00094300  0.16745500  1
  C  C16  1  0.00051500  0.99905700  0.83254500  1
  C  C17  1  0.00000000  0.00000000  0.50000000  1
  C  C18  1  0.49948500  0.99905700  0.33254500  1
  C  C19  1  0.50000000  0.00000000  0.00000000  1
  C  C20  1  0.50051500  0.00094300  0.66745500  1
  C  C21  1  0.00000000  0.50000000  0.50000000  1
  C  C22  1  0.99948500  0.49905700  0.16745500  1
  C  C23  1  0.00051500  0.50094300  0.83254500  1
  C  C24  1  0.71943400  0.45937000  0.23940300  1
  C  C25  1  0.72805800  0.46104600  0.90820300  1
  C  C26  1  0.72174700  0.46674500  0.57355400  1
  C  C27  1  0.77194200  0.03895400  0.40820300  1
  C  C28  1  0.77825300  0.03325500  0.07355400  1
  C  C29  1  0.78056600  0.04063000  0.73940300  1
  C  C30  1  0.27825300  0.96674500  0.42644600  1
  C  C31  1  0.27194200  0.96104600  0.09179700  1
  C  C32  1  0.28056600  0.95937000  0.76059700  1
  C  C33  1  0.21943400  0.54063000  0.26059700  1
  C  C34  1  0.22174700  0.53325500  0.92644600  1
  C  C35  1  0.22805800  0.53895400  0.59179700  1
  C  C36  1  0.27825300  0.53325500  0.42644600  1
  C  C37  1  0.27194200  0.53895400  0.09179700  1
  C  C38  1  0.28056600  0.54063000  0.76059700  1
  C  C39  1  0.21943400  0.95937000  0.26059700  1
  C  C40  1  0.22174700  0.96674500  0.92644600  1
  C  C41  1  0.22805800  0.96104600  0.59179700  1
  C  C42  1  0.71943400  0.04063000  0.23940300  1
  C  C43  1  0.72805800  0.03895400  0.90820300  1
  C  C44  1  0.72174700  0.03325500  0.57355400  1
  C  C45  1  0.77194200  0.46104600  0.40820300  1
  C  C46  1  0.77825300  0.46674500  0.07355400  1
  C  C47  1  0.78056600  0.45937000  0.73940300  1
  C  C48  1  0.93320000  0.75000000  0.49722900  1
  C  C49  1  0.92931300  0.75000000  0.16046000  1
  C  C50  1  0.92196600  0.75000000  0.82929600  1
  C  C51  1  0.57803400  0.75000000  0.32929600  1
  C  C52  1  0.56680000  0.75000000  0.99722900  1
  C  C53  1  0.57068700  0.75000000  0.66046000  1
  C  C54  1  0.07803400  0.25000000  0.17070400  1
  C  C55  1  0.07068700  0.25000000  0.83954000  1
  C  C56  1  0.06680000  0.25000000  0.50277100  1
  C  C57  1  0.42931300  0.25000000  0.33954000  1
  C  C58  1  0.43320000  0.25000000  0.00277100  1
  C  C59  1  0.42196600  0.25000000  0.67070400  1
