# generated using pymatgen
data_CuNiC5
_symmetry_space_group_name_H-M   'P 1'
_cell_length_a   5.54496200
_cell_length_b   8.90029800
_cell_length_c   9.01053466
_cell_angle_alpha   89.33952696
_cell_angle_beta   90.00000000
_cell_angle_gamma   90.00000000
_symmetry_Int_Tables_number   1
_chemical_formula_structural   CuNiC5
_chemical_formula_sum   'Cu4 Ni4 C20'
_cell_volume   444.65668741
_cell_formula_units_Z   4
loop_
 _symmetry_equiv_pos_site_id
 _symmetry_equiv_pos_as_xyz
  1  'x, y, z'
loop_
 _atom_site_type_symbol
 _atom_site_label
 _atom_site_symmetry_multiplicity
 _atom_site_fract_x
 _atom_site_fract_y
 _atom_site_fract_z
 _atom_site_occupancy
  C  C0  1  0.51364600  0.49392300  0.31260900  1
  C  C1  1  0.01364600  0.50607700  0.68739100  1
  C  C2  1  0.48825700  0.99712700  0.18700400  1
  C  C3  1  0.98825700  0.00287300  0.81299600  1
  Ni  Ni4  1  0.47854200  0.32749900  0.92449000  1
  Ni  Ni5  1  0.97854200  0.67250100  0.07551000  1
  Ni  Ni6  1  0.50272300  0.82706900  0.59489700  1
  Ni  Ni7  1  0.00272300  0.17293100  0.40510300  1
  Cu  Cu8  1  0.47958700  0.69409400  0.92955500  1
  Cu  Cu9  1  0.97958700  0.30590600  0.07044500  1
  Cu  Cu10  1  0.50184800  0.19347600  0.59780000  1
  Cu  Cu11  1  0.00184800  0.80652400  0.40220000  1
  C  C12  1  0.92945200  0.31460300  0.23967300  1
  C  C13  1  0.42945200  0.68539700  0.76032700  1
  C  C14  1  0.27060400  0.77077000  0.43962400  1
  C  C15  1  0.77060400  0.22923000  0.56037600  1
  C  C16  1  0.27091900  0.78158100  0.00795000  1
  C  C17  1  0.77091900  0.21841900  0.99205000  1
  C  C18  1  0.91114400  0.68916800  0.28786700  1
  C  C19  1  0.41114400  0.31083200  0.71213300  1
  C  C20  1  0.34646900  0.20927400  0.45449500  1
  C  C21  1  0.84646900  0.79072600  0.54550500  1
  C  C22  1  0.71986800  0.77956600  0.96072800  1
  C  C23  1  0.21986800  0.22043400  0.03927200  1
  C  C24  1  0.47881500  0.03376600  0.66835200  1
  C  C25  1  0.97881500  0.96623400  0.33164800  1
  C  C26  1  0.99612500  0.46586400  0.00142100  1
  C  C27  1  0.49612500  0.53413600  0.99857900  1
