# generated using pymatgen
data_Cu3Ni5C2
_symmetry_space_group_name_H-M   'P 1'
_cell_length_a   7.88197279
_cell_length_b   7.88197279
_cell_length_c   7.88197279
_cell_angle_alpha   137.91291099
_cell_angle_beta   105.14420583
_cell_angle_gamma   89.80655621
_symmetry_Int_Tables_number   1
_chemical_formula_structural   Cu3Ni5C2
_chemical_formula_sum   'Cu6 Ni10 C4'
_cell_volume   302.76360172
_cell_formula_units_Z   2
loop_
 _symmetry_equiv_pos_site_id
 _symmetry_equiv_pos_as_xyz
  1  'x, y, z'
loop_
 _atom_site_type_symbol
 _atom_site_label
 _atom_site_symmetry_multiplicity
 _atom_site_fract_x
 _atom_site_fract_y
 _atom_site_fract_z
 _atom_site_occupancy
  C  C0  1  0.63203200  0.86882000  0.76321200  1
  C  C1  1  0.36796800  0.13118000  0.23678800  1
  C  C2  1  0.89439200  0.63118000  0.26321200  1
  C  C3  1  0.10560800  0.36882000  0.73678800  1
  Ni  Ni4  1  0.00000000  0.25000000  0.25000000  1
  Ni  Ni5  1  0.00000000  0.75000000  0.75000000  1
  Ni  Ni6  1  0.26660000  0.51660000  0.25000000  1
  Ni  Ni7  1  0.73340000  0.98340000  0.25000000  1
  Ni  Ni8  1  0.73340000  0.48340000  0.75000000  1
  Ni  Ni9  1  0.26660000  0.01660000  0.75000000  1
  Ni  Ni10  1  0.45514900  0.60741500  0.84773400  1
  Ni  Ni11  1  0.75968200  0.10741500  0.65226600  1
  Ni  Ni12  1  0.24031800  0.89258500  0.34773400  1
  Ni  Ni13  1  0.54485100  0.39258500  0.15226600  1
  Cu  Cu14  1  0.02250300  0.13423800  0.88826500  1
  Cu  Cu15  1  0.50000000  0.75000000  0.25000000  1
  Cu  Cu16  1  0.24597300  0.63423800  0.61173500  1
  Cu  Cu17  1  0.75402700  0.36576200  0.38826500  1
  Cu  Cu18  1  0.97749700  0.86576200  0.11173500  1
  Cu  Cu19  1  0.50000000  0.25000000  0.75000000  1
