# generated using pymatgen
data_CuNi2C11
_symmetry_space_group_name_H-M   'P 1'
_cell_length_a   10.15207194
_cell_length_b   7.84591517
_cell_length_c   7.35799063
_cell_angle_alpha   83.71802997
_cell_angle_beta   50.19236773
_cell_angle_gamma   46.08960230
_symmetry_Int_Tables_number   1
_chemical_formula_structural   CuNi2C11
_chemical_formula_sum   'Cu2 Ni4 C22'
_cell_volume   258.36533883
_cell_formula_units_Z   2
loop_
 _symmetry_equiv_pos_site_id
 _symmetry_equiv_pos_as_xyz
  1  'x, y, z'
loop_
 _atom_site_type_symbol
 _atom_site_label
 _atom_site_symmetry_multiplicity
 _atom_site_fract_x
 _atom_site_fract_y
 _atom_site_fract_z
 _atom_site_occupancy
  C  C0  1  0.84543000  0.30810900  0.49923100  1
  C  C1  1  0.34723000  0.49923100  0.30810900  1
  C  C2  1  0.94189100  0.40457000  0.90277000  1
  C  C3  1  0.75076900  0.90277000  0.40457000  1
  C  C4  1  0.20285200  0.75863200  0.99211500  1
  C  C5  1  0.04640200  0.99211500  0.75863200  1
  C  C6  1  0.49136800  0.04714800  0.20359800  1
  C  C7  1  0.25788500  0.20359800  0.04714800  1
  C  C8  1  0.36667600  0.81881500  0.77468000  1
  C  C9  1  0.03983000  0.77468000  0.81881500  1
  C  C10  1  0.43118500  0.88332400  0.21017000  1
  C  C11  1  0.47532000  0.21017000  0.88332400  1
  C  C12  1  0.05903900  0.85687900  0.47321800  1
  C  C13  1  0.61086500  0.47321800  0.85687900  1
  C  C14  1  0.39312100  0.19096100  0.63913500  1
  C  C15  1  0.77678200  0.63913500  0.19096100  1
  C  C16  1  0.70269600  0.79730400  0.79730400  1
  C  C17  1  0.45269600  0.54730400  0.54730400  1
  C  C18  1  0.41020200  0.64297900  0.76726700  1
  C  C19  1  0.17955200  0.76726700  0.64297900  1
  C  C20  1  0.60702100  0.83979800  0.07044800  1
  C  C21  1  0.48273300  0.07044800  0.83979800  1
  Ni  Ni22  1  0.65950000  0.39507800  0.69341500  1
  Ni  Ni23  1  0.25200700  0.69341500  0.39507800  1
  Ni  Ni24  1  0.85492200  0.59050000  0.99799300  1
  Ni  Ni25  1  0.55658500  0.99799300  0.59050000  1
  Cu  Cu26  1  0.94735000  0.55265000  0.55265000  1
  Cu  Cu27  1  0.69735000  0.30265000  0.30265000  1
