# generated using pymatgen
data_CuNiC
_symmetry_space_group_name_H-M   'P 1'
_cell_length_a   3.75820900
_cell_length_b   7.16041600
_cell_length_c   10.20393600
_cell_angle_alpha   90.00000000
_cell_angle_beta   90.00000000
_cell_angle_gamma   90.00000000
_symmetry_Int_Tables_number   1
_chemical_formula_structural   CuNiC
_chemical_formula_sum   'Cu4 Ni4 C4'
_cell_volume   274.59138562
_cell_formula_units_Z   4
loop_
 _symmetry_equiv_pos_site_id
 _symmetry_equiv_pos_as_xyz
  1  'x, y, z'
loop_
 _atom_site_type_symbol
 _atom_site_label
 _atom_site_symmetry_multiplicity
 _atom_site_fract_x
 _atom_site_fract_y
 _atom_site_fract_z
 _atom_site_occupancy
  C  C0  1  0.75000000  0.17396900  0.66870000  1
  C  C1  1  0.75000000  0.67396900  0.83130000  1
  C  C2  1  0.25000000  0.82603100  0.33130000  1
  C  C3  1  0.25000000  0.32603100  0.16870000  1
  Ni  Ni4  1  0.75000000  0.80195500  0.54382900  1
  Ni  Ni5  1  0.75000000  0.30195500  0.95617100  1
  Ni  Ni6  1  0.25000000  0.19804500  0.45617100  1
  Ni  Ni7  1  0.25000000  0.69804500  0.04382900  1
  Cu  Cu8  1  0.75000000  0.04072000  0.21272200  1
  Cu  Cu9  1  0.75000000  0.54072000  0.28727800  1
  Cu  Cu10  1  0.25000000  0.95928000  0.78727800  1
  Cu  Cu11  1  0.25000000  0.45928000  0.71272200  1
