# generated using pymatgen
data_Cu4NiC
_symmetry_space_group_name_H-M   'P 1'
_cell_length_a   4.02656400
_cell_length_b   8.79160057
_cell_length_c   11.14424700
_cell_angle_alpha   90.00000000
_cell_angle_beta   90.00000000
_cell_angle_gamma   103.23824135
_symmetry_Int_Tables_number   1
_chemical_formula_structural   Cu4NiC
_chemical_formula_sum   'Cu8 Ni2 C2'
_cell_volume   384.02221566
_cell_formula_units_Z   2
loop_
 _symmetry_equiv_pos_site_id
 _symmetry_equiv_pos_as_xyz
  1  'x, y, z'
loop_
 _atom_site_type_symbol
 _atom_site_label
 _atom_site_symmetry_multiplicity
 _atom_site_fract_x
 _atom_site_fract_y
 _atom_site_fract_z
 _atom_site_occupancy
  C  C0  1  0.65639500  0.31279000  0.72614000  1
  C  C1  1  0.34360500  0.68721000  0.22614000  1
  Ni  Ni2  1  0.77036000  0.54072000  0.53571300  1
  Ni  Ni3  1  0.22964000  0.45928000  0.03571300  1
  Cu  Cu4  1  0.97060800  0.94121600  0.25841100  1
  Cu  Cu5  1  0.02939200  0.05878400  0.75841100  1
  Cu  Cu6  1  0.89391100  0.78782200  0.04007900  1
  Cu  Cu7  1  0.10608900  0.21217800  0.54007900  1
  Cu  Cu8  1  0.72413100  0.44826200  0.30098000  1
  Cu  Cu9  1  0.27586900  0.55173800  0.80098000  1
  Cu  Cu10  1  0.37450900  0.74901800  0.49967700  1
  Cu  Cu11  1  0.62549100  0.25098200  0.99967700  1
