# generated using pymatgen
data_CuNi3C16
_symmetry_space_group_name_H-M   'P 1'
_cell_length_a   8.93838603
_cell_length_b   8.93838603
_cell_length_c   6.88878871
_cell_angle_alpha   74.12406961
_cell_angle_beta   74.12406961
_cell_angle_gamma   92.74958300
_symmetry_Int_Tables_number   1
_chemical_formula_structural   CuNi3C16
_chemical_formula_sum   'Cu2 Ni6 C32'
_cell_volume   504.68625107
_cell_formula_units_Z   2
loop_
 _symmetry_equiv_pos_site_id
 _symmetry_equiv_pos_as_xyz
  1  'x, y, z'
loop_
 _atom_site_type_symbol
 _atom_site_label
 _atom_site_symmetry_multiplicity
 _atom_site_fract_x
 _atom_site_fract_y
 _atom_site_fract_z
 _atom_site_occupancy
  C  C0  1  0.51531100  0.48468900  0.25000000  1
  C  C1  1  0.48468900  0.51531100  0.75000000  1
  Ni  Ni2  1  0.24244500  0.75755500  0.25000000  1
  Ni  Ni3  1  0.75755500  0.24244500  0.75000000  1
  Ni  Ni4  1  0.56200000  0.87806500  0.36575300  1
  Ni  Ni5  1  0.43800000  0.12193500  0.63424700  1
  Ni  Ni6  1  0.12193500  0.43800000  0.13424700  1
  Ni  Ni7  1  0.87806500  0.56200000  0.86575300  1
  Cu  Cu8  1  0.99753600  0.00246400  0.25000000  1
  Cu  Cu9  1  0.00246400  0.99753600  0.75000000  1
  C  C10  1  0.78480100  0.21519900  0.25000000  1
  C  C11  1  0.21519900  0.78480100  0.75000000  1
  C  C12  1  0.37776000  0.14762300  0.12917000  1
  C  C13  1  0.62224000  0.85237700  0.87083000  1
  C  C14  1  0.85237700  0.62224000  0.37083000  1
  C  C15  1  0.14762300  0.37776000  0.62917000  1
  C  C16  1  0.49109400  0.82939400  0.11753800  1
  C  C17  1  0.50890600  0.17060600  0.88246200  1
  C  C18  1  0.17060600  0.50890600  0.38246200  1
  C  C19  1  0.82939400  0.49109400  0.61753800  1
  C  C20  1  0.67322800  0.24906400  0.47695500  1
  C  C21  1  0.32677200  0.75093600  0.52304500  1
  C  C22  1  0.75093600  0.32677200  0.02304500  1
  C  C23  1  0.24906400  0.67322800  0.97695500  1
  C  C24  1  0.67574500  0.68625200  0.37449400  1
  C  C25  1  0.32425500  0.31374800  0.62550600  1
  C  C26  1  0.31374800  0.32425500  0.12550600  1
  C  C27  1  0.68625200  0.67574500  0.87449400  1
  C  C28  1  0.77609700  0.01650200  0.26095000  1
  C  C29  1  0.22390300  0.98349800  0.73905000  1
  C  C30  1  0.98349800  0.22390300  0.23905000  1
  C  C31  1  0.01650200  0.77609700  0.76095000  1
  C  C32  1  0.22401600  0.99955500  0.18621300  1
  C  C33  1  0.77598400  0.00044500  0.81378700  1
  C  C34  1  0.00044500  0.77598400  0.31378700  1
  C  C35  1  0.99955500  0.22401600  0.68621300  1
  C  C36  1  0.47128300  0.09347000  0.32063100  1
  C  C37  1  0.52871700  0.90653000  0.67936900  1
  C  C38  1  0.90653000  0.52871700  0.17936900  1
  C  C39  1  0.09347000  0.47128300  0.82063100  1
