# generated using pymatgen
data_Cu8(Ni2C9)3
_symmetry_space_group_name_H-M   'P 1'
_cell_length_a   9.26588700
_cell_length_b   11.98883000
_cell_length_c   20.04634557
_cell_angle_alpha   84.01696068
_cell_angle_beta   90.00000000
_cell_angle_gamma   90.00000000
_symmetry_Int_Tables_number   1
_chemical_formula_structural   Cu8(Ni2C9)3
_chemical_formula_sum   'Cu16 Ni12 C54'
_cell_volume   2214.76094275
_cell_formula_units_Z   2
loop_
 _symmetry_equiv_pos_site_id
 _symmetry_equiv_pos_as_xyz
  1  'x, y, z'
loop_
 _atom_site_type_symbol
 _atom_site_label
 _atom_site_symmetry_multiplicity
 _atom_site_fract_x
 _atom_site_fract_y
 _atom_site_fract_z
 _atom_site_occupancy
  C  C0  1  0.77250100  0.42323500  0.18567900  1
  C  C1  1  0.27250100  0.57676500  0.81432100  1
  C  C2  1  0.07075400  0.16703200  0.36973200  1
  C  C3  1  0.57075400  0.83296800  0.63026800  1
  C  C4  1  0.09019000  0.70288200  0.12061100  1
  C  C5  1  0.59019000  0.29711800  0.87938900  1
  C  C6  1  0.57053800  0.26472700  0.38458000  1
  C  C7  1  0.07053800  0.73527300  0.61542000  1
  C  C8  1  0.20175000  0.06982400  0.04932800  1
  C  C9  1  0.70175000  0.93017600  0.95067200  1
  C  C10  1  0.59633600  0.80596100  0.16267000  1
  C  C11  1  0.09633600  0.19403900  0.83733000  1
  C  C12  1  0.18887700  0.08539100  0.58772900  1
  C  C13  1  0.68887700  0.91460900  0.41227100  1
  C  C14  1  0.25678100  0.53333800  0.31450700  1
  C  C15  1  0.75678100  0.46666200  0.68549300  1
  Ni  Ni16  1  0.46985200  0.31579100  0.54952000  1
  Ni  Ni17  1  0.96985200  0.68420900  0.45048000  1
  Ni  Ni18  1  0.86160900  0.34507700  0.46343900  1
  Ni  Ni19  1  0.36160900  0.65492300  0.53656100  1
  Ni  Ni20  1  0.38902800  0.64129100  0.04507300  1
  Ni  Ni21  1  0.88902800  0.35870900  0.95492700  1
  Ni  Ni22  1  0.99115200  0.69278800  0.95751000  1
  Ni  Ni23  1  0.49115200  0.30721200  0.04249000  1
  Ni  Ni24  1  0.52701900  0.18438100  0.71201000  1
  Ni  Ni25  1  0.02701900  0.81561900  0.28799000  1
  Ni  Ni26  1  0.05056200  0.85584100  0.80229900  1
  Ni  Ni27  1  0.55056200  0.14415900  0.19770100  1
  Cu  Cu28  1  0.83012000  0.99130700  0.75720800  1
  Cu  Cu29  1  0.33012000  0.00869300  0.24279200  1
  Cu  Cu30  1  0.43106300  0.01006600  0.77109900  1
  Cu  Cu31  1  0.93106300  0.98993400  0.22890100  1
  Cu  Cu32  1  0.77938800  0.16772500  0.59748700  1
  Cu  Cu33  1  0.27938800  0.83227500  0.40251300  1
  Cu  Cu34  1  0.61648900  0.59012900  0.99574800  1
  Cu  Cu35  1  0.11648900  0.40987100  0.00425200  1
  Cu  Cu36  1  0.37835300  0.38818900  0.13535500  1
  Cu  Cu37  1  0.87835300  0.61181100  0.86464500  1
  Cu  Cu38  1  0.85348600  0.58974500  0.36210200  1
  Cu  Cu39  1  0.35348600  0.41025500  0.63789800  1
  Cu  Cu40  1  0.30565300  0.83937600  0.91746900  1
  Cu  Cu41  1  0.80565300  0.16062400  0.08253100  1
  Cu  Cu42  1  0.59265300  0.59388300  0.49195800  1
  Cu  Cu43  1  0.09265300  0.40611700  0.50804200  1
  C  C44  1  0.88768500  0.40584400  0.35090400  1
  C  C45  1  0.38768500  0.59415600  0.64909600  1
  C  C46  1  0.38131400  0.02488000  0.88280700  1
  C  C47  1  0.88131400  0.97512000  0.11719300  1
  C  C48  1  0.41569700  0.56797100  0.15537100  1
  C  C49  1  0.91569700  0.43202900  0.84462900  1
  C  C50  1  0.86066000  0.98869100  0.64128700  1
  C  C51  1  0.36066000  0.01130900  0.35871300  1
  C  C52  1  0.37362800  0.83494800  0.02518600  1
  C  C53  1  0.87362800  0.16505200  0.97481400  1
  C  C54  1  0.06297400  0.87196300  0.91603400  1
  C  C55  1  0.56297400  0.12803700  0.08396600  1
  C  C56  1  0.84072000  0.15067500  0.49063200  1
  C  C57  1  0.34072000  0.84932500  0.50936800  1
  C  C58  1  0.53604100  0.14127800  0.60165500  1
  C  C59  1  0.03604100  0.85872200  0.39834500  1
  C  C60  1  0.79991800  0.69199400  0.03070800  1
  C  C61  1  0.29991800  0.30800600  0.96929200  1
  C  C62  1  0.75373000  0.16746100  0.76339500  1
  C  C63  1  0.25373000  0.83253900  0.23660500  1
  C  C64  1  0.67505200  0.41698800  0.52365400  1
  C  C65  1  0.17505200  0.58301200  0.47634600  1
  C  C66  1  0.27906600  0.30088900  0.47789700  1
  C  C67  1  0.77906600  0.69911100  0.52210300  1
  C  C68  1  0.62366000  0.88418500  0.78425000  1
  C  C69  1  0.12366000  0.11581500  0.21575000  1
  C  C70  1  0.25334900  0.89861300  0.73721600  1
  C  C71  1  0.75334900  0.10138700  0.26278400  1
  C  C72  1  0.62775200  0.61690400  0.87906100  1
  C  C73  1  0.12775200  0.38309600  0.12093900  1
  C  C74  1  0.69837200  0.41169900  0.02065900  1
  C  C75  1  0.19837200  0.58830100  0.97934100  1
  C  C76  1  0.60420300  0.61021300  0.37500300  1
  C  C77  1  0.10420300  0.38978700  0.62499700  1
  C  C78  1  0.42015400  0.28959500  0.23626600  1
  C  C79  1  0.92015400  0.71040500  0.76373400  1
  C  C80  1  0.88560700  0.67340700  0.25715000  1
  C  C81  1  0.38560700  0.32659300  0.74285000  1
