# generated using pymatgen
data_CuNiC9
_symmetry_space_group_name_H-M   'P 1'
_cell_length_a   5.54437710
_cell_length_b   5.54437710
_cell_length_c   4.74216934
_cell_angle_alpha   82.79288623
_cell_angle_beta   82.79288623
_cell_angle_gamma   104.87565439
_symmetry_Int_Tables_number   1
_chemical_formula_structural   CuNiC9
_chemical_formula_sum   'Cu1 Ni1 C9'
_cell_volume   137.87355415
_cell_formula_units_Z   1
loop_
 _symmetry_equiv_pos_site_id
 _symmetry_equiv_pos_as_xyz
  1  'x, y, z'
loop_
 _atom_site_type_symbol
 _atom_site_label
 _atom_site_symmetry_multiplicity
 _atom_site_fract_x
 _atom_site_fract_y
 _atom_site_fract_z
 _atom_site_occupancy
  Ni  Ni0  1  0.99884800  0.00115200  0.00000000  1
  Cu  Cu1  1  0.38465500  0.61534500  0.00000000  1
  C  C2  1  0.47931900  0.07972400  0.41182300  1
  C  C3  1  0.92027600  0.52068100  0.58817700  1
  C  C4  1  0.59447400  0.89878000  0.21272100  1
  C  C5  1  0.10122000  0.40552600  0.78727900  1
  C  C6  1  0.72894100  0.27105900  0.50000000  1
  C  C7  1  0.08294700  0.68663200  0.28233000  1
  C  C8  1  0.31336800  0.91705300  0.71767000  1
  C  C9  1  0.32437200  0.24031100  0.22321500  1
  C  C10  1  0.75968900  0.67562800  0.77678500  1
