# generated using pymatgen
data_Cu(NiC)6
_symmetry_space_group_name_H-M   'P 1'
_cell_length_a   7.25281954
_cell_length_b   6.03315764
_cell_length_c   6.03022086
_cell_angle_alpha   120.43371469
_cell_angle_beta   89.84014341
_cell_angle_gamma   105.66554695
_symmetry_Int_Tables_number   1
_chemical_formula_structural   Cu(NiC)6
_chemical_formula_sum   'Cu1 Ni6 C6'
_cell_volume   216.18725705
_cell_formula_units_Z   1
loop_
 _symmetry_equiv_pos_site_id
 _symmetry_equiv_pos_as_xyz
  1  'x, y, z'
loop_
 _atom_site_type_symbol
 _atom_site_label
 _atom_site_symmetry_multiplicity
 _atom_site_fract_x
 _atom_site_fract_y
 _atom_site_fract_z
 _atom_site_occupancy
  C  C0  1  0.24335300  0.82453000  0.03060700  1
  C  C1  1  0.16041400  0.59958500  0.40549600  1
  C  C2  1  0.10483600  0.15167200  0.57548200  1
  Ni  Ni3  1  0.67255200  0.96801000  0.01508000  1
  Ni  Ni4  1  0.79040700  0.53423000  0.78741200  1
  Ni  Ni5  1  0.83031300  0.80480100  0.18996000  1
  Ni  Ni6  1  0.69142400  0.86423100  0.40151100  1
  Ni  Ni7  1  0.49235100  0.71643200  0.79911500  1
  Ni  Ni8  1  0.78675300  0.42919000  0.82157800  1
  Cu  Cu9  1  0.04964600  0.11556600  0.98264300  1
  C  C10  1  0.20488500  0.52192900  0.67046900  1
  C  C11  1  0.81366000  0.94260000  0.36211000  1
  C  C12  1  0.53113600  0.89895700  0.95853600  1
