# generated using pymatgen
data_Cu2NiC2
_symmetry_space_group_name_H-M   'P 1'
_cell_length_a   4.59365000
_cell_length_b   5.98480563
_cell_length_c   5.98480563
_cell_angle_alpha   60.02885867
_cell_angle_beta   67.43222370
_cell_angle_gamma   67.43222370
_symmetry_Int_Tables_number   1
_chemical_formula_structural   Cu2NiC2
_chemical_formula_sum   'Cu2 Ni1 C2'
_cell_volume   127.76889119
_cell_formula_units_Z   1
loop_
 _symmetry_equiv_pos_site_id
 _symmetry_equiv_pos_as_xyz
  1  'x, y, z'
loop_
 _atom_site_type_symbol
 _atom_site_label
 _atom_site_symmetry_multiplicity
 _atom_site_fract_x
 _atom_site_fract_y
 _atom_site_fract_z
 _atom_site_occupancy
  C  C0  1  0.20003800  0.29996200  0.29996200  1
  C  C1  1  0.79996200  0.70003800  0.70003800  1
  Ni  Ni2  1  0.00000000  0.00000000  0.00000000  1
  Cu  Cu3  1  0.50000000  0.72695600  0.27304400  1
  Cu  Cu4  1  0.50000000  0.27304400  0.72695600  1
