# generated using pymatgen
data_Cu3NiC2
_symmetry_space_group_name_H-M   'P 1'
_cell_length_a   5.98903819
_cell_length_b   5.98903819
_cell_length_c   5.98903829
_cell_angle_alpha   65.79142126
_cell_angle_beta   65.79142126
_cell_angle_gamma   65.79141982
_symmetry_Int_Tables_number   1
_chemical_formula_structural   Cu3NiC2
_chemical_formula_sum   'Cu6 Ni2 C4'
_cell_volume   170.97369816
_cell_formula_units_Z   2
loop_
 _symmetry_equiv_pos_site_id
 _symmetry_equiv_pos_as_xyz
  1  'x, y, z'
loop_
 _atom_site_type_symbol
 _atom_site_label
 _atom_site_symmetry_multiplicity
 _atom_site_fract_x
 _atom_site_fract_y
 _atom_site_fract_z
 _atom_site_occupancy
  C  C0  1  0.50000000  0.50000000  0.50000000  1
  C  C1  1  0.50000000  0.50000000  0.00000000  1
  C  C2  1  0.00000000  0.50000000  0.50000000  1
  C  C3  1  0.50000000  0.00000000  0.50000000  1
  Ni  Ni4  1  0.78600200  0.78600200  0.78600200  1
  Ni  Ni5  1  0.21399800  0.21399800  0.21399800  1
  Cu  Cu6  1  0.73070600  0.73070600  0.33093200  1
  Cu  Cu7  1  0.33093200  0.73070600  0.73070600  1
  Cu  Cu8  1  0.73070600  0.33093200  0.73070600  1
  Cu  Cu9  1  0.26929400  0.26929400  0.66906800  1
  Cu  Cu10  1  0.66906800  0.26929400  0.26929400  1
  Cu  Cu11  1  0.26929400  0.66906800  0.26929400  1
