# generated using pymatgen
data_Cu(NiC3)2
_symmetry_space_group_name_H-M   'P 1'
_cell_length_a   5.09056300
_cell_length_b   5.85056300
_cell_length_c   14.41216000
_cell_angle_alpha   90.00000000
_cell_angle_beta   90.00000000
_cell_angle_gamma   90.00000000
_symmetry_Int_Tables_number   1
_chemical_formula_structural   Cu(NiC3)2
_chemical_formula_sum   'Cu4 Ni8 C24'
_cell_volume   429.23245447
_cell_formula_units_Z   4
loop_
 _symmetry_equiv_pos_site_id
 _symmetry_equiv_pos_as_xyz
  1  'x, y, z'
loop_
 _atom_site_type_symbol
 _atom_site_label
 _atom_site_symmetry_multiplicity
 _atom_site_fract_x
 _atom_site_fract_y
 _atom_site_fract_z
 _atom_site_occupancy
  Ni  Ni0  1  0.74654500  0.68293300  0.66015800  1
  Ni  Ni1  1  0.24654500  0.81706700  0.83984200  1
  Ni  Ni2  1  0.75345500  0.68293300  0.33984200  1
  Ni  Ni3  1  0.25345500  0.81706700  0.16015800  1
  Ni  Ni4  1  0.74654500  0.18293300  0.83984200  1
  Ni  Ni5  1  0.24654500  0.31706700  0.66015800  1
  Ni  Ni6  1  0.75345500  0.18293300  0.16015800  1
  Ni  Ni7  1  0.25345500  0.31706700  0.33984200  1
  Cu  Cu8  1  0.75000000  0.67105500  0.00000000  1
  Cu  Cu9  1  0.25000000  0.82894500  0.50000000  1
  Cu  Cu10  1  0.25000000  0.32894500  0.00000000  1
  Cu  Cu11  1  0.75000000  0.17105500  0.50000000  1
  C  C12  1  0.91800900  0.37510500  0.74480700  1
  C  C13  1  0.41800900  0.12489500  0.75519300  1
  C  C14  1  0.58199100  0.37510500  0.25519300  1
  C  C15  1  0.08199100  0.12489500  0.24480700  1
  C  C16  1  0.08199100  0.62489500  0.25519300  1
  C  C17  1  0.58199100  0.87510500  0.24480700  1
  C  C18  1  0.41800900  0.62489500  0.74480700  1
  C  C19  1  0.91800900  0.87510500  0.75519300  1
  C  C20  1  0.91305600  0.38145900  0.07911300  1
  C  C21  1  0.41305600  0.11854100  0.42088700  1
  C  C22  1  0.58694400  0.38145900  0.92088700  1
  C  C23  1  0.08694400  0.11854100  0.57911300  1
  C  C24  1  0.92852000  0.89477300  0.09632000  1
  C  C25  1  0.42852000  0.60522700  0.40368000  1
  C  C26  1  0.57148000  0.89477300  0.90368000  1
  C  C27  1  0.07148000  0.60522700  0.59632000  1
  C  C28  1  0.07148000  0.10522700  0.90368000  1
  C  C29  1  0.57148000  0.39477300  0.59632000  1
  C  C30  1  0.42852000  0.10522700  0.09632000  1
  C  C31  1  0.92852000  0.39477300  0.40368000  1
  C  C32  1  0.91305600  0.88145900  0.42088700  1
  C  C33  1  0.41305600  0.61854100  0.07911300  1
  C  C34  1  0.58694400  0.88145900  0.57911300  1
  C  C35  1  0.08694400  0.61854100  0.92088700  1
