# generated using pymatgen
data_CuNiC6
_symmetry_space_group_name_H-M   'P 1'
_cell_length_a   6.23260800
_cell_length_b   6.60926100
_cell_length_c   15.23248900
_cell_angle_alpha   90.00000000
_cell_angle_beta   90.00000000
_cell_angle_gamma   90.00000000
_symmetry_Int_Tables_number   1
_chemical_formula_structural   CuNiC6
_chemical_formula_sum   'Cu4 Ni4 C24'
_cell_volume   627.47089854
_cell_formula_units_Z   4
loop_
 _symmetry_equiv_pos_site_id
 _symmetry_equiv_pos_as_xyz
  1  'x, y, z'
loop_
 _atom_site_type_symbol
 _atom_site_label
 _atom_site_symmetry_multiplicity
 _atom_site_fract_x
 _atom_site_fract_y
 _atom_site_fract_z
 _atom_site_occupancy
  Ni  Ni0  1  0.75000000  0.31274800  0.25683500  1
  Ni  Ni1  1  0.75000000  0.81274800  0.24316500  1
  Ni  Ni2  1  0.25000000  0.68725200  0.74316500  1
  Ni  Ni3  1  0.25000000  0.18725200  0.75683500  1
  Cu  Cu4  1  0.75000000  0.47999700  0.43574300  1
  Cu  Cu5  1  0.75000000  0.97999700  0.06425700  1
  Cu  Cu6  1  0.25000000  0.52000300  0.56425700  1
  Cu  Cu7  1  0.25000000  0.02000300  0.93574300  1
  C  C8  1  0.75000000  0.35978500  0.82071300  1
  C  C9  1  0.75000000  0.85978500  0.67928700  1
  C  C10  1  0.25000000  0.64021500  0.17928700  1
  C  C11  1  0.25000000  0.14021500  0.32071300  1
  C  C12  1  0.00000000  0.50000000  0.50000000  1
  C  C13  1  0.50000000  0.00000000  0.00000000  1
  C  C14  1  0.50000000  0.50000000  0.50000000  1
  C  C15  1  0.00000000  0.00000000  0.00000000  1
  C  C16  1  0.75000000  0.20044600  0.35726900  1
  C  C17  1  0.75000000  0.70044600  0.14273100  1
  C  C18  1  0.25000000  0.79955400  0.64273100  1
  C  C19  1  0.25000000  0.29955400  0.85726900  1
  C  C20  1  0.75000000  0.09355700  0.18323600  1
  C  C21  1  0.75000000  0.59355700  0.31676400  1
  C  C22  1  0.25000000  0.90644300  0.81676400  1
  C  C23  1  0.25000000  0.40644300  0.68323600  1
  C  C24  1  0.47156600  0.37399600  0.23337600  1
  C  C25  1  0.02843400  0.87399600  0.26662400  1
  C  C26  1  0.97156600  0.62600400  0.76662400  1
  C  C27  1  0.52843400  0.12600400  0.73337600  1
  C  C28  1  0.52843400  0.62600400  0.76662400  1
  C  C29  1  0.97156600  0.12600400  0.73337600  1
  C  C30  1  0.02843400  0.37399600  0.23337600  1
  C  C31  1  0.47156600  0.87399600  0.26662400  1
