# generated using pymatgen
data_Cu30NiC32
_symmetry_space_group_name_H-M   'P 1'
_cell_length_a   8.73324000
_cell_length_b   8.73324000
_cell_length_c   8.60869100
_cell_angle_alpha   90.00000000
_cell_angle_beta   90.00000000
_cell_angle_gamma   90.00000000
_symmetry_Int_Tables_number   1
_chemical_formula_structural   Cu30NiC32
_chemical_formula_sum   'Cu30 Ni1 C32'
_cell_volume   656.58039378
_cell_formula_units_Z   1
loop_
 _symmetry_equiv_pos_site_id
 _symmetry_equiv_pos_as_xyz
  1  'x, y, z'
loop_
 _atom_site_type_symbol
 _atom_site_label
 _atom_site_symmetry_multiplicity
 _atom_site_fract_x
 _atom_site_fract_y
 _atom_site_fract_z
 _atom_site_occupancy
  C  C0  1  0.00000000  0.00000000  0.01923900  1
  Ni  Ni1  1  0.50000000  0.50000000  0.99949200  1
  Cu  Cu2  1  0.50000000  0.00000000  0.99819300  1
  Cu  Cu3  1  0.00000000  0.50000000  0.99819300  1
  Cu  Cu4  1  0.00000000  0.00000000  0.49007900  1
  Cu  Cu5  1  0.50000000  0.00000000  0.50225100  1
  Cu  Cu6  1  0.00000000  0.50000000  0.50225100  1
  Cu  Cu7  1  0.50000000  0.50000000  0.50026600  1
  Cu  Cu8  1  0.24540200  0.24540200  0.99964900  1
  Cu  Cu9  1  0.75459800  0.24540200  0.99964900  1
  Cu  Cu10  1  0.24540200  0.75459800  0.99964900  1
  Cu  Cu11  1  0.75459800  0.75459800  0.99964900  1
  Cu  Cu12  1  0.24819800  0.24819800  0.50042600  1
  Cu  Cu13  1  0.75180200  0.24819800  0.50042600  1
  Cu  Cu14  1  0.24819800  0.75180200  0.50042600  1
  Cu  Cu15  1  0.75180200  0.75180200  0.50042600  1
  Cu  Cu16  1  0.25836300  0.00000000  0.25609600  1
  Cu  Cu17  1  0.74163700  0.00000000  0.25609600  1
  Cu  Cu18  1  0.24462200  0.50000000  0.25640200  1
  Cu  Cu19  1  0.75537800  0.50000000  0.25640200  1
  Cu  Cu20  1  0.24944300  0.00000000  0.74712300  1
  Cu  Cu21  1  0.75055700  0.00000000  0.74712300  1
  Cu  Cu22  1  0.24260200  0.50000000  0.74355000  1
  Cu  Cu23  1  0.75739800  0.50000000  0.74355000  1
  Cu  Cu24  1  0.00000000  0.25836300  0.25609600  1
  Cu  Cu25  1  0.50000000  0.24462200  0.25640200  1
  Cu  Cu26  1  0.00000000  0.74163700  0.25609600  1
  Cu  Cu27  1  0.50000000  0.75537800  0.25640200  1
  Cu  Cu28  1  0.00000000  0.24944300  0.74712300  1
  Cu  Cu29  1  0.50000000  0.24260200  0.74355000  1
  Cu  Cu30  1  0.00000000  0.75055700  0.74712300  1
  Cu  Cu31  1  0.50000000  0.75739800  0.74355000  1
  C  C32  1  0.50000000  0.00000000  0.25445700  1
  C  C33  1  0.00000000  0.50000000  0.25445700  1
  C  C34  1  0.50000000  0.50000000  0.24657500  1
  C  C35  1  0.00000000  0.00000000  0.72392200  1
  C  C36  1  0.50000000  0.00000000  0.74645200  1
  C  C37  1  0.00000000  0.50000000  0.74645200  1
  C  C38  1  0.50000000  0.50000000  0.75328300  1
  C  C39  1  0.25274100  0.25274100  0.24820400  1
  C  C40  1  0.74725900  0.25274100  0.24820400  1
  C  C41  1  0.25274100  0.74725900  0.24820400  1
  C  C42  1  0.74725900  0.74725900  0.24820400  1
  C  C43  1  0.25087100  0.25087100  0.75158200  1
  C  C44  1  0.74912900  0.25087100  0.75158200  1
  C  C45  1  0.25087100  0.74912900  0.75158200  1
  C  C46  1  0.74912900  0.74912900  0.75158200  1
  C  C47  1  0.27931500  0.00000000  0.99908200  1
  C  C48  1  0.72068500  0.00000000  0.99908200  1
  C  C49  1  0.25905700  0.50000000  0.99996000  1
  C  C50  1  0.74094300  0.50000000  0.99996000  1
  C  C51  1  0.25848600  0.00000000  0.50158500  1
  C  C52  1  0.74151400  0.00000000  0.50158500  1
  C  C53  1  0.25292100  0.50000000  0.49995200  1
  C  C54  1  0.74707900  0.50000000  0.49995200  1
  C  C55  1  0.00000000  0.27931500  0.99908200  1
  C  C56  1  0.50000000  0.25905700  0.99996000  1
  C  C57  1  0.00000000  0.72068500  0.99908200  1
  C  C58  1  0.50000000  0.74094300  0.99996000  1
  C  C59  1  0.00000000  0.25848600  0.50158500  1
  C  C60  1  0.50000000  0.25292100  0.49995200  1
  C  C61  1  0.00000000  0.74151400  0.50158500  1
  C  C62  1  0.50000000  0.74707900  0.49995200  1
