# generated using pymatgen
data_CuNiC2
_symmetry_space_group_name_H-M   'P 1'
_cell_length_a   4.90985600
_cell_length_b   4.90985600
_cell_length_c   5.35010500
_cell_angle_alpha   90.00000000
_cell_angle_beta   90.00000000
_cell_angle_gamma   90.00000000
_symmetry_Int_Tables_number   1
_chemical_formula_structural   CuNiC2
_chemical_formula_sum   'Cu4 Ni4 C8'
_cell_volume   128.97330098
_cell_formula_units_Z   4
loop_
 _symmetry_equiv_pos_site_id
 _symmetry_equiv_pos_as_xyz
  1  'x, y, z'
loop_
 _atom_site_type_symbol
 _atom_site_label
 _atom_site_symmetry_multiplicity
 _atom_site_fract_x
 _atom_site_fract_y
 _atom_site_fract_z
 _atom_site_occupancy
  C  C0  1  0.00000000  0.00000000  0.50192500  1
  C  C1  1  0.00000000  0.00000000  0.00192500  1
  C  C2  1  0.50000000  0.50000000  0.50870100  1
  C  C3  1  0.50000000  0.50000000  0.00870100  1
  C  C4  1  0.50000000  0.00000000  0.47118100  1
  C  C5  1  0.00000000  0.50000000  0.97118100  1
  C  C6  1  0.50000000  0.00000000  0.04580300  1
  C  C7  1  0.00000000  0.50000000  0.54580300  1
  Ni  Ni8  1  0.22800000  0.46064500  0.25666100  1
  Ni  Ni9  1  0.77200000  0.53935500  0.25666100  1
  Ni  Ni10  1  0.46064500  0.77200000  0.75666100  1
  Ni  Ni11  1  0.53935500  0.22800000  0.75666100  1
  Cu  Cu12  1  0.25018800  0.74457900  0.75763500  1
  Cu  Cu13  1  0.74981200  0.25542100  0.75763500  1
  Cu  Cu14  1  0.74457900  0.74981200  0.25763500  1
  Cu  Cu15  1  0.25542100  0.25018800  0.25763500  1
