# generated using pymatgen
data_CuNi149
_symmetry_space_group_name_H-M   'P 1'
_cell_length_a   15.92058541
_cell_length_b   15.92059068
_cell_length_c   15.63321489
_cell_angle_alpha   90.00000000
_cell_angle_beta   90.00000000
_cell_angle_gamma   120.00001296
_symmetry_Int_Tables_number   1
_chemical_formula_structural   CuNi149
_chemical_formula_sum   'Cu1 Ni149'
_cell_volume   3431.60334301
_cell_formula_units_Z   1
loop_
 _symmetry_equiv_pos_site_id
 _symmetry_equiv_pos_as_xyz
  1  'x, y, z'
loop_
 _atom_site_type_symbol
 _atom_site_label
 _atom_site_symmetry_multiplicity
 _atom_site_fract_x
 _atom_site_fract_y
 _atom_site_fract_z
 _atom_site_occupancy
  Ni  Ni0  1  0.39716599  0.00044701  -0.00000000  1
  Ni  Ni1  1  0.60328101  0.00044701  -0.00000000  1
  Ni  Ni2  1  0.18977088  0.00148160  -0.00000000  1
  Ni  Ni3  1  0.81171172  0.00148160  -0.00000000  1
  Ni  Ni4  1  0.18977088  0.18828928  -0.00000000  1
  Ni  Ni5  1  0.99851840  0.18828928  -0.00000000  1
  Ni  Ni6  1  0.39821981  0.19910991  -0.00000000  1
  Ni  Ni7  1  0.80089009  0.19910991  -0.00000000  1
  Ni  Ni8  1  0.59971961  0.19944021  -0.00000000  1
  Ni  Ni9  1  0.39716599  0.39671899  -0.00000000  1
  Ni  Ni10  1  0.99955299  0.39671899  -0.00000000  1
  Ni  Ni11  1  0.19845837  0.39691573  -0.00000000  1
  Ni  Ni12  1  0.59971961  0.40028039  -0.00000000  1
  Ni  Ni13  1  0.80056079  0.40028039  -0.00000000  1
  Ni  Ni14  1  0.40020592  0.59979408  -0.00000000  1
  Ni  Ni15  1  0.19958917  0.59979408  -0.00000000  1
  Ni  Ni16  1  0.80089009  0.60178019  -0.00000000  1
  Ni  Ni17  1  0.99955299  0.60283401  -0.00000000  1
  Ni  Ni18  1  0.60328101  0.60283401  -0.00000000  1
  Ni  Ni19  1  0.40020592  0.80041183  -0.00000000  1
  Ni  Ni20  1  0.60308427  0.80154163  -0.00000000  1
  Ni  Ni21  1  0.19845837  0.80154263  -0.00000000  1
  Ni  Ni22  1  0.99851840  0.81022912  -0.00000000  1
  Ni  Ni23  1  0.81171172  0.81022912  -0.00000000  1
  Ni  Ni24  1  0.06314590  0.12629279  0.15677986  1
  Ni  Ni25  1  0.87370621  0.93685310  0.15677986  1
  Ni  Ni26  1  0.06314590  0.93685310  0.15677986  1
  Ni  Ni27  1  0.26492521  0.33116950  0.16555028  1
  Ni  Ni28  1  0.06624330  0.33116950  0.16555028  1
  Ni  Ni29  1  0.66883050  0.73507379  0.16555028  1
  Ni  Ni30  1  0.06624330  0.73507379  0.16555028  1
  Ni  Ni31  1  0.26492521  0.93375570  0.16555028  1
  Ni  Ni32  1  0.66883050  0.93375570  0.16555028  1
  Ni  Ni33  1  0.46670364  0.53329636  0.16601306  1
  Ni  Ni34  1  0.06659372  0.53329636  0.16601306  1
  Ni  Ni35  1  0.46670364  0.93340628  0.16601306  1
  Ni  Ni36  1  0.26646555  0.53293010  0.16632811  1
  Ni  Ni37  1  0.26646555  0.73353445  0.16632811  1
  Ni  Ni38  1  0.46706990  0.73353445  0.16632811  1
  Ni  Ni39  1  0.46709095  0.13365828  0.16676280  1
  Ni  Ni40  1  0.66656833  0.13365928  0.16676280  1
  Ni  Ni41  1  0.46709095  0.33343167  0.16676280  1
  Ni  Ni42  1  0.86634172  0.33343167  0.16676280  1
  Ni  Ni43  1  0.66656833  0.53290905  0.16676280  1
  Ni  Ni44  1  0.86634172  0.53290905  0.16676280  1
  Ni  Ni45  1  0.66666600  0.33333300  0.16668887  1
  Ni  Ni46  1  0.26883751  0.13441876  0.16688769  1
  Ni  Ni47  1  0.86558124  0.13441876  0.16688769  1
  Ni  Ni48  1  0.86558124  0.73116249  0.16688769  1
  Ni  Ni49  1  0.00036252  0.19899086  0.33075389  1
  Ni  Ni50  1  0.19862834  0.19899086  0.33075389  1
  Ni  Ni51  1  0.00036252  0.80137166  0.33075389  1
  Ni  Ni52  1  0.80100914  0.80137166  0.33075389  1
  Ni  Ni53  1  0.80100914  0.99963648  0.33075389  1
  Ni  Ni54  1  0.19862834  0.99963748  0.33075389  1
  Ni  Ni55  1  -0.00000000  0.00000000  0.33230334  1
  Ni  Ni56  1  0.39928364  0.39944920  0.33268440  1
  Ni  Ni57  1  0.00016655  0.39945020  0.33268440  1
  Ni  Ni58  1  0.60055080  0.60071636  0.33268440  1
  Ni  Ni59  1  0.00016655  0.60071636  0.33268440  1
  Ni  Ni60  1  0.39928364  0.99983445  0.33268440  1
  Ni  Ni61  1  0.60055080  0.99983445  0.33268440  1
  Ni  Ni62  1  0.20003064  0.40006128  0.33315865  1
  Ni  Ni63  1  0.20003064  0.79996936  0.33315865  1
  Ni  Ni64  1  0.59993872  0.79996936  0.33315865  1
  Ni  Ni65  1  0.59982426  0.19964752  0.33350329  1
  Ni  Ni66  1  0.80035248  0.40017674  0.33350329  1
  Ni  Ni67  1  0.59982426  0.40017674  0.33350329  1
  Ni  Ni68  1  0.39998668  0.60001332  0.33342413  1
  Ni  Ni69  1  0.20002564  0.60001332  0.33342413  1
  Ni  Ni70  1  0.39998668  0.79997436  0.33342413  1
  Ni  Ni71  1  0.80005320  0.19994580  0.33369058  1
  Ni  Ni72  1  0.39989260  0.19994680  0.33369058  1
  Ni  Ni73  1  0.80005320  0.60010740  0.33369058  1
  Ni  Ni74  1  0.26603404  0.13301702  0.50000000  1
  Ni  Ni75  1  0.86698298  0.13301702  0.50000000  1
  Ni  Ni76  1  0.06654568  0.13309136  0.50000000  1
  Ni  Ni77  1  0.46686393  0.13362664  0.50000000  1
  Ni  Ni78  1  0.66676271  0.13362664  0.50000000  1
  Ni  Ni79  1  0.26639159  0.33265552  0.50000000  1
  Ni  Ni80  1  0.06626493  0.33265652  0.50000000  1
  Ni  Ni81  1  0.86637336  0.33323729  0.50000000  1
  Ni  Ni82  1  0.46686393  0.33323729  0.50000000  1
  Ni  Ni83  1  0.66666600  0.33333300  0.50000000  1
  Ni  Ni84  1  0.26641617  0.53283235  0.50000000  1
  Ni  Ni85  1  0.06593347  0.53296674  0.50000000  1
  Ni  Ni86  1  0.46703326  0.53296674  0.50000000  1
  Ni  Ni87  1  0.66676271  0.53313607  0.50000000  1
  Ni  Ni88  1  0.86637336  0.53313607  0.50000000  1
  Ni  Ni89  1  0.26641617  0.73358383  0.50000000  1
  Ni  Ni90  1  0.46716665  0.73358383  0.50000000  1
  Ni  Ni91  1  0.66734448  0.73360841  0.50000000  1
  Ni  Ni92  1  0.06626493  0.73360841  0.50000000  1
  Ni  Ni93  1  0.86698298  0.73396596  0.50000000  1
  Ni  Ni94  1  0.06654568  0.93345332  0.50000000  1
  Ni  Ni95  1  0.86690764  0.93345432  0.50000000  1
  Ni  Ni96  1  0.46703326  0.93406653  0.50000000  1
  Ni  Ni97  1  0.26639159  0.93373507  0.50000000  1
  Ni  Ni98  1  0.66734448  0.93373507  0.50000000  1
  Ni  Ni99  1  0.80005320  0.19994580  0.66630942  1
  Ni  Ni100  1  0.39989260  0.19994680  0.66630942  1
  Ni  Ni101  1  0.80005320  0.60010740  0.66630942  1
  Ni  Ni102  1  0.39998668  0.60001332  0.66657587  1
  Ni  Ni103  1  0.20002564  0.60001332  0.66657587  1
  Ni  Ni104  1  0.39998668  0.79997436  0.66657587  1
  Ni  Ni105  1  0.59982426  0.19964752  0.66649671  1
  Ni  Ni106  1  0.80035248  0.40017674  0.66649671  1
  Ni  Ni107  1  0.59982426  0.40017674  0.66649671  1
  Ni  Ni108  1  0.20003064  0.40006128  0.66684035  1
  Ni  Ni109  1  0.20003064  0.79996936  0.66684035  1
  Ni  Ni110  1  0.59993872  0.79996936  0.66684035  1
  Ni  Ni111  1  0.39928364  0.39944920  0.66731560  1
  Ni  Ni112  1  0.00016655  0.39945020  0.66731560  1
  Ni  Ni113  1  0.60055080  0.60071636  0.66731560  1
  Ni  Ni114  1  0.00016655  0.60071636  0.66731560  1
  Ni  Ni115  1  0.39928364  0.99983445  0.66731560  1
  Ni  Ni116  1  0.60055080  0.99983445  0.66731560  1
  Ni  Ni117  1  -0.00000000  0.00000000  0.66769766  1
  Ni  Ni118  1  0.00036252  0.19899086  0.66924611  1
  Ni  Ni119  1  0.19862834  0.19899086  0.66924611  1
  Ni  Ni120  1  0.00036252  0.80137166  0.66924611  1
  Ni  Ni121  1  0.80100914  0.80137166  0.66924611  1
  Ni  Ni122  1  0.80100914  0.99963648  0.66924611  1
  Ni  Ni123  1  0.19862834  0.99963748  0.66924611  1
  Ni  Ni124  1  0.26883751  0.13441876  0.83311131  1
  Ni  Ni125  1  0.86558124  0.13441876  0.83311131  1
  Ni  Ni126  1  0.86558124  0.73116249  0.83311131  1
  Ni  Ni127  1  0.66666600  0.33333300  0.83331213  1
  Ni  Ni128  1  0.46709095  0.13365828  0.83323720  1
  Ni  Ni129  1  0.66656833  0.13365928  0.83323720  1
  Ni  Ni130  1  0.46709095  0.33343167  0.83323720  1
  Ni  Ni131  1  0.86634172  0.33343167  0.83323720  1
  Ni  Ni132  1  0.66656833  0.53290905  0.83323720  1
  Ni  Ni133  1  0.86634172  0.53290905  0.83323720  1
  Ni  Ni134  1  0.26646555  0.53293010  0.83367289  1
  Ni  Ni135  1  0.26646555  0.73353445  0.83367289  1
  Ni  Ni136  1  0.46706990  0.73353445  0.83367289  1
  Ni  Ni137  1  0.46670364  0.53329636  0.83398794  1
  Ni  Ni138  1  0.06659372  0.53329636  0.83398794  1
  Ni  Ni139  1  0.46670364  0.93340628  0.83398794  1
  Ni  Ni140  1  0.26492521  0.33116950  0.83444872  1
  Ni  Ni141  1  0.06624330  0.33116950  0.83444872  1
  Ni  Ni142  1  0.66883050  0.73507379  0.83444872  1
  Ni  Ni143  1  0.06624330  0.73507379  0.83444872  1
  Ni  Ni144  1  0.26492521  0.93375570  0.83444872  1
  Ni  Ni145  1  0.66883050  0.93375570  0.83444872  1
  Ni  Ni146  1  0.06314590  0.12629279  0.84322014  1
  Ni  Ni147  1  0.87370621  0.93685310  0.84322014  1
  Ni  Ni148  1  0.06314590  0.93685310  0.84322014  1
  Cu  Cu149  1  -0.00000000  0.00000000  -0.00000000  1
