# generated using pymatgen
data_Cu2Ni3C4
_symmetry_space_group_name_H-M   'P 1'
_cell_length_a   6.17364227
_cell_length_b   6.48773526
_cell_length_c   5.38937713
_cell_angle_alpha   90.00000219
_cell_angle_beta   93.75380078
_cell_angle_gamma   121.69775267
_symmetry_Int_Tables_number   1
_chemical_formula_structural   Cu2Ni3C4
_chemical_formula_sum   'Cu4 Ni6 C8'
_cell_volume   183.11642279
_cell_formula_units_Z   2
loop_
 _symmetry_equiv_pos_site_id
 _symmetry_equiv_pos_as_xyz
  1  'x, y, z'
loop_
 _atom_site_type_symbol
 _atom_site_label
 _atom_site_symmetry_multiplicity
 _atom_site_fract_x
 _atom_site_fract_y
 _atom_site_fract_z
 _atom_site_occupancy
  Ni  Ni0  1  0.36452900  0.08806400  0.94645500  1
  Ni  Ni1  1  0.63547100  0.72353400  0.55354500  1
  Ni  Ni2  1  0.63547100  0.91193600  0.05354500  1
  Ni  Ni3  1  0.36452900  0.27646600  0.44645500  1
  Ni  Ni4  1  0.00000000  0.67479600  0.75000000  1
  Ni  Ni5  1  0.00000000  0.32520400  0.25000000  1
  Cu  Cu6  1  0.68044600  0.19424600  0.63237000  1
  Cu  Cu7  1  0.31955400  0.51380000  0.86763000  1
  Cu  Cu8  1  0.31955400  0.80575400  0.36763000  1
  Cu  Cu9  1  0.68044600  0.48620000  0.13237000  1
  C  C10  1  0.28584000  0.99579700  0.60666500  1
  C  C11  1  0.71416000  0.70995700  0.89333500  1
  C  C12  1  0.71416000  0.00420300  0.39333500  1
  C  C13  1  0.28584000  0.29004300  0.10666500  1
  C  C14  1  0.73530200  0.24456900  0.98062100  1
  C  C15  1  0.26469800  0.50926700  0.51937900  1
  C  C16  1  0.26469800  0.75543100  0.01937900  1
  C  C17  1  0.73530200  0.49073300  0.48062100  1
