# generated using pymatgen
data_CuNi3C16
_symmetry_space_group_name_H-M   'P 1'
_cell_length_a   7.74537600
_cell_length_b   5.39061700
_cell_length_c   5.66079815
_cell_angle_alpha   89.98665986
_cell_angle_beta   90.00000000
_cell_angle_gamma   90.00000000
_symmetry_Int_Tables_number   1
_chemical_formula_structural   CuNi3C16
_chemical_formula_sum   'Cu1 Ni3 C16'
_cell_volume   236.35165072
_cell_formula_units_Z   1
loop_
 _symmetry_equiv_pos_site_id
 _symmetry_equiv_pos_as_xyz
  1  'x, y, z'
loop_
 _atom_site_type_symbol
 _atom_site_label
 _atom_site_symmetry_multiplicity
 _atom_site_fract_x
 _atom_site_fract_y
 _atom_site_fract_z
 _atom_site_occupancy
  Ni  Ni0  1  0.00000000  0.01714000  0.93582400  1
  Ni  Ni1  1  0.50000000  0.51669900  0.56252800  1
  Ni  Ni2  1  0.50000000  0.98294800  0.06353000  1
  Cu  Cu3  1  0.00000000  0.48349900  0.43504200  1
  C  C4  1  0.75106100  0.50016300  0.99991100  1
  C  C5  1  0.24884700  0.99999300  0.50028700  1
  C  C6  1  0.24893900  0.50016300  0.99991100  1
  C  C7  1  0.75115300  0.99999300  0.50028700  1
  C  C8  1  0.19259400  0.19593200  0.19815400  1
  C  C9  1  0.80798800  0.30719700  0.69474000  1
  C  C10  1  0.69386800  0.80532900  0.80322500  1
  C  C11  1  0.30507200  0.69442100  0.30310200  1
  C  C12  1  0.30613200  0.80532900  0.80322500  1
  C  C13  1  0.69492800  0.69442100  0.30310200  1
  C  C14  1  0.80740600  0.19593200  0.19815400  1
  C  C15  1  0.19201200  0.30719700  0.69474000  1
  C  C16  1  0.00000000  0.60896700  0.04349600  1
  C  C17  1  0.00000000  0.88604200  0.53955200  1
  C  C18  1  0.50000000  0.39086300  0.96083600  1
  C  C19  1  0.50000000  0.10776800  0.46035300  1
