# generated using pymatgen
data_CuNiC5
_symmetry_space_group_name_H-M   'P 1'
_cell_length_a   6.04005700
_cell_length_b   8.06721929
_cell_length_c   9.03678522
_cell_angle_alpha   113.05190340
_cell_angle_beta   90.28840169
_cell_angle_gamma   90.58832903
_symmetry_Int_Tables_number   1
_chemical_formula_structural   CuNiC5
_chemical_formula_sum   'Cu4 Ni4 C20'
_cell_volume   405.12944686
_cell_formula_units_Z   4
loop_
 _symmetry_equiv_pos_site_id
 _symmetry_equiv_pos_as_xyz
  1  'x, y, z'
loop_
 _atom_site_type_symbol
 _atom_site_label
 _atom_site_symmetry_multiplicity
 _atom_site_fract_x
 _atom_site_fract_y
 _atom_site_fract_z
 _atom_site_occupancy
  C  C0  1  0.50000000  0.00000000  0.00000000  1
  C  C1  1  0.00000000  0.00000000  0.00000000  1
  Ni  Ni2  1  0.25354000  0.01977200  0.34034400  1
  Ni  Ni3  1  0.74646000  0.98022800  0.65965600  1
  Ni  Ni4  1  0.24376000  0.43144600  0.16852200  1
  Ni  Ni5  1  0.75624000  0.56855400  0.83147800  1
  Cu  Cu6  1  0.25273100  0.30468100  0.75074900  1
  Cu  Cu7  1  0.74726900  0.69531900  0.24925100  1
  Cu  Cu8  1  0.24747100  0.72050500  0.62477800  1
  Cu  Cu9  1  0.75252900  0.27949500  0.37522200  1
  C  C10  1  0.24423500  0.88233900  0.44075800  1
  C  C11  1  0.75576500  0.11766100  0.55924200  1
  C  C12  1  0.49663500  0.98454000  0.22886100  1
  C  C13  1  0.98652700  0.01966600  0.78000700  1
  C  C14  1  0.50336500  0.01546000  0.77113900  1
  C  C15  1  0.01347300  0.98033400  0.21999300  1
  C  C16  1  0.24853800  0.51936000  0.02386000  1
  C  C17  1  0.75146200  0.48064000  0.97614000  1
  C  C18  1  0.24020800  0.19688600  0.07477600  1
  C  C19  1  0.75979200  0.80311400  0.92522400  1
  C  C20  1  0.48142000  0.49319000  0.28675800  1
  C  C21  1  0.98315100  0.49692100  0.70723700  1
  C  C22  1  0.51858000  0.50681000  0.71324200  1
  C  C23  1  0.01684900  0.50307900  0.29276300  1
  C  C24  1  0.25100200  0.24625500  0.46504000  1
  C  C25  1  0.74899800  0.75374500  0.53496000  1
  C  C26  1  0.22939000  0.84719100  0.92052100  1
  C  C27  1  0.77061000  0.15280900  0.07947900  1
