# generated using pymatgen
data_Cu(NiC2)3
_symmetry_space_group_name_H-M   'P 1'
_cell_length_a   6.63643000
_cell_length_b   6.42905100
_cell_length_c   11.19142586
_cell_angle_alpha   55.10775955
_cell_angle_beta   90.00000000
_cell_angle_gamma   90.00000000
_symmetry_Int_Tables_number   1
_chemical_formula_structural   Cu(NiC2)3
_chemical_formula_sum   'Cu2 Ni6 C12'
_cell_volume   391.65359580
_cell_formula_units_Z   2
loop_
 _symmetry_equiv_pos_site_id
 _symmetry_equiv_pos_as_xyz
  1  'x, y, z'
loop_
 _atom_site_type_symbol
 _atom_site_label
 _atom_site_symmetry_multiplicity
 _atom_site_fract_x
 _atom_site_fract_y
 _atom_site_fract_z
 _atom_site_occupancy
  Ni  Ni0  1  0.50000000  0.50000000  0.00000000  1
  Ni  Ni1  1  0.00000000  0.50000000  0.50000000  1
  Ni  Ni2  1  0.04886400  0.73319200  0.75383500  1
  Ni  Ni3  1  0.95113600  0.26680800  0.24616500  1
  Ni  Ni4  1  0.54886400  0.26680800  0.74616500  1
  Ni  Ni5  1  0.45113600  0.73319200  0.25383500  1
  Cu  Cu6  1  0.50000000  0.00000000  0.50000000  1
  Cu  Cu7  1  0.00000000  0.00000000  0.00000000  1
  C  C8  1  0.77276500  0.76663700  0.56613600  1
  C  C9  1  0.22723500  0.23336300  0.43386400  1
  C  C10  1  0.27276500  0.23336300  0.93386400  1
  C  C11  1  0.72723500  0.76663700  0.06613600  1
  C  C12  1  0.44707300  0.88450400  0.72392800  1
  C  C13  1  0.55292700  0.11549600  0.27607200  1
  C  C14  1  0.94707300  0.11549600  0.77607200  1
  C  C15  1  0.05292700  0.88450400  0.22392800  1
  C  C16  1  0.32655900  0.67156200  0.54942000  1
  C  C17  1  0.67344100  0.32843800  0.45058000  1
  C  C18  1  0.82655900  0.32843800  0.95058000  1
  C  C19  1  0.17344100  0.67156200  0.04942000  1
