# generated using pymatgen
data_Cu(NiC6)3
_symmetry_space_group_name_H-M   'P 1'
_cell_length_a   7.36346240
_cell_length_b   7.36346240
_cell_length_c   7.36346248
_cell_angle_alpha   60.09232980
_cell_angle_beta   60.09232980
_cell_angle_gamma   60.09232809
_symmetry_Int_Tables_number   1
_chemical_formula_structural   Cu(NiC6)3
_chemical_formula_sum   'Cu1 Ni3 C18'
_cell_volume   282.90385846
_cell_formula_units_Z   1
loop_
 _symmetry_equiv_pos_site_id
 _symmetry_equiv_pos_as_xyz
  1  'x, y, z'
loop_
 _atom_site_type_symbol
 _atom_site_label
 _atom_site_symmetry_multiplicity
 _atom_site_fract_x
 _atom_site_fract_y
 _atom_site_fract_z
 _atom_site_occupancy
  Ni  Ni0  1  0.00000000  0.50000000  0.50000000  1
  Ni  Ni1  1  0.50000000  0.50000000  0.00000000  1
  Ni  Ni2  1  0.50000000  0.00000000  0.50000000  1
  Cu  Cu3  1  0.50000000  0.50000000  0.50000000  1
  C  C4  1  0.00000000  0.00000000  0.00000000  1
  C  C5  1  0.50000000  0.00000000  0.00000000  1
  C  C6  1  0.00000000  0.00000000  0.50000000  1
  C  C7  1  0.00000000  0.50000000  0.00000000  1
  C  C8  1  0.38007800  0.38007800  0.38007800  1
  C  C9  1  0.61992200  0.61992200  0.61992200  1
  C  C10  1  0.92236900  0.32503100  0.32503100  1
  C  C11  1  0.32391200  0.92617100  0.92617100  1
  C  C12  1  0.32503100  0.32503100  0.92236900  1
  C  C13  1  0.92617100  0.92617100  0.32391200  1
  C  C14  1  0.92617100  0.32391200  0.92617100  1
  C  C15  1  0.32503100  0.92236900  0.32503100  1
  C  C16  1  0.07763100  0.67496900  0.67496900  1
  C  C17  1  0.67608800  0.07382900  0.07382900  1
  C  C18  1  0.67496900  0.67496900  0.07763100  1
  C  C19  1  0.07382900  0.07382900  0.67608800  1
  C  C20  1  0.07382900  0.67608800  0.07382900  1
  C  C21  1  0.67496900  0.07763100  0.67496900  1
