# generated using pymatgen
data_CuNi3C8
_symmetry_space_group_name_H-M   'P 1'
_cell_length_a   10.08237399
_cell_length_b   10.08237399
_cell_length_c   6.94216200
_cell_angle_alpha   90.00000000
_cell_angle_beta   90.00000000
_cell_angle_gamma   119.99999992
_symmetry_Int_Tables_number   1
_chemical_formula_structural   CuNi3C8
_chemical_formula_sum   'Cu2 Ni6 C16'
_cell_volume   611.15445460
_cell_formula_units_Z   2
loop_
 _symmetry_equiv_pos_site_id
 _symmetry_equiv_pos_as_xyz
  1  'x, y, z'
loop_
 _atom_site_type_symbol
 _atom_site_label
 _atom_site_symmetry_multiplicity
 _atom_site_fract_x
 _atom_site_fract_y
 _atom_site_fract_z
 _atom_site_occupancy
  C  C0  1  0.82766500  0.65533100  0.49015200  1
  C  C1  1  0.34466900  0.17233500  0.49015200  1
  C  C2  1  0.82766500  0.17233500  0.49015200  1
  C  C3  1  0.17233500  0.34466900  0.99015200  1
  C  C4  1  0.65533100  0.82766500  0.99015200  1
  C  C5  1  0.17233500  0.82766500  0.99015200  1
  C  C6  1  0.66666700  0.33333300  0.17232900  1
  C  C7  1  0.33333300  0.66666700  0.67232900  1
  C  C8  1  0.53655400  0.07310700  0.79213300  1
  C  C9  1  0.92689300  0.46344600  0.79213300  1
  C  C10  1  0.53655400  0.46344600  0.79213300  1
  C  C11  1  0.46344600  0.92689300  0.29213300  1
  C  C12  1  0.07310700  0.53655400  0.29213300  1
  C  C13  1  0.46344600  0.53655400  0.29213300  1
  C  C14  1  0.00000000  0.00000000  0.77002900  1
  C  C15  1  0.00000000  0.00000000  0.27002900  1
  Ni  Ni16  1  0.83645900  0.67291900  0.03950800  1
  Ni  Ni17  1  0.32708100  0.16354100  0.03950800  1
  Ni  Ni18  1  0.83645900  0.16354100  0.03950800  1
  Ni  Ni19  1  0.16354100  0.32708100  0.53950800  1
  Ni  Ni20  1  0.67291900  0.83645900  0.53950800  1
  Ni  Ni21  1  0.16354100  0.83645900  0.53950800  1
  Cu  Cu22  1  0.66666700  0.33333300  0.55530000  1
  Cu  Cu23  1  0.33333300  0.66666700  0.05530000  1
