# generated using pymatgen
data_CuNi2C11
_symmetry_space_group_name_H-M   'P 1'
_cell_length_a   7.79011992
_cell_length_b   7.68739852
_cell_length_c   7.79124910
_cell_angle_alpha   59.53639485
_cell_angle_beta   59.99946658
_cell_angle_gamma   59.54991878
_symmetry_Int_Tables_number   1
_chemical_formula_structural   CuNi2C11
_chemical_formula_sum   'Cu1 Ni2 C11'
_cell_volume   327.62741877
_cell_formula_units_Z   1
loop_
 _symmetry_equiv_pos_site_id
 _symmetry_equiv_pos_as_xyz
  1  'x, y, z'
loop_
 _atom_site_type_symbol
 _atom_site_label
 _atom_site_symmetry_multiplicity
 _atom_site_fract_x
 _atom_site_fract_y
 _atom_site_fract_z
 _atom_site_occupancy
  C  C0  1  0.49994100  0.50005200  0.49999500  1
  C  C1  1  0.49991600  0.50000000  0.00001000  1
  C  C2  1  0.99998700  0.49999000  0.49997900  1
  Ni  Ni3  1  0.87506700  0.87457100  0.87521000  1
  Ni  Ni4  1  0.12483000  0.12547200  0.12483200  1
  Cu  Cu5  1  0.50048400  0.99975600  0.49995300  1
  C  C6  1  0.72891100  0.77129100  0.72879200  1
  C  C7  1  0.27099600  0.22887700  0.72912400  1
  C  C8  1  0.25429500  0.73719900  0.25410500  1
  C  C9  1  0.72899100  0.22879700  0.27120700  1
  C  C10  1  0.74560300  0.26285200  0.74587500  1
  C  C11  1  0.27097200  0.77124500  0.72878100  1
  C  C12  1  0.27105800  0.22872300  0.27127100  1
  C  C13  1  0.72895500  0.77117000  0.27086700  1
