# generated using pymatgen
data_Cu2Ni3C4
_symmetry_space_group_name_H-M   'P 1'
_cell_length_a   10.65504148
_cell_length_b   10.65504148
_cell_length_c   13.34329454
_cell_angle_alpha   72.30515619
_cell_angle_beta   72.30515619
_cell_angle_gamma   99.39114302
_symmetry_Int_Tables_number   1
_chemical_formula_structural   Cu2Ni3C4
_chemical_formula_sum   'Cu8 Ni12 C16'
_cell_volume   1319.28587780
_cell_formula_units_Z   4
loop_
 _symmetry_equiv_pos_site_id
 _symmetry_equiv_pos_as_xyz
  1  'x, y, z'
loop_
 _atom_site_type_symbol
 _atom_site_label
 _atom_site_symmetry_multiplicity
 _atom_site_fract_x
 _atom_site_fract_y
 _atom_site_fract_z
 _atom_site_occupancy
  C  C0  1  0.30986100  0.85702000  0.07831700  1
  C  C1  1  0.14298000  0.69013900  0.42168300  1
  C  C2  1  0.69013900  0.14298000  0.92168300  1
  C  C3  1  0.85702000  0.30986100  0.57831700  1
  C  C4  1  0.00101400  0.72171300  0.33111600  1
  C  C5  1  0.27828700  0.99898600  0.16888400  1
  C  C6  1  0.99898600  0.27828700  0.66888400  1
  C  C7  1  0.72171300  0.00101400  0.83111600  1
  C  C8  1  0.64488200  0.59330000  0.08619400  1
  C  C9  1  0.40670000  0.35511800  0.41380600  1
  C  C10  1  0.35511800  0.40670000  0.91380600  1
  C  C11  1  0.59330000  0.64488200  0.58619400  1
  C  C12  1  0.63175700  0.40600600  0.36678300  1
  C  C13  1  0.59399400  0.36824300  0.13321700  1
  C  C14  1  0.36824300  0.59399400  0.63321700  1
  C  C15  1  0.40600600  0.63175700  0.86678300  1
  Ni  Ni16  1  0.13107200  0.66195700  0.19149000  1
  Ni  Ni17  1  0.33804300  0.86892800  0.30851000  1
  Ni  Ni18  1  0.86892800  0.33804300  0.80851000  1
  Ni  Ni19  1  0.66195700  0.13107200  0.69149000  1
  Ni  Ni20  1  0.04784200  0.95215800  0.25000000  1
  Ni  Ni21  1  0.95215800  0.04784200  0.75000000  1
  Ni  Ni22  1  0.66112400  0.62293500  0.24649900  1
  Ni  Ni23  1  0.37706500  0.33887600  0.25350100  1
  Ni  Ni24  1  0.33887600  0.37706500  0.75350100  1
  Ni  Ni25  1  0.62293500  0.66112400  0.74649900  1
  Ni  Ni26  1  0.70508300  0.29491700  0.25000000  1
  Ni  Ni27  1  0.29491700  0.70508300  0.75000000  1
  Cu  Cu28  1  0.23983200  0.95780700  0.93513000  1
  Cu  Cu29  1  0.04219300  0.76016800  0.56487000  1
  Cu  Cu30  1  0.76016800  0.04219300  0.06487000  1
  Cu  Cu31  1  0.95780700  0.23983200  0.43513000  1
  Cu  Cu32  1  0.86914800  0.64919200  0.96988600  1
  Cu  Cu33  1  0.35080800  0.13085200  0.53011400  1
  Cu  Cu34  1  0.13085200  0.35080800  0.03011400  1
  Cu  Cu35  1  0.64919200  0.86914800  0.46988600  1
