# generated using pymatgen
data_CuNiC3
_symmetry_space_group_name_H-M   'P 1'
_cell_length_a   6.89955200
_cell_length_b   5.79045100
_cell_length_c   5.82857286
_cell_angle_alpha   89.73602006
_cell_angle_beta   90.00000000
_cell_angle_gamma   90.00000000
_symmetry_Int_Tables_number   1
_chemical_formula_structural   CuNiC3
_chemical_formula_sum   'Cu4 Ni4 C12'
_cell_volume   232.85786084
_cell_formula_units_Z   4
loop_
 _symmetry_equiv_pos_site_id
 _symmetry_equiv_pos_as_xyz
  1  'x, y, z'
loop_
 _atom_site_type_symbol
 _atom_site_label
 _atom_site_symmetry_multiplicity
 _atom_site_fract_x
 _atom_site_fract_y
 _atom_site_fract_z
 _atom_site_occupancy
  Ni  Ni0  1  0.59831300  0.63189400  0.90843000  1
  Ni  Ni1  1  0.09831300  0.36810600  0.59157000  1
  Ni  Ni2  1  0.40168700  0.36810600  0.09157000  1
  Ni  Ni3  1  0.90168700  0.63189400  0.40843000  1
  Cu  Cu4  1  0.87178900  0.97261700  0.74101600  1
  Cu  Cu5  1  0.37178900  0.02738300  0.75898400  1
  Cu  Cu6  1  0.12821100  0.02738300  0.25898400  1
  Cu  Cu7  1  0.62821100  0.97261700  0.24101600  1
  C  C8  1  0.63975700  0.37918100  0.57328300  1
  C  C9  1  0.13975700  0.62081900  0.92671700  1
  C  C10  1  0.36024300  0.62081900  0.42671700  1
  C  C11  1  0.86024300  0.37918100  0.07328300  1
  C  C12  1  0.14704800  0.73222900  0.60706300  1
  C  C13  1  0.64704800  0.26777100  0.89293700  1
  C  C14  1  0.85295200  0.26777100  0.39293700  1
  C  C15  1  0.35295200  0.73222900  0.10706300  1
  C  C16  1  0.60662000  0.71198700  0.56497100  1
  C  C17  1  0.10662000  0.28801300  0.93502900  1
  C  C18  1  0.39338000  0.28801300  0.43502900  1
  C  C19  1  0.89338000  0.71198700  0.06497100  1
