# generated using pymatgen
data_Cu8(Ni2C3)3
_symmetry_space_group_name_H-M   'P 1'
_cell_length_a   8.75403913
_cell_length_b   8.75403913
_cell_length_c   11.99749413
_cell_angle_alpha   62.73431405
_cell_angle_beta   62.73431405
_cell_angle_gamma   47.38293761
_symmetry_Int_Tables_number   1
_chemical_formula_structural   Cu8(Ni2C3)3
_chemical_formula_sum   'Cu16 Ni12 C18'
_cell_volume   585.83225765
_cell_formula_units_Z   2
loop_
 _symmetry_equiv_pos_site_id
 _symmetry_equiv_pos_as_xyz
  1  'x, y, z'
loop_
 _atom_site_type_symbol
 _atom_site_label
 _atom_site_symmetry_multiplicity
 _atom_site_fract_x
 _atom_site_fract_y
 _atom_site_fract_z
 _atom_site_occupancy
  C  C0  1  0.70115300  0.05393300  0.06340600  1
  C  C1  1  0.05393300  0.70115300  0.56340600  1
  C  C2  1  0.91721200  0.54141700  0.29003500  1
  C  C3  1  0.54141700  0.91721200  0.79003500  1
  C  C4  1  0.56303400  0.03398300  0.42745800  1
  C  C5  1  0.03398300  0.56303400  0.92745800  1
  C  C6  1  0.46371200  0.42920100  0.23613200  1
  C  C7  1  0.42920100  0.46371200  0.73613200  1
  C  C8  1  0.59467100  0.62727000  0.12714300  1
  C  C9  1  0.62727000  0.59467100  0.62714300  1
  C  C10  1  0.68240500  0.38883800  0.32650200  1
  C  C11  1  0.38883800  0.68240500  0.82650200  1
  C  C12  1  0.03476700  0.94707300  0.22656600  1
  C  C13  1  0.94707300  0.03476700  0.72656600  1
  C  C14  1  0.16773900  0.14668100  0.12197300  1
  C  C15  1  0.14668100  0.16773900  0.62197300  1
  C  C16  1  0.94491500  0.19505600  0.02931700  1
  C  C17  1  0.19505600  0.94491500  0.52931700  1
  Ni  Ni18  1  0.47186500  0.57873400  0.13564300  1
  Ni  Ni19  1  0.57873400  0.47186500  0.63564300  1
  Ni  Ni20  1  0.56174700  0.33476700  0.33569900  1
  Ni  Ni21  1  0.33476700  0.56174700  0.83569900  1
  Ni  Ni22  1  0.69365800  0.53983100  0.22224900  1
  Ni  Ni23  1  0.53983100  0.69365800  0.72224900  1
  Ni  Ni24  1  0.16006900  0.99192900  0.21879600  1
  Ni  Ni25  1  0.99192900  0.16006900  0.71879600  1
  Ni  Ni26  1  0.93355300  0.04168100  0.13109100  1
  Ni  Ni27  1  0.04168100  0.93355300  0.63109100  1
  Ni  Ni28  1  0.06731000  0.24608400  0.02183200  1
  Ni  Ni29  1  0.24608400  0.06731000  0.52183200  1
  Cu  Cu30  1  0.37517700  0.35049800  0.24495000  1
  Cu  Cu31  1  0.35049800  0.37517700  0.74495000  1
  Cu  Cu32  1  0.62943400  0.75085500  0.02318100  1
  Cu  Cu33  1  0.75085500  0.62943400  0.52318100  1
  Cu  Cu34  1  0.78858000  0.30216400  0.40831400  1
  Cu  Cu35  1  0.30216400  0.78858000  0.90831400  1
  Cu  Cu36  1  0.00045100  0.82105200  0.32778500  1
  Cu  Cu37  1  0.82105200  0.00045100  0.82778500  1
  Cu  Cu38  1  0.25571200  0.22159800  0.11694600  1
  Cu  Cu39  1  0.22159800  0.25571200  0.61694600  1
  Cu  Cu40  1  0.83626500  0.28868600  0.94759900  1
  Cu  Cu41  1  0.28868600  0.83626500  0.44759900  1
  Cu  Cu42  1  0.89488200  0.65772300  0.77852200  1
  Cu  Cu43  1  0.65772300  0.89488200  0.27852200  1
  Cu  Cu44  1  0.70160500  0.95403100  0.57246000  1
  Cu  Cu45  1  0.95403100  0.70160500  0.07246000  1
