# generated using pymatgen
data_Cu7NiC
_symmetry_space_group_name_H-M   'P 1'
_cell_length_a   6.99775686
_cell_length_b   8.35829800
_cell_length_c   10.57458673
_cell_angle_alpha   90.00000000
_cell_angle_beta   101.34074935
_cell_angle_gamma   90.00000000
_symmetry_Int_Tables_number   1
_chemical_formula_structural   Cu7NiC
_chemical_formula_sum   'Cu28 Ni4 C4'
_cell_volume   606.42437687
_cell_formula_units_Z   4
loop_
 _symmetry_equiv_pos_site_id
 _symmetry_equiv_pos_as_xyz
  1  'x, y, z'
loop_
 _atom_site_type_symbol
 _atom_site_label
 _atom_site_symmetry_multiplicity
 _atom_site_fract_x
 _atom_site_fract_y
 _atom_site_fract_z
 _atom_site_occupancy
  C  C0  1  0.94594700  0.80094400  0.73759700  1
  C  C1  1  0.05405300  0.19905600  0.26240300  1
  C  C2  1  0.55405300  0.30094400  0.26240300  1
  C  C3  1  0.44594700  0.69905600  0.73759700  1
  Ni  Ni4  1  0.76090900  0.47951500  0.98093600  1
  Ni  Ni5  1  0.23909100  0.52048500  0.01906400  1
  Ni  Ni6  1  0.73909100  0.97951500  0.01906400  1
  Ni  Ni7  1  0.26090900  0.02048500  0.98093600  1
  Cu  Cu8  1  0.68417100  0.79247900  0.75265400  1
  Cu  Cu9  1  0.31582900  0.20752100  0.24734600  1
  Cu  Cu10  1  0.81582900  0.29247900  0.24734600  1
  Cu  Cu11  1  0.18417100  0.70752100  0.75265400  1
  Cu  Cu12  1  0.74745400  0.28129500  0.91547200  1
  Cu  Cu13  1  0.25254600  0.71870500  0.08452800  1
  Cu  Cu14  1  0.75254600  0.78129500  0.08452800  1
  Cu  Cu15  1  0.24745400  0.21870500  0.91547200  1
  Cu  Cu16  1  0.93188000  0.57473000  0.88675300  1
  Cu  Cu17  1  0.06812000  0.42527000  0.11324700  1
  Cu  Cu18  1  0.56812000  0.07473000  0.11324700  1
  Cu  Cu19  1  0.43188000  0.92527000  0.88675300  1
  Cu  Cu20  1  0.92827900  0.89461600  0.60296800  1
  Cu  Cu21  1  0.07172100  0.10538400  0.39703200  1
  Cu  Cu22  1  0.57172100  0.39461600  0.39703200  1
  Cu  Cu23  1  0.42827900  0.60538400  0.60296800  1
  Cu  Cu24  1  0.86894900  0.51302300  0.60138300  1
  Cu  Cu25  1  0.13105100  0.48697700  0.39861700  1
  Cu  Cu26  1  0.63105100  0.01302300  0.39861700  1
  Cu  Cu27  1  0.36894900  0.98697700  0.60138300  1
  Cu  Cu28  1  0.51930600  0.54972700  0.86747400  1
  Cu  Cu29  1  0.48069400  0.45027300  0.13252600  1
  Cu  Cu30  1  0.98069400  0.04972700  0.13252600  1
  Cu  Cu31  1  0.01930600  0.95027300  0.86747400  1
  Cu  Cu32  1  0.61533900  0.87876600  0.35034500  1
  Cu  Cu33  1  0.38466100  0.12123400  0.64965500  1
  Cu  Cu34  1  0.88466100  0.37876600  0.64965500  1
  Cu  Cu35  1  0.11533900  0.62123400  0.35034500  1
