# generated using pymatgen
data_Cu2Ni2C
_symmetry_space_group_name_H-M   'P 1'
_cell_length_a   4.18731000
_cell_length_b   4.18731000
_cell_length_c   6.02796570
_cell_angle_alpha   110.32370420
_cell_angle_beta   110.32370420
_cell_angle_gamma   90.00000000
_symmetry_Int_Tables_number   1
_chemical_formula_structural   Cu2Ni2C
_chemical_formula_sum   'Cu2 Ni2 C1'
_cell_volume   92.06305160
_cell_formula_units_Z   1
loop_
 _symmetry_equiv_pos_site_id
 _symmetry_equiv_pos_as_xyz
  1  'x, y, z'
loop_
 _atom_site_type_symbol
 _atom_site_label
 _atom_site_symmetry_multiplicity
 _atom_site_fract_x
 _atom_site_fract_y
 _atom_site_fract_z
 _atom_site_occupancy
  C  C0  1  0.00000000  0.00000000  0.00000000  1
  Ni  Ni1  1  0.37390400  0.37390400  0.74780800  1
  Ni  Ni2  1  0.62609600  0.62609600  0.25219200  1
  Cu  Cu3  1  0.75000000  0.25000000  0.50000000  1
  Cu  Cu4  1  0.25000000  0.75000000  0.50000000  1
