# generated using pymatgen
data_Cu7(NiC)2
_symmetry_space_group_name_H-M   'P 1'
_cell_length_a   7.63622013
_cell_length_b   7.63622013
_cell_length_c   8.76066393
_cell_angle_alpha   89.36980948
_cell_angle_beta   89.36980948
_cell_angle_gamma   67.21032938
_symmetry_Int_Tables_number   1
_chemical_formula_structural   Cu7(NiC)2
_chemical_formula_sum   'Cu14 Ni4 C4'
_cell_volume   470.92894762
_cell_formula_units_Z   2
loop_
 _symmetry_equiv_pos_site_id
 _symmetry_equiv_pos_as_xyz
  1  'x, y, z'
loop_
 _atom_site_type_symbol
 _atom_site_label
 _atom_site_symmetry_multiplicity
 _atom_site_fract_x
 _atom_site_fract_y
 _atom_site_fract_z
 _atom_site_occupancy
  C  C0  1  0.06720400  0.73689600  0.62345600  1
  C  C1  1  0.26310400  0.93279600  0.87654400  1
  C  C2  1  0.93279600  0.26310400  0.37654400  1
  C  C3  1  0.73689600  0.06720400  0.12345600  1
  Ni  Ni4  1  0.07813000  0.48897700  0.18036800  1
  Ni  Ni5  1  0.51102300  0.92187000  0.31963200  1
  Ni  Ni6  1  0.92187000  0.51102300  0.81963200  1
  Ni  Ni7  1  0.48897700  0.07813000  0.68036800  1
  Cu  Cu8  1  0.25155300  0.63747500  0.51721300  1
  Cu  Cu9  1  0.36252500  0.74844700  0.98278700  1
  Cu  Cu10  1  0.74844700  0.36252500  0.48278700  1
  Cu  Cu11  1  0.63747500  0.25155300  0.01721300  1
  Cu  Cu12  1  0.05533300  0.52876200  0.76079000  1
  Cu  Cu13  1  0.47123800  0.94466700  0.73921000  1
  Cu  Cu14  1  0.94466700  0.47123800  0.23921000  1
  Cu  Cu15  1  0.52876200  0.05533300  0.26079000  1
  Cu  Cu16  1  0.86662200  0.81558300  0.53503600  1
  Cu  Cu17  1  0.18441700  0.13337800  0.96496400  1
  Cu  Cu18  1  0.13337800  0.18441700  0.46496400  1
  Cu  Cu19  1  0.81558300  0.86662200  0.03503600  1
  Cu  Cu20  1  0.09060100  0.90939900  0.75000000  1
  Cu  Cu21  1  0.90939900  0.09060100  0.25000000  1
