# generated using pymatgen
data_Cu(NiC4)3
_symmetry_space_group_name_H-M   'P 1'
_cell_length_a   5.82200013
_cell_length_b   10.23037614
_cell_length_c   5.86302254
_cell_angle_alpha   73.58274774
_cell_angle_beta   60.34649934
_cell_angle_gamma   73.49113656
_symmetry_Int_Tables_number   1
_chemical_formula_structural   Cu(NiC4)3
_chemical_formula_sum   'Cu2 Ni6 C24'
_cell_volume   286.70472119
_cell_formula_units_Z   2
loop_
 _symmetry_equiv_pos_site_id
 _symmetry_equiv_pos_as_xyz
  1  'x, y, z'
loop_
 _atom_site_type_symbol
 _atom_site_label
 _atom_site_symmetry_multiplicity
 _atom_site_fract_x
 _atom_site_fract_y
 _atom_site_fract_z
 _atom_site_occupancy
  C  C0  1  0.75241200  0.74939800  0.74707400  1
  C  C1  1  0.24762400  0.25072500  0.25280600  1
  C  C2  1  0.24521500  0.75077900  0.25333300  1
  C  C3  1  0.75509400  0.24922500  0.74672700  1
  C  C4  1  0.25015700  0.75577900  0.74604200  1
  C  C5  1  0.75013100  0.24426100  0.25354200  1
  C  C6  1  0.75135300  0.75064300  0.25185800  1
  C  C7  1  0.24839800  0.24935300  0.74827300  1
  Ni  Ni8  1  0.49995000  0.50004200  0.99992300  1
  Ni  Ni9  1  0.00001400  0.00005200  0.49998100  1
  Ni  Ni10  1  0.99981500  0.50001900  0.49998500  1
  Ni  Ni11  1  0.50004700  0.00005700  0.99997500  1
  Ni  Ni12  1  0.50002800  0.00006400  0.50000600  1
  Ni  Ni13  1  0.99993500  0.50002900  0.00003100  1
  Cu  Cu14  1  0.49971100  0.49970700  0.50029500  1
  Cu  Cu15  1  0.00040900  0.99969900  0.00014000  1
  C  C16  1  0.11997600  0.61353200  0.14671500  1
  C  C17  1  0.62849000  0.12010400  0.62606600  1
  C  C18  1  0.37156800  0.88002800  0.37390300  1
  C  C19  1  0.87991600  0.38652800  0.85328300  1
  C  C20  1  0.87394800  0.88370600  0.86100300  1
  C  C21  1  0.34797500  0.38985500  0.37724700  1
  C  C22  1  0.11550300  0.61008400  0.62173000  1
  C  C23  1  0.61964900  0.11584400  0.11973100  1
  C  C24  1  0.63748300  0.60906300  0.11645500  1
  C  C25  1  0.14410300  0.11391800  0.61299800  1
  C  C26  1  0.85593600  0.88612000  0.38708800  1
  C  C27  1  0.36231500  0.39092600  0.88366200  1
  C  C28  1  0.38056000  0.88417800  0.88025700  1
  C  C29  1  0.88435300  0.38994500  0.37825600  1
  C  C30  1  0.65179200  0.61005300  0.62267700  1
  C  C31  1  0.12615200  0.11628100  0.13894300  1
