# generated using pymatgen
data_Cu3Ni5C3
_symmetry_space_group_name_H-M   'P 1'
_cell_length_a   6.55763800
_cell_length_b   8.53146500
_cell_length_c   19.09068200
_cell_angle_alpha   90.00000000
_cell_angle_beta   90.00000000
_cell_angle_gamma   90.00000000
_symmetry_Int_Tables_number   1
_chemical_formula_structural   Cu3Ni5C3
_chemical_formula_sum   'Cu12 Ni20 C12'
_cell_volume   1068.05224118
_cell_formula_units_Z   4
loop_
 _symmetry_equiv_pos_site_id
 _symmetry_equiv_pos_as_xyz
  1  'x, y, z'
loop_
 _atom_site_type_symbol
 _atom_site_label
 _atom_site_symmetry_multiplicity
 _atom_site_fract_x
 _atom_site_fract_y
 _atom_site_fract_z
 _atom_site_occupancy
  C  C0  1  0.88427000  0.25000000  0.08850600  1
  C  C1  1  0.61573000  0.25000000  0.58850600  1
  C  C2  1  0.11573000  0.75000000  0.91149400  1
  C  C3  1  0.38427000  0.75000000  0.41149400  1
  C  C4  1  0.53305700  0.06000200  0.34623400  1
  C  C5  1  0.96694300  0.43999800  0.84623400  1
  C  C6  1  0.46694300  0.56000200  0.65376600  1
  C  C7  1  0.03305700  0.93999800  0.15376600  1
  C  C8  1  0.46694300  0.93999800  0.65376600  1
  C  C9  1  0.03305700  0.56000200  0.15376600  1
  C  C10  1  0.53305700  0.43999800  0.34623400  1
  C  C11  1  0.96694300  0.06000200  0.84623400  1
  Ni  Ni12  1  0.21591900  0.25000000  0.10943600  1
  Ni  Ni13  1  0.28408100  0.25000000  0.60943600  1
  Ni  Ni14  1  0.78408100  0.75000000  0.89056400  1
  Ni  Ni15  1  0.71591900  0.75000000  0.39056400  1
  Ni  Ni16  1  0.67938000  0.25000000  0.28923600  1
  Ni  Ni17  1  0.82062000  0.25000000  0.78923600  1
  Ni  Ni18  1  0.32062000  0.75000000  0.71076400  1
  Ni  Ni19  1  0.17938000  0.75000000  0.21076400  1
  Ni  Ni20  1  0.75666300  0.02981500  0.14263100  1
  Ni  Ni21  1  0.74333700  0.47018500  0.64263100  1
  Ni  Ni22  1  0.24333700  0.52981500  0.85736900  1
  Ni  Ni23  1  0.25666300  0.97018500  0.35736900  1
  Ni  Ni24  1  0.24333700  0.97018500  0.85736900  1
  Ni  Ni25  1  0.25666300  0.52981500  0.35736900  1
  Ni  Ni26  1  0.75666300  0.47018500  0.14263100  1
  Ni  Ni27  1  0.74333700  0.02981500  0.64263100  1
  Ni  Ni28  1  0.60291100  0.25000000  0.98485600  1
  Ni  Ni29  1  0.89708900  0.25000000  0.48485600  1
  Ni  Ni30  1  0.39708900  0.75000000  0.01514400  1
  Ni  Ni31  1  0.10291100  0.75000000  0.51514400  1
  Cu  Cu32  1  0.86052100  0.25000000  0.98998400  1
  Cu  Cu33  1  0.63947900  0.25000000  0.48998400  1
  Cu  Cu34  1  0.13947900  0.75000000  0.01001600  1
  Cu  Cu35  1  0.36052100  0.75000000  0.51001600  1
  Cu  Cu36  1  0.18185100  0.59437500  0.16229800  1
  Cu  Cu37  1  0.31814900  0.90562500  0.66229800  1
  Cu  Cu38  1  0.81814900  0.09437500  0.83770200  1
  Cu  Cu39  1  0.68185100  0.40562500  0.33770200  1
  Cu  Cu40  1  0.81814900  0.40562500  0.83770200  1
  Cu  Cu41  1  0.68185100  0.09437500  0.33770200  1
  Cu  Cu42  1  0.18185100  0.90562500  0.16229800  1
  Cu  Cu43  1  0.31814900  0.59437500  0.66229800  1
