# generated using pymatgen
data_Cu3Ni6C11
_symmetry_space_group_name_H-M   'P 1'
_cell_length_a   10.18171600
_cell_length_b   10.18171600
_cell_length_c   4.94538600
_cell_angle_alpha   90.00000000
_cell_angle_beta   90.00000000
_cell_angle_gamma   90.00000000
_symmetry_Int_Tables_number   1
_chemical_formula_structural   Cu3Ni6C11
_chemical_formula_sum   'Cu6 Ni12 C22'
_cell_volume   512.67501538
_cell_formula_units_Z   2
loop_
 _symmetry_equiv_pos_site_id
 _symmetry_equiv_pos_as_xyz
  1  'x, y, z'
loop_
 _atom_site_type_symbol
 _atom_site_label
 _atom_site_symmetry_multiplicity
 _atom_site_fract_x
 _atom_site_fract_y
 _atom_site_fract_z
 _atom_site_occupancy
  Ni  Ni0  1  0.41982200  0.29047300  0.53270500  1
  Ni  Ni1  1  0.58017800  0.70952700  0.53270500  1
  Ni  Ni2  1  0.08017800  0.79047300  0.53270500  1
  Ni  Ni3  1  0.91982200  0.20952700  0.53270500  1
  Ni  Ni4  1  0.29047300  0.58017800  0.53270500  1
  Ni  Ni5  1  0.70952700  0.41982200  0.53270500  1
  Ni  Ni6  1  0.79047300  0.91982200  0.53270500  1
  Ni  Ni7  1  0.20952700  0.08017800  0.53270500  1
  Ni  Ni8  1  0.88228100  0.38228100  0.04684700  1
  Ni  Ni9  1  0.11771900  0.61771900  0.04684700  1
  Ni  Ni10  1  0.61771900  0.88228100  0.04684700  1
  Ni  Ni11  1  0.38228100  0.11771900  0.04684700  1
  Cu  Cu12  1  0.31723100  0.81723100  0.97446400  1
  Cu  Cu13  1  0.68276900  0.18276900  0.97446400  1
  Cu  Cu14  1  0.18276900  0.31723100  0.97446400  1
  Cu  Cu15  1  0.81723100  0.68276900  0.97446400  1
  Cu  Cu16  1  0.50000000  0.50000000  0.98007200  1
  Cu  Cu17  1  0.00000000  0.00000000  0.98007200  1
  C  C18  1  0.32219900  0.42222300  0.65199500  1
  C  C19  1  0.67780100  0.57777700  0.65199500  1
  C  C20  1  0.17780100  0.92222300  0.65199500  1
  C  C21  1  0.82219900  0.07777700  0.65199500  1
  C  C22  1  0.42222300  0.67780100  0.65199500  1
  C  C23  1  0.57777700  0.32219900  0.65199500  1
  C  C24  1  0.92222300  0.82219900  0.65199500  1
  C  C25  1  0.07777700  0.17780100  0.65199500  1
  C  C26  1  0.42541100  0.26768900  0.18840500  1
  C  C27  1  0.57458900  0.73231100  0.18840500  1
  C  C28  1  0.07458900  0.76768900  0.18840500  1
  C  C29  1  0.92541100  0.23231100  0.18840500  1
  C  C30  1  0.26768900  0.57458900  0.18840500  1
  C  C31  1  0.73231100  0.42541100  0.18840500  1
  C  C32  1  0.76768900  0.92541100  0.18840500  1
  C  C33  1  0.23231100  0.07458900  0.18840500  1
  C  C34  1  0.84295400  0.34295400  0.70352600  1
  C  C35  1  0.15704600  0.65704600  0.70352600  1
  C  C36  1  0.65704600  0.84295400  0.70352600  1
  C  C37  1  0.34295400  0.15704600  0.70352600  1
  C  C38  1  0.50000000  0.00000000  0.04637400  1
  C  C39  1  0.00000000  0.50000000  0.04637400  1
