# generated using pymatgen
data_CuNiC16
_symmetry_space_group_name_H-M   'P 1'
_cell_length_a   7.53055772
_cell_length_b   7.53055772
_cell_length_c   10.70902437
_cell_angle_alpha   79.04050612
_cell_angle_beta   79.04050612
_cell_angle_gamma   115.51496769
_symmetry_Int_Tables_number   1
_chemical_formula_structural   CuNiC16
_chemical_formula_sum   'Cu2 Ni2 C32'
_cell_volume   512.09296677
_cell_formula_units_Z   2
loop_
 _symmetry_equiv_pos_site_id
 _symmetry_equiv_pos_as_xyz
  1  'x, y, z'
loop_
 _atom_site_type_symbol
 _atom_site_label
 _atom_site_symmetry_multiplicity
 _atom_site_fract_x
 _atom_site_fract_y
 _atom_site_fract_z
 _atom_site_occupancy
  Ni  Ni0  1  0.31060400  0.68939600  0.25000000  1
  Ni  Ni1  1  0.68939600  0.31060400  0.75000000  1
  Cu  Cu2  1  0.62068700  0.37931300  0.25000000  1
  Cu  Cu3  1  0.37931300  0.62068700  0.75000000  1
  C  C4  1  0.12175300  0.78685200  0.99553000  1
  C  C5  1  0.21314800  0.87824700  0.50447000  1
  C  C6  1  0.87824700  0.21314800  0.00447000  1
  C  C7  1  0.78685200  0.12175300  0.49553000  1
  C  C8  1  0.75162700  0.80476000  0.94964400  1
  C  C9  1  0.19524000  0.24837300  0.55035600  1
  C  C10  1  0.24837300  0.19524000  0.05035600  1
  C  C11  1  0.80476000  0.75162700  0.44964400  1
  C  C12  1  0.99118100  0.85445700  0.91392500  1
  C  C13  1  0.14554300  0.00881900  0.58607500  1
  C  C14  1  0.00881900  0.14554300  0.08607500  1
  C  C15  1  0.85445700  0.99118100  0.41392500  1
  C  C16  1  0.77729900  0.03188100  0.93726300  1
  C  C17  1  0.96811900  0.22270100  0.56273700  1
  C  C18  1  0.22270100  0.96811900  0.06273700  1
  C  C19  1  0.03188100  0.77729900  0.43726300  1
  C  C20  1  0.67272000  0.74302600  0.83888900  1
  C  C21  1  0.25697400  0.32728000  0.66111100  1
  C  C22  1  0.32728000  0.25697400  0.16111100  1
  C  C23  1  0.74302600  0.67272000  0.33888900  1
  C  C24  1  0.66906600  0.63804800  0.59225800  1
  C  C25  1  0.36195200  0.33093400  0.90774200  1
  C  C26  1  0.33093400  0.36195200  0.40774200  1
  C  C27  1  0.63804800  0.66906600  0.09225800  1
  C  C28  1  0.80080700  0.30022200  0.39544300  1
  C  C29  1  0.69977800  0.19919300  0.10455700  1
  C  C30  1  0.19919300  0.69977800  0.60455700  1
  C  C31  1  0.30022200  0.80080700  0.89544300  1
  C  C32  1  0.59418900  0.98752800  0.61217100  1
  C  C33  1  0.01247200  0.40581100  0.88782900  1
  C  C34  1  0.40581100  0.01247200  0.38782900  1
  C  C35  1  0.98752800  0.59418900  0.11217100  1
