# generated using pymatgen
data_Cu(NiC8)3
_symmetry_space_group_name_H-M   'P 1'
_cell_length_a   4.25025500
_cell_length_b   8.68966796
_cell_length_c   8.90755051
_cell_angle_alpha   89.42245794
_cell_angle_beta   90.00000000
_cell_angle_gamma   90.00000000
_symmetry_Int_Tables_number   1
_chemical_formula_structural   Cu(NiC8)3
_chemical_formula_sum   'Cu1 Ni3 C24'
_cell_volume   328.96856351
_cell_formula_units_Z   1
loop_
 _symmetry_equiv_pos_site_id
 _symmetry_equiv_pos_as_xyz
  1  'x, y, z'
loop_
 _atom_site_type_symbol
 _atom_site_label
 _atom_site_symmetry_multiplicity
 _atom_site_fract_x
 _atom_site_fract_y
 _atom_site_fract_z
 _atom_site_occupancy
  Ni  Ni0  1  0.25000000  0.69242300  0.02742100  1
  Ni  Ni1  1  0.25000000  0.18664700  0.47055600  1
  Ni  Ni2  1  0.75000000  0.20038000  0.75913000  1
  Cu  Cu3  1  0.75000000  0.70048000  0.73939100  1
  C  C4  1  0.25000000  0.19818100  0.04293400  1
  C  C5  1  0.25000000  0.69614800  0.45754500  1
  C  C6  1  0.75000000  0.45561900  0.06932600  1
  C  C7  1  0.25000000  0.98435500  0.75566000  1
  C  C8  1  0.25000000  0.43953800  0.73849200  1
  C  C9  1  0.75000000  0.39998300  0.47339500  1
  C  C10  1  0.75000000  0.95839300  0.43214900  1
  C  C11  1  0.75000000  0.90821100  0.02727600  1
  C  C12  1  0.25000000  0.20316000  0.76074200  1
  C  C13  1  0.25000000  0.71125300  0.27264600  1
  C  C14  1  0.25000000  0.92606500  0.53352100  1
  C  C15  1  0.25000000  0.19661900  0.22795000  1
  C  C16  1  0.25000000  0.96963200  0.98474400  1
  C  C17  1  0.25000000  0.46469500  0.50124300  1
  C  C18  1  0.25000000  0.65744600  0.74855900  1
  C  C19  1  0.25000000  0.42952400  0.99801900  1
  C  C20  1  0.75000000  0.67082000  0.00445300  1
  C  C21  1  0.75000000  0.94884800  0.79884900  1
  C  C22  1  0.75000000  0.17884700  0.49273400  1
  C  C23  1  0.75000000  0.24088900  0.01335900  1
  C  C24  1  0.75000000  0.45446500  0.26293000  1
  C  C25  1  0.75000000  0.44077400  0.69511100  1
  C  C26  1  0.75000000  0.73243200  0.48595500  1
  C  C27  1  0.75000000  0.95417300  0.22591100  1
