# generated using pymatgen
data_Cu3Ni2C11
_symmetry_space_group_name_H-M   'P 1'
_cell_length_a   11.27998012
_cell_length_b   11.27998012
_cell_length_c   11.27998012
_cell_angle_alpha   114.55158504
_cell_angle_beta   114.55158504
_cell_angle_gamma   99.72824749
_symmetry_Int_Tables_number   1
_chemical_formula_structural   Cu3Ni2C11
_chemical_formula_sum   'Cu12 Ni8 C44'
_cell_volume   1081.48950323
_cell_formula_units_Z   4
loop_
 _symmetry_equiv_pos_site_id
 _symmetry_equiv_pos_as_xyz
  1  'x, y, z'
loop_
 _atom_site_type_symbol
 _atom_site_label
 _atom_site_symmetry_multiplicity
 _atom_site_fract_x
 _atom_site_fract_y
 _atom_site_fract_z
 _atom_site_occupancy
  C  C0  1  0.32751700  0.67248300  0.00000000  1
  C  C1  1  0.67248300  0.32751700  0.00000000  1
  C  C2  1  0.42248300  0.92248300  0.84496700  1
  C  C3  1  0.07751700  0.57751700  0.15503300  1
  C  C4  1  0.32751700  0.32751700  0.65503300  1
  C  C5  1  0.07751700  0.92248300  0.50000000  1
  C  C6  1  0.42248300  0.57751700  0.50000000  1
  C  C7  1  0.67248300  0.67248300  0.34496700  1
  C  C8  1  0.04124000  0.80170300  0.76046300  1
  C  C9  1  0.04124000  0.28077700  0.23953700  1
  C  C10  1  0.19829700  0.95876000  0.23953700  1
  C  C11  1  0.03077700  0.29124000  0.73953700  1
  C  C12  1  0.55170300  0.29124000  0.26046300  1
  C  C13  1  0.70876000  0.96922300  0.26046300  1
  C  C14  1  0.70876000  0.44829700  0.73953700  1
  C  C15  1  0.71922300  0.95876000  0.76046300  1
  Ni  Ni16  1  0.28140700  0.40536400  0.12395700  1
  Ni  Ni17  1  0.28140700  0.15744900  0.87604300  1
  Ni  Ni18  1  0.59463600  0.71859300  0.87604300  1
  Ni  Ni19  1  0.90744900  0.53140700  0.37604300  1
  Ni  Ni20  1  0.15536400  0.53140700  0.62395700  1
  Ni  Ni21  1  0.46859300  0.09255100  0.62395700  1
  Ni  Ni22  1  0.46859300  0.84463600  0.37604300  1
  Ni  Ni23  1  0.84255100  0.71859300  0.12395700  1
  Cu  Cu24  1  0.50000000  0.50000000  0.00000000  1
  Cu  Cu25  1  0.25000000  0.75000000  0.50000000  1
  Cu  Cu26  1  0.75000000  0.25000000  0.50000000  1
  Cu  Cu27  1  0.00000000  0.00000000  0.00000000  1
  Cu  Cu28  1  0.87500000  0.97900900  0.60400900  1
  Cu  Cu29  1  0.72900900  0.62500000  0.60400900  1
  Cu  Cu30  1  0.02099100  0.12500000  0.39599100  1
  Cu  Cu31  1  0.37500000  0.27099100  0.39599100  1
  Cu  Cu32  1  0.87500000  0.27099100  0.89599100  1
  Cu  Cu33  1  0.02099100  0.62500000  0.89599100  1
  Cu  Cu34  1  0.72900900  0.12500000  0.10400900  1
  Cu  Cu35  1  0.37500000  0.97900900  0.10400900  1
  C  C36  1  0.76528200  0.76528200  0.00000000  1
  C  C37  1  0.51528200  0.01528200  0.50000000  1
  C  C38  1  0.98471800  0.48471800  0.50000000  1
  C  C39  1  0.23471800  0.23471800  0.00000000  1
  C  C40  1  0.20556700  0.97933800  0.77377100  1
  C  C41  1  0.20556700  0.43179600  0.22622900  1
  C  C42  1  0.02066200  0.79443300  0.22622900  1
  C  C43  1  0.18179600  0.45556700  0.72622900  1
  C  C44  1  0.72933800  0.45556700  0.27377100  1
  C  C45  1  0.54443300  0.81820400  0.27377100  1
  C  C46  1  0.54443300  0.27066200  0.72622900  1
  C  C47  1  0.56820400  0.79443300  0.77377100  1
  C  C48  1  0.29766700  0.05672300  0.52212700  1
  C  C49  1  0.53459600  0.77554000  0.47787300  1
  C  C50  1  0.94327700  0.70233300  0.47787300  1
  C  C51  1  0.52554000  0.54766700  0.74094400  1
  C  C52  1  0.52554000  0.78459600  0.97787300  1
  C  C53  1  0.22446000  0.46540400  0.52212700  1
  C  C54  1  0.29766700  0.77554000  0.24094400  1
  C  C55  1  0.94327700  0.46540400  0.24094400  1
  C  C56  1  0.22446000  0.70233300  0.75905600  1
  C  C57  1  0.80672300  0.54766700  0.02212700  1
  C  C58  1  0.21540400  0.47446000  0.02212700  1
  C  C59  1  0.45233300  0.19327700  0.97787300  1
  C  C60  1  0.80672300  0.78459600  0.25905600  1
  C  C61  1  0.45233300  0.47446000  0.25905600  1
  C  C62  1  0.21540400  0.19327700  0.74094400  1
  C  C63  1  0.53459600  0.05672300  0.75905600  1
