# generated using pymatgen
data_CuNi3C16
_symmetry_space_group_name_H-M   'P 1'
_cell_length_a   7.60590500
_cell_length_b   5.22872200
_cell_length_c   5.60819352
_cell_angle_alpha   88.88888216
_cell_angle_beta   90.00000000
_cell_angle_gamma   90.00000000
_symmetry_Int_Tables_number   1
_chemical_formula_structural   CuNi3C16
_chemical_formula_sum   'Cu1 Ni3 C16'
_cell_volume   222.99122375
_cell_formula_units_Z   1
loop_
 _symmetry_equiv_pos_site_id
 _symmetry_equiv_pos_as_xyz
  1  'x, y, z'
loop_
 _atom_site_type_symbol
 _atom_site_label
 _atom_site_symmetry_multiplicity
 _atom_site_fract_x
 _atom_site_fract_y
 _atom_site_fract_z
 _atom_site_occupancy
  Ni  Ni0  1  0.00000000  0.02553100  0.92379400  1
  Ni  Ni1  1  0.50000000  0.51924200  0.56808300  1
  Ni  Ni2  1  0.50000000  0.97275700  0.07649800  1
  Cu  Cu3  1  0.00000000  0.48309400  0.43625100  1
  C  C4  1  0.24804900  0.50041200  0.00167700  1
  C  C5  1  0.75182300  0.99914900  0.49834700  1
  C  C6  1  0.75195100  0.50041200  0.00167700  1
  C  C7  1  0.24817700  0.99914900  0.49834700  1
  C  C8  1  0.18397600  0.18729900  0.18835200  1
  C  C9  1  0.82116000  0.31482600  0.68216000  1
  C  C10  1  0.68666800  0.81364000  0.81160900  1
  C  C11  1  0.31726400  0.69133200  0.30996300  1
  C  C12  1  0.31333200  0.81364000  0.81160900  1
  C  C13  1  0.68273600  0.69133200  0.30996300  1
  C  C14  1  0.81602400  0.18729900  0.18835200  1
  C  C15  1  0.17884000  0.31482600  0.68216000  1
  C  C16  1  0.00000000  0.62929400  0.06473600  1
  C  C17  1  0.00000000  0.85459300  0.55301100  1
  C  C18  1  0.50000000  0.37066100  0.94594800  1
  C  C19  1  0.50000000  0.13151500  0.44746400  1
