# generated using pymatgen
data_Cu3Ni4C3
_symmetry_space_group_name_H-M   'P 1'
_cell_length_a   8.49099630
_cell_length_b   8.49099630
_cell_length_c   8.49099630
_cell_angle_alpha   109.47122063
_cell_angle_beta   109.47122063
_cell_angle_gamma   109.47122063
_symmetry_Int_Tables_number   1
_chemical_formula_structural   Cu3Ni4C3
_chemical_formula_sum   'Cu6 Ni8 C6'
_cell_volume   471.25293093
_cell_formula_units_Z   2
loop_
 _symmetry_equiv_pos_site_id
 _symmetry_equiv_pos_as_xyz
  1  'x, y, z'
loop_
 _atom_site_type_symbol
 _atom_site_label
 _atom_site_symmetry_multiplicity
 _atom_site_fract_x
 _atom_site_fract_y
 _atom_site_fract_z
 _atom_site_occupancy
  C  C0  1  0.62500000  0.37500000  0.75000000  1
  C  C1  1  0.87500000  0.12500000  0.25000000  1
  C  C2  1  0.37500000  0.75000000  0.62500000  1
  C  C3  1  0.12500000  0.25000000  0.87500000  1
  C  C4  1  0.75000000  0.62500000  0.37500000  1
  C  C5  1  0.25000000  0.87500000  0.12500000  1
  Ni  Ni6  1  0.82320700  0.82320700  0.82320700  1
  Ni  Ni7  1  0.67679300  0.00000000  0.50000000  1
  Ni  Ni8  1  0.50000000  0.67679300  0.00000000  1
  Ni  Ni9  1  0.32320700  0.32320700  0.32320700  1
  Ni  Ni10  1  0.00000000  0.50000000  0.67679300  1
  Ni  Ni11  1  0.17679300  0.00000000  0.50000000  1
  Ni  Ni12  1  0.00000000  0.50000000  0.17679300  1
  Ni  Ni13  1  0.50000000  0.17679300  0.00000000  1
  Cu  Cu14  1  0.12500000  0.87500000  0.75000000  1
  Cu  Cu15  1  0.37500000  0.62500000  0.25000000  1
  Cu  Cu16  1  0.87500000  0.75000000  0.12500000  1
  Cu  Cu17  1  0.62500000  0.25000000  0.37500000  1
  Cu  Cu18  1  0.75000000  0.12500000  0.87500000  1
  Cu  Cu19  1  0.25000000  0.37500000  0.62500000  1
