# generated using pymatgen
data_Cu2Ni2C13
_symmetry_space_group_name_H-M   'P 1'
_cell_length_a   6.32649689
_cell_length_b   6.73001297
_cell_length_c   9.93526300
_cell_angle_alpha   90.00000000
_cell_angle_beta   90.00000000
_cell_angle_gamma   103.75547802
_symmetry_Int_Tables_number   1
_chemical_formula_structural   Cu2Ni2C13
_chemical_formula_sum   'Cu4 Ni4 C26'
_cell_volume   410.88530050
_cell_formula_units_Z   2
loop_
 _symmetry_equiv_pos_site_id
 _symmetry_equiv_pos_as_xyz
  1  'x, y, z'
loop_
 _atom_site_type_symbol
 _atom_site_label
 _atom_site_symmetry_multiplicity
 _atom_site_fract_x
 _atom_site_fract_y
 _atom_site_fract_z
 _atom_site_occupancy
  Ni  Ni0  1  0.41654000  0.33260900  0.11107000  1
  Ni  Ni1  1  0.58346000  0.16739100  0.61107000  1
  Ni  Ni2  1  0.58346000  0.66739100  0.88893000  1
  Ni  Ni3  1  0.41654000  0.83260900  0.38893000  1
  Cu  Cu4  1  0.87274300  0.47630600  0.33452000  1
  Cu  Cu5  1  0.12725700  0.02369400  0.83452000  1
  Cu  Cu6  1  0.12725700  0.52369400  0.66548000  1
  Cu  Cu7  1  0.87274300  0.97630600  0.16548000  1
  C  C8  1  0.66322000  0.12661800  0.90004700  1
  C  C9  1  0.33678000  0.37338200  0.40004700  1
  C  C10  1  0.33678000  0.87338200  0.09995300  1
  C  C11  1  0.66322000  0.62661800  0.59995300  1
  C  C12  1  0.00000000  0.50000000  0.00000000  1
  C  C13  1  0.00000000  0.00000000  0.50000000  1
  C  C14  1  0.52238600  0.44680600  0.32907900  1
  C  C15  1  0.47761400  0.05319400  0.82907900  1
  C  C16  1  0.47761400  0.55319400  0.67092100  1
  C  C17  1  0.52238600  0.94680600  0.17092100  1
  C  C18  1  0.00119200  0.31992500  0.15214700  1
  C  C19  1  0.99880800  0.18007500  0.65214700  1
  C  C20  1  0.99880800  0.68007500  0.84785300  1
  C  C21  1  0.00119200  0.81992500  0.34785300  1
  C  C22  1  0.70845000  0.33727400  0.93655400  1
  C  C23  1  0.29155000  0.16272600  0.43655400  1
  C  C24  1  0.29155000  0.66272600  0.06344600  1
  C  C25  1  0.70845000  0.83727400  0.56344600  1
  C  C26  1  0.19633100  0.49134500  0.43790800  1
  C  C27  1  0.80366900  0.00865500  0.93790800  1
  C  C28  1  0.80366900  0.50865500  0.56209200  1
  C  C29  1  0.19633100  0.99134500  0.06209200  1
  C  C30  1  0.16273800  0.36286600  0.88249600  1
  C  C31  1  0.83726200  0.13713400  0.38249600  1
  C  C32  1  0.83726200  0.63713400  0.11750400  1
  C  C33  1  0.16273800  0.86286600  0.61750400  1
