# generated using pymatgen
data_CuNi2C27
_symmetry_space_group_name_H-M   'P 1'
_cell_length_a   10.69771702
_cell_length_b   16.57369305
_cell_length_c   16.57371738
_cell_angle_alpha   120.00019877
_cell_angle_beta   90.00001893
_cell_angle_gamma   90.00007975
_symmetry_Int_Tables_number   1
_chemical_formula_structural   CuNi2C27
_chemical_formula_sum   'Cu6 Ni12 C162'
_cell_volume   2544.83768613
_cell_formula_units_Z   6
loop_
 _symmetry_equiv_pos_site_id
 _symmetry_equiv_pos_as_xyz
  1  'x, y, z'
loop_
 _atom_site_type_symbol
 _atom_site_label
 _atom_site_symmetry_multiplicity
 _atom_site_fract_x
 _atom_site_fract_y
 _atom_site_fract_z
 _atom_site_occupancy
  Ni  Ni0  1  0.06165304  0.63719328  0.99760159  1
  Ni  Ni1  1  0.06165222  0.00239881  0.63959012  1
  Ni  Ni2  1  0.06164984  0.36040825  0.36280773  1
  Ni  Ni3  1  0.93834696  0.36280672  0.00239841  1
  Ni  Ni4  1  0.93834778  0.99760119  0.36040988  1
  Ni  Ni5  1  0.93835016  0.63959175  0.63719227  1
  Ni  Ni6  1  0.57603064  0.69617141  0.01184362  1
  Ni  Ni7  1  0.57603056  0.98815823  0.68432631  1
  Ni  Ni8  1  0.57603121  0.31567044  0.30382858  1
  Ni  Ni9  1  0.42396936  0.30382859  0.98815638  1
  Ni  Ni10  1  0.42396944  0.01184177  0.31567369  1
  Ni  Ni11  1  0.42396879  0.68432956  0.69617142  1
  Cu  Cu12  1  0.24361225  0.00000069  0.00000071  1
  Cu  Cu13  1  0.75638775  0.99999931  0.99999929  1
  Cu  Cu14  1  0.72224516  0.66668042  0.33334007  1
  Cu  Cu15  1  0.27775484  0.33331958  0.66665993  1
  Cu  Cu16  1  0.22631773  0.66668318  0.33334205  1
  Cu  Cu17  1  0.77368227  0.33331682  0.66665795  1
  C  C18  1  0.15576950  0.00745507  0.18191199  1
  C  C19  1  0.15576966  0.81808852  0.82554371  1
  C  C20  1  0.15576916  0.17445785  0.99254554  1
  C  C21  1  0.84423050  0.99254493  0.81808801  1
  C  C22  1  0.84423034  0.18191148  0.17445629  1
  C  C23  1  0.84423084  0.82554215  0.00745446  1
  C  C24  1  0.64565806  0.49476665  0.14571654  1
  C  C25  1  0.64565937  0.85428587  0.34905206  1
  C  C26  1  0.64566009  0.65094525  0.50523213  1
  C  C27  1  0.35434194  0.50523335  0.85428346  1
  C  C28  1  0.35434063  0.14571413  0.65094794  1
  C  C29  1  0.35433991  0.34905475  0.49476787  1
  C  C30  1  0.33229768  0.79532993  0.94305333  1
  C  C31  1  0.33229690  0.05694683  0.85227632  1
  C  C32  1  0.33229786  0.14772337  0.20467008  1
  C  C33  1  0.66770232  0.20467007  0.05694667  1
  C  C34  1  0.66770310  0.94305317  0.14772368  1
  C  C35  1  0.66770214  0.85227663  0.79532992  1
  C  C36  1  0.33165915  0.67043207  0.15933995  1
  C  C37  1  0.33165711  0.84066039  0.51109872  1
  C  C38  1  0.33165752  0.48890558  0.32956398  1
  C  C39  1  0.66834085  0.32956793  0.84066005  1
  C  C40  1  0.66834289  0.15933961  0.48890128  1
  C  C41  1  0.66834248  0.51109442  0.67043602  1
  C  C42  1  0.86297075  0.54045514  0.80123055  1
  C  C43  1  0.86296719  0.19876823  0.73922726  1
  C  C44  1  0.86297165  0.26077587  0.45954261  1
  C  C45  1  0.13702925  0.45954486  0.19876945  1
  C  C46  1  0.13703281  0.80123177  0.26077274  1
  C  C47  1  0.13702835  0.73922413  0.54045739  1
  C  C48  1  0.81502863  0.62230924  0.13203365  1
  C  C49  1  0.81502878  0.86796591  0.49027693  1
  C  C50  1  0.81503132  0.50972457  0.37768756  1
  C  C51  1  0.18497137  0.37769076  0.86796635  1
  C  C52  1  0.18497122  0.13203409  0.50972307  1
  C  C53  1  0.18496868  0.49027543  0.62231244  1
  C  C54  1  0.13622967  0.97794949  0.07925700  1
  C  C55  1  0.13623039  0.92074346  0.89869288  1
  C  C56  1  0.13623059  0.10130873  0.02205179  1
  C  C57  1  0.86377033  0.02205051  0.92074300  1
  C  C58  1  0.86376961  0.07925654  0.10130712  1
  C  C59  1  0.86376941  0.89869127  0.97794821  1
  C  C60  1  0.61734915  0.56747115  0.24753427  1
  C  C61  1  0.61734385  0.75246697  0.31993568  1
  C  C62  1  0.61734523  0.68006311  0.43252948  1
  C  C63  1  0.38265085  0.43252885  0.75246573  1
  C  C64  1  0.38265615  0.24753303  0.68006432  1
  C  C65  1  0.38265477  0.31993689  0.56747052  1
  C  C66  1  0.35233509  0.89844346  0.97575751  1
  C  C67  1  0.35233541  0.02424171  0.92268453  1
  C  C68  1  0.35233595  0.07731409  0.10155603  1
  C  C69  1  0.64766491  0.10155654  0.02424249  1
  C  C70  1  0.64766459  0.97575829  0.07731547  1
  C  C71  1  0.64766405  0.92268591  0.89844397  1
  C  C72  1  0.03713322  0.01017027  0.22285328  1
  C  C73  1  0.03713337  0.77714786  0.78731802  1
  C  C74  1  0.03713260  0.21268263  0.98982955  1
  C  C75  1  0.96286678  0.98982973  0.77714672  1
  C  C76  1  0.96286663  0.22285214  0.21268198  1
  C  C77  1  0.96286740  0.78731737  0.01017045  1
  C  C78  1  0.33450526  0.63702396  0.23023579  1
  C  C79  1  0.33450856  0.76976800  0.40678981  1
  C  C80  1  0.33450383  0.59321147  0.36297585  1
  C  C81  1  0.66549474  0.36297604  0.76976421  1
  C  C82  1  0.66549144  0.23023200  0.59321019  1
  C  C83  1  0.66549617  0.40678853  0.63702415  1
  C  C84  1  0.42677536  0.74157948  0.87485067  1
  C  C85  1  0.42677463  0.12514977  0.86672750  1
  C  C86  1  0.42677512  0.13327138  0.25842121  1
  C  C87  1  0.57322464  0.25842052  0.12514933  1
  C  C88  1  0.57322537  0.87485023  0.13327250  1
  C  C89  1  0.57322488  0.86672862  0.74157879  1
  C  C90  1  0.25987376  0.95970157  0.19472840  1
  C  C91  1  0.25987405  0.80527250  0.76497379  1
  C  C92  1  0.25987403  0.23502772  0.04029924  1
  C  C93  1  0.74012624  0.04029843  0.80527160  1
  C  C94  1  0.74012595  0.19472750  0.23502621  1
  C  C95  1  0.74012597  0.76497228  0.95970076  1
  C  C96  1  0.71661940  0.55660221  0.77907108  1
  C  C97  1  0.71662238  0.22092893  0.77752843  1
  C  C98  1  0.71661904  0.22247018  0.44340096  1
  C  C99  1  0.28338060  0.44339779  0.22092892  1
  C  C100  1  0.28337762  0.77907107  0.22247157  1
  C  C101  1  0.28338096  0.77752982  0.55659904  1
  C  C102  1  0.83078098  0.65281433  0.23484123  1
  C  C103  1  0.83078303  0.76515880  0.41797496  1
  C  C104  1  0.83077718  0.58202621  0.34718225  1
  C  C105  1  0.16921902  0.34718567  0.76515877  1
  C  C106  1  0.16921697  0.23484120  0.58202504  1
  C  C107  1  0.16922282  0.41797379  0.65281775  1
  C  C108  1  0.68389878  0.56038462  0.10142501  1
  C  C109  1  0.68389787  0.89857142  0.45895778  1
  C  C110  1  0.68389732  0.54104086  0.43961587  1
  C  C111  1  0.31610122  0.43961538  0.89857499  1
  C  C112  1  0.31610213  0.10142858  0.54104222  1
  C  C113  1  0.31610268  0.45895914  0.56038413  1
  C  C114  1  0.19472768  0.77225918  0.89008685  1
  C  C115  1  0.19472704  0.10991229  0.88217111  1
  C  C116  1  0.19472717  0.11782845  0.22774042  1
  C  C117  1  0.80527232  0.22774082  0.10991315  1
  C  C118  1  0.80527296  0.89008771  0.11782889  1
  C  C119  1  0.80527283  0.88217155  0.77225958  1
  C  C120  1  0.52916734  0.45394261  0.10063876  1
  C  C121  1  0.52916452  0.89935634  0.35330317  1
  C  C122  1  0.52916670  0.64669672  0.54605508  1
  C  C123  1  0.47083266  0.54605739  0.89936124  1
  C  C124  1  0.47083548  0.10064366  0.64669683  1
  C  C125  1  0.47083330  0.35330328  0.45394492  1
  C  C126  1  0.24214314  0.61969049  0.08664443  1
  C  C127  1  0.24214278  0.91335441  0.53304373  1
  C  C128  1  0.24214497  0.46695271  0.38030886  1
  C  C129  1  0.75785686  0.38030951  0.91335557  1
  C  C130  1  0.75785722  0.08664559  0.46695627  1
  C  C131  1  0.75785503  0.53304729  0.61969114  1
  C  C132  1  0.75151112  0.43724103  0.13537704  1
  C  C133  1  0.75151069  0.86462031  0.30186353  1
  C  C134  1  0.75151032  0.69813737  0.56275727  1
  C  C135  1  0.24848888  0.56275897  0.86462296  1
  C  C136  1  0.24848931  0.13537969  0.69813647  1
  C  C137  1  0.24848968  0.30186263  0.43724273  1
  C  C138  1  0.88307443  0.43657345  0.73460126  1
  C  C139  1  0.88308186  0.26539642  0.70197322  1
  C  C140  1  0.88307966  0.29802849  0.56342358  1
  C  C141  1  0.11692557  0.56342655  0.26539874  1
  C  C142  1  0.11691814  0.73460358  0.29802678  1
  C  C143  1  0.11692034  0.70197151  0.43657642  1
  C  C144  1  0.45741497  0.68054156  0.13578042  1
  C  C145  1  0.45741571  0.86421841  0.54476017  1
  C  C146  1  0.45741395  0.45523648  0.31945787  1
  C  C147  1  0.54258503  0.31945844  0.86421958  1
  C  C148  1  0.54258429  0.13578159  0.45523983  1
  C  C149  1  0.54258605  0.54476352  0.68054213  1
  C  C150  1  0.31062050  0.77612604  0.01689666  1
  C  C151  1  0.31062071  0.98310282  0.75922867  1
  C  C152  1  0.31062067  0.24077089  0.22387353  1
  C  C153  1  0.68937950  0.22387396  0.98310334  1
  C  C154  1  0.68937929  0.01689718  0.24077133  1
  C  C155  1  0.68937933  0.75922911  0.77612647  1
  C  C156  1  0.91785532  0.56217135  0.08103650  1
  C  C157  1  0.91785398  0.91896036  0.48113345  1
  C  C158  1  0.91785519  0.51886421  0.43782737  1
  C  C159  1  0.08214468  0.43782865  0.91896350  1
  C  C160  1  0.08214602  0.08103964  0.51886655  1
  C  C161  1  0.08214481  0.48113579  0.56217263  1
  C  C162  1  0.94489340  0.59366249  0.77717074  1
  C  C163  1  0.94489492  0.22283218  0.81649050  1
  C  C164  1  0.94489596  0.18350856  0.40634123  1
  C  C165  1  0.05510660  0.40633751  0.22282926  1
  C  C166  1  0.05510508  0.77716782  0.18350950  1
  C  C167  1  0.05510404  0.81649144  0.59365877  1
  C  C168  1  0.78187670  0.69563819  0.11408849  1
  C  C169  1  0.78187644  0.88590905  0.58154907  1
  C  C170  1  0.78187636  0.41844856  0.30436214  1
  C  C171  1  0.21812330  0.30436181  0.88591151  1
  C  C172  1  0.21812356  0.11409095  0.41845093  1
  C  C173  1  0.21812364  0.58155144  0.69563786  1
  C  C174  1  0.85648827  0.56348092  0.89697802  1
  C  C175  1  0.85648920  0.10302354  0.66650133  1
  C  C176  1  0.85648769  0.33349930  0.43652137  1
  C  C177  1  0.14351173  0.43651908  0.10302198  1
  C  C178  1  0.14351080  0.89697646  0.33349867  1
  C  C179  1  0.14351231  0.66650070  0.56347863  1
