# generated using pymatgen
data_Cu8Ni12C35
_symmetry_space_group_name_H-M   'P 1'
_cell_length_a   10.10452028
_cell_length_b   10.10452028
_cell_length_c   20.01168160
_cell_angle_alpha   71.55893883
_cell_angle_beta   71.55893883
_cell_angle_gamma   62.29480628
_symmetry_Int_Tables_number   1
_chemical_formula_structural   Cu8Ni12C35
_chemical_formula_sum   'Cu16 Ni24 C70'
_cell_volume   1680.86700752
_cell_formula_units_Z   2
loop_
 _symmetry_equiv_pos_site_id
 _symmetry_equiv_pos_as_xyz
  1  'x, y, z'
loop_
 _atom_site_type_symbol
 _atom_site_label
 _atom_site_symmetry_multiplicity
 _atom_site_fract_x
 _atom_site_fract_y
 _atom_site_fract_z
 _atom_site_occupancy
  C  C0  1  0.53163300  0.46836700  0.25000000  1
  C  C1  1  0.46836700  0.53163300  0.75000000  1
  C  C2  1  0.93555000  0.15513300  0.85485100  1
  C  C3  1  0.84486700  0.06445000  0.64514900  1
  C  C4  1  0.06445000  0.84486700  0.14514900  1
  C  C5  1  0.15513300  0.93555000  0.35485100  1
  C  C6  1  0.77269900  0.33436500  0.85293000  1
  C  C7  1  0.66563500  0.22730100  0.64707000  1
  C  C8  1  0.22730100  0.66563500  0.14707000  1
  C  C9  1  0.33436500  0.77269900  0.35293000  1
  C  C10  1  0.77520100  0.19054600  0.81954700  1
  C  C11  1  0.80945400  0.22479900  0.68045300  1
  C  C12  1  0.22479900  0.80945400  0.18045300  1
  C  C13  1  0.19054600  0.77520100  0.31954700  1
  C  C14  1  0.50241400  0.21471300  0.96905800  1
  C  C15  1  0.78528700  0.49758600  0.53094200  1
  C  C16  1  0.49758600  0.78528700  0.03094200  1
  C  C17  1  0.21471300  0.50241400  0.46905800  1
  C  C18  1  0.55949600  0.36882000  0.92851100  1
  C  C19  1  0.63118000  0.44050400  0.57148900  1
  C  C20  1  0.44050400  0.63118000  0.07148900  1
  C  C21  1  0.36882000  0.55949600  0.42851100  1
  C  C22  1  0.59150500  0.26430400  0.01731900  1
  C  C23  1  0.73569600  0.40849500  0.48268100  1
  C  C24  1  0.40849500  0.73569600  0.98268100  1
  C  C25  1  0.26430400  0.59150500  0.51731900  1
  C  C26  1  0.34568800  0.17949900  0.09181000  1
  C  C27  1  0.82050100  0.65431200  0.40819000  1
  C  C28  1  0.65431200  0.82050100  0.90819000  1
  C  C29  1  0.17949900  0.34568800  0.59181000  1
  C  C30  1  0.34467200  0.06586200  0.18066100  1
  C  C31  1  0.93413800  0.65532800  0.31933900  1
  C  C32  1  0.65532800  0.93413800  0.81933900  1
  C  C33  1  0.06586200  0.34467200  0.68066100  1
  C  C34  1  0.40196300  0.22102100  0.15712400  1
  C  C35  1  0.77897900  0.59803700  0.34287600  1
  C  C36  1  0.59803700  0.77897900  0.84287600  1
  C  C37  1  0.22102100  0.40196300  0.65712400  1
  C  C38  1  0.96904900  0.31293300  0.25530400  1
  C  C39  1  0.68706700  0.03095100  0.24469600  1
  C  C40  1  0.03095100  0.68706700  0.74469600  1
  C  C41  1  0.31293300  0.96904900  0.75530400  1
  C  C42  1  0.14871700  0.21443800  0.28363100  1
  C  C43  1  0.78556200  0.85128300  0.21636900  1
  C  C44  1  0.85128300  0.78556200  0.71636900  1
  C  C45  1  0.21443800  0.14871700  0.78363100  1
  C  C46  1  0.08659700  0.12130400  0.24422800  1
  C  C47  1  0.87869600  0.91340300  0.25577200  1
  C  C48  1  0.91340300  0.87869600  0.75577200  1
  C  C49  1  0.12130400  0.08659700  0.74422800  1
  C  C50  1  0.94806100  0.70539500  0.04343700  1
  C  C51  1  0.29460500  0.05193900  0.45656300  1
  C  C52  1  0.05193900  0.29460500  0.95656300  1
  C  C53  1  0.70539500  0.94806100  0.54343700  1
  Ni  Ni54  1  0.80384500  0.00981500  0.96586800  1
  Ni  Ni55  1  0.99018500  0.19615500  0.53413200  1
  Ni  Ni56  1  0.19615500  0.99018500  0.03413200  1
  Ni  Ni57  1  0.00981500  0.80384500  0.46586800  1
  Ni  Ni58  1  0.81131800  0.21071500  0.86053200  1
  Ni  Ni59  1  0.78928500  0.18868200  0.63946800  1
  Ni  Ni60  1  0.18868200  0.78928500  0.13946800  1
  Ni  Ni61  1  0.21071500  0.81131800  0.36053200  1
  Ni  Ni62  1  0.58870600  0.25619800  0.96430300  1
  Ni  Ni63  1  0.74380200  0.41129400  0.53569700  1
  Ni  Ni64  1  0.41129400  0.74380200  0.03569700  1
  Ni  Ni65  1  0.25619800  0.58870600  0.46430300  1
  Ni  Ni66  1  0.09697600  0.41488800  0.13103000  1
  Ni  Ni67  1  0.58511200  0.90302400  0.36897000  1
  Ni  Ni68  1  0.90302400  0.58511200  0.86897000  1
  Ni  Ni69  1  0.41488800  0.09697600  0.63103000  1
  Ni  Ni70  1  0.32450100  0.18157200  0.14878300  1
  Ni  Ni71  1  0.81842800  0.67549900  0.35121700  1
  Ni  Ni72  1  0.67549900  0.81842800  0.85121700  1
  Ni  Ni73  1  0.18157200  0.32450100  0.64878300  1
  Ni  Ni74  1  0.08714900  0.23056200  0.24316900  1
  Ni  Ni75  1  0.76943800  0.91285100  0.25683100  1
  Ni  Ni76  1  0.91285100  0.76943800  0.75683100  1
  Ni  Ni77  1  0.23056200  0.08714900  0.74316900  1
  Cu  Cu78  1  0.98185200  0.87991400  0.93298900  1
  Cu  Cu79  1  0.12008600  0.01814800  0.56701100  1
  Cu  Cu80  1  0.01814800  0.12008600  0.06701100  1
  Cu  Cu81  1  0.87991400  0.98185200  0.43298900  1
  Cu  Cu82  1  0.71848100  0.93057700  0.04777100  1
  Cu  Cu83  1  0.06942300  0.28151900  0.45222900  1
  Cu  Cu84  1  0.28151900  0.06942300  0.95222900  1
  Cu  Cu85  1  0.93057700  0.71848100  0.54777100  1
  Cu  Cu86  1  0.18164500  0.48348600  0.04577300  1
  Cu  Cu87  1  0.51651400  0.81835500  0.45422700  1
  Cu  Cu88  1  0.81835500  0.51651400  0.95422700  1
  Cu  Cu89  1  0.48348600  0.18164500  0.54577300  1
  Cu  Cu90  1  0.90993400  0.53941400  0.15492100  1
  Cu  Cu91  1  0.46058600  0.09006600  0.34507900  1
  Cu  Cu92  1  0.09006600  0.46058600  0.84507900  1
  Cu  Cu93  1  0.53941400  0.90993400  0.65492100  1
  C  C94  1  0.73939700  0.15310800  0.93233100  1
  C  C95  1  0.84689200  0.26060300  0.56766900  1
  C  C96  1  0.26060300  0.84689200  0.06766900  1
  C  C97  1  0.15310800  0.73939700  0.43233100  1
  C  C98  1  0.16537900  0.28241600  0.17188200  1
  C  C99  1  0.71758400  0.83462100  0.32811800  1
  C  C100  1  0.83462100  0.71758400  0.82811800  1
  C  C101  1  0.28241600  0.16537900  0.67188200  1
  C  C102  1  0.52701700  0.71375000  0.21133500  1
  C  C103  1  0.28625000  0.47298300  0.28866500  1
  C  C104  1  0.47298300  0.28625000  0.78866500  1
  C  C105  1  0.71375000  0.52701700  0.71133500  1
  C  C106  1  0.63474100  0.34350500  0.15558900  1
  C  C107  1  0.65649500  0.36525900  0.34441100  1
  C  C108  1  0.36525900  0.65649500  0.84441100  1
  C  C109  1  0.34350500  0.63474100  0.65558900  1
