# generated using pymatgen
data_Cu4Ni17
_symmetry_space_group_name_H-M   'P 1'
_cell_length_a   7.08319000
_cell_length_b   14.45987200
_cell_length_c   19.48516900
_cell_angle_alpha   90.00000000
_cell_angle_beta   90.00000000
_cell_angle_gamma   90.00000000
_symmetry_Int_Tables_number   1
_chemical_formula_structural   Cu4Ni17
_chemical_formula_sum   'Cu16 Ni68'
_cell_volume   1995.71038367
_cell_formula_units_Z   4
loop_
 _symmetry_equiv_pos_site_id
 _symmetry_equiv_pos_as_xyz
  1  'x, y, z'
loop_
 _atom_site_type_symbol
 _atom_site_label
 _atom_site_symmetry_multiplicity
 _atom_site_fract_x
 _atom_site_fract_y
 _atom_site_fract_z
 _atom_site_occupancy
  Ni  Ni0  1  0.55907200  0.09866700  0.00342200  1
  Ni  Ni1  1  0.44092800  0.90133300  0.99657800  1
  Ni  Ni2  1  0.44092800  0.90133300  0.50342200  1
  Ni  Ni3  1  0.44092800  0.59866700  0.49657800  1
  Ni  Ni4  1  0.55907200  0.09866700  0.49657800  1
  Ni  Ni5  1  0.55907200  0.40133300  0.50342200  1
  Ni  Ni6  1  0.55907200  0.40133300  0.99657800  1
  Ni  Ni7  1  0.44092800  0.59866700  0.00342200  1
  Ni  Ni8  1  0.13653600  0.06067100  0.07313900  1
  Ni  Ni9  1  0.86346400  0.93932900  0.92686100  1
  Ni  Ni10  1  0.86346400  0.93932900  0.57313900  1
  Ni  Ni11  1  0.86346400  0.56067100  0.42686100  1
  Ni  Ni12  1  0.13653600  0.06067100  0.42686100  1
  Ni  Ni13  1  0.13653600  0.43932900  0.57313900  1
  Ni  Ni14  1  0.13653600  0.43932900  0.92686100  1
  Ni  Ni15  1  0.86346400  0.56067100  0.07313900  1
  Ni  Ni16  1  0.20893100  0.61320900  0.17201500  1
  Ni  Ni17  1  0.79106900  0.38679100  0.82798500  1
  Ni  Ni18  1  0.79106900  0.38679100  0.67201500  1
  Ni  Ni19  1  0.79106900  0.11320900  0.32798500  1
  Ni  Ni20  1  0.20893100  0.61320900  0.32798500  1
  Ni  Ni21  1  0.20893100  0.88679100  0.67201500  1
  Ni  Ni22  1  0.20893100  0.88679100  0.82798500  1
  Ni  Ni23  1  0.79106900  0.11320900  0.17201500  1
  Ni  Ni24  1  0.04845600  0.30723100  0.25000000  1
  Ni  Ni25  1  0.95154400  0.69276900  0.75000000  1
  Ni  Ni26  1  0.95154400  0.80723100  0.25000000  1
  Ni  Ni27  1  0.04845600  0.19276900  0.75000000  1
  Ni  Ni28  1  0.37245200  0.18635600  0.17136800  1
  Ni  Ni29  1  0.62754800  0.81364400  0.82863200  1
  Ni  Ni30  1  0.62754800  0.81364400  0.67136800  1
  Ni  Ni31  1  0.62754800  0.68635600  0.32863200  1
  Ni  Ni32  1  0.37245200  0.18635600  0.32863200  1
  Ni  Ni33  1  0.37245200  0.31364400  0.67136800  1
  Ni  Ni34  1  0.37245200  0.31364400  0.82863200  1
  Ni  Ni35  1  0.62754800  0.68635600  0.17136800  1
  Ni  Ni36  1  0.25837700  0.25000000  0.00000000  1
  Ni  Ni37  1  0.74162300  0.75000000  0.00000000  1
  Ni  Ni38  1  0.74162300  0.75000000  0.50000000  1
  Ni  Ni39  1  0.25837700  0.25000000  0.50000000  1
  Ni  Ni40  1  0.22481500  0.00682100  0.25000000  1
  Ni  Ni41  1  0.77518500  0.99317900  0.75000000  1
  Ni  Ni42  1  0.77518500  0.50682100  0.25000000  1
  Ni  Ni43  1  0.22481500  0.49317900  0.75000000  1
  Ni  Ni44  1  0.68300300  0.33412300  0.15015900  1
  Ni  Ni45  1  0.31699700  0.66587700  0.84984100  1
  Ni  Ni46  1  0.31699700  0.66587700  0.65015900  1
  Ni  Ni47  1  0.31699700  0.83412300  0.34984100  1
  Ni  Ni48  1  0.68300300  0.33412300  0.34984100  1
  Ni  Ni49  1  0.68300300  0.16587700  0.65015900  1
  Ni  Ni50  1  0.68300300  0.16587700  0.84984100  1
  Ni  Ni51  1  0.31699700  0.83412300  0.15015900  1
  Ni  Ni52  1  0.83114000  0.25000000  0.00000000  1
  Ni  Ni53  1  0.16886000  0.75000000  0.00000000  1
  Ni  Ni54  1  0.16886000  0.75000000  0.50000000  1
  Ni  Ni55  1  0.83114000  0.25000000  0.50000000  1
  Ni  Ni56  1  0.37104700  0.43683800  0.25000000  1
  Ni  Ni57  1  0.62895300  0.56316200  0.75000000  1
  Ni  Ni58  1  0.62895300  0.93683800  0.25000000  1
  Ni  Ni59  1  0.37104700  0.06316200  0.75000000  1
  Ni  Ni60  1  0.16839300  0.41744700  0.09014000  1
  Ni  Ni61  1  0.83160700  0.58255300  0.90986000  1
  Ni  Ni62  1  0.83160700  0.58255300  0.59014000  1
  Ni  Ni63  1  0.83160700  0.91744700  0.40986000  1
  Ni  Ni64  1  0.16839300  0.41744700  0.40986000  1
  Ni  Ni65  1  0.16839300  0.08255300  0.59014000  1
  Ni  Ni66  1  0.16839300  0.08255300  0.90986000  1
  Ni  Ni67  1  0.83160700  0.91744700  0.09014000  1
  Cu  Cu68  1  0.48734800  0.00321500  0.12447400  1
  Cu  Cu69  1  0.51265200  0.99678500  0.87552600  1
  Cu  Cu70  1  0.51265200  0.99678500  0.62447400  1
  Cu  Cu71  1  0.51265200  0.50321500  0.37552600  1
  Cu  Cu72  1  0.48734800  0.00321500  0.37552600  1
  Cu  Cu73  1  0.48734800  0.49678500  0.62447400  1
  Cu  Cu74  1  0.48734800  0.49678500  0.87552600  1
  Cu  Cu75  1  0.51265200  0.50321500  0.12447400  1
  Cu  Cu76  1  0.02789000  0.24404300  0.11940100  1
  Cu  Cu77  1  0.97211000  0.75595700  0.88059900  1
  Cu  Cu78  1  0.97211000  0.75595700  0.61940100  1
  Cu  Cu79  1  0.97211000  0.74404300  0.38059900  1
  Cu  Cu80  1  0.02789000  0.24404300  0.38059900  1
  Cu  Cu81  1  0.02789000  0.25595700  0.61940100  1
  Cu  Cu82  1  0.02789000  0.25595700  0.88059900  1
  Cu  Cu83  1  0.97211000  0.74404300  0.11940100  1
