# generated using pymatgen
data_CuNiC8
_symmetry_space_group_name_H-M   'P 1'
_cell_length_a   5.66366304
_cell_length_b   7.93533000
_cell_length_c   5.58603504
_cell_angle_alpha   90.00413383
_cell_angle_beta   89.98652183
_cell_angle_gamma   90.00016494
_symmetry_Int_Tables_number   1
_chemical_formula_structural   CuNiC8
_chemical_formula_sum   'Cu2 Ni2 C16'
_cell_volume   251.05336224
_cell_formula_units_Z   2
loop_
 _symmetry_equiv_pos_site_id
 _symmetry_equiv_pos_as_xyz
  1  'x, y, z'
loop_
 _atom_site_type_symbol
 _atom_site_label
 _atom_site_symmetry_multiplicity
 _atom_site_fract_x
 _atom_site_fract_y
 _atom_site_fract_z
 _atom_site_occupancy
  C  C0  1  0.54137100  0.25017200  0.51040500  1
  C  C1  1  0.04135100  0.24985900  0.98958500  1
  C  C2  1  0.45863100  0.74985300  0.48962000  1
  C  C3  1  0.95861700  0.75014800  0.01039300  1
  Ni  Ni4  1  0.00000200  0.00000100  0.49999600  1
  Ni  Ni5  1  0.50000100  0.49999600  0.00000100  1
  Cu  Cu6  1  0.00000500  0.49999600  0.50000200  1
  Cu  Cu7  1  0.50000300  0.99999900  0.99999700  1
  C  C8  1  0.98070800  0.25041900  0.41399900  1
  C  C9  1  0.48071300  0.24960900  0.08591700  1
  C  C10  1  0.01929800  0.74957800  0.58600100  1
  C  C11  1  0.51928300  0.75038500  0.91408800  1
  C  C12  1  0.78648700  0.04595800  0.78945400  1
  C  C13  1  0.28650200  0.45399700  0.71038800  1
  C  C14  1  0.21351600  0.95403700  0.21054500  1
  C  C15  1  0.71349900  0.54599900  0.28961500  1
  C  C16  1  0.21424700  0.54496100  0.21065500  1
  C  C17  1  0.71426200  0.95502500  0.28923800  1
  C  C18  1  0.78575300  0.45503000  0.78934100  1
  C  C19  1  0.28575200  0.04497900  0.71076000  1
