# generated using pymatgen
data_Cu16NiC2
_symmetry_space_group_name_H-M   'P 1'
_cell_length_a   6.42828802
_cell_length_b   6.42828802
_cell_length_c   6.42828771
_cell_angle_alpha   82.77692623
_cell_angle_beta   82.77692623
_cell_angle_gamma   82.77692326
_symmetry_Int_Tables_number   1
_chemical_formula_structural   Cu16NiC2
_chemical_formula_sum   'Cu16 Ni1 C2'
_cell_volume   259.80027499
_cell_formula_units_Z   1
loop_
 _symmetry_equiv_pos_site_id
 _symmetry_equiv_pos_as_xyz
  1  'x, y, z'
loop_
 _atom_site_type_symbol
 _atom_site_label
 _atom_site_symmetry_multiplicity
 _atom_site_fract_x
 _atom_site_fract_y
 _atom_site_fract_z
 _atom_site_occupancy
  C  C0  1  0.65884800  0.65884800  0.65884800  1
  C  C1  1  0.34504500  0.34504500  0.34504500  1
  Ni  Ni2  1  0.09090400  0.09090400  0.09090400  1
  Cu  Cu3  1  0.34011600  0.34011600  0.84389500  1
  Cu  Cu4  1  0.84389500  0.34011600  0.34011600  1
  Cu  Cu5  1  0.34011600  0.84389500  0.34011600  1
  Cu  Cu6  1  0.66029900  0.66029900  0.15572300  1
  Cu  Cu7  1  0.15572300  0.66029900  0.66029900  1
  Cu  Cu8  1  0.66029900  0.15572300  0.66029900  1
  Cu  Cu9  1  0.00107200  0.00107200  0.49956800  1
  Cu  Cu10  1  0.49956800  0.00107200  0.00107200  1
  Cu  Cu11  1  0.00107200  0.49956800  0.00107200  1
  Cu  Cu12  1  0.70434300  0.29467100  0.99941200  1
  Cu  Cu13  1  0.99941200  0.70434300  0.29467100  1
  Cu  Cu14  1  0.29467100  0.99941200  0.70434300  1
  Cu  Cu15  1  0.99941200  0.29467100  0.70434300  1
  Cu  Cu16  1  0.70434300  0.99941200  0.29467100  1
  Cu  Cu17  1  0.29467100  0.70434300  0.99941200  1
  Cu  Cu18  1  0.90619000  0.90619000  0.90619000  1
