# generated using pymatgen
data_CuNiC5
_symmetry_space_group_name_H-M   'P 1'
_cell_length_a   5.29721992
_cell_length_b   5.29721992
_cell_length_c   11.44804100
_cell_angle_alpha   90.00000000
_cell_angle_beta   90.00000000
_cell_angle_gamma   119.99999903
_symmetry_Int_Tables_number   1
_chemical_formula_structural   CuNiC5
_chemical_formula_sum   'Cu3 Ni3 C15'
_cell_volume   278.20044449
_cell_formula_units_Z   3
loop_
 _symmetry_equiv_pos_site_id
 _symmetry_equiv_pos_as_xyz
  1  'x, y, z'
loop_
 _atom_site_type_symbol
 _atom_site_label
 _atom_site_symmetry_multiplicity
 _atom_site_fract_x
 _atom_site_fract_y
 _atom_site_fract_z
 _atom_site_occupancy
  C  C0  1  0.00000000  0.00000000  0.83333300  1
  C  C1  1  0.00000000  0.00000000  0.50000000  1
  C  C2  1  0.00000000  0.00000000  0.16666700  1
  Ni  Ni3  1  0.50000000  0.50000000  0.33333300  1
  Ni  Ni4  1  0.50000000  0.00000000  0.00000000  1
  Ni  Ni5  1  0.00000000  0.50000000  0.66666700  1
  Cu  Cu6  1  0.50000000  0.50000000  0.83333300  1
  Cu  Cu7  1  0.50000000  0.00000000  0.50000000  1
  Cu  Cu8  1  0.00000000  0.50000000  0.16666700  1
  C  C9  1  0.20569500  0.80574500  0.57778200  1
  C  C10  1  0.19425500  0.39995100  0.24444900  1
  C  C11  1  0.60004900  0.79430500  0.91111600  1
  C  C12  1  0.79430500  0.19425500  0.57778200  1
  C  C13  1  0.80574500  0.60004900  0.24444900  1
  C  C14  1  0.39995100  0.20569500  0.91111600  1
  C  C15  1  0.80574500  0.20569500  0.08888400  1
  C  C16  1  0.39995100  0.19425500  0.42221800  1
  C  C17  1  0.79430500  0.60004900  0.75555100  1
  C  C18  1  0.19425500  0.79430500  0.08888400  1
  C  C19  1  0.60004900  0.80574500  0.42221800  1
  C  C20  1  0.20569500  0.39995100  0.75555100  1
