# generated using pymatgen
data_Cu16Ni4C
_symmetry_space_group_name_H-M   'P 1'
_cell_length_a   7.99845577
_cell_length_b   7.99845577
_cell_length_c   13.90529095
_cell_angle_alpha   73.23663854
_cell_angle_beta   73.23663854
_cell_angle_gamma   62.42063415
_symmetry_Int_Tables_number   1
_chemical_formula_structural   Cu16Ni4C
_chemical_formula_sum   'Cu32 Ni8 C2'
_cell_volume   742.32271645
_cell_formula_units_Z   2
loop_
 _symmetry_equiv_pos_site_id
 _symmetry_equiv_pos_as_xyz
  1  'x, y, z'
loop_
 _atom_site_type_symbol
 _atom_site_label
 _atom_site_symmetry_multiplicity
 _atom_site_fract_x
 _atom_site_fract_y
 _atom_site_fract_z
 _atom_site_occupancy
  C  C0  1  0.46656200  0.41681400  0.17298700  1
  C  C1  1  0.41681400  0.46656200  0.67298700  1
  Ni  Ni2  1  0.64969600  0.11132900  0.33383600  1
  Ni  Ni3  1  0.11132900  0.64969600  0.83383600  1
  Ni  Ni4  1  0.76109300  0.24117100  0.01121600  1
  Ni  Ni5  1  0.24117100  0.76109300  0.51121600  1
  Ni  Ni6  1  0.42826900  0.80605200  0.08135300  1
  Ni  Ni7  1  0.80605200  0.42826900  0.58135300  1
  Ni  Ni8  1  0.07079300  0.47086100  0.24325700  1
  Ni  Ni9  1  0.47086100  0.07079300  0.74325700  1
  Cu  Cu10  1  0.55462500  0.11106400  0.25226600  1
  Cu  Cu11  1  0.11106400  0.55462500  0.75226600  1
  Cu  Cu12  1  0.19614000  0.52598700  0.28331400  1
  Cu  Cu13  1  0.52598700  0.19614000  0.78331400  1
  Cu  Cu14  1  0.88242000  0.04398500  0.03631000  1
  Cu  Cu15  1  0.04398500  0.88242000  0.53631000  1
  Cu  Cu16  1  0.54649500  0.07350200  0.43318100  1
  Cu  Cu17  1  0.07350200  0.54649500  0.93318100  1
  Cu  Cu18  1  0.84767400  0.98637600  0.31827100  1
  Cu  Cu19  1  0.98637600  0.84767400  0.81827100  1
  Cu  Cu20  1  0.36958600  0.67513200  0.04948200  1
  Cu  Cu21  1  0.67513200  0.36958600  0.54948200  1
  Cu  Cu22  1  0.32904300  0.80119600  0.40838000  1
  Cu  Cu23  1  0.80119600  0.32904300  0.90838000  1
  Cu  Cu24  1  0.22014000  0.37395200  0.15645300  1
  Cu  Cu25  1  0.37395200  0.22014000  0.65645300  1
  Cu  Cu26  1  0.61960300  0.32222500  0.30561900  1
  Cu  Cu27  1  0.32222500  0.61960300  0.80561900  1
  Cu  Cu28  1  0.49317000  0.67848700  0.18156200  1
  Cu  Cu29  1  0.67848700  0.49317000  0.68156200  1
  Cu  Cu30  1  0.01251500  0.33656300  0.31913700  1
  Cu  Cu31  1  0.33656300  0.01251500  0.81913700  1
  Cu  Cu32  1  0.35252900  0.76131500  0.58475500  1
  Cu  Cu33  1  0.76131500  0.35252900  0.08475500  1
  Cu  Cu34  1  0.63821300  0.91984600  0.70398000  1
  Cu  Cu35  1  0.91984600  0.63821300  0.20398000  1
  Cu  Cu36  1  0.58595600  0.83050300  0.00911100  1
  Cu  Cu37  1  0.83050300  0.58595600  0.50911100  1
  Cu  Cu38  1  0.26783900  0.97926500  0.10048800  1
  Cu  Cu39  1  0.97926500  0.26783900  0.60048800  1
  Cu  Cu40  1  0.55005800  0.27235700  0.04104100  1
  Cu  Cu41  1  0.27235700  0.55005800  0.54104100  1
