# generated using pymatgen
data_Cu2NiC9
_symmetry_space_group_name_H-M   'P 1'
_cell_length_a   6.07513800
_cell_length_b   5.07384300
_cell_length_c   11.03530589
_cell_angle_alpha   65.78107786
_cell_angle_beta   90.00000000
_cell_angle_gamma   90.00000000
_symmetry_Int_Tables_number   1
_chemical_formula_structural   Cu2NiC9
_chemical_formula_sum   'Cu4 Ni2 C18'
_cell_volume   310.21664385
_cell_formula_units_Z   2
loop_
 _symmetry_equiv_pos_site_id
 _symmetry_equiv_pos_as_xyz
  1  'x, y, z'
loop_
 _atom_site_type_symbol
 _atom_site_label
 _atom_site_symmetry_multiplicity
 _atom_site_fract_x
 _atom_site_fract_y
 _atom_site_fract_z
 _atom_site_occupancy
  C  C0  1  0.66518200  0.50000000  0.75000000  1
  C  C1  1  0.33481800  0.50000000  0.25000000  1
  Ni  Ni2  1  0.27044800  0.00000000  0.75000000  1
  Ni  Ni3  1  0.72955200  0.00000000  0.25000000  1
  Cu  Cu4  1  0.16677000  0.73705000  0.51331500  1
  Cu  Cu5  1  0.16677000  0.26295000  0.98668500  1
  Cu  Cu6  1  0.83323000  0.26295000  0.48668500  1
  Cu  Cu7  1  0.83323000  0.73705000  0.01331500  1
  C  C8  1  0.35578100  0.22994100  0.86228400  1
  C  C9  1  0.35578100  0.77005900  0.63771600  1
  C  C10  1  0.64421900  0.77005900  0.13771600  1
  C  C11  1  0.64421900  0.22994100  0.36228400  1
  C  C12  1  0.91275800  0.65964200  0.38974400  1
  C  C13  1  0.91275800  0.34035800  0.11025600  1
  C  C14  1  0.08724200  0.34035800  0.61025600  1
  C  C15  1  0.08724200  0.65964200  0.88974400  1
  C  C16  1  0.64022900  0.71383900  0.89104400  1
  C  C17  1  0.64022900  0.28616100  0.60895600  1
  C  C18  1  0.35977100  0.28616100  0.10895600  1
  C  C19  1  0.35977100  0.71383900  0.39104400  1
  C  C20  1  0.88611400  0.15861500  0.90407200  1
  C  C21  1  0.11388600  0.84138500  0.09592800  1
  C  C22  1  0.88611400  0.84138500  0.59592800  1
  C  C23  1  0.11388600  0.15861500  0.40407200  1
