# generated using pymatgen
data_Cu7Ni8C11
_symmetry_space_group_name_H-M   'P 1'
_cell_length_a   19.81968474
_cell_length_b   19.81968474
_cell_length_c   19.81968483
_cell_angle_alpha   30.12189223
_cell_angle_beta   30.12189223
_cell_angle_gamma   30.12189217
_symmetry_Int_Tables_number   1
_chemical_formula_structural   Cu7Ni8C11
_chemical_formula_sum   'Cu14 Ni16 C22'
_cell_volume   1737.11443441
_cell_formula_units_Z   2
loop_
 _symmetry_equiv_pos_site_id
 _symmetry_equiv_pos_as_xyz
  1  'x, y, z'
loop_
 _atom_site_type_symbol
 _atom_site_label
 _atom_site_symmetry_multiplicity
 _atom_site_fract_x
 _atom_site_fract_y
 _atom_site_fract_z
 _atom_site_occupancy
  C  C0  1  0.25000000  0.91834900  0.58165100  1
  C  C1  1  0.58165100  0.25000000  0.91834900  1
  C  C2  1  0.91834900  0.58165100  0.25000000  1
  C  C3  1  0.08165100  0.41834900  0.75000000  1
  C  C4  1  0.75000000  0.08165100  0.41834900  1
  C  C5  1  0.41834900  0.75000000  0.08165100  1
  C  C6  1  0.67034800  0.67034800  0.67034800  1
  C  C7  1  0.17034800  0.17034800  0.17034800  1
  C  C8  1  0.32965200  0.32965200  0.32965200  1
  C  C9  1  0.82965200  0.82965200  0.82965200  1
  C  C10  1  0.13533100  0.84434900  0.96408700  1
  C  C11  1  0.96408700  0.13533100  0.84434900  1
  C  C12  1  0.84434900  0.96408700  0.13533100  1
  C  C13  1  0.46408700  0.34434900  0.63533100  1
  C  C14  1  0.63533100  0.46408700  0.34434900  1
  C  C15  1  0.34434900  0.63533100  0.46408700  1
  C  C16  1  0.86466900  0.15565100  0.03591300  1
  C  C17  1  0.03591300  0.86466900  0.15565100  1
  C  C18  1  0.15565100  0.03591300  0.86466900  1
  C  C19  1  0.53591300  0.65565100  0.36466900  1
  C  C20  1  0.36466900  0.53591300  0.65565100  1
  C  C21  1  0.65565100  0.36466900  0.53591300  1
  Ni  Ni22  1  0.29942800  0.76561600  0.98684100  1
  Ni  Ni23  1  0.98684100  0.29942800  0.76561600  1
  Ni  Ni24  1  0.76561600  0.98684100  0.29942800  1
  Ni  Ni25  1  0.48684100  0.26561600  0.79942800  1
  Ni  Ni26  1  0.79942800  0.48684100  0.26561600  1
  Ni  Ni27  1  0.26561600  0.79942800  0.48684100  1
  Ni  Ni28  1  0.70057200  0.23438400  0.01315900  1
  Ni  Ni29  1  0.01315900  0.70057200  0.23438400  1
  Ni  Ni30  1  0.23438400  0.01315900  0.70057200  1
  Ni  Ni31  1  0.51315900  0.73438400  0.20057200  1
  Ni  Ni32  1  0.20057200  0.51315900  0.73438400  1
  Ni  Ni33  1  0.73438400  0.20057200  0.51315900  1
  Ni  Ni34  1  0.94813300  0.94813300  0.94813300  1
  Ni  Ni35  1  0.44813300  0.44813300  0.44813300  1
  Ni  Ni36  1  0.05186700  0.05186700  0.05186700  1
  Ni  Ni37  1  0.55186700  0.55186700  0.55186700  1
  Cu  Cu38  1  0.33250100  0.62559300  0.90912400  1
  Cu  Cu39  1  0.90912400  0.33250100  0.62559300  1
  Cu  Cu40  1  0.62559300  0.90912400  0.33250100  1
  Cu  Cu41  1  0.40912400  0.12559300  0.83250100  1
  Cu  Cu42  1  0.83250100  0.40912400  0.12559300  1
  Cu  Cu43  1  0.12559300  0.83250100  0.40912400  1
  Cu  Cu44  1  0.66749900  0.37440700  0.09087600  1
  Cu  Cu45  1  0.09087600  0.66749900  0.37440700  1
  Cu  Cu46  1  0.37440700  0.09087600  0.66749900  1
  Cu  Cu47  1  0.59087600  0.87440700  0.16749900  1
  Cu  Cu48  1  0.16749900  0.59087600  0.87440700  1
  Cu  Cu49  1  0.87440700  0.16749900  0.59087600  1
  Cu  Cu50  1  0.25000000  0.25000000  0.25000000  1
  Cu  Cu51  1  0.75000000  0.75000000  0.75000000  1
