# generated using pymatgen
data_Cu16(NiC10)3
_symmetry_space_group_name_H-M   'P 1'
_cell_length_a   11.56662301
_cell_length_b   11.56662301
_cell_length_c   13.52600380
_cell_angle_alpha   88.45252117
_cell_angle_beta   88.45252117
_cell_angle_gamma   39.31871207
_symmetry_Int_Tables_number   1
_chemical_formula_structural   Cu16(NiC10)3
_chemical_formula_sum   'Cu32 Ni6 C60'
_cell_volume   1146.15193985
_cell_formula_units_Z   2
loop_
 _symmetry_equiv_pos_site_id
 _symmetry_equiv_pos_as_xyz
  1  'x, y, z'
loop_
 _atom_site_type_symbol
 _atom_site_label
 _atom_site_symmetry_multiplicity
 _atom_site_fract_x
 _atom_site_fract_y
 _atom_site_fract_z
 _atom_site_occupancy
  C  C0  1  0.22185600  0.27740000  0.90682400  1
  C  C1  1  0.72260000  0.77814400  0.59317600  1
  C  C2  1  0.77814400  0.72260000  0.09317600  1
  C  C3  1  0.27740000  0.22185600  0.40682400  1
  Ni  Ni4  1  0.74164500  0.25835500  0.25000000  1
  Ni  Ni5  1  0.25835500  0.74164500  0.75000000  1
  Ni  Ni6  1  0.24293300  0.75887600  0.10183100  1
  Ni  Ni7  1  0.24112400  0.75706700  0.39816900  1
  Ni  Ni8  1  0.75706700  0.24112400  0.89816900  1
  Ni  Ni9  1  0.75887600  0.24293300  0.60183100  1
  Cu  Cu10  1  0.99445500  0.15925700  0.41233300  1
  Cu  Cu11  1  0.84074300  0.00554500  0.08766700  1
  Cu  Cu12  1  0.00554500  0.84074300  0.58766700  1
  Cu  Cu13  1  0.15925700  0.99445500  0.91233300  1
  Cu  Cu14  1  0.17128700  0.02105800  0.24094900  1
  Cu  Cu15  1  0.97894200  0.82871300  0.25905100  1
  Cu  Cu16  1  0.82871300  0.97894200  0.75905100  1
  Cu  Cu17  1  0.02105800  0.17128700  0.74094900  1
  Cu  Cu18  1  0.48715900  0.32824600  0.08743700  1
  Cu  Cu19  1  0.67175400  0.51284100  0.41256300  1
  Cu  Cu20  1  0.51284100  0.67175400  0.91256300  1
  Cu  Cu21  1  0.32824600  0.48715900  0.58743700  1
  Cu  Cu22  1  0.51504000  0.67613300  0.24710200  1
  Cu  Cu23  1  0.32386700  0.48496000  0.25289800  1
  Cu  Cu24  1  0.48496000  0.32386700  0.75289800  1
  Cu  Cu25  1  0.67613300  0.51504000  0.74710200  1
  Cu  Cu26  1  0.99615200  0.17764200  0.07886900  1
  Cu  Cu27  1  0.82235800  0.00384800  0.42113100  1
  Cu  Cu28  1  0.00384800  0.82235800  0.92113100  1
  Cu  Cu29  1  0.17764200  0.99615200  0.57886900  1
  Cu  Cu30  1  0.65057600  0.48794500  0.07680900  1
  Cu  Cu31  1  0.51205500  0.34942400  0.42319100  1
  Cu  Cu32  1  0.34942400  0.51205500  0.92319100  1
  Cu  Cu33  1  0.48794500  0.65057600  0.57680900  1
  Cu  Cu34  1  0.28470100  0.33571100  0.16017700  1
  Cu  Cu35  1  0.66428900  0.71529900  0.33982300  1
  Cu  Cu36  1  0.71529900  0.66428900  0.83982300  1
  Cu  Cu37  1  0.33571100  0.28470100  0.66017700  1
  Cu  Cu38  1  0.23246000  0.14323200  0.65241800  1
  Cu  Cu39  1  0.85676800  0.76754000  0.84758200  1
  Cu  Cu40  1  0.76754000  0.85676800  0.34758200  1
  Cu  Cu41  1  0.14323200  0.23246000  0.15241800  1
  C  C42  1  0.12392400  0.01450800  0.01261400  1
  C  C43  1  0.98549200  0.87607600  0.48738600  1
  C  C44  1  0.87607600  0.98549200  0.98738600  1
  C  C45  1  0.01450800  0.12392400  0.51261400  1
  C  C46  1  0.83123700  0.32296700  0.37429000  1
  C  C47  1  0.67703300  0.16876300  0.12571000  1
  C  C48  1  0.16876300  0.67703300  0.62571000  1
  C  C49  1  0.32296700  0.83123700  0.87429000  1
  C  C50  1  0.01392100  0.11031300  0.17844900  1
  C  C51  1  0.88968700  0.98607900  0.32155100  1
  C  C52  1  0.98607900  0.88968700  0.82155100  1
  C  C53  1  0.11031300  0.01392100  0.67844900  1
  C  C54  1  0.19361600  0.68636900  0.95914900  1
  C  C55  1  0.31363100  0.80638400  0.54085100  1
  C  C56  1  0.80638400  0.31363100  0.04085100  1
  C  C57  1  0.68636900  0.19361600  0.45914900  1
  C  C58  1  0.63287600  0.51460600  0.17723800  1
  C  C59  1  0.48539400  0.36712400  0.32276200  1
  C  C60  1  0.36712400  0.48539400  0.82276200  1
  C  C61  1  0.51460600  0.63287600  0.67723800  1
  C  C62  1  0.32741100  0.82664400  0.21142200  1
  C  C63  1  0.17335600  0.67258900  0.28857800  1
  C  C64  1  0.67258900  0.17335600  0.78857800  1
  C  C65  1  0.82664400  0.32741100  0.71142200  1
  C  C66  1  0.39047800  0.47901500  0.15552000  1
  C  C67  1  0.52098500  0.60952200  0.34448000  1
  C  C68  1  0.60952200  0.52098500  0.84448000  1
  C  C69  1  0.47901500  0.39047800  0.65552000  1
  C  C70  1  0.39805200  0.28226500  0.08361300  1
  C  C71  1  0.71773500  0.60194800  0.41638700  1
  C  C72  1  0.60194800  0.71773500  0.91638700  1
  C  C73  1  0.28226500  0.39805200  0.58361300  1
  C  C74  1  0.97789100  0.86492300  0.15108000  1
  C  C75  1  0.13507700  0.02210900  0.34892000  1
  C  C76  1  0.02210900  0.13507700  0.84892000  1
  C  C77  1  0.86492300  0.97789100  0.65108000  1
  C  C78  1  0.11915900  0.20764900  0.73095300  1
  C  C79  1  0.79235100  0.88084100  0.76904700  1
  C  C80  1  0.88084100  0.79235100  0.26904700  1
  C  C81  1  0.20764900  0.11915900  0.23095300  1
  C  C82  1  0.40389600  0.26981600  0.74701700  1
  C  C83  1  0.73018400  0.59610400  0.75298300  1
  C  C84  1  0.59610400  0.73018400  0.25298300  1
  C  C85  1  0.26981600  0.40389600  0.24701700  1
  C  C86  1  0.04460200  0.26361700  0.07658700  1
  C  C87  1  0.73638300  0.95539800  0.42341300  1
  C  C88  1  0.95539800  0.73638300  0.92341300  1
  C  C89  1  0.26361700  0.04460200  0.57658700  1
  C  C90  1  0.50829800  0.62586300  0.01492800  1
  C  C91  1  0.37413700  0.49170200  0.48507200  1
  C  C92  1  0.49170200  0.37413700  0.98507200  1
  C  C93  1  0.62586300  0.50829800  0.51492800  1
  C  C94  1  0.17101800  0.32951000  0.14364500  1
  C  C95  1  0.67049000  0.82898200  0.35635500  1
  C  C96  1  0.82898200  0.67049000  0.85635500  1
  C  C97  1  0.32951000  0.17101800  0.64364500  1
