# generated using pymatgen
data_Cu(NiC)4
_symmetry_space_group_name_H-M   'P 1'
_cell_length_a   9.63866654
_cell_length_b   9.63866654
_cell_length_c   9.63866654
_cell_angle_alpha   103.35879459
_cell_angle_beta   103.35879459
_cell_angle_gamma   122.54103441
_symmetry_Int_Tables_number   1
_chemical_formula_structural   Cu(NiC)4
_chemical_formula_sum   'Cu4 Ni16 C16'
_cell_volume   661.95930983
_cell_formula_units_Z   4
loop_
 _symmetry_equiv_pos_site_id
 _symmetry_equiv_pos_as_xyz
  1  'x, y, z'
loop_
 _atom_site_type_symbol
 _atom_site_label
 _atom_site_symmetry_multiplicity
 _atom_site_fract_x
 _atom_site_fract_y
 _atom_site_fract_z
 _atom_site_occupancy
  C  C0  1  0.28034800  0.17047300  0.18657300  1
  C  C1  1  0.98390000  0.09377500  0.81342700  1
  C  C2  1  0.82952700  0.01610000  0.10987500  1
  C  C3  1  0.90622500  0.71965200  0.89012500  1
  C  C4  1  0.36412100  0.31220000  0.40192000  1
  C  C5  1  0.91028000  0.96220200  0.59808000  1
  C  C6  1  0.68780000  0.08972000  0.05192100  1
  C  C7  1  0.03779800  0.63587900  0.94807900  1
  C  C8  1  0.41113900  0.08907800  0.25593200  1
  C  C9  1  0.83314500  0.15520600  0.74406800  1
  C  C10  1  0.91092200  0.16685500  0.32206100  1
  C  C11  1  0.84479400  0.58886100  0.67793900  1
  C  C12  1  0.49968700  0.36798500  0.19650500  1
  C  C13  1  0.17148000  0.30318200  0.80349500  1
  C  C14  1  0.63201500  0.82852000  0.13170200  1
  C  C15  1  0.69681800  0.50031300  0.86829800  1
  Ni  Ni16  1  0.41501800  0.40151600  0.53502800  1
  Ni  Ni17  1  0.86648800  0.87999000  0.46497200  1
  Ni  Ni18  1  0.59848400  0.13351200  0.01350200  1
  Ni  Ni19  1  0.12001000  0.58498200  0.98649800  1
  Ni  Ni20  1  0.48994800  0.03649600  0.29818200  1
  Ni  Ni21  1  0.73831400  0.19176600  0.70181800  1
  Ni  Ni22  1  0.96350400  0.26168600  0.45345200  1
  Ni  Ni23  1  0.80823400  0.51005200  0.54654800  1
  Ni  Ni24  1  0.63523700  0.48681700  0.20130800  1
  Ni  Ni25  1  0.28550900  0.43392900  0.79869200  1
  Ni  Ni26  1  0.51318300  0.71449100  0.14842000  1
  Ni  Ni27  1  0.56607100  0.36476300  0.85158000  1
  Ni  Ni28  1  0.18432500  0.77526300  0.42084300  1
  Ni  Ni29  1  0.35442000  0.76348200  0.57915700  1
  Ni  Ni30  1  0.22473700  0.64558000  0.40906200  1
  Ni  Ni31  1  0.23651800  0.81567500  0.59093800  1
  Cu  Cu32  1  0.00093100  0.92509000  0.13244300  1
  Cu  Cu33  1  0.79264600  0.86848800  0.86755700  1
  Cu  Cu34  1  0.07491000  0.20735400  0.07584200  1
  Cu  Cu35  1  0.13151200  0.99906900  0.92415800  1
