# generated using pymatgen
data_Cu(NiC4)2
_symmetry_space_group_name_H-M   'P 1'
_cell_length_a   7.36975784
_cell_length_b   7.36975784
_cell_length_c   7.36975784
_cell_angle_alpha   120.74959935
_cell_angle_beta   119.26411842
_cell_angle_gamma   89.99293557
_symmetry_Int_Tables_number   1
_chemical_formula_structural   Cu(NiC4)2
_chemical_formula_sum   'Cu2 Ni4 C16'
_cell_volume   282.94913557
_cell_formula_units_Z   2
loop_
 _symmetry_equiv_pos_site_id
 _symmetry_equiv_pos_as_xyz
  1  'x, y, z'
loop_
 _atom_site_type_symbol
 _atom_site_label
 _atom_site_symmetry_multiplicity
 _atom_site_fract_x
 _atom_site_fract_y
 _atom_site_fract_z
 _atom_site_occupancy
  Ni  Ni0  1  0.50000000  0.50000000  0.50000000  1
  Ni  Ni1  1  0.50000000  0.00000000  0.00000000  1
  Ni  Ni2  1  0.50000000  0.50000000  0.00000000  1
  Ni  Ni3  1  0.00000000  0.50000000  0.50000000  1
  Cu  Cu4  1  0.00000000  0.00000000  0.50000000  1
  Cu  Cu5  1  0.00000000  0.50000000  0.00000000  1
  C  C6  1  0.00000000  0.00000000  0.00000000  1
  C  C7  1  0.50000000  0.00000000  0.50000000  1
  C  C8  1  0.37882900  0.62882900  0.75000000  1
  C  C9  1  0.62117100  0.37117100  0.25000000  1
  C  C10  1  0.32413300  0.07413300  0.25000000  1
  C  C11  1  0.89996700  0.64996700  0.25000000  1
  C  C12  1  0.34455500  0.67024800  0.26578800  1
  C  C13  1  0.90446000  0.07876700  0.23421200  1
  C  C14  1  0.34455500  0.07876700  0.67430700  1
  C  C15  1  0.90446000  0.67024800  0.82569300  1
  C  C16  1  0.67586700  0.92586700  0.75000000  1
  C  C17  1  0.10003300  0.35003300  0.75000000  1
  C  C18  1  0.65544500  0.32975200  0.73421200  1
  C  C19  1  0.09554000  0.92123300  0.76578800  1
  C  C20  1  0.65544500  0.92123300  0.32569300  1
  C  C21  1  0.09554000  0.32975200  0.17430700  1
