# generated using pymatgen
data_Cu3NiC14
_symmetry_space_group_name_H-M   'P 1'
_cell_length_a   8.56747552
_cell_length_b   8.56747552
_cell_length_c   8.56747521
_cell_angle_alpha   60.84559834
_cell_angle_beta   60.84559834
_cell_angle_gamma   60.84559833
_symmetry_Int_Tables_number   1
_chemical_formula_structural   Cu3NiC14
_chemical_formula_sum   'Cu6 Ni2 C28'
_cell_volume   453.15445821
_cell_formula_units_Z   2
loop_
 _symmetry_equiv_pos_site_id
 _symmetry_equiv_pos_as_xyz
  1  'x, y, z'
loop_
 _atom_site_type_symbol
 _atom_site_label
 _atom_site_symmetry_multiplicity
 _atom_site_fract_x
 _atom_site_fract_y
 _atom_site_fract_z
 _atom_site_occupancy
  C  C0  1  0.35488000  0.35488000  0.35488000  1
  C  C1  1  0.85488000  0.85488000  0.85488000  1
  C  C2  1  0.14512000  0.14512000  0.14512000  1
  C  C3  1  0.64512000  0.64512000  0.64512000  1
  Ni  Ni4  1  0.00000000  0.00000000  0.00000000  1
  Ni  Ni5  1  0.50000000  0.50000000  0.50000000  1
  Cu  Cu6  1  0.45450600  0.04549400  0.75000000  1
  Cu  Cu7  1  0.75000000  0.45450600  0.04549400  1
  Cu  Cu8  1  0.04549400  0.75000000  0.45450600  1
  Cu  Cu9  1  0.95450600  0.25000000  0.54549400  1
  Cu  Cu10  1  0.25000000  0.54549400  0.95450600  1
  Cu  Cu11  1  0.54549400  0.95450600  0.25000000  1
  C  C12  1  0.50150600  0.11488800  0.31442600  1
  C  C13  1  0.11488800  0.31442600  0.50150600  1
  C  C14  1  0.26025500  0.05851200  0.91219100  1
  C  C15  1  0.31442600  0.50150600  0.11488800  1
  C  C16  1  0.61488800  0.00150600  0.81442600  1
  C  C17  1  0.44148800  0.23974500  0.58780900  1
  C  C18  1  0.91219100  0.26025500  0.05851200  1
  C  C19  1  0.58780900  0.44148800  0.23974500  1
  C  C20  1  0.99849400  0.18557400  0.38511200  1
  C  C21  1  0.23974500  0.58780900  0.44148800  1
  C  C22  1  0.94148800  0.08780900  0.73974500  1
  C  C23  1  0.18557400  0.38511200  0.99849400  1
  C  C24  1  0.81442600  0.61488800  0.00150600  1
  C  C25  1  0.05851200  0.91219100  0.26025500  1
  C  C26  1  0.76025500  0.41219100  0.55851200  1
  C  C27  1  0.00150600  0.81442600  0.61488800  1
  C  C28  1  0.41219100  0.55851200  0.76025500  1
  C  C29  1  0.08780900  0.73974500  0.94148800  1
  C  C30  1  0.55851200  0.76025500  0.41219100  1
  C  C31  1  0.38511200  0.99849400  0.18557400  1
  C  C32  1  0.68557400  0.49849400  0.88511200  1
  C  C33  1  0.73974500  0.94148800  0.08780900  1
  C  C34  1  0.88511200  0.68557400  0.49849400  1
  C  C35  1  0.49849400  0.88511200  0.68557400  1
