# generated using pymatgen
data_Cu3Ni
_symmetry_space_group_name_H-M   'P 1'
_cell_length_a   7.05122873
_cell_length_b   7.05122873
_cell_length_c   7.05122838
_cell_angle_alpha   90.24771796
_cell_angle_beta   90.24771796
_cell_angle_gamma   90.24770875
_symmetry_Int_Tables_number   1
_chemical_formula_structural   Cu3Ni
_chemical_formula_sum   'Cu15 Ni5'
_cell_volume   350.57599390
_cell_formula_units_Z   5
loop_
 _symmetry_equiv_pos_site_id
 _symmetry_equiv_pos_as_xyz
  1  'x, y, z'
loop_
 _atom_site_type_symbol
 _atom_site_label
 _atom_site_symmetry_multiplicity
 _atom_site_fract_x
 _atom_site_fract_y
 _atom_site_fract_z
 _atom_site_occupancy
  Ni  Ni0  1  0.68819200  0.68819200  0.68819200  1
  Ni  Ni1  1  0.19038400  0.31719800  0.80587100  1
  Ni  Ni2  1  0.31719800  0.80587100  0.19038400  1
  Ni  Ni3  1  0.80587100  0.19038400  0.31719800  1
  Ni  Ni4  1  0.05823100  0.05823100  0.05823100  1
  Cu  Cu5  1  0.45264600  0.19819300  0.13104300  1
  Cu  Cu6  1  0.19819300  0.13104300  0.45264600  1
  Cu  Cu7  1  0.13104300  0.45264600  0.19819300  1
  Cu  Cu8  1  0.96123000  0.80362300  0.36410000  1
  Cu  Cu9  1  0.70298300  0.87447700  0.04143300  1
  Cu  Cu10  1  0.63151800  0.54227200  0.29943300  1
  Cu  Cu11  1  0.54227200  0.29943300  0.63151800  1
  Cu  Cu12  1  0.80362300  0.36410000  0.96123000  1
  Cu  Cu13  1  0.87447700  0.04143300  0.70298300  1
  Cu  Cu14  1  0.04143300  0.70298300  0.87447700  1
  Cu  Cu15  1  0.29943300  0.63151800  0.54227200  1
  Cu  Cu16  1  0.36409900  0.96123000  0.80362300  1
  Cu  Cu17  1  0.56463600  0.93515100  0.43738700  1
  Cu  Cu18  1  0.93515100  0.43738700  0.56463600  1
  Cu  Cu19  1  0.43738700  0.56463600  0.93515100  1
