# generated using pymatgen
data_Cu10Ni4C19
_symmetry_space_group_name_H-M   'P 1'
_cell_length_a   7.29844600
_cell_length_b   7.30290200
_cell_length_c   22.83758400
_cell_angle_alpha   90.00000000
_cell_angle_beta   90.00000000
_cell_angle_gamma   90.00000000
_symmetry_Int_Tables_number   1
_chemical_formula_structural   Cu10Ni4C19
_chemical_formula_sum   'Cu40 Ni16 C76'
_cell_volume   1217.23947933
_cell_formula_units_Z   4
loop_
 _symmetry_equiv_pos_site_id
 _symmetry_equiv_pos_as_xyz
  1  'x, y, z'
loop_
 _atom_site_type_symbol
 _atom_site_label
 _atom_site_symmetry_multiplicity
 _atom_site_fract_x
 _atom_site_fract_y
 _atom_site_fract_z
 _atom_site_occupancy
  C  C0  1  0.14358700  0.18811900  0.08756900  1
  C  C1  1  0.85641300  0.81188100  0.91243100  1
  C  C2  1  0.35641300  0.81188100  0.58756900  1
  C  C3  1  0.85641300  0.68811900  0.41243100  1
  C  C4  1  0.64358700  0.18811900  0.41243100  1
  C  C5  1  0.14358700  0.31188100  0.58756900  1
  C  C6  1  0.64358700  0.31188100  0.91243100  1
  C  C7  1  0.35641300  0.68811900  0.08756900  1
  C  C8  1  0.12599100  0.16110100  0.49675800  1
  C  C9  1  0.87400900  0.83889900  0.50324200  1
  C  C10  1  0.37400900  0.83889900  0.99675800  1
  C  C11  1  0.87400900  0.66110100  0.00324200  1
  C  C12  1  0.62599100  0.16110100  0.00324200  1
  C  C13  1  0.12599100  0.33889900  0.99675800  1
  C  C14  1  0.62599100  0.33889900  0.50324200  1
  C  C15  1  0.37400900  0.66110100  0.49675800  1
  C  C16  1  0.36872700  0.45314800  0.21626000  1
  C  C17  1  0.63127300  0.54685200  0.78374000  1
  C  C18  1  0.13127300  0.54685200  0.71626000  1
  C  C19  1  0.63127300  0.95314800  0.28374000  1
  C  C20  1  0.86872700  0.45314800  0.28374000  1
  C  C21  1  0.36872700  0.04685200  0.71626000  1
  C  C22  1  0.86872700  0.04685200  0.78374000  1
  C  C23  1  0.13127300  0.95314800  0.21626000  1
  C  C24  1  0.19804500  0.28111400  0.30858300  1
  C  C25  1  0.80195500  0.71888600  0.69141700  1
  C  C26  1  0.30195500  0.71888600  0.80858300  1
  C  C27  1  0.80195500  0.78111400  0.19141700  1
  C  C28  1  0.69804500  0.28111400  0.19141700  1
  C  C29  1  0.19804500  0.21888600  0.80858300  1
  C  C30  1  0.69804500  0.21888600  0.69141700  1
  C  C31  1  0.30195500  0.78111400  0.30858300  1
  C  C32  1  0.34650200  0.43809700  0.43250400  1
  C  C33  1  0.65349800  0.56190300  0.56749600  1
  C  C34  1  0.15349800  0.56190300  0.93250400  1
  C  C35  1  0.65349800  0.93809700  0.06749600  1
  C  C36  1  0.84650200  0.43809700  0.06749600  1
  C  C37  1  0.34650200  0.06190300  0.93250400  1
  C  C38  1  0.84650200  0.06190300  0.56749600  1
  C  C39  1  0.15349800  0.93809700  0.43250400  1
  C  C40  1  0.41306000  0.47268300  0.36092200  1
  C  C41  1  0.58694000  0.52731700  0.63907800  1
  C  C42  1  0.08694000  0.52731700  0.86092200  1
  C  C43  1  0.58694000  0.97268300  0.13907800  1
  C  C44  1  0.91306000  0.47268300  0.13907800  1
  C  C45  1  0.41306000  0.02731700  0.86092200  1
  C  C46  1  0.91306000  0.02731700  0.63907800  1
  C  C47  1  0.08694000  0.97268300  0.36092200  1
  C  C48  1  0.39647600  0.20110200  0.29562000  1
  C  C49  1  0.60352400  0.79889800  0.70438000  1
  C  C50  1  0.10352400  0.79889800  0.79562000  1
  C  C51  1  0.60352400  0.70110200  0.20438000  1
  C  C52  1  0.89647600  0.20110200  0.20438000  1
  C  C53  1  0.39647600  0.29889800  0.79562000  1
  C  C54  1  0.89647600  0.29889800  0.70438000  1
  C  C55  1  0.10352400  0.70110200  0.29562000  1
  C  C56  1  0.20610200  0.14589800  0.18078800  1
  C  C57  1  0.79389800  0.85410200  0.81921200  1
  C  C58  1  0.29389800  0.85410200  0.68078800  1
  C  C59  1  0.79389800  0.64589800  0.31921200  1
  C  C60  1  0.70610200  0.14589800  0.31921200  1
  C  C61  1  0.20610200  0.35410200  0.68078800  1
  C  C62  1  0.70610200  0.35410200  0.81921200  1
  C  C63  1  0.29389800  0.64589800  0.18078800  1
  C  C64  1  0.00000000  0.00000000  0.00000000  1
  C  C65  1  0.50000000  0.00000000  0.50000000  1
  C  C66  1  0.00000000  0.50000000  0.50000000  1
  C  C67  1  0.50000000  0.50000000  0.00000000  1
  Ni  Ni68  1  0.04716400  0.19169200  0.41464800  1
  Ni  Ni69  1  0.95283600  0.80830800  0.58535200  1
  Ni  Ni70  1  0.45283600  0.80830800  0.91464800  1
  Ni  Ni71  1  0.95283600  0.69169200  0.08535200  1
  Ni  Ni72  1  0.54716400  0.19169200  0.08535200  1
  Ni  Ni73  1  0.04716400  0.30830800  0.91464800  1
  Ni  Ni74  1  0.54716400  0.30830800  0.58535200  1
  Ni  Ni75  1  0.45283600  0.69169200  0.41464800  1
  Ni  Ni76  1  0.42909200  0.46265800  0.12874400  1
  Ni  Ni77  1  0.57090800  0.53734200  0.87125600  1
  Ni  Ni78  1  0.07090800  0.53734200  0.62874400  1
  Ni  Ni79  1  0.57090800  0.96265800  0.37125600  1
  Ni  Ni80  1  0.92909200  0.46265800  0.37125600  1
  Ni  Ni81  1  0.42909200  0.03734200  0.62874400  1
  Ni  Ni82  1  0.92909200  0.03734200  0.87125600  1
  Ni  Ni83  1  0.07090800  0.96265800  0.12874400  1
  Cu  Cu84  1  0.48982300  0.28810100  0.13289800  1
  Cu  Cu85  1  0.51017700  0.71189900  0.86710200  1
  Cu  Cu86  1  0.01017700  0.71189900  0.63289800  1
  Cu  Cu87  1  0.51017700  0.78810100  0.36710200  1
  Cu  Cu88  1  0.98982300  0.28810100  0.36710200  1
  Cu  Cu89  1  0.48982300  0.21189900  0.63289800  1
  Cu  Cu90  1  0.98982300  0.21189900  0.86710200  1
  Cu  Cu91  1  0.01017700  0.78810100  0.13289800  1
  Cu  Cu92  1  0.07296800  0.00887000  0.40387200  1
  Cu  Cu93  1  0.92703200  0.99113000  0.59612800  1
  Cu  Cu94  1  0.42703200  0.99113000  0.90387200  1
  Cu  Cu95  1  0.92703200  0.50887000  0.09612800  1
  Cu  Cu96  1  0.57296800  0.00887000  0.09612800  1
  Cu  Cu97  1  0.07296800  0.49113000  0.90387200  1
  Cu  Cu98  1  0.57296800  0.49113000  0.59612800  1
  Cu  Cu99  1  0.42703200  0.50887000  0.40387200  1
  Cu  Cu100  1  0.11075800  0.04390100  0.18237200  1
  Cu  Cu101  1  0.88924200  0.95609900  0.81762800  1
  Cu  Cu102  1  0.38924200  0.95609900  0.68237200  1
  Cu  Cu103  1  0.88924200  0.54390100  0.31762800  1
  Cu  Cu104  1  0.61075800  0.04390100  0.31762800  1
  Cu  Cu105  1  0.11075800  0.45609900  0.68237200  1
  Cu  Cu106  1  0.61075800  0.45609900  0.81762800  1
  Cu  Cu107  1  0.38924200  0.54390100  0.18237200  1
  Cu  Cu108  1  0.09211000  0.06002500  0.08047700  1
  Cu  Cu109  1  0.90789000  0.93997500  0.91952300  1
  Cu  Cu110  1  0.40789000  0.93997500  0.58047700  1
  Cu  Cu111  1  0.90789000  0.56002500  0.41952300  1
  Cu  Cu112  1  0.59211000  0.06002500  0.41952300  1
  Cu  Cu113  1  0.09211000  0.43997500  0.58047700  1
  Cu  Cu114  1  0.59211000  0.43997500  0.91952300  1
  Cu  Cu115  1  0.40789000  0.56002500  0.08047700  1
  Cu  Cu116  1  0.07850700  0.25706200  0.46785200  1
  Cu  Cu117  1  0.92149300  0.74293800  0.53214800  1
  Cu  Cu118  1  0.42149300  0.74293800  0.96785200  1
  Cu  Cu119  1  0.92149300  0.75706200  0.03214800  1
  Cu  Cu120  1  0.57850700  0.25706200  0.03214800  1
  Cu  Cu121  1  0.07850700  0.24293800  0.96785200  1
  Cu  Cu122  1  0.57850700  0.24293800  0.53214800  1
  Cu  Cu123  1  0.42149300  0.75706200  0.46785200  1
  C  C124  1  0.31543700  0.30740200  0.28855500  1
  C  C125  1  0.68456300  0.69259800  0.71144500  1
  C  C126  1  0.18456300  0.69259800  0.78855500  1
  C  C127  1  0.68456300  0.80740200  0.21144500  1
  C  C128  1  0.81543700  0.30740200  0.21144500  1
  C  C129  1  0.31543700  0.19259800  0.78855500  1
  C  C130  1  0.81543700  0.19259800  0.71144500  1
  C  C131  1  0.18456300  0.80740200  0.28855500  1
