# generated using pymatgen
data_Cu3NiC15
_symmetry_space_group_name_H-M   'P 1'
_cell_length_a   14.01503600
_cell_length_b   14.01503600
_cell_length_c   14.01503600
_cell_angle_alpha   150.17506824
_cell_angle_beta   117.19318664
_cell_angle_gamma   71.06221436
_symmetry_Int_Tables_number   1
_chemical_formula_structural   Cu3NiC15
_chemical_formula_sum   'Cu12 Ni4 C60'
_cell_volume   1201.60265179
_cell_formula_units_Z   4
loop_
 _symmetry_equiv_pos_site_id
 _symmetry_equiv_pos_as_xyz
  1  'x, y, z'
loop_
 _atom_site_type_symbol
 _atom_site_label
 _atom_site_symmetry_multiplicity
 _atom_site_fract_x
 _atom_site_fract_y
 _atom_site_fract_z
 _atom_site_occupancy
  C  C0  1  0.79572400  0.32124600  0.75856300  1
  C  C1  1  0.70427600  0.46283900  0.52552200  1
  C  C2  1  0.43731700  0.17875400  0.97447800  1
  C  C3  1  0.06268300  0.03716100  0.74143700  1
  C  C4  1  0.20427600  0.67875400  0.24143700  1
  C  C5  1  0.29572400  0.53716100  0.47447800  1
  C  C6  1  0.56268300  0.82124600  0.02552200  1
  C  C7  1  0.93731700  0.96283900  0.25856300  1
  C  C8  1  0.05937100  0.75000000  0.80937100  1
  C  C9  1  0.44062900  0.25000000  0.69062900  1
  C  C10  1  0.94062900  0.25000000  0.19062900  1
  C  C11  1  0.55937100  0.75000000  0.30937100  1
  Ni  Ni12  1  0.16769000  0.41769000  0.75000000  1
  Ni  Ni13  1  0.33231000  0.08231000  0.25000000  1
  Ni  Ni14  1  0.83231000  0.58231000  0.25000000  1
  Ni  Ni15  1  0.66769000  0.91769000  0.75000000  1
  Cu  Cu16  1  0.96500700  0.49135500  0.76976300  1
  Cu  Cu17  1  0.53499300  0.30475600  0.52634800  1
  Cu  Cu18  1  0.27840800  0.00864500  0.97365200  1
  Cu  Cu19  1  0.22159200  0.19524400  0.73023700  1
  Cu  Cu20  1  0.03499300  0.50864500  0.23023700  1
  Cu  Cu21  1  0.46500700  0.69524400  0.47365200  1
  Cu  Cu22  1  0.72159200  0.99135500  0.02634800  1
  Cu  Cu23  1  0.77840800  0.80475600  0.26976300  1
  Cu  Cu24  1  0.31432700  0.75000000  0.06432700  1
  Cu  Cu25  1  0.18567300  0.25000000  0.43567300  1
  Cu  Cu26  1  0.68567300  0.25000000  0.93567300  1
  Cu  Cu27  1  0.81432700  0.75000000  0.56432700  1
  C  C28  1  0.21932900  0.39561100  0.84536700  1
  C  C29  1  0.28067100  0.12603800  0.17628200  1
  C  C30  1  0.44975600  0.10438900  0.32371800  1
  C  C31  1  0.05024400  0.37396200  0.65463300  1
  C  C32  1  0.78067100  0.60438900  0.15463300  1
  C  C33  1  0.71932900  0.87396200  0.82371800  1
  C  C34  1  0.55024400  0.89561100  0.67628200  1
  C  C35  1  0.94975600  0.62603800  0.34536700  1
  C  C36  1  0.87566700  0.33542700  0.61810100  1
  C  C37  1  0.62433300  0.24243300  0.45976000  1
  C  C38  1  0.28267400  0.16457300  0.04024000  1
  C  C39  1  0.21732600  0.25756600  0.88189900  1
  C  C40  1  0.12433300  0.66457300  0.38189900  1
  C  C41  1  0.37566700  0.75756700  0.54024000  1
  C  C42  1  0.71732600  0.83542700  0.95976000  1
  C  C43  1  0.78267400  0.74243300  0.11810100  1
  C  C44  1  0.65838600  0.12678200  0.73340500  1
  C  C45  1  0.84161400  0.57501800  0.46839600  1
  C  C46  1  0.60662300  0.37321800  0.03160400  1
  C  C47  1  0.89337700  0.92498200  0.76659500  1
  C  C48  1  0.34161400  0.87321800  0.26659500  1
  C  C49  1  0.15838600  0.42498200  0.53160400  1
  C  C50  1  0.39337700  0.62678200  0.96839600  1
  C  C51  1  0.10662300  0.07501800  0.23340500  1
  C  C52  1  0.19954600  0.62804300  0.91728600  1
  C  C53  1  0.30045400  0.21774000  0.42849700  1
  C  C54  1  0.28924200  0.87195700  0.07150300  1
  C  C55  1  0.21075800  0.28226000  0.58271400  1
  C  C56  1  0.80045400  0.37195700  0.08271400  1
  C  C57  1  0.69954600  0.78226000  0.57150300  1
  C  C58  1  0.71075800  0.12804300  0.92849700  1
  C  C59  1  0.78924200  0.71774000  0.41728600  1
  C  C60  1  0.93417100  0.62361600  0.79724900  1
  C  C61  1  0.56582900  0.36307700  0.68944400  1
  C  C62  1  0.17363300  0.87638400  0.81055600  1
  C  C63  1  0.32636700  0.13692300  0.70275100  1
  C  C64  1  0.06582900  0.37638400  0.20275100  1
  C  C65  1  0.43417100  0.63692300  0.31055600  1
  C  C66  1  0.82636700  0.12361600  0.18944400  1
  C  C67  1  0.67363300  0.86307700  0.29724900  1
  C  C68  1  0.01946700  0.59292500  0.96523500  1
  C  C69  1  0.48053300  0.44576800  0.57345800  1
  C  C70  1  0.37231000  0.90707500  0.92654200  1
  C  C71  1  0.12769000  0.05423200  0.53476500  1
  C  C72  1  0.98053300  0.40707500  0.03476500  1
  C  C73  1  0.51946700  0.55423200  0.42654200  1
  C  C74  1  0.62769000  0.09292500  0.07345800  1
  C  C75  1  0.87231000  0.94576800  0.46523500  1
