# generated using pymatgen
data_Cu4NiC15
_symmetry_space_group_name_H-M   'P 1'
_cell_length_a   5.22426215
_cell_length_b   7.28525296
_cell_length_c   7.71214151
_cell_angle_alpha   63.43838140
_cell_angle_beta   88.05641000
_cell_angle_gamma   81.22397100
_symmetry_Int_Tables_number   1
_chemical_formula_structural   Cu4NiC15
_chemical_formula_sum   'Cu4 Ni1 C15'
_cell_volume   259.27500881
_cell_formula_units_Z   1
loop_
 _symmetry_equiv_pos_site_id
 _symmetry_equiv_pos_as_xyz
  1  'x, y, z'
loop_
 _atom_site_type_symbol
 _atom_site_label
 _atom_site_symmetry_multiplicity
 _atom_site_fract_x
 _atom_site_fract_y
 _atom_site_fract_z
 _atom_site_occupancy
  C  C0  1  0.00306900  0.78773600  0.42315900  1
  C  C1  1  0.96983900  0.21489700  0.58788400  1
  C  C2  1  0.91205300  0.22517700  0.02891400  1
  Ni  Ni3  1  0.17137300  0.92646800  0.99354100  1
  Cu  Cu4  1  0.57420100  0.58801500  0.22633000  1
  Cu  Cu5  1  0.40041300  0.43559800  0.77472100  1
  Cu  Cu6  1  0.40561000  0.19933100  0.22827000  1
  Cu  Cu7  1  0.56438900  0.82273500  0.76682400  1
  C  C8  1  0.32720800  0.73902800  0.24724300  1
  C  C9  1  0.68651600  0.30752100  0.78949600  1
  C  C10  1  0.27826800  0.35223700  0.99911700  1
  C  C11  1  0.65158100  0.65431500  0.99688400  1
  C  C12  1  0.16728100  0.44360300  0.63870700  1
  C  C13  1  0.82452900  0.55845500  0.35934500  1
  C  C14  1  0.33948600  0.01325100  0.74415300  1
  C  C15  1  0.66668100  0.05099700  0.22395800  1
  C  C16  1  0.50109100  0.34931400  0.31507700  1
  C  C17  1  0.42602200  0.68640000  0.68150700  1
  C  C18  1  0.14520500  0.11302300  0.33802200  1
  C  C19  1  0.81851600  0.90227000  0.64518200  1
