# generated using pymatgen
data_CuNiC6
_symmetry_space_group_name_H-M   'P 1'
_cell_length_a   5.26863700
_cell_length_b   10.60573200
_cell_length_c   16.32214200
_cell_angle_alpha   90.00000000
_cell_angle_beta   90.00000000
_cell_angle_gamma   90.00000000
_symmetry_Int_Tables_number   1
_chemical_formula_structural   CuNiC6
_chemical_formula_sum   'Cu8 Ni8 C48'
_cell_volume   912.04460323
_cell_formula_units_Z   8
loop_
 _symmetry_equiv_pos_site_id
 _symmetry_equiv_pos_as_xyz
  1  'x, y, z'
loop_
 _atom_site_type_symbol
 _atom_site_label
 _atom_site_symmetry_multiplicity
 _atom_site_fract_x
 _atom_site_fract_y
 _atom_site_fract_z
 _atom_site_occupancy
  Ni  Ni0  1  0.54831000  0.40275500  0.56573500  1
  Ni  Ni1  1  0.04831000  0.09724500  0.56573500  1
  Ni  Ni2  1  0.04831000  0.59724500  0.93426500  1
  Ni  Ni3  1  0.95169000  0.40275500  0.06573500  1
  Ni  Ni4  1  0.45169000  0.09724500  0.06573500  1
  Ni  Ni5  1  0.95169000  0.90275500  0.43426500  1
  Ni  Ni6  1  0.45169000  0.59724500  0.43426500  1
  Ni  Ni7  1  0.54831000  0.90275500  0.93426500  1
  Cu  Cu8  1  0.04990100  0.85666200  0.78063900  1
  Cu  Cu9  1  0.95009900  0.14333800  0.21936100  1
  Cu  Cu10  1  0.45009900  0.35666300  0.21936100  1
  Cu  Cu11  1  0.95009900  0.64333800  0.28063900  1
  Cu  Cu12  1  0.54990100  0.14333800  0.71936100  1
  Cu  Cu13  1  0.54990100  0.64333800  0.78063900  1
  Cu  Cu14  1  0.45009900  0.85666200  0.28063900  1
  Cu  Cu15  1  0.04990100  0.35666300  0.71936100  1
  C  C16  1  0.97889900  0.36295500  0.40981200  1
  C  C17  1  0.52110100  0.86295500  0.59018800  1
  C  C18  1  0.02110100  0.63704500  0.59018800  1
  C  C19  1  0.47889900  0.13704500  0.40981200  1
  C  C20  1  0.02110100  0.13704500  0.90981200  1
  C  C21  1  0.97889900  0.86295500  0.09018800  1
  C  C22  1  0.52110100  0.36295500  0.90981200  1
  C  C23  1  0.47889900  0.63704500  0.09018800  1
  C  C24  1  0.83740000  0.32175300  0.30240100  1
  C  C25  1  0.26123600  0.02983400  0.96651100  1
  C  C26  1  0.23876400  0.52983400  0.03348900  1
  C  C27  1  0.37642900  0.79030600  0.85533400  1
  C  C28  1  0.12357100  0.29030600  0.14466600  1
  C  C29  1  0.83740000  0.82175300  0.19759900  1
  C  C30  1  0.12357100  0.79030600  0.35533400  1
  C  C31  1  0.66260000  0.82175300  0.69759900  1
  C  C32  1  0.26123600  0.52983400  0.53348900  1
  C  C33  1  0.16260000  0.67824700  0.69759900  1
  C  C34  1  0.66260000  0.32175300  0.80240100  1
  C  C35  1  0.78833300  0.21081100  0.45886000  1
  C  C36  1  0.76123600  0.97016600  0.53348900  1
  C  C37  1  0.62357100  0.70969400  0.35533400  1
  C  C38  1  0.18350400  0.00251100  0.13825900  1
  C  C39  1  0.76123600  0.47016600  0.96651100  1
  C  C40  1  0.16260000  0.17824700  0.80240100  1
  C  C41  1  0.87642900  0.20969400  0.64466600  1
  C  C42  1  0.28833300  0.78918900  0.04114000  1
  C  C43  1  0.23876400  0.02983400  0.46651100  1
  C  C44  1  0.21166700  0.78918900  0.54114000  1
  C  C45  1  0.81649600  0.99748900  0.86174100  1
  C  C46  1  0.62357100  0.20969400  0.14466600  1
  C  C47  1  0.68350400  0.99748900  0.36174100  1
  C  C48  1  0.21166700  0.28918900  0.95886000  1
  C  C49  1  0.28833300  0.28918900  0.45886000  1
  C  C50  1  0.73876400  0.47016600  0.46651100  1
  C  C51  1  0.73876400  0.97016600  0.03348900  1
  C  C52  1  0.68350400  0.49748900  0.13825900  1
  C  C53  1  0.71166700  0.71081100  0.54114000  1
  C  C54  1  0.71166700  0.21081100  0.95886000  1
  C  C55  1  0.78833300  0.71081100  0.04114000  1
  C  C56  1  0.81649600  0.49748900  0.63825900  1
  C  C57  1  0.87642900  0.70969400  0.85533400  1
  C  C58  1  0.37642900  0.29030600  0.64466600  1
  C  C59  1  0.18350400  0.50251100  0.36174100  1
  C  C60  1  0.31649600  0.50251100  0.86174100  1
  C  C61  1  0.33740000  0.17824700  0.30240100  1
  C  C62  1  0.31649600  0.00251100  0.63825900  1
  C  C63  1  0.33740000  0.67824700  0.19759900  1
