# generated using pymatgen
data_Cu2Ni2C3
_symmetry_space_group_name_H-M   'P 1'
_cell_length_a   14.18724125
_cell_length_b   14.18724125
_cell_length_c   14.18724149
_cell_angle_alpha   29.32625382
_cell_angle_beta   29.32625382
_cell_angle_gamma   29.32625388
_symmetry_Int_Tables_number   1
_chemical_formula_structural   Cu2Ni2C3
_chemical_formula_sum   'Cu12 Ni12 C18'
_cell_volume   606.17377596
_cell_formula_units_Z   6
loop_
 _symmetry_equiv_pos_site_id
 _symmetry_equiv_pos_as_xyz
  1  'x, y, z'
loop_
 _atom_site_type_symbol
 _atom_site_label
 _atom_site_symmetry_multiplicity
 _atom_site_fract_x
 _atom_site_fract_y
 _atom_site_fract_z
 _atom_site_occupancy
  C  C0  1  0.14881200  0.14881200  0.14881200  1
  C  C1  1  0.64881200  0.64881200  0.64881200  1
  C  C2  1  0.85118800  0.85118800  0.85118800  1
  C  C3  1  0.35118800  0.35118800  0.35118800  1
  C  C4  1  0.25000000  0.25000000  0.25000000  1
  C  C5  1  0.75000000  0.75000000  0.75000000  1
  Ni  Ni6  1  0.49666900  0.26089100  0.62601400  1
  Ni  Ni7  1  0.62601400  0.49666900  0.26089100  1
  Ni  Ni8  1  0.26089100  0.62601400  0.49666900  1
  Ni  Ni9  1  0.12601400  0.76089100  0.99666900  1
  Ni  Ni10  1  0.99666900  0.12601400  0.76089100  1
  Ni  Ni11  1  0.76089100  0.99666900  0.12601400  1
  Ni  Ni12  1  0.50333100  0.73910900  0.37398600  1
  Ni  Ni13  1  0.37398600  0.50333100  0.73910900  1
  Ni  Ni14  1  0.73910900  0.37398600  0.50333100  1
  Ni  Ni15  1  0.87398600  0.23910900  0.00333100  1
  Ni  Ni16  1  0.00333100  0.87398600  0.23910900  1
  Ni  Ni17  1  0.23910900  0.00333100  0.87398600  1
  Cu  Cu18  1  0.28819000  0.42396400  0.66938900  1
  Cu  Cu19  1  0.66938900  0.28819000  0.42396400  1
  Cu  Cu20  1  0.42396400  0.66938900  0.28819000  1
  Cu  Cu21  1  0.16938900  0.92396400  0.78819000  1
  Cu  Cu22  1  0.78819000  0.16938900  0.92396400  1
  Cu  Cu23  1  0.92396400  0.78819000  0.16938900  1
  Cu  Cu24  1  0.71181000  0.57603600  0.33061100  1
  Cu  Cu25  1  0.33061100  0.71181000  0.57603600  1
  Cu  Cu26  1  0.57603600  0.33061100  0.71181000  1
  Cu  Cu27  1  0.83061100  0.07603600  0.21181000  1
  Cu  Cu28  1  0.21181000  0.83061100  0.07603600  1
  Cu  Cu29  1  0.07603600  0.21181000  0.83061100  1
  C  C30  1  0.06778200  0.79206700  0.52995900  1
  C  C31  1  0.52995900  0.06778200  0.79206700  1
  C  C32  1  0.79206700  0.52995900  0.06778200  1
  C  C33  1  0.02995900  0.29206700  0.56778200  1
  C  C34  1  0.56778200  0.02995900  0.29206700  1
  C  C35  1  0.29206700  0.56778200  0.02995900  1
  C  C36  1  0.93221800  0.20793300  0.47004100  1
  C  C37  1  0.47004100  0.93221800  0.20793300  1
  C  C38  1  0.20793300  0.47004100  0.93221800  1
  C  C39  1  0.97004100  0.70793300  0.43221800  1
  C  C40  1  0.43221800  0.97004100  0.70793300  1
  C  C41  1  0.70793300  0.43221800  0.97004100  1
