# generated using pymatgen
data_Cu4Ni4C15
_symmetry_space_group_name_H-M   'P 1'
_cell_length_a   7.12356485
_cell_length_b   7.12356485
_cell_length_c   7.12356485
_cell_angle_alpha   59.56648605
_cell_angle_beta   59.56648605
_cell_angle_gamma   59.56648605
_symmetry_Int_Tables_number   1
_chemical_formula_structural   Cu4Ni4C15
_chemical_formula_sum   'Cu4 Ni4 C15'
_cell_volume   253.09048767
_cell_formula_units_Z   1
loop_
 _symmetry_equiv_pos_site_id
 _symmetry_equiv_pos_as_xyz
  1  'x, y, z'
loop_
 _atom_site_type_symbol
 _atom_site_label
 _atom_site_symmetry_multiplicity
 _atom_site_fract_x
 _atom_site_fract_y
 _atom_site_fract_z
 _atom_site_occupancy
  C  C0  1  0.74735800  0.74735800  0.74735800  1
  Ni  Ni1  1  0.48214500  0.48214500  0.00505400  1
  Ni  Ni2  1  0.48214500  0.00505400  0.48214500  1
  Ni  Ni3  1  0.00505400  0.48214500  0.48214500  1
  Ni  Ni4  1  0.49861200  0.49861200  0.49861200  1
  Cu  Cu5  1  0.00219600  0.00219600  0.49821800  1
  Cu  Cu6  1  0.00219600  0.49821800  0.00219600  1
  Cu  Cu7  1  0.49821800  0.00219600  0.00219600  1
  Cu  Cu8  1  0.00391900  0.00391900  0.00391900  1
  C  C9  1  0.37541600  0.37541600  0.37541600  1
  C  C10  1  0.62908600  0.62908600  0.62908600  1
  C  C11  1  0.33122400  0.92311000  0.92311000  1
  C  C12  1  0.92174200  0.32859500  0.32859500  1
  C  C13  1  0.92311000  0.33122400  0.92311000  1
  C  C14  1  0.32859500  0.92174200  0.32859500  1
  C  C15  1  0.92311000  0.92311000  0.33122400  1
  C  C16  1  0.32859500  0.32859500  0.92174200  1
  C  C17  1  0.67106600  0.07987800  0.07987800  1
  C  C18  1  0.07268800  0.67725400  0.67725400  1
  C  C19  1  0.07987800  0.67106600  0.07987800  1
  C  C20  1  0.67725400  0.07268800  0.67725400  1
  C  C21  1  0.07987800  0.07987800  0.67106600  1
  C  C22  1  0.67725400  0.67725400  0.07268800  1
