# generated using pymatgen
data_Cu14NiC21
_symmetry_space_group_name_H-M   'P 1'
_cell_length_a   6.53265723
_cell_length_b   10.56929000
_cell_length_c   11.61521288
_cell_angle_alpha   90.00000000
_cell_angle_beta   99.42211806
_cell_angle_gamma   90.00000000
_symmetry_Int_Tables_number   1
_chemical_formula_structural   Cu14NiC21
_chemical_formula_sum   'Cu28 Ni2 C42'
_cell_volume   791.15928273
_cell_formula_units_Z   2
loop_
 _symmetry_equiv_pos_site_id
 _symmetry_equiv_pos_as_xyz
  1  'x, y, z'
loop_
 _atom_site_type_symbol
 _atom_site_label
 _atom_site_symmetry_multiplicity
 _atom_site_fract_x
 _atom_site_fract_y
 _atom_site_fract_z
 _atom_site_occupancy
  C  C0  1  0.49410300  0.00571000  0.00092700  1
  C  C1  1  0.99410300  0.49429000  0.50092700  1
  C  C2  1  0.19020000  0.98607500  0.11951300  1
  C  C3  1  0.69020000  0.51392500  0.61951300  1
  C  C4  1  0.79877400  0.01920300  0.88447800  1
  C  C5  1  0.29877400  0.48079700  0.38447800  1
  C  C6  1  0.31315500  0.15013400  0.82860500  1
  C  C7  1  0.81315500  0.34986600  0.32860500  1
  C  C8  1  0.67432000  0.86402800  0.17394600  1
  C  C9  1  0.17432000  0.63597200  0.67394600  1
  C  C10  1  0.16435500  0.02940600  0.84837700  1
  C  C11  1  0.66435500  0.47059400  0.34837700  1
  C  C12  1  0.83066100  0.97856000  0.15146000  1
  C  C13  1  0.33066100  0.52144000  0.65146000  1
  C  C14  1  0.74987100  0.95119400  0.52720600  1
  C  C15  1  0.24987100  0.54880600  0.02720600  1
  C  C16  1  0.37159200  0.07982400  0.60593700  1
  C  C17  1  0.87159200  0.42017600  0.10593700  1
  C  C18  1  0.28712700  0.84681400  0.09865500  1
  C  C19  1  0.78712700  0.65318600  0.59865500  1
  C  C20  1  0.70558900  0.16113300  0.89853100  1
  C  C21  1  0.20558900  0.33886700  0.39853100  1
  C  C22  1  0.35667900  0.81568400  0.86551900  1
  C  C23  1  0.85667900  0.68431600  0.36551900  1
  C  C24  1  0.62283300  0.18861900  0.14133000  1
  C  C25  1  0.12283300  0.31138100  0.64133000  1
  C  C26  1  0.34800000  0.87361800  0.40515600  1
  C  C27  1  0.84800000  0.62638200  0.90515600  1
  C  C28  1  0.66677800  0.08647000  0.42349700  1
  C  C29  1  0.16677800  0.41353000  0.92349700  1
  C  C30  1  0.61072000  0.81194300  0.88922500  1
  C  C31  1  0.11072000  0.68805700  0.38922500  1
  C  C32  1  0.36648500  0.19876400  0.10801000  1
  C  C33  1  0.86648500  0.30123600  0.60801000  1
  C  C34  1  0.44596800  0.03387300  0.53957400  1
  C  C35  1  0.94596800  0.46612700  0.03957400  1
  C  C36  1  0.62990800  0.01506500  0.48453100  1
  C  C37  1  0.12990800  0.48493500  0.98453100  1
  C  C38  1  0.43451900  0.68920500  0.26815800  1
  C  C39  1  0.93451900  0.81079500  0.76815800  1
  C  C40  1  0.55678300  0.31381700  0.73096700  1
  C  C41  1  0.05678300  0.18618300  0.23096700  1
  Ni  Ni42  1  0.41648500  0.95669000  0.45642800  1
  Ni  Ni43  1  0.91648500  0.54331000  0.95642800  1
  Cu  Cu44  1  0.45204300  0.55236600  0.29867300  1
  Cu  Cu45  1  0.95204300  0.94763400  0.79867300  1
  Cu  Cu46  1  0.53930600  0.45320200  0.70420800  1
  Cu  Cu47  1  0.03930600  0.04679800  0.20420800  1
  Cu  Cu48  1  0.48427100  0.85061700  0.91435500  1
  Cu  Cu49  1  0.98427100  0.64938300  0.41435500  1
  Cu  Cu50  1  0.49729600  0.16028600  0.08609000  1
  Cu  Cu51  1  0.99729600  0.33971400  0.58609000  1
  Cu  Cu52  1  0.28860400  0.07997200  0.88312700  1
  Cu  Cu53  1  0.78860400  0.42002800  0.38312700  1
  Cu  Cu54  1  0.70114600  0.92993800  0.11715300  1
  Cu  Cu55  1  0.20114600  0.57006200  0.61715300  1
  Cu  Cu56  1  0.31090300  0.75198100  0.35272100  1
  Cu  Cu57  1  0.81090300  0.74801900  0.85272100  1
  Cu  Cu58  1  0.65370400  0.24896800  0.64038200  1
  Cu  Cu59  1  0.15370400  0.25103200  0.14038200  1
  Cu  Cu60  1  0.32173200  0.70594600  0.14817300  1
  Cu  Cu61  1  0.82173200  0.79405400  0.64817300  1
  Cu  Cu62  1  0.68106100  0.29648100  0.84865800  1
  Cu  Cu63  1  0.18106100  0.20351900  0.34865800  1
  Cu  Cu64  1  0.27467800  0.93705800  0.06952200  1
  Cu  Cu65  1  0.77467800  0.56294200  0.56952200  1
  Cu  Cu66  1  0.71503300  0.07098800  0.93148600  1
  Cu  Cu67  1  0.21503300  0.42901200  0.43148600  1
  Cu  Cu68  1  0.64377400  0.74905100  0.28106600  1
  Cu  Cu69  1  0.14377400  0.75094900  0.78106600  1
  Cu  Cu70  1  0.34124500  0.26101100  0.72985200  1
  Cu  Cu71  1  0.84124500  0.23898900  0.22985200  1
