# generated using pymatgen
data_Cu3Ni3C2
_symmetry_space_group_name_H-M   'P 1'
_cell_length_a   9.95968972
_cell_length_b   7.23408078
_cell_length_c   11.38099201
_cell_angle_alpha   84.66520782
_cell_angle_beta   75.94666969
_cell_angle_gamma   80.05591096
_symmetry_Int_Tables_number   1
_chemical_formula_structural   Cu3Ni3C2
_chemical_formula_sum   'Cu6 Ni6 C4'
_cell_volume   782.38016286
_cell_formula_units_Z   2
loop_
 _symmetry_equiv_pos_site_id
 _symmetry_equiv_pos_as_xyz
  1  'x, y, z'
loop_
 _atom_site_type_symbol
 _atom_site_label
 _atom_site_symmetry_multiplicity
 _atom_site_fract_x
 _atom_site_fract_y
 _atom_site_fract_z
 _atom_site_occupancy
  C  C0  1  0.00000000  0.00000000  0.00000000  1
  C  C1  1  0.00000000  0.00000000  0.50000000  1
  C  C2  1  0.50000000  0.50000000  0.00000000  1
  C  C3  1  0.00000000  0.50000000  0.00000000  1
  Ni  Ni4  1  0.75274000  0.98900200  0.59691200  1
  Ni  Ni5  1  0.24726000  0.01099800  0.40308800  1
  Ni  Ni6  1  0.50011900  0.73640300  0.82931400  1
  Ni  Ni7  1  0.49988100  0.26359700  0.17068600  1
  Ni  Ni8  1  0.87121900  0.29802400  0.80181700  1
  Ni  Ni9  1  0.12878100  0.70197600  0.19818300  1
  Cu  Cu10  1  0.94452500  0.26155200  0.92467300  1
  Cu  Cu11  1  0.05547500  0.73844800  0.07532700  1
  Cu  Cu12  1  0.84726400  0.71060600  0.94016000  1
  Cu  Cu13  1  0.15273600  0.28939400  0.05984000  1
  Cu  Cu14  1  0.85528900  0.89522400  0.94713900  1
  Cu  Cu15  1  0.14471100  0.10477600  0.05286100  1
