# generated using pymatgen
data_CuNiC8
_symmetry_space_group_name_H-M   'P 1'
_cell_length_a   8.59461296
_cell_length_b   8.44907548
_cell_length_c   8.59981793
_cell_angle_alpha   90.00000000
_cell_angle_beta   90.00000000
_cell_angle_gamma   90.00000000
_symmetry_Int_Tables_number   1
_chemical_formula_structural   CuNiC8
_chemical_formula_sum   'Cu4 Ni4 C32'
_cell_volume   624.48896784
_cell_formula_units_Z   4
loop_
 _symmetry_equiv_pos_site_id
 _symmetry_equiv_pos_as_xyz
  1  'x, y, z'
loop_
 _atom_site_type_symbol
 _atom_site_label
 _atom_site_symmetry_multiplicity
 _atom_site_fract_x
 _atom_site_fract_y
 _atom_site_fract_z
 _atom_site_occupancy
  C  C0  1  -0.00000000  0.50000000  0.50000000  1
  C  C1  1  0.50000000  0.50000000  -0.00000000  1
  C  C2  1  0.50000000  0.00000000  -0.00000000  1
  C  C3  1  0.00000000  0.00000000  0.50000000  1
  Ni  Ni4  1  0.50000000  0.00000000  0.50000000  1
  Ni  Ni5  1  -0.00000000  0.50000000  -0.00000000  1
  Ni  Ni6  1  0.00000000  0.00000000  -0.00000000  1
  Ni  Ni7  1  0.50000000  0.50000000  0.50000000  1
  Cu  Cu8  1  0.25000000  0.25000000  0.25000000  1
  Cu  Cu9  1  0.75000000  0.75000000  0.25000000  1
  Cu  Cu10  1  0.75000000  0.25000000  0.75000000  1
  Cu  Cu11  1  0.25000000  0.75000000  0.75000000  1
  C  C12  1  0.75000000  0.75000000  0.75000000  1
  C  C13  1  0.25000000  0.25000000  0.75000000  1
  C  C14  1  0.25000000  0.75000000  0.25000000  1
  C  C15  1  0.75000000  0.25000000  0.25000000  1
  C  C16  1  0.99356333  0.20942018  0.25945859  1
  C  C17  1  0.00643667  0.79057982  0.25945859  1
  C  C18  1  0.00643667  0.20942018  0.74054141  1
  C  C19  1  0.99356333  0.79057982  0.74054141  1
  C  C20  1  0.27476374  0.99382296  0.21189786  1
  C  C21  1  0.27476374  0.00617704  0.78810214  1
  C  C22  1  0.72523626  0.00617704  0.21189786  1
  C  C23  1  0.72523626  0.99382296  0.78810214  1
  C  C24  1  0.19153494  0.28218596  0.99470344  1
  C  C25  1  0.80846506  0.28218596  0.00529656  1
  C  C26  1  0.19153494  0.71781404  0.00529656  1
  C  C27  1  0.80846506  0.71781404  0.99470344  1
  C  C28  1  0.50643667  0.29057982  0.24054141  1
  C  C29  1  0.49356333  0.70942018  0.24054141  1
  C  C30  1  0.49356333  0.29057982  0.75945859  1
  C  C31  1  0.50643667  0.70942018  0.75945859  1
  C  C32  1  0.22523626  0.50617704  0.28810214  1
  C  C33  1  0.22523626  0.49382296  0.71189786  1
  C  C34  1  0.77476374  0.49382296  0.28810214  1
  C  C35  1  0.77476374  0.50617704  0.71189786  1
  C  C36  1  0.30846506  0.21781404  0.50529656  1
  C  C37  1  0.69153494  0.21781404  0.49470344  1
  C  C38  1  0.30846506  0.78218596  0.49470344  1
  C  C39  1  0.69153494  0.78218596  0.50529656  1
