# generated using pymatgen
data_Cu2NiC11
_symmetry_space_group_name_H-M   'P 1'
_cell_length_a   6.28839000
_cell_length_b   7.39118100
_cell_length_c   14.11220800
_cell_angle_alpha   90.00000000
_cell_angle_beta   90.00000000
_cell_angle_gamma   90.00000000
_symmetry_Int_Tables_number   1
_chemical_formula_structural   Cu2NiC11
_chemical_formula_sum   'Cu8 Ni4 C44'
_cell_volume   655.91607561
_cell_formula_units_Z   4
loop_
 _symmetry_equiv_pos_site_id
 _symmetry_equiv_pos_as_xyz
  1  'x, y, z'
loop_
 _atom_site_type_symbol
 _atom_site_label
 _atom_site_symmetry_multiplicity
 _atom_site_fract_x
 _atom_site_fract_y
 _atom_site_fract_z
 _atom_site_occupancy
  Ni  Ni0  1  0.75000000  0.93356600  0.77620900  1
  Ni  Ni1  1  0.75000000  0.56643400  0.27620900  1
  Ni  Ni2  1  0.25000000  0.43356600  0.72379100  1
  Ni  Ni3  1  0.25000000  0.06643400  0.22379100  1
  C  C4  1  0.75000000  0.35671300  0.87787800  1
  C  C5  1  0.25000000  0.64328700  0.12212200  1
  C  C6  1  0.25000000  0.85671300  0.62212200  1
  C  C7  1  0.75000000  0.14328700  0.37787800  1
  C  C8  1  0.50000000  0.00000000  0.00000000  1
  C  C9  1  0.50000000  0.50000000  0.50000000  1
  C  C10  1  0.00000000  0.50000000  0.50000000  1
  C  C11  1  0.00000000  0.00000000  0.00000000  1
  Cu  Cu12  1  0.25000000  0.36349100  0.92808900  1
  Cu  Cu13  1  0.75000000  0.63650900  0.07191100  1
  Cu  Cu14  1  0.75000000  0.86349100  0.57191100  1
  Cu  Cu15  1  0.25000000  0.13650900  0.42808900  1
  Cu  Cu16  1  0.75000000  0.38799800  0.69343400  1
  Cu  Cu17  1  0.75000000  0.11200200  0.19343400  1
  Cu  Cu18  1  0.25000000  0.88799800  0.80656600  1
  Cu  Cu19  1  0.25000000  0.61200200  0.30656600  1
  C  C20  1  0.03929600  0.60669600  0.36618200  1
  C  C21  1  0.53929600  0.39330400  0.63381800  1
  C  C22  1  0.96070400  0.10669600  0.13381800  1
  C  C23  1  0.46070400  0.89330400  0.86618200  1
  C  C24  1  0.96070400  0.39330400  0.63381800  1
  C  C25  1  0.46070400  0.60669600  0.36618200  1
  C  C26  1  0.03929600  0.89330400  0.86618200  1
  C  C27  1  0.53929600  0.10669600  0.13381800  1
  C  C28  1  0.25000000  0.32926300  0.47578000  1
  C  C29  1  0.75000000  0.67073700  0.52422000  1
  C  C30  1  0.75000000  0.82926300  0.02422000  1
  C  C31  1  0.25000000  0.17073700  0.97578000  1
  C  C32  1  0.75000000  0.12972600  0.94709400  1
  C  C33  1  0.25000000  0.87027400  0.05290600  1
  C  C34  1  0.25000000  0.62972600  0.55290600  1
  C  C35  1  0.75000000  0.37027400  0.44709400  1
  C  C36  1  0.75000000  0.21031100  0.75457700  1
  C  C37  1  0.25000000  0.78968900  0.24542300  1
  C  C38  1  0.25000000  0.71031100  0.74542300  1
  C  C39  1  0.75000000  0.28968900  0.25457700  1
  C  C40  1  0.43791500  0.12594500  0.35762100  1
  C  C41  1  0.93791500  0.87405500  0.64237900  1
  C  C42  1  0.56208500  0.62594500  0.14237900  1
  C  C43  1  0.06208500  0.37405500  0.85762100  1
  C  C44  1  0.56208500  0.87405500  0.64237900  1
  C  C45  1  0.06208500  0.12594500  0.35762100  1
  C  C46  1  0.43791500  0.37405500  0.85762100  1
  C  C47  1  0.93791500  0.62594500  0.14237900  1
  C  C48  1  0.75000000  0.49266700  0.99698400  1
  C  C49  1  0.25000000  0.04160900  0.73247400  1
  C  C50  1  0.25000000  0.45839100  0.23247400  1
  C  C51  1  0.75000000  0.54160900  0.76752600  1
  C  C52  1  0.75000000  0.00733300  0.49698400  1
  C  C53  1  0.25000000  0.99266700  0.50301600  1
  C  C54  1  0.25000000  0.50733300  0.00301600  1
  C  C55  1  0.75000000  0.95839100  0.26752600  1
