# generated using pymatgen
data_Cu8Ni3C37
_symmetry_space_group_name_H-M   'P 1'
_cell_length_a   9.75405693
_cell_length_b   9.75405693
_cell_length_c   17.21070291
_cell_angle_alpha   89.17744725
_cell_angle_beta   89.17744725
_cell_angle_gamma   58.59150918
_symmetry_Int_Tables_number   1
_chemical_formula_structural   Cu8Ni3C37
_chemical_formula_sum   'Cu16 Ni6 C74'
_cell_volume   1397.33460015
_cell_formula_units_Z   2
loop_
 _symmetry_equiv_pos_site_id
 _symmetry_equiv_pos_as_xyz
  1  'x, y, z'
loop_
 _atom_site_type_symbol
 _atom_site_label
 _atom_site_symmetry_multiplicity
 _atom_site_fract_x
 _atom_site_fract_y
 _atom_site_fract_z
 _atom_site_occupancy
  C  C0  1  0.24140100  0.75859900  0.25000000  1
  C  C1  1  0.75859900  0.24140100  0.75000000  1
  Ni  Ni2  1  0.23633000  0.18976600  0.25979500  1
  Ni  Ni3  1  0.76367000  0.81023400  0.74020500  1
  Ni  Ni4  1  0.81023400  0.76367000  0.24020500  1
  Ni  Ni5  1  0.18976600  0.23633000  0.75979500  1
  Ni  Ni6  1  0.65917100  0.34082900  0.25000000  1
  Ni  Ni7  1  0.34082900  0.65917100  0.75000000  1
  Cu  Cu8  1  0.87384800  0.01377300  0.14073400  1
  Cu  Cu9  1  0.12615200  0.98622700  0.85926600  1
  Cu  Cu10  1  0.98622700  0.12615200  0.35926600  1
  Cu  Cu11  1  0.01377300  0.87384800  0.64073400  1
  Cu  Cu12  1  0.61120500  0.63571300  0.35528500  1
  Cu  Cu13  1  0.38879500  0.36428700  0.64471500  1
  Cu  Cu14  1  0.36428700  0.38879500  0.14471500  1
  Cu  Cu15  1  0.63571300  0.61120500  0.85528500  1
  Cu  Cu16  1  0.46821600  0.89064500  0.14570200  1
  Cu  Cu17  1  0.53178400  0.10935500  0.85429800  1
  Cu  Cu18  1  0.10935500  0.53178400  0.35429800  1
  Cu  Cu19  1  0.89064500  0.46821600  0.64570200  1
  Cu  Cu20  1  0.58070400  0.09077500  0.34352100  1
  Cu  Cu21  1  0.41929600  0.90922500  0.65647900  1
  Cu  Cu22  1  0.90922500  0.41929600  0.15647900  1
  Cu  Cu23  1  0.09077500  0.58070400  0.84352100  1
  C  C24  1  0.27897500  0.14515800  0.51382900  1
  C  C25  1  0.72102500  0.85484200  0.48617100  1
  C  C26  1  0.85484200  0.72102500  0.98617100  1
  C  C27  1  0.14515800  0.27897500  0.01382900  1
  C  C28  1  0.32581700  0.27576800  0.18942000  1
  C  C29  1  0.67418300  0.72423200  0.81058000  1
  C  C30  1  0.72423200  0.67418300  0.31058000  1
  C  C31  1  0.27576800  0.32581700  0.68942000  1
  C  C32  1  0.57883400  0.24437000  0.31994600  1
  C  C33  1  0.42116600  0.75563000  0.68005400  1
  C  C34  1  0.75563000  0.42116600  0.18005400  1
  C  C35  1  0.24437000  0.57883400  0.81994600  1
  C  C36  1  0.44232600  0.30900800  0.06477900  1
  C  C37  1  0.55767400  0.69099200  0.93522100  1
  C  C38  1  0.69099200  0.55767400  0.43522100  1
  C  C39  1  0.30900800  0.44232600  0.56477900  1
  C  C40  1  0.14096900  0.10176100  0.32254600  1
  C  C41  1  0.85903100  0.89823900  0.67745400  1
  C  C42  1  0.89823900  0.85903100  0.17745400  1
  C  C43  1  0.10176100  0.14096900  0.82254600  1
  C  C44  1  0.62879000  0.85733500  0.17607300  1
  C  C45  1  0.37121000  0.14266500  0.82392700  1
  C  C46  1  0.14266500  0.37121000  0.32392700  1
  C  C47  1  0.85733500  0.62879000  0.67607300  1
  C  C48  1  0.82422700  0.02058000  0.05347600  1
  C  C49  1  0.17577300  0.97942000  0.94652400  1
  C  C50  1  0.97942000  0.17577300  0.44652400  1
  C  C51  1  0.02058000  0.82422700  0.55347600  1
  C  C52  1  0.42927200  0.96871100  0.06329000  1
  C  C53  1  0.57072800  0.03128900  0.93671000  1
  C  C54  1  0.03128900  0.57072800  0.43671000  1
  C  C55  1  0.96871100  0.42927200  0.56329000  1
  C  C56  1  0.60074500  0.07405200  0.43478100  1
  C  C57  1  0.39925500  0.92594800  0.56521900  1
  C  C58  1  0.92594800  0.39925500  0.06521900  1
  C  C59  1  0.07405200  0.60074500  0.93478100  1
  C  C60  1  0.41979200  0.10775000  0.32333200  1
  C  C61  1  0.58020800  0.89225000  0.67666800  1
  C  C62  1  0.89225000  0.58020800  0.17666800  1
  C  C63  1  0.10775000  0.41979200  0.82333200  1
  C  C64  1  0.46635000  0.43033800  0.19442900  1
  C  C65  1  0.53365000  0.56966200  0.80557100  1
  C  C66  1  0.56966200  0.53365000  0.30557100  1
  C  C67  1  0.43033800  0.46635000  0.69442900  1
  C  C68  1  0.67028700  0.26569700  0.01682300  1
  C  C69  1  0.32971300  0.73430200  0.98317700  1
  C  C70  1  0.73430200  0.32971300  0.48317700  1
  C  C71  1  0.26569700  0.67028700  0.51682300  1
  C  C72  1  0.33485500  0.99646200  0.20419000  1
  C  C73  1  0.66514500  0.00353800  0.79581000  1
  C  C74  1  0.00353800  0.66514500  0.29581000  1
  C  C75  1  0.99646200  0.33485500  0.70419000  1
  C  C76  1  0.71846100  0.94265500  0.30451500  1
  C  C77  1  0.28153900  0.05734500  0.69548500  1
  C  C78  1  0.05734500  0.28153900  0.19548500  1
  C  C79  1  0.94265500  0.71846100  0.80451500  1
  C  C80  1  0.46736900  0.73629400  0.12864800  1
  C  C81  1  0.53263100  0.26370600  0.87135200  1
  C  C82  1  0.26370600  0.53263100  0.37135200  1
  C  C83  1  0.73629400  0.46736900  0.62864800  1
  C  C84  1  0.45662900  0.79146100  0.38003300  1
  C  C85  1  0.54337100  0.20853900  0.61996700  1
  C  C86  1  0.20853900  0.54337100  0.11996700  1
  C  C87  1  0.79146100  0.45662900  0.88003300  1
  C  C88  1  0.03541200  0.00539200  0.13376000  1
  C  C89  1  0.96458800  0.99460800  0.86624000  1
  C  C90  1  0.99460800  0.96458800  0.36624000  1
  C  C91  1  0.00539200  0.03541200  0.63376000  1
  C  C92  1  0.74848900  0.16093100  0.18530700  1
  C  C93  1  0.25151100  0.83906900  0.81469300  1
  C  C94  1  0.83906900  0.25151100  0.31469300  1
  C  C95  1  0.16093100  0.74848900  0.68530700  1
