# generated using pymatgen
data_Cu5NiC2
_symmetry_space_group_name_H-M   'P 1'
_cell_length_a   6.99288708
_cell_length_b   6.99288708
_cell_length_c   6.08547100
_cell_angle_alpha   90.00000000
_cell_angle_beta   90.00000000
_cell_angle_gamma   122.75490440
_symmetry_Int_Tables_number   1
_chemical_formula_structural   Cu5NiC2
_chemical_formula_sum   'Cu10 Ni2 C4'
_cell_volume   250.26461886
_cell_formula_units_Z   2
loop_
 _symmetry_equiv_pos_site_id
 _symmetry_equiv_pos_as_xyz
  1  'x, y, z'
loop_
 _atom_site_type_symbol
 _atom_site_label
 _atom_site_symmetry_multiplicity
 _atom_site_fract_x
 _atom_site_fract_y
 _atom_site_fract_z
 _atom_site_occupancy
  C  C0  1  0.00000000  0.00000000  0.00000000  1
  C  C1  1  0.00000000  0.00000000  0.50000000  1
  C  C2  1  0.20326900  0.79673100  0.75000000  1
  C  C3  1  0.79673100  0.20326900  0.25000000  1
  Ni  Ni4  1  0.64556800  0.35443200  0.75000000  1
  Ni  Ni5  1  0.35443200  0.64556800  0.25000000  1
  Cu  Cu6  1  0.30872900  0.69127100  0.75000000  1
  Cu  Cu7  1  0.69127100  0.30872900  0.25000000  1
  Cu  Cu8  1  0.15625900  0.84374100  0.93748200  1
  Cu  Cu9  1  0.84374100  0.15625900  0.06251800  1
  Cu  Cu10  1  0.15625900  0.84374100  0.56251800  1
  Cu  Cu11  1  0.84374100  0.15625900  0.43748200  1
  Cu  Cu12  1  0.82140500  0.86582600  0.75000000  1
  Cu  Cu13  1  0.86582600  0.82140500  0.25000000  1
  Cu  Cu14  1  0.17859500  0.13417400  0.25000000  1
  Cu  Cu15  1  0.13417400  0.17859500  0.75000000  1
