# generated using pymatgen
data_Cu3Ni3C14
_symmetry_space_group_name_H-M   'P 1'
_cell_length_a   8.16070900
_cell_length_b   8.34221500
_cell_length_c   16.66916326
_cell_angle_alpha   60.52078548
_cell_angle_beta   90.00000000
_cell_angle_gamma   90.00000000
_symmetry_Int_Tables_number   1
_chemical_formula_structural   Cu3Ni3C14
_chemical_formula_sum   'Cu12 Ni12 C56'
_cell_volume   987.89081333
_cell_formula_units_Z   4
loop_
 _symmetry_equiv_pos_site_id
 _symmetry_equiv_pos_as_xyz
  1  'x, y, z'
loop_
 _atom_site_type_symbol
 _atom_site_label
 _atom_site_symmetry_multiplicity
 _atom_site_fract_x
 _atom_site_fract_y
 _atom_site_fract_z
 _atom_site_occupancy
  Ni  Ni0  1  0.66284900  0.66933500  0.26000300  1
  Ni  Ni1  1  0.83075900  0.02130800  0.90476700  1
  Ni  Ni2  1  0.33075900  0.97869200  0.59523300  1
  Ni  Ni3  1  0.16924100  0.97869200  0.09523300  1
  Ni  Ni4  1  0.66924100  0.02130800  0.40476700  1
  Ni  Ni5  1  0.33309300  0.68861300  0.91692500  1
  Ni  Ni6  1  0.83309300  0.31138700  0.58307500  1
  Ni  Ni7  1  0.66690700  0.31138700  0.08307500  1
  Ni  Ni8  1  0.16690700  0.68861300  0.41692500  1
  Ni  Ni9  1  0.83715100  0.66933500  0.76000300  1
  Ni  Ni10  1  0.33715100  0.33066500  0.73999700  1
  Ni  Ni11  1  0.16284900  0.33066500  0.23999700  1
  Cu  Cu12  1  0.27651500  0.66935800  0.26037900  1
  Cu  Cu13  1  0.77651500  0.33064200  0.23962100  1
  Cu  Cu14  1  0.72348500  0.33064200  0.73962100  1
  Cu  Cu15  1  0.22348500  0.66935800  0.76037900  1
  Cu  Cu16  1  0.79267900  0.69587700  0.41491100  1
  Cu  Cu17  1  0.29267900  0.30412300  0.08508900  1
  Cu  Cu18  1  0.20732100  0.30412300  0.58508900  1
  Cu  Cu19  1  0.70732100  0.69587700  0.91491100  1
  Cu  Cu20  1  0.28902900  0.02047700  0.40454300  1
  Cu  Cu21  1  0.78902900  0.97952300  0.09545700  1
  Cu  Cu22  1  0.71097100  0.97952300  0.59545700  1
  Cu  Cu23  1  0.21097100  0.02047700  0.90454300  1
  C  C24  1  0.02822800  0.66208700  0.59422000  1
  C  C25  1  0.47177200  0.66208700  0.09422000  1
  C  C26  1  0.97177200  0.33791300  0.40578000  1
  C  C27  1  0.52822800  0.33791300  0.90578000  1
  C  C28  1  0.96467100  0.33213400  0.92877300  1
  C  C29  1  0.46467100  0.66786600  0.57122700  1
  C  C30  1  0.03532900  0.66786600  0.07122700  1
  C  C31  1  0.53532900  0.33213400  0.42877300  1
  C  C32  1  0.32929800  0.20245700  0.54469600  1
  C  C33  1  0.46757800  0.60724400  0.29661100  1
  C  C34  1  0.96757800  0.39275600  0.20338900  1
  C  C35  1  0.53242200  0.39275600  0.70338900  1
  C  C36  1  0.03242200  0.60724400  0.79661100  1
  C  C37  1  0.97991100  0.72299100  0.44605500  1
  C  C38  1  0.47991100  0.27700900  0.05394500  1
  C  C39  1  0.02008900  0.27700900  0.55394500  1
  C  C40  1  0.52008900  0.72299100  0.94605500  1
  C  C41  1  0.47778900  0.10340000  0.39485600  1
  C  C42  1  0.97778900  0.89660000  0.10514400  1
  C  C43  1  0.52221100  0.89660000  0.60514400  1
  C  C44  1  0.33290400  0.20253800  0.85339400  1
  C  C45  1  0.83290400  0.79746200  0.64660600  1
  C  C46  1  0.66709600  0.79746200  0.14660600  1
  C  C47  1  0.16709600  0.20253800  0.35339400  1
  C  C48  1  0.82929800  0.79754300  0.95530400  1
  C  C49  1  0.02221100  0.10340000  0.89485600  1
  C  C50  1  0.17070200  0.20245700  0.04469600  1
  C  C51  1  0.67070200  0.79754300  0.45530400  1
  C  C52  1  0.74906900  0.08930100  0.98010900  1
  C  C53  1  0.84270500  0.41235900  0.64669200  1
  C  C54  1  0.65729500  0.41235900  0.14669200  1
  C  C55  1  0.15729500  0.58764100  0.35330800  1
  C  C56  1  0.77025900  0.11870500  0.31523300  1
  C  C57  1  0.27025900  0.88129500  0.18476700  1
  C  C58  1  0.22974100  0.88129500  0.68476700  1
  C  C59  1  0.72974100  0.11870500  0.81523300  1
  C  C60  1  0.77095400  0.74490700  0.31046600  1
  C  C61  1  0.27095400  0.25509300  0.18953400  1
  C  C62  1  0.22904600  0.25509300  0.68953400  1
  C  C63  1  0.72904600  0.74490700  0.81046600  1
  C  C64  1  0.28004500  0.86126400  0.37801400  1
  C  C65  1  0.78004500  0.13873600  0.12198600  1
  C  C66  1  0.71995500  0.13873600  0.62198600  1
  C  C67  1  0.21995500  0.86126400  0.87801400  1
  C  C68  1  0.72873200  0.44768600  0.29557600  1
  C  C69  1  0.22873200  0.55231400  0.20442400  1
  C  C70  1  0.27126800  0.55231400  0.70442400  1
  C  C71  1  0.77126800  0.44768600  0.79557600  1
  C  C72  1  0.75904000  0.46606800  0.47686800  1
  C  C73  1  0.25904000  0.53393200  0.02313200  1
  C  C74  1  0.24096000  0.53393200  0.52313200  1
  C  C75  1  0.74096000  0.46606800  0.97686800  1
  C  C76  1  0.75093100  0.08930100  0.48010900  1
  C  C77  1  0.25093100  0.91069900  0.01989100  1
  C  C78  1  0.24906900  0.91069900  0.51989100  1
  C  C79  1  0.34270500  0.58764100  0.85330800  1
