# generated using pymatgen
data_Cu2Ni2C
_symmetry_space_group_name_H-M   'P 1'
_cell_length_a   7.10440477
_cell_length_b   7.10440477
_cell_length_c   8.12243898
_cell_angle_alpha   79.37416548
_cell_angle_beta   79.37416548
_cell_angle_gamma   118.39342328
_symmetry_Int_Tables_number   1
_chemical_formula_structural   Cu2Ni2C
_chemical_formula_sum   'Cu4 Ni4 C2'
_cell_volume   336.45186296
_cell_formula_units_Z   2
loop_
 _symmetry_equiv_pos_site_id
 _symmetry_equiv_pos_as_xyz
  1  'x, y, z'
loop_
 _atom_site_type_symbol
 _atom_site_label
 _atom_site_symmetry_multiplicity
 _atom_site_fract_x
 _atom_site_fract_y
 _atom_site_fract_z
 _atom_site_occupancy
  C  C0  1  0.87827700  0.12172300  0.00000000  1
  C  C1  1  0.12172300  0.87827700  0.00000000  1
  Ni  Ni2  1  0.87082200  0.87082200  0.29161000  1
  Ni  Ni3  1  0.12917800  0.12917800  0.70839000  1
  Ni  Ni4  1  0.67926800  0.67926800  0.11711700  1
  Ni  Ni5  1  0.32073200  0.32073200  0.88288300  1
  Cu  Cu6  1  0.43062000  0.02227700  0.21890000  1
  Cu  Cu7  1  0.56938000  0.97772300  0.78110000  1
  Cu  Cu8  1  0.97772300  0.56938000  0.78110000  1
  Cu  Cu9  1  0.02227700  0.43062000  0.21890000  1
