# generated using pymatgen
data_Cu11(NiC3)2
_symmetry_space_group_name_H-M   'P 1'
_cell_length_a   8.16383900
_cell_length_b   9.79072371
_cell_length_c   10.64206823
_cell_angle_alpha   110.46528089
_cell_angle_beta   108.36793037
_cell_angle_gamma   97.41372580
_symmetry_Int_Tables_number   1
_chemical_formula_structural   Cu11(NiC3)2
_chemical_formula_sum   'Cu22 Ni4 C12'
_cell_volume   728.44514736
_cell_formula_units_Z   2
loop_
 _symmetry_equiv_pos_site_id
 _symmetry_equiv_pos_as_xyz
  1  'x, y, z'
loop_
 _atom_site_type_symbol
 _atom_site_label
 _atom_site_symmetry_multiplicity
 _atom_site_fract_x
 _atom_site_fract_y
 _atom_site_fract_z
 _atom_site_occupancy
  C  C0  1  0.38115000  0.61357700  0.61957000  1
  C  C1  1  0.61885000  0.38642300  0.38043000  1
  C  C2  1  0.12443100  0.87626500  0.88090700  1
  C  C3  1  0.87556900  0.12373500  0.11909300  1
  C  C4  1  0.99799000  0.76569300  0.49436200  1
  C  C5  1  0.00201000  0.23430700  0.50563800  1
  C  C6  1  0.20054800  0.53209300  0.23744400  1
  C  C7  1  0.79945200  0.46790700  0.76255600  1
  C  C8  1  0.74365200  0.99106600  0.70841800  1
  C  C9  1  0.25634800  0.00893400  0.29158200  1
  C  C10  1  0.53276500  0.74803900  0.05309500  1
  C  C11  1  0.46723500  0.25196100  0.94690500  1
  Ni  Ni12  1  0.90382200  0.63047300  0.12703900  1
  Ni  Ni13  1  0.09617800  0.36952700  0.87296100  1
  Ni  Ni14  1  0.63966000  0.89883000  0.39184900  1
  Ni  Ni15  1  0.36034000  0.10117000  0.60815100  1
  Cu  Cu16  1  0.69218400  0.92530000  0.08309000  1
  Cu  Cu17  1  0.30781600  0.07470000  0.91691000  1
  Cu  Cu18  1  0.05607700  0.33927100  0.17954100  1
  Cu  Cu19  1  0.94392300  0.66072900  0.82045900  1
  Cu  Cu20  1  0.56631400  0.82188400  0.66667900  1
  Cu  Cu21  1  0.43368600  0.17811600  0.33332100  1
  Cu  Cu22  1  0.16996800  0.75688700  0.66532000  1
  Cu  Cu23  1  0.83003200  0.24311300  0.33468000  1
  Cu  Cu24  1  0.92725300  0.89292900  0.66422600  1
  Cu  Cu25  1  0.07274700  0.10707100  0.33577400  1
  Cu  Cu26  1  0.82034800  0.59088000  0.43768800  1
  Cu  Cu27  1  0.17965200  0.40912000  0.56231200  1
  Cu  Cu28  1  0.16761400  0.64319500  0.41400000  1
  Cu  Cu29  1  0.83238600  0.35680500  0.58600000  1
  Cu  Cu30  1  0.89191900  0.00857800  0.89707500  1
  Cu  Cu31  1  0.10808100  0.99142200  0.10292500  1
  Cu  Cu32  1  0.40174500  0.50893800  0.38188000  1
  Cu  Cu33  1  0.59825500  0.49106200  0.61812000  1
  Cu  Cu34  1  0.33108000  0.82502200  0.04829400  1
  Cu  Cu35  1  0.66892000  0.17497800  0.95170600  1
  Cu  Cu36  1  0.46571000  0.65103300  0.84780900  1
  Cu  Cu37  1  0.53429000  0.34896700  0.15219100  1
