# generated using pymatgen
data_Cu3NiC10
_symmetry_space_group_name_H-M   'P 1'
_cell_length_a   13.27929773
_cell_length_b   13.27929773
_cell_length_c   13.27929773
_cell_angle_alpha   156.63621680
_cell_angle_beta   156.63485096
_cell_angle_gamma   33.27973358
_symmetry_Int_Tables_number   1
_chemical_formula_structural   Cu3NiC10
_chemical_formula_sum   'Cu6 Ni2 C20'
_cell_volume   367.94821467
_cell_formula_units_Z   2
loop_
 _symmetry_equiv_pos_site_id
 _symmetry_equiv_pos_as_xyz
  1  'x, y, z'
loop_
 _atom_site_type_symbol
 _atom_site_label
 _atom_site_symmetry_multiplicity
 _atom_site_fract_x
 _atom_site_fract_y
 _atom_site_fract_z
 _atom_site_occupancy
  Ni  Ni0  1  0.20105000  0.70105000  0.50000000  1
  Ni  Ni1  1  0.70105000  0.20105000  0.50000000  1
  Cu  Cu2  1  0.45207800  0.45207800  0.00000000  1
  Cu  Cu3  1  0.95207800  0.95207800  0.00000000  1
  Cu  Cu4  1  0.30056000  0.30056000  0.00000000  1
  Cu  Cu5  1  0.80056000  0.80056000  0.00000000  1
  Cu  Cu6  1  0.04792600  0.54792600  0.50000000  1
  Cu  Cu7  1  0.54792600  0.04792600  0.50000000  1
  C  C8  1  0.37672600  0.87672600  0.50000000  1
  C  C9  1  0.87672600  0.37672600  0.50000000  1
  C  C10  1  0.62298200  0.62298200  0.00000000  1
  C  C11  1  0.12298200  0.12298200  0.00000000  1
  C  C12  1  0.81590000  0.31590500  0.88850400  1
  C  C13  1  0.31590000  0.42739600  0.49999500  1
  C  C14  1  0.05900000  0.05900400  0.36545200  1
  C  C15  1  0.55900000  0.19354700  0.99999500  1
  C  C16  1  0.69355200  0.69354700  0.63454800  1
  C  C17  1  0.19355200  0.55900400  0.00000500  1
  C  C18  1  0.42740100  0.92739600  0.11149600  1
  C  C19  1  0.92740100  0.81590500  0.50000500  1
  C  C20  1  0.29557600  0.79557600  0.50000000  1
  C  C21  1  0.79557600  0.29557600  0.50000000  1
  C  C22  1  0.54109700  0.54109700  0.00000000  1
  C  C23  1  0.04109700  0.04109700  0.00000000  1
  C  C24  1  0.20762000  0.20762000  0.00000000  1
  C  C25  1  0.70762000  0.70762000  0.00000000  1
  C  C26  1  0.95853300  0.45853300  0.50000000  1
  C  C27  1  0.45853300  0.95853300  0.50000000  1
