# generated using pymatgen
data_Cu3(NiC16)2
_symmetry_space_group_name_H-M   'P 1'
_cell_length_a   8.69399603
_cell_length_b   8.69059271
_cell_length_c   8.78123841
_cell_angle_alpha   59.99283937
_cell_angle_beta   63.62633335
_cell_angle_gamma   60.31109212
_symmetry_Int_Tables_number   1
_chemical_formula_structural   Cu3(NiC16)2
_chemical_formula_sum   'Cu3 Ni2 C32'
_cell_volume   481.79066597
_cell_formula_units_Z   1
loop_
 _symmetry_equiv_pos_site_id
 _symmetry_equiv_pos_as_xyz
  1  'x, y, z'
loop_
 _atom_site_type_symbol
 _atom_site_label
 _atom_site_symmetry_multiplicity
 _atom_site_fract_x
 _atom_site_fract_y
 _atom_site_fract_z
 _atom_site_occupancy
  C  C0  1  0.63643400  0.12578700  0.10399600  1
  C  C1  1  0.26943700  0.23978200  0.25137000  1
  Ni  Ni2  1  0.02955500  0.99431800  0.98519700  1
  Ni  Ni3  1  0.49307700  0.50178700  0.51206200  1
  Cu  Cu4  1  0.06464100  0.64369800  0.64802300  1
  Cu  Cu5  1  0.46519900  0.84378200  0.83935300  1
  Cu  Cu6  1  0.89458000  0.36686400  0.37205700  1
  C  C7  1  0.27253800  0.24982600  0.54414500  1
  C  C8  1  0.26312900  0.94435300  0.24440400  1
  C  C9  1  0.25312400  0.55159500  0.95409400  1
  C  C10  1  0.78113100  0.44557200  0.02464600  1
  C  C11  1  0.76936600  0.03290900  0.74150100  1
  C  C12  1  0.75119500  0.74539200  0.46041000  1
  C  C13  1  0.09721800  0.11734800  0.29845600  1
  C  C14  1  0.09394000  0.49250300  0.12295300  1
  C  C15  1  0.10052900  0.30369200  0.48106000  1
  C  C16  1  0.26804500  0.08381400  0.72574400  1
  C  C17  1  0.43288600  0.20328300  0.37899100  1
  C  C18  1  0.27816200  0.41480600  0.56150700  1
  C  C19  1  0.24452800  0.93560500  0.08380700  1
  C  C20  1  0.28092800  0.75697900  0.40983400  1
  C  C21  1  0.59831900  0.59215600  0.97916000  1
  C  C22  1  0.25799800  0.56608200  0.77135200  1
  C  C23  1  0.81578500  0.24653600  0.03745800  1
  C  C24  1  0.59707300  0.98183300  0.82236900  1
  C  C25  1  0.42932500  0.00580700  0.18774700  1
  C  C26  1  0.24405400  0.74142800  0.93683400  1
  C  C27  1  0.75760000  0.43276000  0.21785700  1
  C  C28  1  0.42395400  0.37607200  0.01550400  1
  C  C29  1  0.72445800  0.23863300  0.58717700  1
  C  C30  1  0.81260900  0.04303200  0.88949200  1
  C  C31  1  0.71893600  0.58578100  0.44799400  1
  C  C32  1  0.58109600  0.81301900  0.60505900  1
  C  C33  1  0.77488500  0.89754600  0.27128600  1
  C  C34  1  0.92910700  0.65481300  0.51764100  1
  C  C35  1  0.94527100  0.50364300  0.88592300  1
  C  C36  1  0.93894900  0.89747400  0.65384800  1
