# generated using pymatgen
data_Cu3(Ni10C3)2
_symmetry_space_group_name_H-M   'P 1'
_cell_length_a   8.34246843
_cell_length_b   8.34246843
_cell_length_c   8.34246843
_cell_angle_alpha   60.00000000
_cell_angle_beta   60.00000000
_cell_angle_gamma   60.00000000
_symmetry_Int_Tables_number   1
_chemical_formula_structural   Cu3(Ni10C3)2
_chemical_formula_sum   'Cu3 Ni20 C6'
_cell_volume   410.55251603
_cell_formula_units_Z   1
loop_
 _symmetry_equiv_pos_site_id
 _symmetry_equiv_pos_as_xyz
  1  'x, y, z'
loop_
 _atom_site_type_symbol
 _atom_site_label
 _atom_site_symmetry_multiplicity
 _atom_site_fract_x
 _atom_site_fract_y
 _atom_site_fract_z
 _atom_site_occupancy
  Ni  Ni0  1  0.37632100  0.37632100  0.37632100  1
  Ni  Ni1  1  0.62367900  0.62367900  0.62367900  1
  Ni  Ni2  1  0.37632100  0.37632100  0.87103800  1
  Ni  Ni3  1  0.37632100  0.87103800  0.37632100  1
  Ni  Ni4  1  0.62367900  0.62367900  0.12896200  1
  Ni  Ni5  1  0.62367900  0.12896200  0.62367900  1
  Ni  Ni6  1  0.87103800  0.37632100  0.37632100  1
  Ni  Ni7  1  0.12896200  0.62367900  0.62367900  1
  Ni  Ni8  1  0.33463300  0.00000000  0.00000000  1
  Ni  Ni9  1  0.66536700  0.00000000  0.00000000  1
  Ni  Ni10  1  0.00000000  0.33463300  0.66536700  1
  Ni  Ni11  1  0.00000000  0.66536700  0.33463300  1
  Ni  Ni12  1  0.00000000  0.33463300  0.00000000  1
  Ni  Ni13  1  0.66536700  0.00000000  0.33463300  1
  Ni  Ni14  1  0.00000000  0.66536700  0.00000000  1
  Ni  Ni15  1  0.33463300  0.00000000  0.66536700  1
  Ni  Ni16  1  0.00000000  0.00000000  0.33463300  1
  Ni  Ni17  1  0.00000000  0.00000000  0.66536700  1
  Ni  Ni18  1  0.66536700  0.33463300  0.00000000  1
  Ni  Ni19  1  0.33463300  0.66536700  0.00000000  1
  Cu  Cu20  1  0.25000000  0.25000000  0.25000000  1
  Cu  Cu21  1  0.75000000  0.75000000  0.75000000  1
  Cu  Cu22  1  0.00000000  0.00000000  0.00000000  1
  C  C23  1  0.71970300  0.28029700  0.28029700  1
  C  C24  1  0.28029700  0.71970300  0.71970300  1
  C  C25  1  0.28029700  0.71970300  0.28029700  1
  C  C26  1  0.71970300  0.28029700  0.71970300  1
  C  C27  1  0.28029700  0.28029700  0.71970300  1
  C  C28  1  0.71970300  0.71970300  0.28029700  1
