# generated using pymatgen
data_Cu18Ni12C67
_symmetry_space_group_name_H-M   'P 1'
_cell_length_a   11.76635944
_cell_length_b   11.74766349
_cell_length_c   11.74766286
_cell_angle_alpha   109.43896190
_cell_angle_beta   109.50345994
_cell_angle_gamma   109.50346311
_symmetry_Int_Tables_number   1
_chemical_formula_structural   Cu18Ni12C67
_chemical_formula_sum   'Cu18 Ni12 C67'
_cell_volume   1249.54018137
_cell_formula_units_Z   1
loop_
 _symmetry_equiv_pos_site_id
 _symmetry_equiv_pos_as_xyz
  1  'x, y, z'
loop_
 _atom_site_type_symbol
 _atom_site_label
 _atom_site_symmetry_multiplicity
 _atom_site_fract_x
 _atom_site_fract_y
 _atom_site_fract_z
 _atom_site_occupancy
  C  C0  1  0.98981700  0.31375000  0.57397400  1
  C  C1  1  0.98981700  0.57397400  0.31375000  1
  C  C2  1  0.32490700  0.00000000  0.57356600  1
  C  C3  1  0.25483000  0.66884800  0.66884800  1
  C  C4  1  0.89187600  0.00000000  0.00000000  1
  C  C5  1  0.41584300  0.73977700  0.42602700  1
  C  C6  1  0.41584300  0.42602700  0.73977700  1
  C  C7  1  0.32490700  0.57356600  0.00000000  1
  C  C8  1  0.67606700  0.68625000  0.26022300  1
  C  C9  1  0.67606700  0.26022300  0.68625000  1
  C  C10  1  0.75134100  0.42643400  0.42643400  1
  C  C11  1  0.58598200  0.00000000  0.33115200  1
  C  C12  1  0.58598200  0.33115200  0.00000000  1
  Ni  Ni13  1  0.00164900  0.84168100  0.24589700  1
  Ni  Ni14  1  0.00164900  0.24589700  0.84168100  1
  Ni  Ni15  1  0.24709200  0.00000000  0.83733900  1
  Ni  Ni16  1  0.15996800  0.15831900  0.40421600  1
  Ni  Ni17  1  0.15996800  0.40421600  0.15831900  1
  Ni  Ni18  1  0.24709200  0.83733900  0.00000000  1
  Ni  Ni19  1  0.58515200  0.74718200  0.74718200  1
  Ni  Ni20  1  0.75575200  0.59578400  0.75410300  1
  Ni  Ni21  1  0.75575200  0.75410300  0.59578400  1
  Ni  Ni22  1  0.40975400  0.16266100  0.16266100  1
  Ni  Ni23  1  0.83797000  0.00000000  0.25281800  1
  Ni  Ni24  1  0.83797000  0.25281800  0.00000000  1
  Cu  Cu25  1  0.00332000  0.69810800  0.69810800  1
  Cu  Cu26  1  0.99973100  0.53836900  0.83907400  1
  Cu  Cu27  1  0.99973100  0.83907400  0.53836900  1
  Cu  Cu28  1  0.16065700  0.16092600  0.69929500  1
  Cu  Cu29  1  0.16065700  0.69929500  0.16092600  1
  Cu  Cu30  1  0.53991800  0.00000000  0.84097700  1
  Cu  Cu31  1  0.30112100  0.45778500  0.45778500  1
  Cu  Cu32  1  0.30521200  0.00000000  0.30189200  1
  Cu  Cu33  1  0.30521200  0.30189200  0.00000000  1
  Cu  Cu34  1  0.46136000  0.30070500  0.46163100  1
  Cu  Cu35  1  0.46136000  0.46163100  0.30070500  1
  Cu  Cu36  1  0.53991800  0.84097700  0.00000000  1
  Cu  Cu37  1  0.84333500  0.00000000  0.54221500  1
  Cu  Cu38  1  0.70450000  0.00000000  0.70516600  1
  Cu  Cu39  1  0.70450000  0.70516600  0.00000000  1
  Cu  Cu40  1  0.69894100  0.15902300  0.15902300  1
  Cu  Cu41  1  0.84333500  0.54221500  0.00000000  1
  Cu  Cu42  1  0.99933400  0.29483400  0.29483400  1
  C  C43  1  0.00378400  0.69651500  0.54894700  1
  C  C44  1  0.00378400  0.54894700  0.69651500  1
  C  C45  1  0.15142700  0.00000000  0.66958200  1
  C  C46  1  0.15688500  0.84014600  0.84014600  1
  C  C47  1  0.16783300  0.00000000  0.32716100  1
  C  C48  1  0.00317900  0.68102700  0.14917600  1
  C  C49  1  0.00317900  0.14917600  0.68102700  1
  C  C50  1  0.14216000  0.44136600  0.44136600  1
  C  C51  1  0.99694800  0.14467000  0.28818000  1
  C  C52  1  0.99694800  0.28818000  0.14467000  1
  C  C53  1  0.30726900  0.85243200  0.30348500  1
  C  C54  1  0.30726900  0.30348500  0.85243200  1
  C  C55  1  0.15142700  0.66958200  0.00000000  1
  C  C56  1  0.31673900  0.00000000  0.15985400  1
  C  C57  1  0.53064500  0.85421900  0.85421900  1
  C  C58  1  0.41846300  0.60771200  0.60771200  1
  C  C59  1  0.16783300  0.32716100  0.00000000  1
  C  C60  1  0.32215100  0.31897300  0.46814800  1
  C  C61  1  0.32215100  0.46814800  0.31897300  1
  C  C62  1  0.70079400  0.00000000  0.55863400  1
  C  C63  1  0.70876800  0.85649100  0.71182000  1
  C  C64  1  0.70876800  0.71182000  0.85649100  1
  C  C65  1  0.45483700  0.45105300  0.14756800  1
  C  C66  1  0.45483700  0.14756800  0.45105300  1
  C  C67  1  0.48184600  0.33041800  0.33041800  1
  C  C68  1  0.31673900  0.15985400  0.00000000  1
  C  C69  1  0.55505700  0.00000000  0.69952600  1
  C  C70  1  0.55505700  0.69952600  0.00000000  1
  C  C71  1  0.81075100  0.00000000  0.39228800  1
  C  C72  1  0.84067100  0.67283900  0.67283900  1
  C  C73  1  0.85400300  0.85082400  0.53185200  1
  C  C74  1  0.85400300  0.53185200  0.85082400  1
  C  C75  1  0.70079400  0.55863400  0.00000000  1
  C  C76  1  0.85227800  0.14350900  0.85533000  1
  C  C77  1  0.85227800  0.85533000  0.14350900  1
  C  C78  1  0.67642600  0.00000000  0.14578100  1
  C  C79  1  0.67642600  0.14578100  0.00000000  1
  C  C80  1  0.85553200  0.30047400  0.30047400  1
  C  C81  1  0.81075100  0.39228800  0.00000000  1
  C  C82  1  0.24924500  0.75282100  0.49680200  1
  C  C83  1  0.24924500  0.49680200  0.75282100  1
  C  C84  1  0.17772100  0.57428000  0.19156900  1
  C  C85  1  0.17772100  0.19156900  0.57428000  1
  C  C86  1  0.39206900  0.00000000  0.81293100  1
  C  C87  1  0.39206900  0.81293100  0.00000000  1
  C  C88  1  0.49642400  0.24717900  0.74398200  1
  C  C89  1  0.49642400  0.74398200  0.24717900  1
  C  C90  1  0.60344000  0.61729000  0.42572000  1
  C  C91  1  0.60344000  0.42572000  0.61729000  1
  C  C92  1  0.57913800  0.18706900  0.18706900  1
  C  C93  1  0.75244300  0.50319800  0.25601800  1
  C  C94  1  0.75244300  0.25601800  0.50319800  1
  C  C95  1  0.98615100  0.80843100  0.38271000  1
  C  C96  1  0.98615100  0.38271000  0.80843100  1
