# generated using pymatgen
data_CuNi3C4
_symmetry_space_group_name_H-M   'P 1'
_cell_length_a   4.60082600
_cell_length_b   18.70892500
_cell_length_c   19.27797232
_cell_angle_alpha   59.14358099
_cell_angle_beta   90.00000000
_cell_angle_gamma   90.00000000
_symmetry_Int_Tables_number   1
_chemical_formula_structural   CuNi3C4
_chemical_formula_sum   'Cu8 Ni24 C32'
_cell_volume   1424.50398355
_cell_formula_units_Z   8
loop_
 _symmetry_equiv_pos_site_id
 _symmetry_equiv_pos_as_xyz
  1  'x, y, z'
loop_
 _atom_site_type_symbol
 _atom_site_label
 _atom_site_symmetry_multiplicity
 _atom_site_fract_x
 _atom_site_fract_y
 _atom_site_fract_z
 _atom_site_occupancy
  Ni  Ni0  1  0.33739600  0.98513700  0.67203000  1
  Ni  Ni1  1  0.66260400  0.01486300  0.32797000  1
  Ni  Ni2  1  0.83739600  0.01486300  0.82797000  1
  Ni  Ni3  1  0.16260400  0.98513700  0.17203000  1
  Ni  Ni4  1  0.83122500  0.67753000  0.54550200  1
  Ni  Ni5  1  0.16877500  0.32247000  0.45449800  1
  Ni  Ni6  1  0.33122500  0.32247000  0.95449800  1
  Ni  Ni7  1  0.66877500  0.67753000  0.04550200  1
  Ni  Ni8  1  0.12968000  0.60156900  0.95395100  1
  Ni  Ni9  1  0.87032000  0.39843100  0.04604900  1
  Ni  Ni10  1  0.62968000  0.39843100  0.54604900  1
  Ni  Ni11  1  0.37032000  0.60156900  0.45395100  1
  Ni  Ni12  1  0.82304900  0.82307000  0.72288500  1
  Ni  Ni13  1  0.17695100  0.17693000  0.27711500  1
  Ni  Ni14  1  0.32304900  0.17693000  0.77711500  1
  Ni  Ni15  1  0.67695100  0.82307000  0.22288500  1
  Ni  Ni16  1  0.36369000  0.89874400  0.55519900  1
  Ni  Ni17  1  0.63631000  0.10125600  0.44480100  1
  Ni  Ni18  1  0.86369000  0.10125600  0.94480100  1
  Ni  Ni19  1  0.13631000  0.89874400  0.05519900  1
  Ni  Ni20  1  0.34481000  0.51606100  0.65724600  1
  Ni  Ni21  1  0.65519000  0.48393900  0.34275400  1
  Ni  Ni22  1  0.84481000  0.48393900  0.84275400  1
  Ni  Ni23  1  0.15519000  0.51606100  0.15724600  1
  Cu  Cu24  1  0.23468800  0.65846000  0.72608900  1
  Cu  Cu25  1  0.76531200  0.34154000  0.27391100  1
  Cu  Cu26  1  0.73468800  0.34154000  0.77391100  1
  Cu  Cu27  1  0.26531200  0.65846000  0.22608900  1
  Cu  Cu28  1  0.22916500  0.84078300  0.88359900  1
  Cu  Cu29  1  0.77083500  0.15921700  0.11640100  1
  Cu  Cu30  1  0.72916500  0.15921700  0.61640100  1
  Cu  Cu31  1  0.27083500  0.84078300  0.38359900  1
  C  C32  1  0.23676500  0.86950000  0.68204600  1
  C  C33  1  0.76323500  0.13050000  0.31795400  1
  C  C34  1  0.73676500  0.13050000  0.81795400  1
  C  C35  1  0.26323500  0.86950000  0.18204600  1
  C  C36  1  0.24632700  0.35544500  0.53669400  1
  C  C37  1  0.75367300  0.64455500  0.46330600  1
  C  C38  1  0.74632700  0.64455500  0.96330600  1
  C  C39  1  0.25367300  0.35544500  0.03669400  1
  C  C40  1  0.37412400  0.48957500  0.56429600  1
  C  C41  1  0.62587600  0.51042500  0.43570400  1
  C  C42  1  0.87412400  0.51042500  0.93570400  1
  C  C43  1  0.12587600  0.48957500  0.06429600  1
  C  C44  1  0.74337400  0.85466600  0.60835200  1
  C  C45  1  0.25662600  0.14533400  0.39164800  1
  C  C46  1  0.24337400  0.14533400  0.89164800  1
  C  C47  1  0.75662600  0.85466600  0.10835200  1
  C  C48  1  0.74065900  0.93920000  0.69998300  1
  C  C49  1  0.25934100  0.06080000  0.30001700  1
  C  C50  1  0.24065900  0.06080000  0.80001700  1
  C  C51  1  0.75934100  0.93920000  0.19998300  1
  C  C52  1  0.87579300  0.98904000  0.94667100  1
  C  C53  1  0.12420700  0.01096000  0.05332900  1
  C  C54  1  0.37579300  0.01096000  0.55332900  1
  C  C55  1  0.62420700  0.98904000  0.44667100  1
  C  C56  1  0.24644900  0.63174200  0.55190300  1
  C  C57  1  0.75355100  0.36825800  0.44809700  1
  C  C58  1  0.74644900  0.36825800  0.94809700  1
  C  C59  1  0.25355100  0.63174200  0.05190300  1
  C  C60  1  0.24835700  0.43795300  0.86067700  1
  C  C61  1  0.75164300  0.56204700  0.13932300  1
  C  C62  1  0.74835700  0.56204700  0.63932300  1
  C  C63  1  0.25164300  0.43795300  0.36067700  1
