# generated using pymatgen
data_CuNi2
_symmetry_space_group_name_H-M   'P 1'
_cell_length_a   6.00582900
_cell_length_b   6.00582900
_cell_length_c   6.00582900
_cell_angle_alpha   90.00000000
_cell_angle_beta   90.00000000
_cell_angle_gamma   90.00000000
_symmetry_Int_Tables_number   1
_chemical_formula_structural   CuNi2
_chemical_formula_sum   'Cu4 Ni8'
_cell_volume   216.63014379
_cell_formula_units_Z   4
loop_
 _symmetry_equiv_pos_site_id
 _symmetry_equiv_pos_as_xyz
  1  'x, y, z'
loop_
 _atom_site_type_symbol
 _atom_site_label
 _atom_site_symmetry_multiplicity
 _atom_site_fract_x
 _atom_site_fract_y
 _atom_site_fract_z
 _atom_site_occupancy
  Ni  Ni0  1  0.49829900  0.50170100  0.00170100  1
  Ni  Ni1  1  0.50170100  0.00170100  0.49829900  1
  Ni  Ni2  1  0.00170100  0.49829900  0.50170100  1
  Ni  Ni3  1  0.99829900  0.99829900  0.99829900  1
  Ni  Ni4  1  0.38856200  0.61143800  0.11143800  1
  Ni  Ni5  1  0.61143800  0.11143800  0.38856200  1
  Ni  Ni6  1  0.11143800  0.38856200  0.61143800  1
  Ni  Ni7  1  0.88856200  0.88856200  0.88856200  1
  Cu  Cu8  1  0.61319800  0.38680200  0.88680200  1
  Cu  Cu9  1  0.38680200  0.88680200  0.61319800  1
  Cu  Cu10  1  0.88680200  0.61319800  0.38680200  1
  Cu  Cu11  1  0.11319800  0.11319800  0.11319800  1
