# generated using pymatgen
data_Cu2Ni4C15
_symmetry_space_group_name_H-M   'P 1'
_cell_length_a   5.93883442
_cell_length_b   6.05031815
_cell_length_c   8.48944869
_cell_angle_alpha   90.68871311
_cell_angle_beta   88.20290253
_cell_angle_gamma   89.93150734
_symmetry_Int_Tables_number   1
_chemical_formula_structural   Cu2Ni4C15
_chemical_formula_sum   'Cu2 Ni4 C15'
_cell_volume   304.86905430
_cell_formula_units_Z   1
loop_
 _symmetry_equiv_pos_site_id
 _symmetry_equiv_pos_as_xyz
  1  'x, y, z'
loop_
 _atom_site_type_symbol
 _atom_site_label
 _atom_site_symmetry_multiplicity
 _atom_site_fract_x
 _atom_site_fract_y
 _atom_site_fract_z
 _atom_site_occupancy
  Ni  Ni0  1  0.02626200  0.42853300  0.29222900  1
  Ni  Ni1  1  0.99672700  0.54168200  0.72904100  1
  Ni  Ni2  1  0.50193300  0.95497100  0.24740200  1
  Ni  Ni3  1  0.50170000  0.03686300  0.74587600  1
  C  C4  1  0.86841600  0.60077300  0.05180700  1
  Cu  Cu5  1  0.00459500  0.98865600  0.50069400  1
  Cu  Cu6  1  0.46146600  0.49808900  0.99544200  1
  C  C7  1  0.99227400  0.02023800  0.99943800  1
  C  C8  1  0.51145000  0.49583100  0.49740500  1
  C  C9  1  0.91650700  0.03248600  0.23419500  1
  C  C10  1  0.07823900  0.97646400  0.76910500  1
  C  C11  1  0.59836500  0.53243700  0.26025100  1
  C  C12  1  0.41745300  0.46463400  0.73053000  1
  C  C13  1  0.15097000  0.71441000  0.04539600  1
  C  C14  1  0.82540200  0.30626600  0.96085500  1
  C  C15  1  0.32141100  0.22162100  0.45152700  1
  C  C16  1  0.69460500  0.76620700  0.54977000  1
  C  C17  1  0.28191100  0.17544700  0.04206800  1
  C  C18  1  0.70511600  0.82614100  0.96588100  1
  C  C19  1  0.23356900  0.68443000  0.46560300  1
  C  C20  1  0.78662800  0.30673900  0.53579600  1
