# generated using pymatgen
data_Cu2Ni3C31
_symmetry_space_group_name_H-M   'P 1'
_cell_length_a   14.36431195
_cell_length_b   14.36431195
_cell_length_c   4.39809100
_cell_angle_alpha   90.00000000
_cell_angle_beta   90.00000000
_cell_angle_gamma   120.01436020
_symmetry_Int_Tables_number   1
_chemical_formula_structural   Cu2Ni3C31
_chemical_formula_sum   'Cu2 Ni3 C31'
_cell_volume   785.78120556
_cell_formula_units_Z   1
loop_
 _symmetry_equiv_pos_site_id
 _symmetry_equiv_pos_as_xyz
  1  'x, y, z'
loop_
 _atom_site_type_symbol
 _atom_site_label
 _atom_site_symmetry_multiplicity
 _atom_site_fract_x
 _atom_site_fract_y
 _atom_site_fract_z
 _atom_site_occupancy
  C  C0  1  0.00007000  0.37867300  0.00000000  1
  C  C1  1  0.37867300  0.00007000  0.00000000  1
  C  C2  1  0.61952700  0.61952700  0.00000000  1
  C  C3  1  0.17758200  0.17758200  0.00000000  1
  C  C4  1  0.00228100  0.82276600  0.00000000  1
  C  C5  1  0.82276600  0.00228100  0.00000000  1
  C  C6  1  0.69542400  0.16693200  0.50000000  1
  C  C7  1  0.47134000  0.30433800  0.50000000  1
  C  C8  1  0.83307900  0.52875700  0.50000000  1
  C  C9  1  0.16693200  0.69542400  0.50000000  1
  C  C10  1  0.30433800  0.47134000  0.50000000  1
  C  C11  1  0.52875700  0.83307900  0.50000000  1
  Ni  Ni12  1  0.80913200  0.80913200  0.50000000  1
  Ni  Ni13  1  0.66660500  0.33326700  0.00000000  1
  Ni  Ni14  1  0.33326700  0.66660500  0.00000000  1
  Cu  Cu15  1  0.00007000  0.19073300  0.50000000  1
  Cu  Cu16  1  0.19073300  0.00007000  0.50000000  1
  C  C17  1  0.80886900  0.18463500  0.00000000  1
  C  C18  1  0.37547800  0.19114300  0.00000000  1
  C  C19  1  0.81571200  0.62407300  0.00000000  1
  C  C20  1  0.18463500  0.80886900  0.00000000  1
  C  C21  1  0.19114300  0.37547800  0.00000000  1
  C  C22  1  0.62407300  0.81571200  0.00000000  1
  C  C23  1  0.56563800  0.00006800  0.00000000  1
  C  C24  1  0.43400400  0.43400400  0.00000000  1
  C  C25  1  0.00006800  0.56563800  0.00000000  1
  C  C26  1  0.00028400  0.00028400  0.00000000  1
  C  C27  1  0.72272200  0.00029100  0.50000000  1
  C  C28  1  0.27702500  0.27702500  0.50000000  1
  C  C29  1  0.00029100  0.72272200  0.50000000  1
  C  C30  1  0.87562100  0.36640200  0.50000000  1
  C  C31  1  0.49085500  0.12438700  0.50000000  1
  C  C32  1  0.63333800  0.50877700  0.50000000  1
  C  C33  1  0.36640200  0.87562100  0.50000000  1
  C  C34  1  0.12438700  0.49085500  0.50000000  1
  C  C35  1  0.50877700  0.63333800  0.50000000  1
