# generated using pymatgen
data_Cu(Ni4C29)2
_symmetry_space_group_name_H-M   'P 1'
_cell_length_a   13.62104928
_cell_length_b   13.61973149
_cell_length_c   14.33487337
_cell_angle_alpha   89.99454309
_cell_angle_beta   90.01091271
_cell_angle_gamma   120.00319926
_symmetry_Int_Tables_number   1
_chemical_formula_structural   Cu(Ni4C29)2
_chemical_formula_sum   'Cu2 Ni16 C116'
_cell_volume   2302.97695882
_cell_formula_units_Z   2
loop_
 _symmetry_equiv_pos_site_id
 _symmetry_equiv_pos_as_xyz
  1  'x, y, z'
loop_
 _atom_site_type_symbol
 _atom_site_label
 _atom_site_symmetry_multiplicity
 _atom_site_fract_x
 _atom_site_fract_y
 _atom_site_fract_z
 _atom_site_occupancy
  Ni  Ni0  1  0.59096863  0.40846181  0.29640469  1
  Ni  Ni1  1  0.81739375  0.40900538  0.29639336  1
  Ni  Ni2  1  0.59146064  0.18256351  0.29641883  1
  Ni  Ni3  1  0.18250682  0.59153819  0.79640469  1
  Ni  Ni4  1  0.40838837  0.59099462  0.79639336  1
  Ni  Ni5  1  0.40889713  0.81743649  0.79641883  1
  Ni  Ni6  1  0.53474616  0.76737359  0.44201814  1
  Ni  Ni7  1  0.23259338  0.46518519  0.44200066  1
  Ni  Ni8  1  0.23256318  0.76734108  0.44203873  1
  Ni  Ni9  1  0.76737257  0.23262641  0.94201814  1
  Ni  Ni10  1  0.76740819  0.53481481  0.94200066  1
  Ni  Ni11  1  0.46522210  0.23265892  0.94203873  1
  Ni  Ni12  1  0.99945095  0.99954020  0.06974888  1
  Ni  Ni13  1  0.99991075  0.00045980  0.56974888  1
  Ni  Ni14  1  0.33331433  0.66666601  0.59181260  1
  Ni  Ni15  1  0.66664832  0.33333399  0.09181260  1
  Cu  Cu16  1  0.33332403  0.66668972  0.98852990  1
  Cu  Cu17  1  0.66663431  0.33331028  0.48852990  1
  C  C18  1  0.67131032  0.60063391  0.49525467  1
  C  C19  1  0.92930145  0.32868869  0.49520948  1
  C  C20  1  0.39938755  0.07069603  0.49524275  1
  C  C21  1  0.07067641  0.39936609  0.99525467  1
  C  C22  1  0.60061275  0.67131131  0.99520948  1
  C  C23  1  0.32869152  0.92930397  0.99524275  1
  C  C24  1  0.92924137  0.60131170  0.49495874  1
  C  C25  1  0.67195279  0.07074005  0.49494963  1
  C  C26  1  0.39874122  0.32801379  0.49495317  1
  C  C27  1  0.32792967  0.39868830  0.99495874  1
  C  C28  1  0.60121275  0.92925995  0.99494963  1
  C  C29  1  0.07072743  0.67198621  0.99495317  1
  C  C30  1  0.24123741  0.48220534  0.18888246  1
  C  C31  1  0.24096412  0.75875787  0.18889598  1
  C  C32  1  0.51773859  0.75905520  0.18889869  1
  C  C33  1  0.75903207  0.51779466  0.68888246  1
  C  C34  1  0.48220625  0.24124213  0.68889598  1
  C  C35  1  0.75868340  0.24094480  0.68889869  1
  C  C36  1  0.71107130  0.63741385  0.98731252  1
  C  C37  1  0.92628277  0.28890684  0.98732645  1
  C  C38  1  0.36267850  0.07368624  0.98737453  1
  C  C39  1  0.07365745  0.36258615  0.48731252  1
  C  C40  1  0.63737593  0.71109316  0.48732645  1
  C  C41  1  0.28899226  0.92631376  0.48737453  1
  C  C42  1  0.07330993  0.71150855  0.48654965  1
  C  C43  1  0.63813621  0.92664311  0.48654482  1
  C  C44  1  0.28850269  0.36183126  0.48656638  1
  C  C45  1  0.36180138  0.28849145  0.98654965  1
  C  C46  1  0.71149310  0.07335689  0.98654482  1
  C  C47  1  0.92667143  0.63816874  0.98656638  1
  C  C48  1  0.84199823  0.68496025  0.47804674  1
  C  C49  1  0.84295759  0.15798228  0.47812705  1
  C  C50  1  0.31497917  0.15704405  0.47806305  1
  C  C51  1  0.15703798  0.31503975  0.97804674  1
  C  C52  1  0.68497531  0.84201772  0.97812705  1
  C  C53  1  0.15793512  0.84295595  0.97806305  1
  C  C54  1  0.95348903  0.47711235  0.52638061  1
  C  C55  1  0.52361187  0.04646782  0.52645618  1
  C  C56  1  0.52289815  0.47641605  0.52644576  1
  C  C57  1  0.47637667  0.52288765  0.02638061  1
  C  C58  1  0.47714405  0.95353218  0.02645618  1
  C  C59  1  0.04648210  0.52358395  0.02644576  1
  C  C60  1  0.09541060  0.38945598  0.13205112  1
  C  C61  1  0.29421019  0.90460822  0.13210974  1
  C  C62  1  0.61043414  0.70583552  0.13205756  1
  C  C63  1  0.70595462  0.61054402  0.63205112  1
  C  C64  1  0.38960196  0.09539178  0.63210974  1
  C  C65  1  0.90459861  0.29416448  0.63205756  1
  C  C66  1  0.89155087  0.55153163  0.37518867  1
  C  C67  1  0.65995777  0.10840668  0.37517413  1
  C  C68  1  0.44848840  0.34009656  0.37519110  1
  C  C69  1  0.34001924  0.44846837  0.87518867  1
  C  C70  1  0.55155108  0.89159332  0.87517413  1
  C  C71  1  0.10839184  0.65990344  0.87519110  1
  C  C72  1  0.07700468  0.90676641  0.07027483  1
  C  C73  1  0.82921399  0.92368707  0.07161252  1
  C  C74  1  0.09374605  0.16960205  0.07070615  1
  C  C75  1  0.17023826  0.09323359  0.57027483  1
  C  C76  1  0.90552692  0.07631293  0.57161252  1
  C  C77  1  0.92414400  0.83039795  0.57070615  1
  C  C78  1  0.65902594  0.55119731  0.37551680  1
  C  C79  1  0.89213969  0.34100282  0.37549530  1
  C  C80  1  0.44883016  0.10787030  0.37554761  1
  C  C81  1  0.10782863  0.44880269  0.87551680  1
  C  C82  1  0.55113687  0.65899718  0.87549530  1
  C  C83  1  0.34095986  0.89212970  0.87554761  1
  C  C84  1  0.27811608  0.72266984  0.69910051  1
  C  C85  1  0.44451838  0.72190063  0.69914774  1
  C  C86  1  0.27722414  0.55537625  0.69911033  1
  C  C87  1  0.55544625  0.27733016  0.19910051  1
  C  C88  1  0.72261775  0.27809937  0.19914774  1
  C  C89  1  0.72184789  0.44462375  0.19911033  1
  C  C90  1  0.39667863  0.60322612  0.20023814  1
  C  C91  1  0.20664884  0.60333515  0.20019613  1
  C  C92  1  0.39677194  0.79340358  0.20017642  1
  C  C93  1  0.79345251  0.39677388  0.70023814  1
  C  C94  1  0.60331369  0.39666485  0.70019613  1
  C  C95  1  0.60336835  0.20659642  0.70017642  1
  C  C96  1  0.21631119  0.43275757  0.30643518  1
  C  C97  1  0.21656763  0.78366568  0.30646288  1
  C  C98  1  0.56714961  0.78354390  0.30644690  1
  C  C99  1  0.78355362  0.56724243  0.80643518  1
  C  C100  1  0.43290195  0.21633432  0.80646288  1
  C  C101  1  0.78360570  0.21645610  0.80644690  1
  C  C102  1  0.29307996  0.38878401  0.13178248  1
  C  C103  1  0.09569760  0.70690682  0.13184482  1
  C  C104  1  0.61130352  0.90431725  0.13185681  1
  C  C105  1  0.90429596  0.61121599  0.63178248  1
  C  C106  1  0.38879078  0.29309318  0.63184482  1
  C  C107  1  0.70698627  0.09568275  0.63185681  1
  C  C108  1  0.38786334  0.77630150  0.48042102  1
  C  C109  1  0.38841221  0.61216254  0.48048212  1
  C  C110  1  0.22372025  0.61153073  0.48042907  1
  C  C111  1  0.61156185  0.22369850  0.98042102  1
  C  C112  1  0.77624967  0.38783746  0.98048212  1
  C  C113  1  0.61218952  0.38846927  0.98042907  1
  C  C114  1  0.51004065  0.48136336  0.21844090  1
  C  C115  1  0.97130814  0.48988694  0.21855274  1
  C  C116  1  0.51859947  0.02875239  0.21853945  1
  C  C117  1  0.02867728  0.51863664  0.71844090  1
  C  C118  1  0.48142120  0.51011306  0.71855274  1
  C  C119  1  0.48984707  0.97124761  0.71853945  1
  C  C120  1  0.95262117  0.88262044  0.96126132  1
  C  C121  1  0.93022024  0.04733637  0.96158393  1
  C  C122  1  0.11793902  0.07011174  0.96199918  1
  C  C123  1  0.07000073  0.11737956  0.46126132  1
  C  C124  1  0.88288387  0.95266363  0.46158393  1
  C  C125  1  0.04782728  0.92988826  0.46199918  1
  C  C126  1  0.26680328  0.53414423  0.02917400  1
  C  C127  1  0.26731666  0.73323068  0.02914603  1
  C  C128  1  0.46586643  0.73272721  0.02914634  1
  C  C129  1  0.73265905  0.46585577  0.52917400  1
  C  C130  1  0.53408599  0.26676932  0.52914603  1
  C  C131  1  0.73313922  0.26727279  0.52914634  1
  C  C132  1  0.33328263  0.66664037  0.87509495  1
  C  C133  1  0.66664226  0.33335963  0.37509495  1
