# generated using pymatgen
data_Cu2NiC4
_symmetry_space_group_name_H-M   'P 1'
_cell_length_a   6.03724214
_cell_length_b   6.03724214
_cell_length_c   20.06132696
_cell_angle_alpha   81.37482126
_cell_angle_beta   81.37482126
_cell_angle_gamma   60.21553891
_symmetry_Int_Tables_number   1
_chemical_formula_structural   Cu2NiC4
_chemical_formula_sum   'Cu16 Ni8 C32'
_cell_volume   625.00080327
_cell_formula_units_Z   8
loop_
 _symmetry_equiv_pos_site_id
 _symmetry_equiv_pos_as_xyz
  1  'x, y, z'
loop_
 _atom_site_type_symbol
 _atom_site_label
 _atom_site_symmetry_multiplicity
 _atom_site_fract_x
 _atom_site_fract_y
 _atom_site_fract_z
 _atom_site_occupancy
  Ni  Ni0  1  0.85195600  0.85195600  0.97054500  1
  Ni  Ni1  1  0.37553800  0.37553800  0.87493900  1
  Ni  Ni2  1  0.60285300  0.60285300  0.71865400  1
  Ni  Ni3  1  0.12534000  0.12534000  0.62461300  1
  Ni  Ni4  1  0.87486100  0.87486100  0.37514600  1
  Ni  Ni5  1  0.99927400  0.99927400  0.49981000  1
  Ni  Ni6  1  0.62522700  0.62522700  0.12538000  1
  Ni  Ni7  1  0.75040400  0.75040400  0.25062300  1
  Cu  Cu8  1  0.37574600  0.87345700  0.87497500  1
  Cu  Cu9  1  0.24885400  0.24885400  0.74937500  1
  Cu  Cu10  1  0.87345700  0.37574600  0.87497500  1
  Cu  Cu11  1  0.35185100  0.35185100  0.46562700  1
  Cu  Cu12  1  0.12737000  0.62636500  0.62449900  1
  Cu  Cu13  1  0.89947700  0.89947700  0.78020500  1
  Cu  Cu14  1  0.10115400  0.10115400  0.21846600  1
  Cu  Cu15  1  0.62636500  0.12737000  0.62449900  1
  Cu  Cu16  1  0.87484100  0.37500500  0.37522100  1
  Cu  Cu17  1  0.64835100  0.64835100  0.53237000  1
  Cu  Cu18  1  0.37500500  0.87484100  0.37522100  1
  Cu  Cu19  1  0.12156900  0.62380800  0.12562500  1
  Cu  Cu20  1  0.62380800  0.12156900  0.12562500  1
  Cu  Cu21  1  0.39798200  0.39798200  0.28407300  1
  Cu  Cu22  1  0.50187600  0.50187600  0.99921000  1
  Cu  Cu23  1  0.14979100  0.14979100  0.03109800  1
  C  C24  1  0.67868500  0.22685800  0.93622100  1
  C  C25  1  0.56727000  0.56727000  0.82184800  1
  C  C26  1  0.22685800  0.67868500  0.93622100  1
  C  C27  1  0.68183400  0.68183400  0.93854000  1
  C  C28  1  0.07010800  0.07010800  0.81176900  1
  C  C29  1  0.43141900  0.97879500  0.68581800  1
  C  C30  1  0.51866400  0.07272900  0.81369300  1
  C  C31  1  0.31662000  0.31662000  0.57161800  1
  C  C32  1  0.97879500  0.43141900  0.68581800  1
  C  C33  1  0.18268700  0.18268700  0.92631100  1
  C  C34  1  0.42946400  0.42946400  0.68397500  1
  C  C35  1  0.07272900  0.51866400  0.81369300  1
  C  C36  1  0.18565400  0.72488900  0.43199700  1
  C  C37  1  0.81962500  0.81962500  0.56971400  1
  C  C38  1  0.27684000  0.81392900  0.56891300  1
  C  C39  1  0.06736200  0.06736200  0.32208100  1
  C  C40  1  0.72488900  0.18565400  0.43199700  1
  C  C41  1  0.93329800  0.93329800  0.67755300  1
  C  C42  1  0.17664700  0.17664700  0.43090100  1
  C  C43  1  0.81392900  0.27684000  0.56891300  1
  C  C44  1  0.57288400  0.57288400  0.31953700  1
  C  C45  1  0.93539000  0.47208500  0.18124100  1
  C  C46  1  0.02515200  0.56370200  0.31846200  1
  C  C47  1  0.81691100  0.81691100  0.07187300  1
  C  C48  1  0.47208500  0.93539000  0.18124100  1
  C  C49  1  0.68246200  0.68246200  0.42855200  1
  C  C50  1  0.93031500  0.93031500  0.18164800  1
  C  C51  1  0.56370200  0.02515200  0.31846200  1
  C  C52  1  0.32454400  0.32454400  0.06470700  1
  C  C53  1  0.76682700  0.32097800  0.06401200  1
  C  C54  1  0.43236400  0.43236400  0.17788600  1
  C  C55  1  0.32097800  0.76682700  0.06401200  1
