# generated using pymatgen
data_Cu3NiC7
_symmetry_space_group_name_H-M   'P 1'
_cell_length_a   6.53524900
_cell_length_b   10.47127300
_cell_length_c   16.98431900
_cell_angle_alpha   90.00000000
_cell_angle_beta   90.00000000
_cell_angle_gamma   90.00000000
_symmetry_Int_Tables_number   1
_chemical_formula_structural   Cu3NiC7
_chemical_formula_sum   'Cu24 Ni8 C56'
_cell_volume   1162.27731074
_cell_formula_units_Z   8
loop_
 _symmetry_equiv_pos_site_id
 _symmetry_equiv_pos_as_xyz
  1  'x, y, z'
loop_
 _atom_site_type_symbol
 _atom_site_label
 _atom_site_symmetry_multiplicity
 _atom_site_fract_x
 _atom_site_fract_y
 _atom_site_fract_z
 _atom_site_occupancy
  C  C0  1  0.07698300  0.21506100  0.15779800  1
  C  C1  1  0.92301700  0.78493900  0.65779800  1
  C  C2  1  0.57698300  0.28493900  0.15779800  1
  C  C3  1  0.42301700  0.71506100  0.65779800  1
  C  C4  1  0.33801700  0.24946700  0.40602100  1
  C  C5  1  0.66198300  0.75053300  0.90602100  1
  C  C6  1  0.83801700  0.25053300  0.40602100  1
  C  C7  1  0.16198300  0.74946700  0.90602100  1
  C  C8  1  0.05044100  0.27244800  0.71496000  1
  C  C9  1  0.94955900  0.72755200  0.21496000  1
  C  C10  1  0.55044100  0.22755200  0.71496000  1
  C  C11  1  0.44955900  0.77244800  0.21496000  1
  Ni  Ni12  1  0.07510800  0.02819300  0.00080600  1
  Ni  Ni13  1  0.92489200  0.97180700  0.50080600  1
  Ni  Ni14  1  0.57510800  0.47180700  0.00080600  1
  Ni  Ni15  1  0.42489200  0.52819300  0.50080600  1
  Ni  Ni16  1  0.35363900  0.06755100  0.26391400  1
  Ni  Ni17  1  0.64636100  0.93244900  0.76391400  1
  Ni  Ni18  1  0.85363900  0.43244900  0.26391400  1
  Ni  Ni19  1  0.14636100  0.56755100  0.76391400  1
  Cu  Cu20  1  0.01208900  0.15225700  0.76688900  1
  Cu  Cu21  1  0.98791100  0.84774300  0.26688900  1
  Cu  Cu22  1  0.51208900  0.34774300  0.76688900  1
  Cu  Cu23  1  0.48791100  0.65225700  0.26688900  1
  Cu  Cu24  1  0.28932000  0.36603100  0.08926300  1
  Cu  Cu25  1  0.71068000  0.63396900  0.58926300  1
  Cu  Cu26  1  0.78932000  0.13396900  0.08926300  1
  Cu  Cu27  1  0.21068000  0.86603100  0.58926300  1
  Cu  Cu28  1  0.26882600  0.16444700  0.61592400  1
  Cu  Cu29  1  0.73117400  0.83555300  0.11592400  1
  Cu  Cu30  1  0.76882600  0.33555300  0.61592400  1
  Cu  Cu31  1  0.23117400  0.66444700  0.11592400  1
  Cu  Cu32  1  0.34806000  0.42036600  0.36962400  1
  Cu  Cu33  1  0.65194000  0.57963400  0.86962400  1
  Cu  Cu34  1  0.84806000  0.07963400  0.36962400  1
  Cu  Cu35  1  0.15194000  0.92036600  0.86962400  1
  Cu  Cu36  1  0.32064900  0.36098900  0.57460900  1
  Cu  Cu37  1  0.67935100  0.63901100  0.07460900  1
  Cu  Cu38  1  0.82064900  0.13901100  0.57460900  1
  Cu  Cu39  1  0.17935100  0.86098900  0.07460900  1
  Cu  Cu40  1  0.23696300  0.01307400  0.46419700  1
  Cu  Cu41  1  0.76303700  0.98692600  0.96419700  1
  Cu  Cu42  1  0.73696300  0.48692600  0.46419700  1
  Cu  Cu43  1  0.26303700  0.51307400  0.96419700  1
  C  C44  1  0.14241300  0.09164600  0.22594500  1
  C  C45  1  0.85758700  0.90835400  0.72594500  1
  C  C46  1  0.64241300  0.40835400  0.22594500  1
  C  C47  1  0.35758700  0.59164600  0.72594500  1
  C  C48  1  0.32958800  0.49295700  0.01483500  1
  C  C49  1  0.67041200  0.50704300  0.51483500  1
  C  C50  1  0.82958800  0.00704300  0.01483500  1
  C  C51  1  0.17041200  0.99295700  0.51483500  1
  C  C52  1  0.30924400  0.30561100  0.13265800  1
  C  C53  1  0.69075600  0.69438900  0.63265800  1
  C  C54  1  0.80924400  0.19438900  0.13265800  1
  C  C55  1  0.19075600  0.80561100  0.63265800  1
  C  C56  1  0.31397100  0.39650800  0.52124300  1
  C  C57  1  0.68602900  0.60349200  0.02124300  1
  C  C58  1  0.81397100  0.10349200  0.52124300  1
  C  C59  1  0.18602900  0.89650800  0.02124300  1
  C  C60  1  0.13594500  0.12401400  0.06267600  1
  C  C61  1  0.86405500  0.87598600  0.56267600  1
  C  C62  1  0.63594500  0.37598600  0.06267600  1
  C  C63  1  0.36405500  0.62401400  0.56267600  1
  C  C64  1  0.34653700  0.09591300  0.35287300  1
  C  C65  1  0.65346300  0.90408700  0.85287300  1
  C  C66  1  0.84653700  0.40408700  0.35287300  1
  C  C67  1  0.15346300  0.59591300  0.85287300  1
  C  C68  1  0.01531100  0.34918200  0.22416500  1
  C  C69  1  0.98468900  0.65081800  0.72416500  1
  C  C70  1  0.51531100  0.15081800  0.22416500  1
  C  C71  1  0.48468900  0.84918200  0.72416500  1
  C  C72  1  0.20503100  0.73320200  0.15417700  1
  C  C73  1  0.79496900  0.26679800  0.65417700  1
  C  C74  1  0.70503100  0.76679800  0.15417700  1
  C  C75  1  0.29496900  0.23320200  0.65417700  1
  C  C76  1  0.09007000  0.42390100  0.75191900  1
  C  C77  1  0.90993000  0.57609900  0.25191900  1
  C  C78  1  0.59007000  0.07609900  0.75191900  1
  C  C79  1  0.40993000  0.92390100  0.25191900  1
  C  C80  1  0.38077600  0.55285900  0.41494900  1
  C  C81  1  0.61922400  0.44714100  0.91494900  1
  C  C82  1  0.88077600  0.94714100  0.41494900  1
  C  C83  1  0.11922400  0.05285900  0.91494900  1
  C  C84  1  0.08767200  0.24146700  0.43855400  1
  C  C85  1  0.91232800  0.75853300  0.93855400  1
  C  C86  1  0.58767200  0.25853300  0.43855400  1
  C  C87  1  0.41232800  0.74146700  0.93855400  1
