# generated using pymatgen
data_Cu2NiC11
_symmetry_space_group_name_H-M   'P 1'
_cell_length_a   5.92100051
_cell_length_b   5.92100051
_cell_length_c   9.60922708
_cell_angle_alpha   89.70067508
_cell_angle_beta   89.70067508
_cell_angle_gamma   59.56839802
_symmetry_Int_Tables_number   1
_chemical_formula_structural   Cu2NiC11
_chemical_formula_sum   'Cu4 Ni2 C22'
_cell_volume   290.46656369
_cell_formula_units_Z   2
loop_
 _symmetry_equiv_pos_site_id
 _symmetry_equiv_pos_as_xyz
  1  'x, y, z'
loop_
 _atom_site_type_symbol
 _atom_site_label
 _atom_site_symmetry_multiplicity
 _atom_site_fract_x
 _atom_site_fract_y
 _atom_site_fract_z
 _atom_site_occupancy
  C  C0  1  0.33372400  0.33372400  0.60112900  1
  C  C1  1  0.66501000  0.66501000  0.09608800  1
  C  C2  1  0.00189400  0.00189400  0.00653300  1
  C  C3  1  0.99981400  0.99981400  0.51499800  1
  Ni  Ni4  1  0.34128000  0.82871700  0.78560400  1
  Ni  Ni5  1  0.82871700  0.34128000  0.78560400  1
  Cu  Cu6  1  0.16961900  0.16961900  0.28578000  1
  Cu  Cu7  1  0.66032300  0.16905800  0.28625100  1
  Cu  Cu8  1  0.16905800  0.66032300  0.28625100  1
  Cu  Cu9  1  0.82928800  0.82928800  0.78634800  1
  C  C10  1  0.33405100  0.33405100  0.00957200  1
  C  C11  1  0.66469200  0.66469200  0.51543900  1
  C  C12  1  0.00077000  0.00077000  0.19169100  1
  C  C13  1  0.00887900  0.00887900  0.70370200  1
  C  C14  1  0.16759000  0.16759000  0.89824000  1
  C  C15  1  0.67204900  0.17269800  0.89991800  1
  C  C16  1  0.17269800  0.67204900  0.89991800  1
  C  C17  1  0.83458800  0.83458800  0.40827200  1
  C  C18  1  0.32910500  0.83407100  0.40601100  1
  C  C19  1  0.83407100  0.32910500  0.40601100  1
  C  C20  1  0.33195300  0.33195300  0.39314800  1
  C  C21  1  0.65820100  0.65820100  0.88609300  1
  C  C22  1  0.48163000  0.48163000  0.15542800  1
  C  C23  1  0.03469900  0.48449000  0.15487200  1
  C  C24  1  0.48449000  0.03469900  0.15487200  1
  C  C25  1  0.51816600  0.51816600  0.66124800  1
  C  C26  1  0.96187600  0.51176500  0.66018900  1
  C  C27  1  0.51176500  0.96187600  0.66018900  1
