# generated using pymatgen
data_Cu5Ni2C25
_symmetry_space_group_name_H-M   'P 1'
_cell_length_a   10.59826190
_cell_length_b   10.59826190
_cell_length_c   9.89078886
_cell_angle_alpha   72.39803442
_cell_angle_beta   72.39803442
_cell_angle_gamma   15.87492688
_symmetry_Int_Tables_number   1
_chemical_formula_structural   Cu5Ni2C25
_chemical_formula_sum   'Cu5 Ni2 C25'
_cell_volume   289.37976637
_cell_formula_units_Z   1
loop_
 _symmetry_equiv_pos_site_id
 _symmetry_equiv_pos_as_xyz
  1  'x, y, z'
loop_
 _atom_site_type_symbol
 _atom_site_label
 _atom_site_symmetry_multiplicity
 _atom_site_fract_x
 _atom_site_fract_y
 _atom_site_fract_z
 _atom_site_occupancy
  C  C0  1  0.43703000  0.43703000  0.81387700  1
  C  C1  1  0.30685900  0.30685900  0.42862700  1
  C  C2  1  0.19303300  0.19303300  0.07375700  1
  C  C3  1  0.80856400  0.80856400  0.94727900  1
  C  C4  1  0.68655300  0.68655300  0.55537400  1
  C  C5  1  0.56469300  0.56469300  0.19281800  1
  C  C6  1  0.06663100  0.06663100  0.67922200  1
  C  C7  1  0.93681700  0.93681700  0.30959600  1
  C  C8  1  0.74992600  0.74992600  0.25101800  1
  Ni  Ni9  1  0.99966000  0.99966000  0.00082600  1
  Ni  Ni10  1  0.87486700  0.87486700  0.62488100  1
  Cu  Cu11  1  0.62854000  0.62854000  0.87617600  1
  Cu  Cu12  1  0.50603600  0.50603600  0.49479100  1
  Cu  Cu13  1  0.36500000  0.36500000  0.12979200  1
  Cu  Cu14  1  0.24635300  0.24635300  0.75106300  1
  Cu  Cu15  1  0.13516100  0.13516100  0.36751600  1
  C  C16  1  0.52815300  0.52815300  0.86156900  1
  C  C17  1  0.40358600  0.40358600  0.48845000  1
  C  C18  1  0.28775700  0.28775700  0.08933000  1
  C  C19  1  0.91175100  0.91175100  0.98079400  1
  C  C20  1  0.78470900  0.78470900  0.60630400  1
  C  C21  1  0.65342400  0.65342400  0.22820800  1
  C  C22  1  0.15500500  0.15500500  0.72866500  1
  C  C23  1  0.02755400  0.02755400  0.35363900  1
  C  C24  1  0.34648700  0.34648700  0.76197800  1
  C  C25  1  0.21275900  0.21275900  0.40938000  1
  C  C26  1  0.09017300  0.09017300  0.01743000  1
  C  C27  1  0.71940400  0.71940400  0.89898900  1
  C  C28  1  0.58896500  0.58896500  0.52696800  1
  C  C29  1  0.47325800  0.47325800  0.13551800  1
  C  C30  1  0.96252900  0.96252900  0.64693200  1
  C  C31  1  0.84876300  0.84876300  0.26923300  1
