# generated using pymatgen
data_Cu3NiC9
_symmetry_space_group_name_H-M   'P 1'
_cell_length_a   3.82627000
_cell_length_b   3.96811500
_cell_length_c   11.57688900
_cell_angle_alpha   90.00000000
_cell_angle_beta   90.00000000
_cell_angle_gamma   90.00000000
_symmetry_Int_Tables_number   1
_chemical_formula_structural   Cu3NiC9
_chemical_formula_sum   'Cu3 Ni1 C9'
_cell_volume   175.77282467
_cell_formula_units_Z   1
loop_
 _symmetry_equiv_pos_site_id
 _symmetry_equiv_pos_as_xyz
  1  'x, y, z'
loop_
 _atom_site_type_symbol
 _atom_site_label
 _atom_site_symmetry_multiplicity
 _atom_site_fract_x
 _atom_site_fract_y
 _atom_site_fract_z
 _atom_site_occupancy
  C  C0  1  0.50000000  0.50000000  0.31486000  1
  C  C1  1  0.50000000  0.50000000  0.68514000  1
  Ni  Ni2  1  0.50000000  0.50000000  0.00000000  1
  Cu  Cu3  1  0.00000000  0.00000000  0.13925100  1
  Cu  Cu4  1  0.00000000  0.00000000  0.86074900  1
  Cu  Cu5  1  0.00000000  0.00000000  0.50000000  1
  C  C6  1  0.00000000  0.50000000  0.50000000  1
  C  C7  1  0.50000000  0.00000000  0.10703900  1
  C  C8  1  0.50000000  0.00000000  0.89296100  1
  C  C9  1  0.00000000  0.50000000  0.10738400  1
  C  C10  1  0.00000000  0.50000000  0.89261600  1
  C  C11  1  0.00000000  0.00000000  0.32022000  1
  C  C12  1  0.00000000  0.00000000  0.67978000  1
