# generated using pymatgen
data_Cu5(NiC4)3
_symmetry_space_group_name_H-M   'P 1'
_cell_length_a   8.24588700
_cell_length_b   8.26383709
_cell_length_c   8.33134443
_cell_angle_alpha   109.72185013
_cell_angle_beta   108.81272460
_cell_angle_gamma   109.40086384
_symmetry_Int_Tables_number   1
_chemical_formula_structural   Cu5(NiC4)3
_chemical_formula_sum   'Cu10 Ni6 C24'
_cell_volume   439.57011398
_cell_formula_units_Z   2
loop_
 _symmetry_equiv_pos_site_id
 _symmetry_equiv_pos_as_xyz
  1  'x, y, z'
loop_
 _atom_site_type_symbol
 _atom_site_label
 _atom_site_symmetry_multiplicity
 _atom_site_fract_x
 _atom_site_fract_y
 _atom_site_fract_z
 _atom_site_occupancy
  Ni  Ni0  1  0.46657900  0.21393300  0.75040000  1
  Ni  Ni1  1  0.00340700  0.99975200  0.99643100  1
  Ni  Ni2  1  0.00006100  0.49827000  0.49838100  1
  Ni  Ni3  1  0.75347500  0.02857100  0.71874100  1
  Ni  Ni4  1  0.49638800  0.49883700  0.00160300  1
  Ni  Ni5  1  0.25232400  0.46988000  0.77857800  1
  Cu  Cu6  1  0.20933600  0.74711900  0.04297300  1
  Cu  Cu7  1  0.71361500  0.75194700  0.53436100  1
  Cu  Cu8  1  0.96152800  0.71181300  0.75009700  1
  Cu  Cu9  1  0.03776900  0.28761900  0.24932700  1
  Cu  Cu10  1  0.29072400  0.25201700  0.45817800  1
  Cu  Cu11  1  0.78798100  0.24958300  0.96289500  1
  Cu  Cu12  1  0.49861900  0.00249400  0.50298400  1
  Cu  Cu13  1  0.74794800  0.53911300  0.20974600  1
  Cu  Cu14  1  0.24801900  0.96054500  0.29124600  1
  Cu  Cu15  1  0.53867700  0.79030300  0.25077000  1
  C  C16  1  0.43858800  0.95684000  0.77628200  1
  C  C17  1  0.72067500  0.26062600  0.74235300  1
  C  C18  1  0.77521200  0.99423800  0.95403800  1
  C  C19  1  0.95189500  0.50826400  0.26512200  1
  C  C20  1  0.45036700  0.72336200  0.54024200  1
  C  C21  1  0.73531700  0.77403200  0.76943500  1
  C  C22  1  0.50194200  0.45873500  0.75359300  1
  C  C23  1  0.99663800  0.77864500  0.95189700  1
  C  C24  1  0.76571900  0.03384600  0.47039300  1
  C  C25  1  0.22139500  0.19861300  0.73546000  1
  C  C26  1  0.05639300  0.28988800  0.50258900  1
  C  C27  1  0.72043900  0.45453900  0.99983700  1
  C  C28  1  0.94986500  0.71500700  0.50297700  1
  C  C29  1  0.78465200  0.79014600  0.26344900  1
  C  C30  1  0.28988400  0.55654000  0.99630500  1
  C  C31  1  0.49586400  0.54555000  0.24245700  1
  C  C32  1  0.22108700  0.95178300  0.54678600  1
  C  C33  1  0.00665500  0.22484000  0.03087300  1
  C  C34  1  0.28267600  0.22513700  0.22733700  1
  C  C35  1  0.04546900  0.50643800  0.73840100  1
  C  C36  1  0.55042300  0.27517800  0.44255200  1
  C  C37  1  0.20137100  0.98952300  0.06501700  1
  C  C38  1  0.28094400  0.73745800  0.25985200  1
  C  C39  1  0.55007500  0.04897800  0.22604900  1
