# generated using pymatgen
data_Cu10Ni9C8
_symmetry_space_group_name_H-M   'P 1'
_cell_length_a   7.58210875
_cell_length_b   11.37257513
_cell_length_c   11.26621330
_cell_angle_alpha   95.97268028
_cell_angle_beta   109.13019576
_cell_angle_gamma   71.15455410
_symmetry_Int_Tables_number   1
_chemical_formula_structural   Cu10Ni9C8
_chemical_formula_sum   'Cu20 Ni18 C16'
_cell_volume   868.61353714
_cell_formula_units_Z   2
loop_
 _symmetry_equiv_pos_site_id
 _symmetry_equiv_pos_as_xyz
  1  'x, y, z'
loop_
 _atom_site_type_symbol
 _atom_site_label
 _atom_site_symmetry_multiplicity
 _atom_site_fract_x
 _atom_site_fract_y
 _atom_site_fract_z
 _atom_site_occupancy
  C  C0  1  0.39955700  0.33701200  0.17067600  1
  C  C1  1  0.55172400  0.68786800  0.85029000  1
  C  C2  1  0.22515700  0.16048600  0.67236300  1
  C  C3  1  0.71387300  0.83948400  0.31095300  1
  C  C4  1  0.26637600  0.49560100  0.50448200  1
  C  C5  1  0.76426300  0.49879000  0.50765000  1
  C  C6  1  0.23139700  0.71983200  0.16226500  1
  C  C7  1  0.76595000  0.28926200  0.83427400  1
  C  C8  1  0.05834300  0.16732500  0.28279400  1
  C  C9  1  0.92825700  0.83695700  0.70973700  1
  C  C10  1  0.17769700  0.46105300  0.82357200  1
  C  C11  1  0.81953100  0.53826200  0.18240500  1
  C  C12  1  0.35658500  0.81898100  0.53842200  1
  C  C13  1  0.63609500  0.17626400  0.45793200  1
  C  C14  1  0.74737600  0.00449300  0.99693000  1
  C  C15  1  0.24302700  0.01389700  0.99370100  1
  Ni  Ni16  1  0.34160400  0.83557200  0.94380500  1
  Ni  Ni17  1  0.19331300  0.15854900  0.08291400  1
  Ni  Ni18  1  0.40028200  0.90916100  0.14826800  1
  Ni  Ni19  1  0.13167500  0.06909700  0.82916700  1
  Ni  Ni20  1  0.06276200  0.35533300  0.85266000  1
  Ni  Ni21  1  0.56924900  0.63814000  0.15466200  1
  Ni  Ni22  1  0.22022000  0.84155900  0.64866400  1
  Ni  Ni23  1  0.42241700  0.13852000  0.35644000  1
  Ni  Ni24  1  0.42736600  0.35960200  0.85887600  1
  Ni  Ni25  1  0.92300100  0.64626100  0.14481400  1
  Ni  Ni26  1  0.57221100  0.85494100  0.64047900  1
  Ni  Ni27  1  0.78471900  0.13912500  0.35488500  1
  Ni  Ni28  1  0.10486500  0.44649300  0.65005900  1
  Ni  Ni29  1  0.90433400  0.55142900  0.35510000  1
  Ni  Ni30  1  0.45383300  0.64783000  0.54550400  1
  Ni  Ni31  1  0.54058100  0.34774800  0.43168100  1
  Ni  Ni32  1  0.49307000  0.03475000  0.99401400  1
  Ni  Ni33  1  0.00793000  0.97854000  0.99944100  1
  Cu  Cu34  1  0.23610700  0.52260700  0.00804000  1
  Cu  Cu35  1  0.75759500  0.47482600  0.00019000  1
  Cu  Cu36  1  0.22949800  0.00386100  0.48257700  1
  Cu  Cu37  1  0.76299700  0.99779100  0.52951100  1
  Cu  Cu38  1  0.93026000  0.61293700  0.80200500  1
  Cu  Cu39  1  0.74298100  0.38352300  0.20786100  1
  Cu  Cu40  1  0.12745200  0.80067100  0.38485000  1
  Cu  Cu41  1  0.53572500  0.20655500  0.61136500  1
  Cu  Cu42  1  0.26879900  0.61301300  0.80231600  1
  Cu  Cu43  1  0.08277300  0.38956600  0.20544800  1
  Cu  Cu44  1  0.46195800  0.80466700  0.38249300  1
  Cu  Cu45  1  0.87438500  0.20896800  0.60745600  1
  Cu  Cu46  1  0.76670900  0.83271000  0.92380100  1
  Cu  Cu47  1  0.73868000  0.17455000  0.06944900  1
  Cu  Cu48  1  0.85426300  0.92932300  0.17010500  1
  Cu  Cu49  1  0.64964400  0.07373700  0.82260200  1
  Cu  Cu50  1  0.61549800  0.45485900  0.70072100  1
  Cu  Cu51  1  0.35791500  0.53613300  0.27475100  1
  Cu  Cu52  1  0.90009400  0.71210100  0.54116900  1
  Cu  Cu53  1  0.08612500  0.28298600  0.46521000  1
