# generated using pymatgen
data_Cu2Ni2C15
_symmetry_space_group_name_H-M   'P 1'
_cell_length_a   7.47559843
_cell_length_b   7.47559843
_cell_length_c   7.47559843
_cell_angle_alpha   120.62004674
_cell_angle_beta   120.04295730
_cell_angle_gamma   89.42750817
_symmetry_Int_Tables_number   1
_chemical_formula_structural   Cu2Ni2C15
_chemical_formula_sum   'Cu2 Ni2 C15'
_cell_volume   293.90291077
_cell_formula_units_Z   1
loop_
 _symmetry_equiv_pos_site_id
 _symmetry_equiv_pos_as_xyz
  1  'x, y, z'
loop_
 _atom_site_type_symbol
 _atom_site_label
 _atom_site_symmetry_multiplicity
 _atom_site_fract_x
 _atom_site_fract_y
 _atom_site_fract_z
 _atom_site_occupancy
  C  C0  1  0.43921300  0.16999600  0.73078300  1
  C  C1  1  0.43921300  0.70843000  0.26921700  1
  Ni  Ni2  1  0.87629700  0.13477800  0.74151900  1
  Ni  Ni3  1  0.39325900  0.13477800  0.25848100  1
  Cu  Cu4  1  0.88382400  0.63794900  0.75412500  1
  Cu  Cu5  1  0.88382400  0.12969900  0.24587500  1
  C  C6  1  0.57168000  0.43560300  0.51001400  1
  C  C7  1  0.92558800  0.43560300  0.86392300  1
  C  C8  1  0.92938900  0.42938900  0.50000000  1
  C  C9  1  0.92558800  0.06166500  0.48998600  1
  C  C10  1  0.57168000  0.06166500  0.13607700  1
  C  C11  1  0.54407500  0.04407500  0.50000000  1
  C  C12  1  0.18319400  0.80182400  0.99928100  1
  C  C13  1  0.80254300  0.80182400  0.61863000  1
  C  C14  1  0.82041300  0.82041300  0.00000000  1
  C  C15  1  0.80254300  0.18391300  0.00071900  1
  C  C16  1  0.18319400  0.18391300  0.38137000  1
  C  C17  1  0.18295300  0.18295300  0.00000000  1
  C  C18  1  0.39153100  0.39153100  0.00000000  1
