# generated using pymatgen
data_Cu17Ni2C19
_symmetry_space_group_name_H-M   'P 1'
_cell_length_a   10.22768672
_cell_length_b   10.22768672
_cell_length_c   11.31271200
_cell_angle_alpha   90.00000000
_cell_angle_beta   90.00000000
_cell_angle_gamma   140.66320610
_symmetry_Int_Tables_number   1
_chemical_formula_structural   Cu17Ni2C19
_chemical_formula_sum   'Cu34 Ni4 C38'
_cell_volume   750.11357704
_cell_formula_units_Z   2
loop_
 _symmetry_equiv_pos_site_id
 _symmetry_equiv_pos_as_xyz
  1  'x, y, z'
loop_
 _atom_site_type_symbol
 _atom_site_label
 _atom_site_symmetry_multiplicity
 _atom_site_fract_x
 _atom_site_fract_y
 _atom_site_fract_z
 _atom_site_occupancy
  C  C0  1  0.55876500  0.55876500  0.75000000  1
  C  C1  1  0.44123500  0.44123500  0.25000000  1
  C  C2  1  0.31173600  0.78268700  0.43771300  1
  C  C3  1  0.21731300  0.68826400  0.56228700  1
  C  C4  1  0.31173600  0.78268700  0.06228700  1
  C  C5  1  0.21731300  0.68826400  0.93771300  1
  C  C6  1  0.68826400  0.21731300  0.56228700  1
  C  C7  1  0.78268700  0.31173600  0.43771300  1
  C  C8  1  0.68826400  0.21731300  0.93771300  1
  C  C9  1  0.78268700  0.31173600  0.06228700  1
  C  C10  1  0.31139900  0.23095000  0.53856800  1
  C  C11  1  0.76905000  0.68860100  0.46143200  1
  C  C12  1  0.31139900  0.23095000  0.96143200  1
  C  C13  1  0.76905000  0.68860100  0.03856800  1
  C  C14  1  0.68860100  0.76905000  0.46143200  1
  C  C15  1  0.23095000  0.31139900  0.53856800  1
  C  C16  1  0.68860100  0.76905000  0.03856800  1
  C  C17  1  0.23095000  0.31139900  0.96143200  1
  C  C18  1  0.50159100  0.77090200  0.56826600  1
  C  C19  1  0.22909800  0.49840900  0.43173400  1
  C  C20  1  0.50159100  0.77090200  0.93173400  1
  C  C21  1  0.22909800  0.49840900  0.06826600  1
  C  C22  1  0.49840900  0.22909800  0.43173400  1
  C  C23  1  0.77090200  0.50159100  0.56826600  1
  C  C24  1  0.49840900  0.22909800  0.06826600  1
  C  C25  1  0.77090200  0.50159100  0.93173400  1
  C  C26  1  0.72435200  0.94066100  0.62095000  1
  C  C27  1  0.05933900  0.27564800  0.37905000  1
  C  C28  1  0.72435200  0.94066100  0.87905000  1
  C  C29  1  0.05933900  0.27564800  0.12095000  1
  C  C30  1  0.27564800  0.05933900  0.37905000  1
  C  C31  1  0.94066100  0.72435200  0.62095000  1
  C  C32  1  0.27564800  0.05933900  0.12095000  1
  C  C33  1  0.94066100  0.72435200  0.87905000  1
  C  C34  1  0.03965200  0.03965200  0.68261900  1
  C  C35  1  0.96034800  0.96034800  0.31738100  1
  C  C36  1  0.03965200  0.03965200  0.81738100  1
  C  C37  1  0.96034800  0.96034800  0.18261900  1
  Ni  Ni38  1  0.01387700  0.35248000  0.75000000  1
  Ni  Ni39  1  0.64752000  0.98612300  0.25000000  1
  Ni  Ni40  1  0.98612300  0.64752000  0.25000000  1
  Ni  Ni41  1  0.35248000  0.01387700  0.75000000  1
  Cu  Cu42  1  0.91083200  0.22287400  0.64356300  1
  Cu  Cu43  1  0.77712600  0.08916800  0.35643700  1
  Cu  Cu44  1  0.91083200  0.22287400  0.85643700  1
  Cu  Cu45  1  0.77712600  0.08916800  0.14356300  1
  Cu  Cu46  1  0.08916800  0.77712600  0.35643700  1
  Cu  Cu47  1  0.22287400  0.91083200  0.64356300  1
  Cu  Cu48  1  0.08916800  0.77712600  0.14356300  1
  Cu  Cu49  1  0.22287400  0.91083200  0.85643700  1
  Cu  Cu50  1  0.29549000  0.70451000  0.50000000  1
  Cu  Cu51  1  0.29549000  0.70451000  0.00000000  1
  Cu  Cu52  1  0.70451000  0.29549000  0.50000000  1
  Cu  Cu53  1  0.70451000  0.29549000  0.00000000  1
  Cu  Cu54  1  0.27326700  0.27326700  0.59360100  1
  Cu  Cu55  1  0.72673300  0.72673300  0.40639900  1
  Cu  Cu56  1  0.27326700  0.27326700  0.90639900  1
  Cu  Cu57  1  0.72673300  0.72673300  0.09360100  1
  Cu  Cu58  1  0.61210400  0.79588700  0.59461200  1
  Cu  Cu59  1  0.20411300  0.38789600  0.40538800  1
  Cu  Cu60  1  0.61210400  0.79588700  0.90538800  1
  Cu  Cu61  1  0.20411300  0.38789600  0.09461200  1
  Cu  Cu62  1  0.38789600  0.20411300  0.40538800  1
  Cu  Cu63  1  0.79588700  0.61210400  0.59461200  1
  Cu  Cu64  1  0.38789600  0.20411300  0.09461200  1
  Cu  Cu65  1  0.79588700  0.61210400  0.90538800  1
  Cu  Cu66  1  0.22875100  0.47576300  0.75000000  1
  Cu  Cu67  1  0.52423700  0.77124900  0.25000000  1
  Cu  Cu68  1  0.77124900  0.52423700  0.25000000  1
  Cu  Cu69  1  0.47576300  0.22875100  0.75000000  1
  Cu  Cu70  1  0.00733700  0.48934500  0.75000000  1
  Cu  Cu71  1  0.51065500  0.99266300  0.25000000  1
  Cu  Cu72  1  0.99266300  0.51065500  0.25000000  1
  Cu  Cu73  1  0.48934500  0.00733700  0.75000000  1
  Cu  Cu74  1  0.94808400  0.94808400  0.75000000  1
  Cu  Cu75  1  0.05191600  0.05191600  0.25000000  1
