# generated using pymatgen
data_Cu3(Ni6C5)4
_symmetry_space_group_name_H-M   'P 1'
_cell_length_a   13.76538379
_cell_length_b   13.76538379
_cell_length_c   6.79719700
_cell_angle_alpha   90.00000000
_cell_angle_beta   90.00000000
_cell_angle_gamma   119.99999901
_symmetry_Int_Tables_number   1
_chemical_formula_structural   Cu3(Ni6C5)4
_chemical_formula_sum   'Cu6 Ni48 C40'
_cell_volume   1115.41669918
_cell_formula_units_Z   2
loop_
 _symmetry_equiv_pos_site_id
 _symmetry_equiv_pos_as_xyz
  1  'x, y, z'
loop_
 _atom_site_type_symbol
 _atom_site_label
 _atom_site_symmetry_multiplicity
 _atom_site_fract_x
 _atom_site_fract_y
 _atom_site_fract_z
 _atom_site_occupancy
  C  C0  1  0.05990000  0.24900900  0.25731600  1
  C  C1  1  0.18910900  0.94010000  0.25731600  1
  C  C2  1  0.75099100  0.81089100  0.25731600  1
  C  C3  1  0.94010000  0.75099100  0.75731600  1
  C  C4  1  0.81089100  0.05990000  0.75731600  1
  C  C5  1  0.24900900  0.18910900  0.75731600  1
  C  C6  1  0.33333300  0.66666700  0.99028200  1
  C  C7  1  0.66666700  0.33333300  0.49028200  1
  C  C8  1  0.61143200  0.11397400  0.25899400  1
  C  C9  1  0.50254300  0.38856800  0.25899400  1
  C  C10  1  0.88602600  0.49745700  0.25899400  1
  C  C11  1  0.38856800  0.88602600  0.75899400  1
  C  C12  1  0.49745700  0.61143200  0.75899400  1
  C  C13  1  0.11397400  0.50254300  0.75899400  1
  C  C14  1  0.86754100  0.29314900  0.00562300  1
  C  C15  1  0.42560800  0.13245900  0.00562300  1
  C  C16  1  0.70685100  0.57439200  0.00562300  1
  C  C17  1  0.13245900  0.70685100  0.50562300  1
  C  C18  1  0.57439200  0.86754100  0.50562300  1
  C  C19  1  0.29314900  0.42560800  0.50562300  1
  C  C20  1  0.87398400  0.29249300  0.51268300  1
  C  C21  1  0.41850800  0.12601600  0.51268300  1
  C  C22  1  0.70750700  0.58149200  0.51268300  1
  C  C23  1  0.12601600  0.70750700  0.01268300  1
  C  C24  1  0.58149200  0.87398400  0.01268300  1
  C  C25  1  0.29249300  0.41850800  0.01268300  1
  C  C26  1  0.00000000  0.00000000  0.00416900  1
  C  C27  1  0.00000000  0.00000000  0.50416900  1
  C  C28  1  0.81738700  0.06499700  0.25540500  1
  C  C29  1  0.24761000  0.18261300  0.25540500  1
  C  C30  1  0.93500300  0.75239000  0.25540500  1
  C  C31  1  0.18261300  0.93500300  0.75540500  1
  C  C32  1  0.75239000  0.81738700  0.75540500  1
  C  C33  1  0.06499700  0.24761000  0.75540500  1
  C  C34  1  0.50886200  0.62383200  0.26040600  1
  C  C35  1  0.11497000  0.49113800  0.26040600  1
  C  C36  1  0.37616800  0.88503000  0.26040600  1
  C  C37  1  0.49113800  0.37616800  0.76040600  1
  C  C38  1  0.88503000  0.50886200  0.76040600  1
  C  C39  1  0.62383200  0.11497000  0.76040600  1
  Ni  Ni40  1  0.44401500  0.56184700  0.44659900  1
  Ni  Ni41  1  0.11783200  0.55598500  0.44659900  1
  Ni  Ni42  1  0.43815300  0.88216800  0.44659900  1
  Ni  Ni43  1  0.55598500  0.43815300  0.94659900  1
  Ni  Ni44  1  0.88216800  0.44401500  0.94659900  1
  Ni  Ni45  1  0.56184700  0.11783200  0.94659900  1
  Ni  Ni46  1  0.85072500  0.13751700  0.44395100  1
  Ni  Ni47  1  0.28679200  0.14927500  0.44395100  1
  Ni  Ni48  1  0.86248300  0.71320800  0.44395100  1
  Ni  Ni49  1  0.14927500  0.86248300  0.94395100  1
  Ni  Ni50  1  0.71320800  0.85072500  0.94395100  1
  Ni  Ni51  1  0.13751700  0.28679200  0.94395100  1
  Ni  Ni52  1  0.29493800  0.31169700  0.25368100  1
  Ni  Ni53  1  0.01675900  0.70506200  0.25368100  1
  Ni  Ni54  1  0.68830300  0.98324100  0.25368100  1
  Ni  Ni55  1  0.70506200  0.68830300  0.75368100  1
  Ni  Ni56  1  0.98324100  0.29493800  0.75368100  1
  Ni  Ni57  1  0.31169700  0.01675900  0.75368100  1
  Ni  Ni58  1  0.20958400  0.46051300  0.26218500  1
  Ni  Ni59  1  0.25092900  0.79041600  0.26218500  1
  Ni  Ni60  1  0.53948700  0.74907100  0.26218500  1
  Ni  Ni61  1  0.79041600  0.53948700  0.76218500  1
  Ni  Ni62  1  0.74907100  0.20958400  0.76218500  1
  Ni  Ni63  1  0.46051300  0.25092900  0.76218500  1
  Ni  Ni64  1  0.88600800  0.00148900  0.25458600  1
  Ni  Ni65  1  0.11548100  0.11399200  0.25458600  1
  Ni  Ni66  1  0.99851100  0.88451900  0.25458600  1
  Ni  Ni67  1  0.11399200  0.99851100  0.75458600  1
  Ni  Ni68  1  0.88451900  0.88600800  0.75458600  1
  Ni  Ni69  1  0.00148900  0.11548100  0.75458600  1
  Ni  Ni70  1  0.85273900  0.14065600  0.07130100  1
  Ni  Ni71  1  0.28791700  0.14726100  0.07130100  1
  Ni  Ni72  1  0.85934400  0.71208300  0.07130100  1
  Ni  Ni73  1  0.14726100  0.85934400  0.57130100  1
  Ni  Ni74  1  0.71208300  0.85273900  0.57130100  1
  Ni  Ni75  1  0.14065600  0.28791700  0.57130100  1
  Ni  Ni76  1  0.99757000  0.38002100  0.25171800  1
  Ni  Ni77  1  0.38245100  0.00243000  0.25171800  1
  Ni  Ni78  1  0.61997900  0.61754900  0.25171800  1
  Ni  Ni79  1  0.00243000  0.61997900  0.75171800  1
  Ni  Ni80  1  0.61754900  0.99757000  0.75171800  1
  Ni  Ni81  1  0.38002100  0.38245100  0.75171800  1
  Ni  Ni82  1  0.56729000  0.13141200  0.57546600  1
  Ni  Ni83  1  0.56412200  0.43271000  0.57546600  1
  Ni  Ni84  1  0.86858800  0.43587800  0.57546600  1
  Ni  Ni85  1  0.43271000  0.86858800  0.07546600  1
  Ni  Ni86  1  0.43587800  0.56729000  0.07546600  1
  Ni  Ni87  1  0.13141200  0.56412200  0.07546600  1
  Cu  Cu88  1  0.76930700  0.28201300  0.26955100  1
  Cu  Cu89  1  0.51270600  0.23069300  0.26955100  1
  Cu  Cu90  1  0.71798700  0.48729400  0.26955100  1
  Cu  Cu91  1  0.23069300  0.71798700  0.76955100  1
  Cu  Cu92  1  0.48729400  0.76930700  0.76955100  1
  Cu  Cu93  1  0.28201300  0.51270600  0.76955100  1
