# generated using pymatgen
data_CuNiC6
_symmetry_space_group_name_H-M   'P 1'
_cell_length_a   5.08670300
_cell_length_b   7.28374900
_cell_length_c   10.25294811
_cell_angle_alpha   89.56675756
_cell_angle_beta   90.00000000
_cell_angle_gamma   90.00000000
_symmetry_Int_Tables_number   1
_chemical_formula_structural   CuNiC6
_chemical_formula_sum   'Cu4 Ni4 C24'
_cell_volume   379.86361433
_cell_formula_units_Z   4
loop_
 _symmetry_equiv_pos_site_id
 _symmetry_equiv_pos_as_xyz
  1  'x, y, z'
loop_
 _atom_site_type_symbol
 _atom_site_label
 _atom_site_symmetry_multiplicity
 _atom_site_fract_x
 _atom_site_fract_y
 _atom_site_fract_z
 _atom_site_occupancy
  C  C0  1  0.20721600  0.99906300  0.89153900  1
  C  C1  1  0.70721600  0.00093700  0.60846100  1
  C  C2  1  0.79278400  0.00093700  0.10846100  1
  C  C3  1  0.29278400  0.99906300  0.39153900  1
  C  C4  1  0.31866500  0.26180400  0.13892600  1
  C  C5  1  0.81866500  0.73819600  0.36107400  1
  C  C6  1  0.68133500  0.73819600  0.86107400  1
  C  C7  1  0.18133500  0.26180400  0.63892600  1
  Ni  Ni8  1  0.65648300  0.50047900  0.58710100  1
  Ni  Ni9  1  0.34351700  0.49952100  0.41289900  1
  Ni  Ni10  1  0.84351700  0.50047900  0.08710100  1
  Ni  Ni11  1  0.15648300  0.49952100  0.91289900  1
  Cu  Cu12  1  0.15545900  0.72029600  0.65942200  1
  Cu  Cu13  1  0.65545900  0.27970400  0.84057800  1
  Cu  Cu14  1  0.84454100  0.27970400  0.34057800  1
  Cu  Cu15  1  0.34454100  0.72029600  0.15942200  1
  C  C16  1  0.16785900  0.54658000  0.07365500  1
  C  C17  1  0.66785900  0.45342000  0.42634500  1
  C  C18  1  0.83214100  0.45342000  0.92634500  1
  C  C19  1  0.33214100  0.54658000  0.57365500  1
  C  C20  1  0.31418700  0.31351900  0.87460000  1
  C  C21  1  0.18581300  0.31351900  0.37460000  1
  C  C22  1  0.81418700  0.68648100  0.62540000  1
  C  C23  1  0.68581300  0.68648100  0.12540000  1
  C  C24  1  0.28333700  0.68456700  0.32941200  1
  C  C25  1  0.78333700  0.31543300  0.17058800  1
  C  C26  1  0.71666300  0.31543300  0.67058800  1
  C  C27  1  0.21666300  0.68456700  0.82941200  1
  C  C28  1  0.23776100  0.94801500  0.62188800  1
  C  C29  1  0.73776100  0.05198500  0.87811200  1
  C  C30  1  0.76223900  0.05198500  0.37811200  1
  C  C31  1  0.26223900  0.94801500  0.12188800  1
