# generated using pymatgen
data_Cu8Ni3C2
_symmetry_space_group_name_H-M   'P 1'
_cell_length_a   11.91483600
_cell_length_b   7.06361800
_cell_length_c   9.82669178
_cell_angle_alpha   89.90063440
_cell_angle_beta   90.00000000
_cell_angle_gamma   90.00000000
_symmetry_Int_Tables_number   1
_chemical_formula_structural   Cu8Ni3C2
_chemical_formula_sum   'Cu32 Ni12 C8'
_cell_volume   827.03131603
_cell_formula_units_Z   4
loop_
 _symmetry_equiv_pos_site_id
 _symmetry_equiv_pos_as_xyz
  1  'x, y, z'
loop_
 _atom_site_type_symbol
 _atom_site_label
 _atom_site_symmetry_multiplicity
 _atom_site_fract_x
 _atom_site_fract_y
 _atom_site_fract_z
 _atom_site_occupancy
  C  C0  1  0.69359700  0.57352700  0.99515200  1
  C  C1  1  0.30640300  0.42647300  0.00484800  1
  C  C2  1  0.80640300  0.57352700  0.49515200  1
  C  C3  1  0.19359700  0.42647300  0.50484800  1
  C  C4  1  0.00000000  0.50000000  0.00000000  1
  C  C5  1  0.50000000  0.50000000  0.50000000  1
  C  C6  1  0.00000000  0.00000000  0.00000000  1
  C  C7  1  0.50000000  0.00000000  0.50000000  1
  Ni  Ni8  1  0.14651400  0.16223700  0.99990100  1
  Ni  Ni9  1  0.85348600  0.83776300  0.00009900  1
  Ni  Ni10  1  0.35348600  0.16223700  0.49990100  1
  Ni  Ni11  1  0.64651400  0.83776300  0.50009900  1
  Ni  Ni12  1  0.92518500  0.16410300  0.15570200  1
  Ni  Ni13  1  0.07496400  0.83564000  0.15660300  1
  Ni  Ni14  1  0.57496400  0.16436000  0.34339700  1
  Ni  Ni15  1  0.42518500  0.83589700  0.34429800  1
  Ni  Ni16  1  0.07481500  0.83589700  0.84429800  1
  Ni  Ni17  1  0.92503600  0.16436000  0.84339700  1
  Ni  Ni18  1  0.42503600  0.83564000  0.65660300  1
  Ni  Ni19  1  0.57481500  0.16410300  0.65570200  1
  Cu  Cu20  1  0.88261300  0.07474900  0.25013000  1
  Cu  Cu21  1  0.11833600  0.92418800  0.24990900  1
  Cu  Cu22  1  0.61833600  0.07581200  0.25009100  1
  Cu  Cu23  1  0.38261300  0.92525100  0.24987000  1
  Cu  Cu24  1  0.11738700  0.92525100  0.74987000  1
  Cu  Cu25  1  0.88166400  0.07581200  0.75009100  1
  Cu  Cu26  1  0.38166400  0.92418800  0.74990900  1
  Cu  Cu27  1  0.61738700  0.07474900  0.75013000  1
  Cu  Cu28  1  0.66103500  0.29852600  0.99979400  1
  Cu  Cu29  1  0.33896500  0.70147400  0.00020600  1
  Cu  Cu30  1  0.83896500  0.29852600  0.49979400  1
  Cu  Cu31  1  0.16103500  0.70147400  0.50020600  1
  Cu  Cu32  1  0.92738100  0.33941500  0.14970400  1
  Cu  Cu33  1  0.07180000  0.65967800  0.15035000  1
  Cu  Cu34  1  0.57180000  0.34032200  0.34965000  1
  Cu  Cu35  1  0.42738100  0.66058500  0.35029600  1
  Cu  Cu36  1  0.07261900  0.66058500  0.85029600  1
  Cu  Cu37  1  0.92820000  0.34032200  0.84965000  1
  Cu  Cu38  1  0.42820000  0.65967800  0.65035000  1
  Cu  Cu39  1  0.57261900  0.33941500  0.64970400  1
  Cu  Cu40  1  0.14402300  0.34144600  0.99923900  1
  Cu  Cu41  1  0.85597700  0.65855400  0.00076100  1
  Cu  Cu42  1  0.35597700  0.34144600  0.49923900  1
  Cu  Cu43  1  0.64402300  0.65855400  0.50076100  1
  Cu  Cu44  1  0.23775600  0.08034900  0.00086400  1
  Cu  Cu45  1  0.76224400  0.91965100  0.99913600  1
  Cu  Cu46  1  0.26224400  0.08034900  0.50086400  1
  Cu  Cu47  1  0.73775600  0.91965100  0.49913600  1
  Cu  Cu48  1  0.63518500  0.64212900  0.17316000  1
  Cu  Cu49  1  0.13518500  0.35787100  0.32684000  1
  Cu  Cu50  1  0.36481500  0.35787100  0.82684000  1
  Cu  Cu51  1  0.86481500  0.64212900  0.67316000  1
