# generated using pymatgen
data_CuNi3C10
_symmetry_space_group_name_H-M   'P 1'
_cell_length_a   6.16996401
_cell_length_b   8.66319308
_cell_length_c   8.66319308
_cell_angle_alpha   90.01551570
_cell_angle_beta   89.99652252
_cell_angle_gamma   89.99652252
_symmetry_Int_Tables_number   1
_chemical_formula_structural   CuNi3C10
_chemical_formula_sum   'Cu2 Ni6 C20'
_cell_volume   463.06142177
_cell_formula_units_Z   2
loop_
 _symmetry_equiv_pos_site_id
 _symmetry_equiv_pos_as_xyz
  1  'x, y, z'
loop_
 _atom_site_type_symbol
 _atom_site_label
 _atom_site_symmetry_multiplicity
 _atom_site_fract_x
 _atom_site_fract_y
 _atom_site_fract_z
 _atom_site_occupancy
  C  C0  1  0.75012700  0.99947800  0.49949900  1
  C  C1  1  0.25002000  0.49673000  0.99674600  1
  C  C2  1  0.75002000  0.49674600  0.99673000  1
  C  C3  1  0.25012700  0.99949900  0.49947800  1
  Ni  Ni4  1  0.00003200  0.32711000  0.67012000  1
  Ni  Ni5  1  0.50003200  0.17012000  0.82711000  1
  Ni  Ni6  1  0.49999700  0.67385200  0.66725600  1
  Ni  Ni7  1  0.99993800  0.67090600  0.32793200  1
  Ni  Ni8  1  0.49993800  0.82793200  0.17090600  1
  Ni  Ni9  1  0.99999700  0.16725600  0.17385200  1
  Cu  Cu10  1  0.49996500  0.35097800  0.34875900  1
  Cu  Cu11  1  0.99996500  0.84875900  0.85097800  1
  C  C12  1  0.74999300  0.32613300  0.82609500  1
  C  C13  1  0.26178900  0.82512600  0.67233900  1
  C  C14  1  0.76178900  0.17233900  0.32512600  1
  C  C15  1  0.24999300  0.32609500  0.82613300  1
  C  C16  1  0.73808700  0.82519700  0.67241100  1
  C  C17  1  0.23808700  0.17241100  0.32519700  1
  C  C18  1  0.25003700  0.66938000  0.16950200  1
  C  C19  1  0.75003700  0.66950200  0.16938000  1
  C  C20  1  0.49998000  0.85273400  0.39384600  1
  C  C21  1  0.99999900  0.39901000  0.12822700  1
  C  C22  1  0.49999900  0.62822700  0.89901000  1
  C  C23  1  0.99998000  0.89384600  0.35273400  1
  C  C24  1  0.50001500  0.14655700  0.60289200  1
  C  C25  1  0.00001900  0.58185900  0.87912800  1
  C  C26  1  0.50001900  0.37912800  0.08185900  1
  C  C27  1  0.00001500  0.10289200  0.64655700  1
