# generated using pymatgen
data_Cu14NiC
_symmetry_space_group_name_H-M   'P 1'
_cell_length_a   6.56416949
_cell_length_b   6.68433331
_cell_length_c   10.43427933
_cell_angle_alpha   90.00000000
_cell_angle_beta   90.00000000
_cell_angle_gamma   120.60743442
_symmetry_Int_Tables_number   1
_chemical_formula_structural   Cu14NiC
_chemical_formula_sum   'Cu14 Ni1 C1'
_cell_volume   394.03973626
_cell_formula_units_Z   1
loop_
 _symmetry_equiv_pos_site_id
 _symmetry_equiv_pos_as_xyz
  1  'x, y, z'
loop_
 _atom_site_type_symbol
 _atom_site_label
 _atom_site_symmetry_multiplicity
 _atom_site_fract_x
 _atom_site_fract_y
 _atom_site_fract_z
 _atom_site_occupancy
  C  C0  1  0.16289998  0.33144949  0.12500000  1
  Ni  Ni1  1  0.18993047  0.84496473  0.12500000  1
  Cu  Cu2  1  0.16841739  0.33420819  0.62500000  1
  Cu  Cu3  1  0.16520936  0.83260418  0.62500000  1
  Cu  Cu4  1  0.66440623  0.33370494  0.12500000  1
  Cu  Cu5  1  0.66785216  0.33731504  0.62500000  1
  Cu  Cu6  1  0.66440623  0.83070029  0.12500000  1
  Cu  Cu7  1  0.66785216  0.83053612  0.62500000  1
  Cu  Cu8  1  0.33448418  0.15335738  0.38368786  1
  Cu  Cu9  1  0.33448418  0.15335738  0.86631214  1
  Cu  Cu10  1  0.33448418  0.68112781  0.38368786  1
  Cu  Cu11  1  0.33448418  0.68112781  0.86631214  1
  Cu  Cu12  1  0.81620563  0.15810331  0.38925787  1
  Cu  Cu13  1  0.81620563  0.15810331  0.86074213  1
  Cu  Cu14  1  0.83933903  0.66967001  0.36940877  1
  Cu  Cu15  1  0.83933903  0.66967001  0.88059123  1
