# generated using pymatgen
data_Cu(Ni4C5)3
_symmetry_space_group_name_H-M   'P 1'
_cell_length_a   12.28730500
_cell_length_b   9.31430600
_cell_length_c   12.12074445
_cell_angle_alpha   55.82386396
_cell_angle_beta   90.00000000
_cell_angle_gamma   90.00000000
_symmetry_Int_Tables_number   1
_chemical_formula_structural   Cu(Ni4C5)3
_chemical_formula_sum   'Cu4 Ni48 C60'
_cell_volume   1147.64384078
_cell_formula_units_Z   4
loop_
 _symmetry_equiv_pos_site_id
 _symmetry_equiv_pos_as_xyz
  1  'x, y, z'
loop_
 _atom_site_type_symbol
 _atom_site_label
 _atom_site_symmetry_multiplicity
 _atom_site_fract_x
 _atom_site_fract_y
 _atom_site_fract_z
 _atom_site_occupancy
  C  C0  1  0.93856500  0.65002300  0.24779300  1
  C  C1  1  0.56143500  0.65002300  0.74779300  1
  C  C2  1  0.06143500  0.34997700  0.75220700  1
  C  C3  1  0.43856500  0.34997700  0.25220700  1
  C  C4  1  0.84022900  0.00769100  0.27752600  1
  C  C5  1  0.65977100  0.00769100  0.77752600  1
  C  C6  1  0.15977100  0.99230900  0.72247400  1
  C  C7  1  0.34022900  0.99230900  0.22247400  1
  C  C8  1  0.74798100  0.34950800  0.28464800  1
  C  C9  1  0.75201900  0.34950800  0.78464800  1
  C  C10  1  0.25201900  0.65049200  0.71535200  1
  C  C11  1  0.24798100  0.65049200  0.21535200  1
  C  C12  1  0.59446200  0.86537400  0.28372300  1
  C  C13  1  0.90553800  0.86537400  0.78372300  1
  C  C14  1  0.40553800  0.13462600  0.71627700  1
  C  C15  1  0.09446200  0.13462600  0.21627700  1
  Ni  Ni16  1  0.75859100  0.59014300  0.40413900  1
  Ni  Ni17  1  0.74140900  0.59014300  0.90413900  1
  Ni  Ni18  1  0.24140900  0.40985700  0.59586100  1
  Ni  Ni19  1  0.25859100  0.40985700  0.09586100  1
  Ni  Ni20  1  0.81184900  0.40521800  0.49805600  1
  Ni  Ni21  1  0.68815100  0.40521800  0.99805600  1
  Ni  Ni22  1  0.18815100  0.59478200  0.50194400  1
  Ni  Ni23  1  0.31184900  0.59478200  0.00194400  1
  Ni  Ni24  1  0.87209500  0.59467800  0.03795700  1
  Ni  Ni25  1  0.62790500  0.59467800  0.53795700  1
  Ni  Ni26  1  0.12790500  0.40532200  0.96204300  1
  Ni  Ni27  1  0.37209500  0.40532200  0.46204300  1
  Ni  Ni28  1  0.92810500  0.40856300  0.12673400  1
  Ni  Ni29  1  0.57189500  0.40856300  0.62673400  1
  Ni  Ni30  1  0.07189500  0.59143700  0.87326600  1
  Ni  Ni31  1  0.42810500  0.59143700  0.37326600  1
  Ni  Ni32  1  0.59902300  0.66041300  0.17038100  1
  Ni  Ni33  1  0.90097700  0.66041300  0.67038100  1
  Ni  Ni34  1  0.40097700  0.33958700  0.82961900  1
  Ni  Ni35  1  0.09902300  0.33958700  0.32961900  1
  Ni  Ni36  1  0.58670400  0.47346500  0.29447800  1
  Ni  Ni37  1  0.91329600  0.47346500  0.79447800  1
  Ni  Ni38  1  0.41329600  0.52653500  0.70552200  1
  Ni  Ni39  1  0.08670400  0.52653500  0.20552200  1
  Ni  Ni40  1  0.55947000  0.21733700  0.51113400  1
  Ni  Ni41  1  0.94053000  0.21733700  0.01113400  1
  Ni  Ni42  1  0.44053000  0.78266300  0.48886600  1
  Ni  Ni43  1  0.05947000  0.78266300  0.98886600  1
  Ni  Ni44  1  0.61801100  0.09163700  0.48194100  1
  Ni  Ni45  1  0.88198900  0.09163700  0.98194100  1
  Ni  Ni46  1  0.38198900  0.90836300  0.51805900  1
  Ni  Ni47  1  0.11801100  0.90836300  0.01805900  1
  Ni  Ni48  1  0.88501700  0.03572700  0.50269700  1
  Ni  Ni49  1  0.61498300  0.03572700  0.00269700  1
  Ni  Ni50  1  0.11498300  0.96427300  0.49730300  1
  Ni  Ni51  1  0.38501700  0.96427300  0.99730300  1
  Ni  Ni52  1  0.95707900  0.15817500  0.37761400  1
  Ni  Ni53  1  0.54292100  0.15817500  0.87761400  1
  Ni  Ni54  1  0.04292100  0.84182500  0.62238600  1
  Ni  Ni55  1  0.45707900  0.84182500  0.12238600  1
  Ni  Ni56  1  0.74351400  0.86591800  0.10551000  1
  Ni  Ni57  1  0.75648600  0.86591800  0.60551000  1
  Ni  Ni58  1  0.25648600  0.13408200  0.89449000  1
  Ni  Ni59  1  0.24351400  0.13408200  0.39449000  1
  Ni  Ni60  1  0.81259200  0.84559500  0.00480000  1
  Ni  Ni61  1  0.68740800  0.84559500  0.50480000  1
  Ni  Ni62  1  0.18740800  0.15440500  0.99520000  1
  Ni  Ni63  1  0.31259200  0.15440500  0.49520000  1
  Cu  Cu64  1  0.58838000  0.10459900  0.21157100  1
  Cu  Cu65  1  0.91162000  0.10459900  0.71157100  1
  Cu  Cu66  1  0.41162000  0.89540100  0.78842900  1
  Cu  Cu67  1  0.08838000  0.89540100  0.28842900  1
  C  C68  1  0.69229200  0.78723300  0.38105100  1
  C  C69  1  0.80770800  0.78723300  0.88105100  1
  C  C70  1  0.30770800  0.21276700  0.61894900  1
  C  C71  1  0.19229200  0.21276700  0.11894900  1
  C  C72  1  0.61167500  0.85642900  0.16004200  1
  C  C73  1  0.88832500  0.85642900  0.66004200  1
  C  C74  1  0.38832500  0.14357100  0.83995800  1
  C  C75  1  0.11167500  0.14357100  0.33995800  1
  C  C76  1  0.48455000  0.78366400  0.35134700  1
  C  C77  1  0.01545000  0.78366400  0.85134700  1
  C  C78  1  0.51545000  0.21633600  0.64865300  1
  C  C79  1  0.98455000  0.21633600  0.14865300  1
  C  C80  1  0.49394600  0.17060800  0.18604300  1
  C  C81  1  0.00605400  0.17060800  0.68604300  1
  C  C82  1  0.50605400  0.82939200  0.81395700  1
  C  C83  1  0.99394600  0.82939200  0.31395700  1
  C  C84  1  0.67881600  0.18385900  0.18971600  1
  C  C85  1  0.82118400  0.18385900  0.68971600  1
  C  C86  1  0.32118400  0.81614100  0.81028400  1
  C  C87  1  0.17881600  0.81614100  0.31028400  1
  C  C88  1  0.79533700  0.49547000  0.40408100  1
  C  C89  1  0.70466300  0.49547000  0.90408100  1
  C  C90  1  0.20466300  0.50453000  0.59591900  1
  C  C91  1  0.29533700  0.50453000  0.09591900  1
  C  C92  1  0.89035900  0.50028900  0.13043300  1
  C  C93  1  0.60964100  0.50028900  0.63043300  1
  C  C94  1  0.10964100  0.49971100  0.86956700  1
  C  C95  1  0.39035900  0.49971100  0.36956700  1
  C  C96  1  0.59459800  0.53815200  0.19757900  1
  C  C97  1  0.90540200  0.53815200  0.69757900  1
  C  C98  1  0.40540200  0.46184800  0.80242100  1
  C  C99  1  0.09459800  0.46184800  0.30242100  1
  C  C100  1  0.58795100  0.21075900  0.43720300  1
  C  C101  1  0.91204900  0.21075900  0.93720300  1
  C  C102  1  0.41204900  0.78924100  0.56279700  1
  C  C103  1  0.08795100  0.78924100  0.06279700  1
  C  C104  1  0.88080700  0.13198300  0.40629300  1
  C  C105  1  0.61919300  0.13198300  0.90629300  1
  C  C106  1  0.11919300  0.86801700  0.59370700  1
  C  C107  1  0.38080700  0.86801700  0.09370700  1
  C  C108  1  0.81891700  0.87510300  0.07139900  1
  C  C109  1  0.68108300  0.87510300  0.57139900  1
  C  C110  1  0.18108300  0.12489700  0.92860100  1
  C  C111  1  0.31891700  0.12489700  0.42860100  1
