# generated using pymatgen
data_Cu3Ni4C13
_symmetry_space_group_name_H-M   'P 1'
_cell_length_a   7.46801300
_cell_length_b   7.46801300
_cell_length_c   7.46801300
_cell_angle_alpha   90.00000000
_cell_angle_beta   90.00000000
_cell_angle_gamma   90.00000000
_symmetry_Int_Tables_number   1
_chemical_formula_structural   Cu3Ni4C13
_chemical_formula_sum   'Cu6 Ni8 C26'
_cell_volume   416.50018231
_cell_formula_units_Z   2
loop_
 _symmetry_equiv_pos_site_id
 _symmetry_equiv_pos_as_xyz
  1  'x, y, z'
loop_
 _atom_site_type_symbol
 _atom_site_label
 _atom_site_symmetry_multiplicity
 _atom_site_fract_x
 _atom_site_fract_y
 _atom_site_fract_z
 _atom_site_occupancy
  C  C0  1  0.00000000  0.00000000  0.00000000  1
  Ni  Ni1  1  0.24547900  0.24547900  0.24547900  1
  Ni  Ni2  1  0.75452100  0.75452100  0.75452100  1
  Ni  Ni3  1  0.75452100  0.75452100  0.24547900  1
  Ni  Ni4  1  0.75452100  0.24547900  0.75452100  1
  Ni  Ni5  1  0.24547900  0.24547900  0.75452100  1
  Ni  Ni6  1  0.24547900  0.75452100  0.24547900  1
  Ni  Ni7  1  0.24547900  0.75452100  0.75452100  1
  Ni  Ni8  1  0.75452100  0.24547900  0.24547900  1
  Cu  Cu9  1  0.00000000  0.50000000  0.50000000  1
  Cu  Cu10  1  0.50000000  0.00000000  0.50000000  1
  Cu  Cu11  1  0.50000000  0.50000000  0.00000000  1
  Cu  Cu12  1  0.50000000  0.00000000  0.00000000  1
  Cu  Cu13  1  0.00000000  0.50000000  0.00000000  1
  Cu  Cu14  1  0.00000000  0.00000000  0.50000000  1
  C  C15  1  0.50000000  0.50000000  0.50000000  1
  C  C16  1  0.00000000  0.30579200  0.17789800  1
  C  C17  1  0.00000000  0.69420800  0.82210200  1
  C  C18  1  0.00000000  0.69420800  0.17789800  1
  C  C19  1  0.00000000  0.30579200  0.82210200  1
  C  C20  1  0.17789800  0.00000000  0.30579200  1
  C  C21  1  0.82210200  0.00000000  0.69420800  1
  C  C22  1  0.17789800  0.00000000  0.69420800  1
  C  C23  1  0.82210200  0.00000000  0.30579200  1
  C  C24  1  0.30579200  0.17789800  0.00000000  1
  C  C25  1  0.69420800  0.82210200  0.00000000  1
  C  C26  1  0.30579200  0.82210200  0.00000000  1
  C  C27  1  0.69420800  0.17789800  0.00000000  1
  C  C28  1  0.50000000  0.19631800  0.32207500  1
  C  C29  1  0.50000000  0.80368200  0.67792500  1
  C  C30  1  0.50000000  0.80368200  0.32207500  1
  C  C31  1  0.50000000  0.19631800  0.67792500  1
  C  C32  1  0.32207500  0.50000000  0.19631800  1
  C  C33  1  0.67792500  0.50000000  0.80368200  1
  C  C34  1  0.32207500  0.50000000  0.80368200  1
  C  C35  1  0.67792500  0.50000000  0.19631800  1
  C  C36  1  0.19631800  0.32207500  0.50000000  1
  C  C37  1  0.80368200  0.67792500  0.50000000  1
  C  C38  1  0.19631800  0.67792500  0.50000000  1
  C  C39  1  0.80368200  0.32207500  0.50000000  1
