# generated using pymatgen
data_CuNiC5
_symmetry_space_group_name_H-M   'P 1'
_cell_length_a   6.54716764
_cell_length_b   6.54716764
_cell_length_c   5.65095800
_cell_angle_alpha   90.00000000
_cell_angle_beta   90.00000000
_cell_angle_gamma   130.98632752
_symmetry_Int_Tables_number   1
_chemical_formula_structural   CuNiC5
_chemical_formula_sum   'Cu2 Ni2 C10'
_cell_volume   182.85167063
_cell_formula_units_Z   2
loop_
 _symmetry_equiv_pos_site_id
 _symmetry_equiv_pos_as_xyz
  1  'x, y, z'
loop_
 _atom_site_type_symbol
 _atom_site_label
 _atom_site_symmetry_multiplicity
 _atom_site_fract_x
 _atom_site_fract_y
 _atom_site_fract_z
 _atom_site_occupancy
  Ni  Ni0  1  0.60294200  0.39705800  0.48064000  1
  Ni  Ni1  1  0.39705800  0.60294200  0.98064000  1
  Cu  Cu2  1  0.88815900  0.11184100  0.51859400  1
  Cu  Cu3  1  0.11184100  0.88815900  0.01859400  1
  C  C4  1  0.25038200  0.74961800  0.50217200  1
  C  C5  1  0.74961800  0.25038200  0.00217200  1
  C  C6  1  0.47976500  0.02472700  0.74857400  1
  C  C7  1  0.52023500  0.97527300  0.24857400  1
  C  C8  1  0.02472700  0.47976500  0.24857400  1
  C  C9  1  0.97527300  0.52023500  0.74857400  1
  C  C10  1  0.41793000  0.58207000  0.56622800  1
  C  C11  1  0.07725600  0.92274400  0.43521700  1
  C  C12  1  0.58207000  0.41793000  0.06622800  1
  C  C13  1  0.92274400  0.07725600  0.93521700  1
