# generated using pymatgen
data_Cu16NiC12
_symmetry_space_group_name_H-M   'P 1'
_cell_length_a   5.82026935
_cell_length_b   5.82026935
_cell_length_c   14.93507500
_cell_angle_alpha   90.00000000
_cell_angle_beta   90.00000000
_cell_angle_gamma   119.97668870
_symmetry_Int_Tables_number   1
_chemical_formula_structural   Cu16NiC12
_chemical_formula_sum   'Cu16 Ni1 C12'
_cell_volume   438.25428774
_cell_formula_units_Z   1
loop_
 _symmetry_equiv_pos_site_id
 _symmetry_equiv_pos_as_xyz
  1  'x, y, z'
loop_
 _atom_site_type_symbol
 _atom_site_label
 _atom_site_symmetry_multiplicity
 _atom_site_fract_x
 _atom_site_fract_y
 _atom_site_fract_z
 _atom_site_occupancy
  C  C0  1  0.33659200  0.66340800  0.35136400  1
  C  C1  1  0.33659200  0.66340800  0.64863600  1
  C  C2  1  0.00352000  0.99648000  0.79719200  1
  C  C3  1  0.00352000  0.99648000  0.20280800  1
  C  C4  1  0.66617700  0.33382300  0.00000000  1
  C  C5  1  0.00298900  0.99701100  0.50000000  1
  C  C6  1  0.66995800  0.33004200  0.75907100  1
  C  C7  1  0.66995800  0.33004200  0.24092900  1
  C  C8  1  0.66987900  0.33012100  0.58539900  1
  C  C9  1  0.66987900  0.33012100  0.41460100  1
  C  C10  1  0.33669500  0.66330500  0.87934200  1
  C  C11  1  0.33669500  0.66330500  0.12065800  1
  Ni  Ni12  1  0.00704700  0.99295300  0.00000000  1
  Cu  Cu13  1  0.81498300  0.62156000  0.66547200  1
  Cu  Cu14  1  0.81750600  0.18249400  0.66568100  1
  Cu  Cu15  1  0.37844000  0.18501700  0.66547200  1
  Cu  Cu16  1  0.81498300  0.62156000  0.33452800  1
  Cu  Cu17  1  0.81750600  0.18249400  0.33431900  1
  Cu  Cu18  1  0.37844000  0.18501700  0.33452800  1
  Cu  Cu19  1  0.96442000  0.47586200  0.50000000  1
  Cu  Cu20  1  0.52413800  0.03558000  0.50000000  1
  Cu  Cu21  1  0.52107200  0.47892800  0.50000000  1
  Cu  Cu22  1  0.98589000  0.48690900  0.83002300  1
  Cu  Cu23  1  0.51309100  0.01411000  0.83002300  1
  Cu  Cu24  1  0.51075700  0.48924300  0.82803200  1
  Cu  Cu25  1  0.98589000  0.48690900  0.16997700  1
  Cu  Cu26  1  0.51309100  0.01411000  0.16997700  1
  Cu  Cu27  1  0.51075700  0.48924300  0.17196800  1
  Cu  Cu28  1  0.35046400  0.64953600  0.00000000  1
