# generated using pymatgen
data_CuNiC2
_symmetry_space_group_name_H-M   'P 1'
_cell_length_a   4.98342700
_cell_length_b   6.10036800
_cell_length_c   13.98651600
_cell_angle_alpha   90.00000000
_cell_angle_beta   90.00000000
_cell_angle_gamma   90.00000000
_symmetry_Int_Tables_number   1
_chemical_formula_structural   CuNiC2
_chemical_formula_sum   'Cu8 Ni8 C16'
_cell_volume   425.20041686
_cell_formula_units_Z   8
loop_
 _symmetry_equiv_pos_site_id
 _symmetry_equiv_pos_as_xyz
  1  'x, y, z'
loop_
 _atom_site_type_symbol
 _atom_site_label
 _atom_site_symmetry_multiplicity
 _atom_site_fract_x
 _atom_site_fract_y
 _atom_site_fract_z
 _atom_site_occupancy
  C  C0  1  0.99665100  0.26813200  0.07539600  1
  C  C1  1  0.50437700  0.24014100  0.80203100  1
  C  C2  1  0.49562300  0.25985900  0.30203100  1
  C  C3  1  0.00437700  0.75985900  0.69796900  1
  C  C4  1  0.99562300  0.24014100  0.30203100  1
  C  C5  1  0.49562300  0.75985900  0.19796900  1
  C  C6  1  0.50437700  0.74014100  0.69796900  1
  C  C7  1  0.00437700  0.25985900  0.80203100  1
  C  C8  1  0.99665100  0.76813200  0.42460400  1
  C  C9  1  0.50334900  0.76813200  0.92460400  1
  C  C10  1  0.00334900  0.23186800  0.57539600  1
  C  C11  1  0.00334900  0.73186800  0.92460400  1
  C  C12  1  0.50334900  0.26813200  0.57539600  1
  C  C13  1  0.49665100  0.23186800  0.07539600  1
  C  C14  1  0.99562300  0.74014100  0.19796900  1
  C  C15  1  0.49665100  0.73186800  0.42460400  1
  Ni  Ni16  1  0.77022600  0.40803500  0.44034800  1
  Ni  Ni17  1  0.27022600  0.59196500  0.05965200  1
  Ni  Ni18  1  0.72977400  0.90803500  0.55965200  1
  Ni  Ni19  1  0.22977400  0.09196500  0.94034800  1
  Ni  Ni20  1  0.22977400  0.59196500  0.55965200  1
  Ni  Ni21  1  0.72977400  0.40803500  0.94034800  1
  Ni  Ni22  1  0.27022600  0.09196500  0.44034800  1
  Ni  Ni23  1  0.77022600  0.90803500  0.05965200  1
  Cu  Cu24  1  0.73508000  0.43036900  0.18646700  1
  Cu  Cu25  1  0.76492000  0.43036900  0.68646700  1
  Cu  Cu26  1  0.26492000  0.56963100  0.81353300  1
  Cu  Cu27  1  0.26492000  0.06963100  0.68646700  1
  Cu  Cu28  1  0.76492000  0.93036900  0.81353300  1
  Cu  Cu29  1  0.23508000  0.56963100  0.31353300  1
  Cu  Cu30  1  0.73508000  0.93036900  0.31353300  1
  Cu  Cu31  1  0.23508000  0.06963100  0.18646700  1
