# generated using pymatgen
data_Cu3NiC
_symmetry_space_group_name_H-M   'P 1'
_cell_length_a   4.89479987
_cell_length_b   4.89479987
_cell_length_c   16.20628900
_cell_angle_alpha   90.00000000
_cell_angle_beta   90.00000000
_cell_angle_gamma   119.99999829
_symmetry_Int_Tables_number   1
_chemical_formula_structural   Cu3NiC
_chemical_formula_sum   'Cu18 Ni6 C6'
_cell_volume   336.26688332
_cell_formula_units_Z   6
loop_
 _symmetry_equiv_pos_site_id
 _symmetry_equiv_pos_as_xyz
  1  'x, y, z'
loop_
 _atom_site_type_symbol
 _atom_site_label
 _atom_site_symmetry_multiplicity
 _atom_site_fract_x
 _atom_site_fract_y
 _atom_site_fract_z
 _atom_site_occupancy
  C  C0  1  0.00000000  0.00000000  0.50000000  1
  C  C1  1  0.66666700  0.33333300  0.83352900  1
  C  C2  1  0.33333300  0.66666700  0.16647100  1
  C  C3  1  0.00000000  0.00000000  0.00000000  1
  C  C4  1  0.66666700  0.33333300  0.33334700  1
  C  C5  1  0.33333300  0.66666700  0.66665300  1
  Ni  Ni6  1  0.66666700  0.33333300  0.58960500  1
  Ni  Ni7  1  0.33333300  0.66666700  0.92333300  1
  Ni  Ni8  1  0.00000000  0.00000000  0.25627800  1
  Ni  Ni9  1  0.00000000  0.00000000  0.74372200  1
  Ni  Ni10  1  0.66666700  0.33333300  0.07666700  1
  Ni  Ni11  1  0.33333300  0.66666700  0.41039500  1
  Cu  Cu12  1  0.61328600  0.91505500  0.92242700  1
  Cu  Cu13  1  0.27756100  0.25137000  0.25509500  1
  Cu  Cu14  1  0.94427500  0.58460500  0.58841900  1
  Cu  Cu15  1  0.30176900  0.38671400  0.92242700  1
  Cu  Cu16  1  0.97380900  0.72243900  0.25509500  1
  Cu  Cu17  1  0.64033000  0.05572500  0.58841900  1
  Cu  Cu18  1  0.08494500  0.69823100  0.92242700  1
  Cu  Cu19  1  0.74863000  0.02619100  0.25509500  1
  Cu  Cu20  1  0.41539500  0.35967000  0.58841900  1
  Cu  Cu21  1  0.38671400  0.08494500  0.07757300  1
  Cu  Cu22  1  0.05572500  0.41539500  0.41158100  1
  Cu  Cu23  1  0.72243900  0.74863000  0.74490500  1
  Cu  Cu24  1  0.69823100  0.61328600  0.07757300  1
  Cu  Cu25  1  0.35967000  0.94427500  0.41158100  1
  Cu  Cu26  1  0.02619100  0.27756100  0.74490500  1
  Cu  Cu27  1  0.91505500  0.30176900  0.07757300  1
  Cu  Cu28  1  0.58460500  0.64033000  0.41158100  1
  Cu  Cu29  1  0.25137000  0.97380900  0.74490500  1
