# generated using pymatgen
data_Cu2Ni3C7
_symmetry_space_group_name_H-M   'P 1'
_cell_length_a   6.45911796
_cell_length_b   6.45911796
_cell_length_c   11.38478576
_cell_angle_alpha   76.18568130
_cell_angle_beta   76.18568130
_cell_angle_gamma   33.59407964
_symmetry_Int_Tables_number   1
_chemical_formula_structural   Cu2Ni3C7
_chemical_formula_sum   'Cu2 Ni3 C7'
_cell_volume   254.50085930
_cell_formula_units_Z   1
loop_
 _symmetry_equiv_pos_site_id
 _symmetry_equiv_pos_as_xyz
  1  'x, y, z'
loop_
 _atom_site_type_symbol
 _atom_site_label
 _atom_site_symmetry_multiplicity
 _atom_site_fract_x
 _atom_site_fract_y
 _atom_site_fract_z
 _atom_site_occupancy
  Ni  Ni0  1  0.69874100  0.69874100  0.18748500  1
  Ni  Ni1  1  0.30166900  0.30166900  0.80926200  1
  Ni  Ni2  1  0.88831500  0.88831500  0.42541200  1
  Cu  Cu3  1  0.11204300  0.11204300  0.57948100  1
  Cu  Cu4  1  0.00048300  0.00048300  0.99747300  1
  C  C5  1  0.03463000  0.03463000  0.20904700  1
  C  C6  1  0.96805000  0.96805000  0.78466600  1
  C  C7  1  0.73519100  0.73519100  0.64741800  1
  C  C8  1  0.25422100  0.25422100  0.35681000  1
  C  C9  1  0.34655200  0.34655200  0.04800300  1
  C  C10  1  0.65476100  0.65476200  0.95045700  1
  C  C11  1  0.50534400  0.50534400  0.50448500  1
