# generated using pymatgen
data_CuNi6C
_symmetry_space_group_name_H-M   'P 1'
_cell_length_a   4.93241400
_cell_length_b   6.14054000
_cell_length_c   10.95681200
_cell_angle_alpha   90.00000000
_cell_angle_beta   90.00000000
_cell_angle_gamma   90.00000000
_symmetry_Int_Tables_number   1
_chemical_formula_structural   CuNi6C
_chemical_formula_sum   'Cu2 Ni12 C2'
_cell_volume   331.85647554
_cell_formula_units_Z   2
loop_
 _symmetry_equiv_pos_site_id
 _symmetry_equiv_pos_as_xyz
  1  'x, y, z'
loop_
 _atom_site_type_symbol
 _atom_site_label
 _atom_site_symmetry_multiplicity
 _atom_site_fract_x
 _atom_site_fract_y
 _atom_site_fract_z
 _atom_site_occupancy
  Ni  Ni0  1  0.50000000  0.25267700  0.41912000  1
  Ni  Ni1  1  0.50000000  0.74732300  0.41912000  1
  Ni  Ni2  1  0.00000000  0.74834600  0.08586100  1
  Ni  Ni3  1  0.00000000  0.25165400  0.08586100  1
  Ni  Ni4  1  0.00000000  0.00000000  0.32804500  1
  Ni  Ni5  1  0.00000000  0.50000000  0.32835300  1
  Ni  Ni6  1  0.50000000  0.75267700  0.91912000  1
  Ni  Ni7  1  0.50000000  0.24732300  0.91912000  1
  Ni  Ni8  1  0.00000000  0.24834600  0.58586100  1
  Ni  Ni9  1  0.00000000  0.75165400  0.58586100  1
  Ni  Ni10  1  0.00000000  0.50000000  0.82804500  1
  Ni  Ni11  1  0.00000000  0.00000000  0.82835300  1
  C  C12  1  0.50000000  0.50000000  0.16980900  1
  C  C13  1  0.50000000  0.00000000  0.66980900  1
  Cu  Cu14  1  0.50000000  0.00000000  0.16382800  1
  Cu  Cu15  1  0.50000000  0.50000000  0.66382800  1
