# generated using pymatgen
data_Cu(NiC3)2
_symmetry_space_group_name_H-M   'P 1'
_cell_length_a   6.69218000
_cell_length_b   7.50559600
_cell_length_c   9.76380200
_cell_angle_alpha   90.00000000
_cell_angle_beta   90.00000000
_cell_angle_gamma   90.00000000
_symmetry_Int_Tables_number   1
_chemical_formula_structural   Cu(NiC3)2
_chemical_formula_sum   'Cu4 Ni8 C24'
_cell_volume   490.42405242
_cell_formula_units_Z   4
loop_
 _symmetry_equiv_pos_site_id
 _symmetry_equiv_pos_as_xyz
  1  'x, y, z'
loop_
 _atom_site_type_symbol
 _atom_site_label
 _atom_site_symmetry_multiplicity
 _atom_site_fract_x
 _atom_site_fract_y
 _atom_site_fract_z
 _atom_site_occupancy
  Ni  Ni0  1  0.58584600  0.52493300  0.82658600  1
  Ni  Ni1  1  0.41415400  0.47506700  0.17341400  1
  Ni  Ni2  1  0.08584600  0.47506700  0.67341400  1
  Ni  Ni3  1  0.41415400  0.02493300  0.17341400  1
  Ni  Ni4  1  0.91415400  0.52493300  0.32658600  1
  Ni  Ni5  1  0.58584600  0.97506700  0.82658600  1
  Ni  Ni6  1  0.91415400  0.97506700  0.32658600  1
  Ni  Ni7  1  0.08584600  0.02493300  0.67341400  1
  Cu  Cu8  1  0.09610700  0.75000000  0.97054400  1
  Cu  Cu9  1  0.90389300  0.25000000  0.02945600  1
  Cu  Cu10  1  0.59610700  0.25000000  0.52945600  1
  Cu  Cu11  1  0.40389300  0.75000000  0.47054400  1
  C  C12  1  0.81146100  0.75000000  0.60150600  1
  C  C13  1  0.18853900  0.25000000  0.39849400  1
  C  C14  1  0.31146100  0.25000000  0.89849400  1
  C  C15  1  0.68853900  0.75000000  0.10150600  1
  C  C16  1  0.68954400  0.56547000  0.56445800  1
  C  C17  1  0.31045600  0.43453000  0.43554200  1
  C  C18  1  0.18954400  0.43453000  0.93554200  1
  C  C19  1  0.31045600  0.06547000  0.43554200  1
  C  C20  1  0.81045600  0.56547000  0.06445800  1
  C  C21  1  0.68954400  0.93453000  0.56445800  1
  C  C22  1  0.81045600  0.93453000  0.06445800  1
  C  C23  1  0.18954400  0.06547000  0.93554200  1
  C  C24  1  0.87117300  0.75000000  0.76808500  1
  C  C25  1  0.12882700  0.25000000  0.23191500  1
  C  C26  1  0.37117300  0.25000000  0.73191500  1
  C  C27  1  0.62882700  0.75000000  0.26808500  1
  C  C28  1  0.02572400  0.75000000  0.51279800  1
  C  C29  1  0.97427600  0.25000000  0.48720200  1
  C  C30  1  0.52572400  0.25000000  0.98720200  1
  C  C31  1  0.47427600  0.75000000  0.01279800  1
  C  C32  1  0.32775600  0.75000000  0.72183000  1
  C  C33  1  0.67224400  0.25000000  0.27817000  1
  C  C34  1  0.82775600  0.25000000  0.77817000  1
  C  C35  1  0.17224400  0.75000000  0.22183000  1
