# generated using pymatgen
data_Cu3(NiC6)2
_symmetry_space_group_name_H-M   'P 1'
_cell_length_a   8.26012524
_cell_length_b   8.26012524
_cell_length_c   8.26012524
_cell_angle_alpha   108.47415915
_cell_angle_beta   108.47415915
_cell_angle_gamma   111.48429333
_symmetry_Int_Tables_number   1
_chemical_formula_structural   Cu3(NiC6)2
_chemical_formula_sum   'Cu3 Ni2 C12'
_cell_volume   433.44515751
_cell_formula_units_Z   1
loop_
 _symmetry_equiv_pos_site_id
 _symmetry_equiv_pos_as_xyz
  1  'x, y, z'
loop_
 _atom_site_type_symbol
 _atom_site_label
 _atom_site_symmetry_multiplicity
 _atom_site_fract_x
 _atom_site_fract_y
 _atom_site_fract_z
 _atom_site_occupancy
  C  C0  1  0.19096400  0.42696500  0.23600100  1
  C  C1  1  0.80903600  0.57303500  0.76399900  1
  C  C2  1  0.19096400  0.95496400  0.76399900  1
  C  C3  1  0.95496400  0.19096400  0.76399900  1
  C  C4  1  0.80903600  0.04503600  0.23600100  1
  C  C5  1  0.04503600  0.80903600  0.23600100  1
  C  C6  1  0.42696500  0.19096400  0.23600100  1
  C  C7  1  0.57303500  0.80903600  0.76399900  1
  C  C8  1  0.30707800  0.30707800  0.61415600  1
  C  C9  1  0.69292200  0.69292200  0.38584400  1
  C  C10  1  0.69292200  0.30707800  0.00000000  1
  C  C11  1  0.30707800  0.69292200  0.00000000  1
  Ni  Ni12  1  0.00000000  0.50000000  0.50000000  1
  Ni  Ni13  1  0.50000000  0.00000000  0.50000000  1
  Cu  Cu14  1  0.38457900  0.38457900  0.00000000  1
  Cu  Cu15  1  0.61542100  0.61542100  0.00000000  1
  Cu  Cu16  1  0.00000000  0.00000000  0.00000000  1
