# generated using pymatgen
data_Cu2Ni4C3
_symmetry_space_group_name_H-M   'P 1'
_cell_length_a   7.94254292
_cell_length_b   7.94254292
_cell_length_c   7.12756600
_cell_angle_alpha   90.00000000
_cell_angle_beta   90.00000000
_cell_angle_gamma   133.35734963
_symmetry_Int_Tables_number   1
_chemical_formula_structural   Cu2Ni4C3
_chemical_formula_sum   'Cu4 Ni8 C6'
_cell_volume   326.92349206
_cell_formula_units_Z   2
loop_
 _symmetry_equiv_pos_site_id
 _symmetry_equiv_pos_as_xyz
  1  'x, y, z'
loop_
 _atom_site_type_symbol
 _atom_site_label
 _atom_site_symmetry_multiplicity
 _atom_site_fract_x
 _atom_site_fract_y
 _atom_site_fract_z
 _atom_site_occupancy
  C  C0  1  0.94587600  0.05412400  0.25000000  1
  C  C1  1  0.05412400  0.94587600  0.75000000  1
  C  C2  1  0.26738300  0.73261700  0.25000000  1
  C  C3  1  0.73261700  0.26738300  0.75000000  1
  C  C4  1  0.60906500  0.39093500  0.25000000  1
  C  C5  1  0.39093500  0.60906500  0.75000000  1
  Ni  Ni6  1  0.84304400  0.61510300  0.07896200  1
  Ni  Ni7  1  0.15695600  0.38489700  0.92103800  1
  Ni  Ni8  1  0.15695600  0.38489700  0.57896200  1
  Ni  Ni9  1  0.38489700  0.15695600  0.42103800  1
  Ni  Ni10  1  0.84304400  0.61510300  0.42103800  1
  Ni  Ni11  1  0.61510300  0.84304400  0.57896200  1
  Ni  Ni12  1  0.61510300  0.84304400  0.92103800  1
  Ni  Ni13  1  0.38489700  0.15695600  0.07896200  1
  Cu  Cu14  1  0.47388600  0.52611400  0.25000000  1
  Cu  Cu15  1  0.52611400  0.47388600  0.75000000  1
  Cu  Cu16  1  0.74835000  0.25165000  0.25000000  1
  Cu  Cu17  1  0.25165000  0.74835000  0.75000000  1
