# generated using pymatgen
data_Cu5Ni2C25
_symmetry_space_group_name_H-M   'P 1'
_cell_length_a   2.93749600
_cell_length_b   9.79336761
_cell_length_c   10.19631702
_cell_angle_alpha   79.06974724
_cell_angle_beta   88.88836151
_cell_angle_gamma   87.52731051
_symmetry_Int_Tables_number   1
_chemical_formula_structural   Cu5Ni2C25
_chemical_formula_sum   'Cu5 Ni2 C25'
_cell_volume   287.71910887
_cell_formula_units_Z   1
loop_
 _symmetry_equiv_pos_site_id
 _symmetry_equiv_pos_as_xyz
  1  'x, y, z'
loop_
 _atom_site_type_symbol
 _atom_site_label
 _atom_site_symmetry_multiplicity
 _atom_site_fract_x
 _atom_site_fract_y
 _atom_site_fract_z
 _atom_site_occupancy
  C  C0  1  0.99621400  0.75268700  0.86416100  1
  C  C1  1  0.50575100  0.49944600  0.50470500  1
  C  C2  1  0.00298200  0.25152500  0.12413600  1
  C  C3  1  0.48846100  0.99156200  0.74751000  1
  C  C4  1  0.50234600  0.50065000  0.99691100  1
  C  C5  1  0.00654100  0.25268300  0.62838200  1
  C  C6  1  0.50592800  0.00099100  0.25063700  1
  C  C7  1  0.99098800  0.74635900  0.37985200  1
  C  C8  1  0.51391400  0.75382900  0.63195000  1
  Ni  Ni9  1  0.99813900  0.00078400  0.99811100  1
  Ni  Ni10  1  0.99915300  0.99314400  0.50718700  1
  Cu  Cu11  1  0.99488800  0.49853800  0.25114700  1
  Cu  Cu12  1  0.50435600  0.25357000  0.87167800  1
  Cu  Cu13  1  0.49526100  0.74920300  0.12474200  1
  Cu  Cu14  1  0.00350000  0.51023000  0.74299100  1
  Cu  Cu15  1  0.49628900  0.24828000  0.37365700  1
  C  C16  1  0.45887400  0.87488700  0.94373200  1
  C  C17  1  0.99967200  0.60743000  0.58057500  1
  C  C18  1  0.49569500  0.38130100  0.19253600  1
  C  C19  1  0.00002300  0.12933500  0.82182000  1
  C  C20  1  0.98841500  0.62959800  0.07408000  1
  C  C21  1  0.47055500  0.37625200  0.69575400  1
  C  C22  1  0.97710500  0.13054500  0.32692300  1
  C  C23  1  0.51590200  0.89075800  0.44360300  1
  C  C24  1  0.53257500  0.61412100  0.80874100  1
  C  C25  1  0.01548500  0.36179300  0.42686700  1
  C  C26  1  0.53964600  0.12922900  0.05440400  1
  C  C27  1  0.00395700  0.88506000  0.67395800  1
  C  C28  1  0.00357800  0.38067700  0.91759000  1
  C  C29  1  0.47930700  0.11210000  0.55366600  1
  C  C30  1  0.01125000  0.87360300  0.17899000  1
  C  C31  1  0.50325300  0.61983100  0.30901000  1
