# generated using pymatgen
data_Cu2Ni2C21
_symmetry_space_group_name_H-M   'P 1'
_cell_length_a   10.44914899
_cell_length_b   10.44914899
_cell_length_c   7.26816973
_cell_angle_alpha   85.23316800
_cell_angle_beta   85.23316800
_cell_angle_gamma   43.99072585
_symmetry_Int_Tables_number   1
_chemical_formula_structural   Cu2Ni2C21
_chemical_formula_sum   'Cu4 Ni4 C42'
_cell_volume   548.95164050
_cell_formula_units_Z   2
loop_
 _symmetry_equiv_pos_site_id
 _symmetry_equiv_pos_as_xyz
  1  'x, y, z'
loop_
 _atom_site_type_symbol
 _atom_site_label
 _atom_site_symmetry_multiplicity
 _atom_site_fract_x
 _atom_site_fract_y
 _atom_site_fract_z
 _atom_site_occupancy
  C  C0  1  0.00000000  0.50000000  0.50000000  1
  C  C1  1  0.50000000  0.00000000  0.00000000  1
  Ni  Ni2  1  0.82664500  0.39073800  0.29512800  1
  Ni  Ni3  1  0.60926200  0.17335500  0.20487200  1
  Ni  Ni4  1  0.17335500  0.60926200  0.70487200  1
  Ni  Ni5  1  0.39073800  0.82664500  0.79512800  1
  Cu  Cu6  1  0.75225700  0.58204500  0.93021600  1
  Cu  Cu7  1  0.41795500  0.24774300  0.56978400  1
  Cu  Cu8  1  0.24774300  0.41795500  0.06978400  1
  Cu  Cu9  1  0.58204500  0.75225700  0.43021600  1
  C  C10  1  0.80969000  0.19031000  0.25000000  1
  C  C11  1  0.19031000  0.80969000  0.75000000  1
  C  C12  1  0.91170100  0.73406300  0.68481300  1
  C  C13  1  0.26593700  0.08829900  0.81518700  1
  C  C14  1  0.08829900  0.26593700  0.31518700  1
  C  C15  1  0.73406300  0.91170100  0.18481300  1
  C  C16  1  0.33714500  0.59643700  0.20279500  1
  C  C17  1  0.40356300  0.66285500  0.29720500  1
  C  C18  1  0.66285500  0.40356300  0.79720500  1
  C  C19  1  0.59643700  0.33714500  0.70279500  1
  C  C20  1  0.66095000  0.98801600  0.68268700  1
  C  C21  1  0.01198400  0.33905000  0.81731300  1
  C  C22  1  0.33905000  0.01198400  0.31731300  1
  C  C23  1  0.98801600  0.66095000  0.18268700  1
  C  C24  1  0.86110900  0.24480200  0.32286300  1
  C  C25  1  0.75519800  0.13889100  0.17713700  1
  C  C26  1  0.13889100  0.75519800  0.67713700  1
  C  C27  1  0.24480200  0.86110900  0.82286300  1
  C  C28  1  0.84669800  0.43250300  0.07985600  1
  C  C29  1  0.56749700  0.15330200  0.42014400  1
  C  C30  1  0.15330200  0.56749700  0.92014400  1
  C  C31  1  0.43250300  0.84669800  0.57985600  1
  C  C32  1  0.91888300  0.46492300  0.76531900  1
  C  C33  1  0.53507700  0.08111700  0.73468100  1
  C  C34  1  0.08111700  0.53507700  0.23468100  1
  C  C35  1  0.46492300  0.91888300  0.26531900  1
  C  C36  1  0.58308000  0.64060900  0.85632700  1
  C  C37  1  0.35939100  0.41692000  0.64367300  1
  C  C38  1  0.41692000  0.35939100  0.14367300  1
  C  C39  1  0.64060900  0.58308000  0.35632700  1
  C  C40  1  0.29229600  0.70770400  0.25000000  1
  C  C41  1  0.70770400  0.29229600  0.75000000  1
  C  C42  1  0.02326100  0.63019500  0.61926000  1
  C  C43  1  0.36980500  0.97673900  0.88074000  1
  C  C44  1  0.97673900  0.36980500  0.38074000  1
  C  C45  1  0.63019500  0.02326100  0.11926000  1
  C  C46  1  0.71599900  0.74928100  0.96732000  1
  C  C47  1  0.25071900  0.28400100  0.53268000  1
  C  C48  1  0.28400100  0.25071900  0.03268000  1
  C  C49  1  0.74928100  0.71599900  0.46732000  1
