# generated using pymatgen
data_Cu14Ni2C7
_symmetry_space_group_name_H-M   'P 1'
_cell_length_a   8.31963800
_cell_length_b   8.45468125
_cell_length_c   10.28692789
_cell_angle_alpha   108.40612630
_cell_angle_beta   106.45383357
_cell_angle_gamma   103.24811850
_symmetry_Int_Tables_number   1
_chemical_formula_structural   Cu14Ni2C7
_chemical_formula_sum   'Cu28 Ni4 C14'
_cell_volume   616.77241477
_cell_formula_units_Z   2
loop_
 _symmetry_equiv_pos_site_id
 _symmetry_equiv_pos_as_xyz
  1  'x, y, z'
loop_
 _atom_site_type_symbol
 _atom_site_label
 _atom_site_symmetry_multiplicity
 _atom_site_fract_x
 _atom_site_fract_y
 _atom_site_fract_z
 _atom_site_occupancy
  C  C0  1  0.76535800  0.76792400  0.76652900  1
  C  C1  1  0.27092200  0.23174500  0.75073800  1
  C  C2  1  0.99586700  0.50830200  0.76287800  1
  C  C3  1  0.00413300  0.49169800  0.23712200  1
  C  C4  1  0.72907800  0.76825500  0.24926200  1
  C  C5  1  0.23464200  0.23207600  0.23347100  1
  C  C6  1  0.79807700  0.06114900  0.65245500  1
  C  C7  1  0.30788800  0.56160700  0.65054900  1
  C  C8  1  0.69211200  0.43839300  0.34945100  1
  C  C9  1  0.20192300  0.93885100  0.34754500  1
  C  C10  1  0.05532600  0.80006400  0.57196900  1
  C  C11  1  0.55238100  0.31442300  0.57549600  1
  C  C12  1  0.44761900  0.68557700  0.42450400  1
  C  C13  1  0.94467400  0.19993600  0.42803100  1
  Ni  Ni14  1  0.97267700  0.21886100  0.92064600  1
  Ni  Ni15  1  0.46718200  0.72200800  0.92023900  1
  Ni  Ni16  1  0.53281800  0.27799200  0.07976100  1
  Ni  Ni17  1  0.02732300  0.78113900  0.07935400  1
  Cu  Cu18  1  0.94205800  0.70219600  0.94211800  1
  Cu  Cu19  1  0.44844800  0.20315100  0.94479500  1
  Cu  Cu20  1  0.31778100  0.57967500  0.85196900  1
  Cu  Cu21  1  0.82525900  0.07880500  0.85630600  1
  Cu  Cu22  1  0.01940700  0.26688100  0.82213400  1
  Cu  Cu23  1  0.51233900  0.76879100  0.82025400  1
  Cu  Cu24  1  0.15594600  0.70680800  0.65861100  1
  Cu  Cu25  1  0.97666500  0.90359600  0.67234200  1
  Cu  Cu26  1  0.66817900  0.24807500  0.67363400  1
  Cu  Cu27  1  0.46815700  0.42390000  0.67317300  1
  Cu  Cu28  1  0.59391200  0.83191300  0.57035700  1
  Cu  Cu29  1  0.67990200  0.44884500  0.53842300  1
  Cu  Cu30  1  0.18135200  0.92877600  0.53292500  1
  Cu  Cu31  1  0.09366200  0.34384800  0.57917900  1
  Cu  Cu32  1  0.90633800  0.65615200  0.42082100  1
  Cu  Cu33  1  0.32009800  0.55115500  0.46157700  1
  Cu  Cu34  1  0.81864800  0.07122400  0.46707500  1
  Cu  Cu35  1  0.40608800  0.16808700  0.42964300  1
  Cu  Cu36  1  0.33182100  0.75192500  0.32636600  1
  Cu  Cu37  1  0.53184300  0.57610000  0.32682700  1
  Cu  Cu38  1  0.84405400  0.29319200  0.34138900  1
  Cu  Cu39  1  0.02333500  0.09640400  0.32765800  1
  Cu  Cu40  1  0.48766100  0.23120900  0.17974600  1
  Cu  Cu41  1  0.98059300  0.73311900  0.17786600  1
  Cu  Cu42  1  0.68221900  0.42032500  0.14803100  1
  Cu  Cu43  1  0.17474100  0.92119500  0.14369400  1
  Cu  Cu44  1  0.05794200  0.29780400  0.05788200  1
  Cu  Cu45  1  0.55155200  0.79684900  0.05520500  1
