# generated using pymatgen
data_CuNiC8
_symmetry_space_group_name_H-M   'P 1'
_cell_length_a   5.33904471
_cell_length_b   7.62388446
_cell_length_c   5.48240000
_cell_angle_alpha   89.99932728
_cell_angle_beta   90.00014881
_cell_angle_gamma   90.17617603
_symmetry_Int_Tables_number   1
_chemical_formula_structural   CuNiC8
_chemical_formula_sum   'Cu2 Ni2 C16'
_cell_volume   223.15597994
_cell_formula_units_Z   2
loop_
 _symmetry_equiv_pos_site_id
 _symmetry_equiv_pos_as_xyz
  1  'x, y, z'
loop_
 _atom_site_type_symbol
 _atom_site_label
 _atom_site_symmetry_multiplicity
 _atom_site_fract_x
 _atom_site_fract_y
 _atom_site_fract_z
 _atom_site_occupancy
  C  C0  1  0.99233800  0.25028900  0.03299800  1
  C  C1  1  0.49232900  0.75030000  0.46700500  1
  Ni  Ni2  1  0.52669800  0.25085500  0.55606200  1
  Ni  Ni3  1  0.02670300  0.75085100  0.94394500  1
  Cu  Cu4  1  0.49937400  0.99870700  0.99791000  1
  Cu  Cu5  1  0.99937900  0.49870500  0.50208700  1
  C  C6  1  0.00065200  0.00290000  0.49911900  1
  C  C7  1  0.50067400  0.50290600  0.00087400  1
  C  C8  1  0.62808000  0.75756700  0.01928600  1
  C  C9  1  0.12808600  0.25756600  0.48071200  1
  C  C10  1  0.20014200  0.94285400  0.19467400  1
  C  C11  1  0.70014500  0.44284600  0.30532700  1
  C  C12  1  0.18825500  0.55785700  0.20391500  1
  C  C13  1  0.68825100  0.05784900  0.29608600  1
  C  C14  1  0.92283700  0.74256400  0.54517700  1
  C  C15  1  0.42283300  0.24256300  0.95482300  1
  C  C16  1  0.26603900  0.55083400  0.72775500  1
  C  C17  1  0.76603900  0.05083700  0.77224400  1
  C  C18  1  0.27557000  0.94557400  0.73369900  1
  C  C19  1  0.77557300  0.44557000  0.76630400  1
