# generated using pymatgen
data_Cu4NiC16
_symmetry_space_group_name_H-M   'P 1'
_cell_length_a   5.78652700
_cell_length_b   7.14206204
_cell_length_c   8.73718415
_cell_angle_alpha   103.48266171
_cell_angle_beta   93.71488655
_cell_angle_gamma   91.55111706
_symmetry_Int_Tables_number   1
_chemical_formula_structural   Cu4NiC16
_chemical_formula_sum   'Cu4 Ni1 C16'
_cell_volume   350.06773660
_cell_formula_units_Z   1
loop_
 _symmetry_equiv_pos_site_id
 _symmetry_equiv_pos_as_xyz
  1  'x, y, z'
loop_
 _atom_site_type_symbol
 _atom_site_label
 _atom_site_symmetry_multiplicity
 _atom_site_fract_x
 _atom_site_fract_y
 _atom_site_fract_z
 _atom_site_occupancy
  Ni  Ni0  1  0.00000000  0.00000000  0.00000000  1
  Cu  Cu1  1  0.85682600  0.54344800  0.74740200  1
  Cu  Cu2  1  0.14317400  0.45655200  0.25259800  1
  Cu  Cu3  1  0.52243300  0.92875200  0.22879400  1
  Cu  Cu4  1  0.47756700  0.07124800  0.77120600  1
  C  C5  1  0.05719000  0.72592800  0.82543700  1
  C  C6  1  0.94281000  0.27407200  0.17456300  1
  C  C7  1  0.98009800  0.31731500  0.69402100  1
  C  C8  1  0.01990200  0.68268500  0.30597900  1
  C  C9  1  0.63867100  0.52852800  0.87056200  1
  C  C10  1  0.36132900  0.47147200  0.12943800  1
  C  C11  1  0.75143800  0.54587100  0.55676000  1
  C  C12  1  0.24856200  0.45412900  0.44324000  1
  C  C13  1  0.22871200  0.87441700  0.18005300  1
  C  C14  1  0.77128800  0.12558300  0.81994700  1
  C  C15  1  0.56388000  0.17603300  0.31013400  1
  C  C16  1  0.43612000  0.82396700  0.68986600  1
  C  C17  1  0.67516800  0.86182800  0.06475200  1
  C  C18  1  0.32483200  0.13817200  0.93524800  1
  C  C19  1  0.62629600  0.84409900  0.38870800  1
  C  C20  1  0.37370400  0.15590100  0.61129200  1
