# generated using pymatgen
data_CuNi3C16
_symmetry_space_group_name_H-M   'P 1'
_cell_length_a   12.95484987
_cell_length_b   12.95484987
_cell_length_c   12.95484987
_cell_angle_alpha   90.00000000
_cell_angle_beta   90.00000000
_cell_angle_gamma   90.00000000
_symmetry_Int_Tables_number   1
_chemical_formula_structural   CuNi3C16
_chemical_formula_sum   'Cu8 Ni24 C128'
_cell_volume   2174.18829489
_cell_formula_units_Z   8
loop_
 _symmetry_equiv_pos_site_id
 _symmetry_equiv_pos_as_xyz
  1  'x, y, z'
loop_
 _atom_site_type_symbol
 _atom_site_label
 _atom_site_symmetry_multiplicity
 _atom_site_fract_x
 _atom_site_fract_y
 _atom_site_fract_z
 _atom_site_occupancy
  C  C0  1  0.64866443  0.35133557  0.85133557  1
  C  C1  1  0.14866443  0.14866443  0.14866443  1
  C  C2  1  0.85133557  0.64866443  0.35133557  1
  C  C3  1  0.35133557  0.85133557  0.64866443  1
  C  C4  1  0.65190207  0.84809793  0.15190207  1
  C  C5  1  0.84809793  0.15190207  0.65190207  1
  C  C6  1  0.34809793  0.34809793  0.34809793  1
  C  C7  1  0.15190207  0.65190207  0.84809793  1
  C  C8  1  0.69614597  0.56190922  0.09978564  1
  C  C9  1  0.90021436  0.19614597  0.93809078  1
  C  C10  1  0.06190922  0.40021436  0.30385403  1
  C  C11  1  0.19614597  0.93809078  0.90021436  1
  C  C12  1  0.40021436  0.30385403  0.06190922  1
  C  C13  1  0.56190922  0.09978564  0.69614597  1
  C  C14  1  0.30385403  0.06190922  0.40021436  1
  C  C15  1  0.09978564  0.69614597  0.56190922  1
  C  C16  1  0.93809078  0.90021436  0.19614597  1
  C  C17  1  0.80385403  0.43809078  0.59978564  1
  C  C18  1  0.59978564  0.80385403  0.43809078  1
  C  C19  1  0.43809078  0.59978564  0.80385403  1
  C  C20  1  0.64668053  0.13205407  0.11846932  1
  C  C21  1  0.88153068  0.14668053  0.36794593  1
  C  C22  1  0.63205407  0.38153068  0.35331947  1
  C  C23  1  0.14668053  0.36794593  0.88153068  1
  C  C24  1  0.38153068  0.35331947  0.63205407  1
  C  C25  1  0.13205407  0.11846932  0.64668053  1
  C  C26  1  0.35331947  0.63205407  0.38153068  1
  C  C27  1  0.11846932  0.64668053  0.13205407  1
  C  C28  1  0.36794593  0.88153068  0.14668053  1
  C  C29  1  0.85331947  0.86794593  0.61846932  1
  C  C30  1  0.61846932  0.85331947  0.86794593  1
  C  C31  1  0.86794593  0.61846932  0.85331947  1
  Ni  Ni32  1  0.94606253  0.41449783  0.81669796  1
  Ni  Ni33  1  0.18330204  0.44606253  0.08550217  1
  Ni  Ni34  1  0.91449783  0.68330204  0.05393747  1
  Ni  Ni35  1  0.44606253  0.08550217  0.18330204  1
  Ni  Ni36  1  0.68330204  0.05393747  0.91449783  1
  Ni  Ni37  1  0.41449783  0.81669796  0.94606253  1
  Ni  Ni38  1  0.05393747  0.91449783  0.68330204  1
  Ni  Ni39  1  0.81669796  0.94606253  0.41449783  1
  Ni  Ni40  1  0.08550217  0.18330204  0.44606253  1
  Ni  Ni41  1  0.55393747  0.58550217  0.31669796  1
  Ni  Ni42  1  0.31669796  0.55393747  0.58550217  1
  Ni  Ni43  1  0.58550217  0.31669796  0.55393747  1
  Ni  Ni44  1  0.62158534  0.34620796  0.13757820  1
  Ni  Ni45  1  0.86242180  0.12158534  0.15379204  1
  Ni  Ni46  1  0.84620796  0.36242180  0.37841466  1
  Ni  Ni47  1  0.12158534  0.15379204  0.86242180  1
  Ni  Ni48  1  0.36242180  0.37841466  0.84620796  1
  Ni  Ni49  1  0.34620796  0.13757820  0.62158534  1
  Ni  Ni50  1  0.37841466  0.84620796  0.36242180  1
  Ni  Ni51  1  0.13757820  0.62158534  0.34620796  1
  Ni  Ni52  1  0.15379204  0.86242180  0.12158534  1
  Ni  Ni53  1  0.87841466  0.65379204  0.63757820  1
  Ni  Ni54  1  0.63757820  0.87841466  0.65379204  1
  Ni  Ni55  1  0.65379204  0.63757820  0.87841466  1
  Cu  Cu56  1  0.59617900  0.59617900  0.59617900  1
  Cu  Cu57  1  0.40382100  0.09617900  0.90382100  1
  Cu  Cu58  1  0.09617900  0.90382100  0.40382100  1
  Cu  Cu59  1  0.90382100  0.40382100  0.09617900  1
  Cu  Cu60  1  0.44001560  0.55998440  0.05998440  1
  Cu  Cu61  1  0.94001560  0.94001560  0.94001560  1
  Cu  Cu62  1  0.05998440  0.44001560  0.55998440  1
  Cu  Cu63  1  0.55998440  0.05998440  0.44001560  1
  C  C64  1  0.59694687  0.59724273  0.20774402  1
  C  C65  1  0.79225598  0.09694687  0.90275727  1
  C  C66  1  0.09724273  0.29225598  0.40305313  1
  C  C67  1  0.09694687  0.90275727  0.79225598  1
  C  C68  1  0.29225598  0.40305313  0.09724273  1
  C  C69  1  0.59724273  0.20774402  0.59694687  1
  C  C70  1  0.40305313  0.09724273  0.29225598  1
  C  C71  1  0.20774402  0.59694687  0.59724273  1
  C  C72  1  0.90275727  0.79225598  0.09694687  1
  C  C73  1  0.90305313  0.40275727  0.70774402  1
  C  C74  1  0.70774402  0.90305313  0.40275727  1
  C  C75  1  0.40275727  0.70774402  0.90305313  1
  C  C76  1  0.06704385  0.40045967  0.80673240  1
  C  C77  1  0.19326760  0.56704385  0.09954033  1
  C  C78  1  0.90045967  0.69326760  0.93295615  1
  C  C79  1  0.56704385  0.09954033  0.19326760  1
  C  C80  1  0.69326760  0.93295615  0.90045967  1
  C  C81  1  0.40045967  0.80673240  0.06704385  1
  C  C82  1  0.93295615  0.90045967  0.69326760  1
  C  C83  1  0.80673240  0.06704385  0.40045967  1
  C  C84  1  0.09954033  0.19326760  0.56704385  1
  C  C85  1  0.43295615  0.59954033  0.30673240  1
  C  C86  1  0.30673240  0.43295615  0.59954033  1
  C  C87  1  0.59954033  0.30673240  0.43295615  1
  C  C88  1  0.71383026  0.41359381  0.10628987  1
  C  C89  1  0.89371013  0.21383026  0.08640619  1
  C  C90  1  0.91359381  0.39371013  0.28616974  1
  C  C91  1  0.21383026  0.08640619  0.89371013  1
  C  C92  1  0.39371013  0.28616974  0.91359381  1
  C  C93  1  0.41359381  0.10628987  0.71383026  1
  C  C94  1  0.28616974  0.91359381  0.39371013  1
  C  C95  1  0.10628987  0.71383026  0.41359381  1
  C  C96  1  0.08640619  0.89371013  0.21383026  1
  C  C97  1  0.78616974  0.58640619  0.60628987  1
  C  C98  1  0.60628987  0.78616974  0.58640619  1
  C  C99  1  0.58640619  0.60628987  0.78616974  1
  C  C100  1  0.93690735  0.52833902  0.85987358  1
  C  C101  1  0.14012642  0.43690735  0.97166098  1
  C  C102  1  0.02833902  0.64012642  0.06309265  1
  C  C103  1  0.43690735  0.97166098  0.14012642  1
  C  C104  1  0.64012642  0.06309265  0.02833902  1
  C  C105  1  0.52833902  0.85987358  0.93690735  1
  C  C106  1  0.06309265  0.02833902  0.64012642  1
  C  C107  1  0.85987358  0.93690735  0.52833902  1
  C  C108  1  0.97166098  0.14012642  0.43690735  1
  C  C109  1  0.56309265  0.47166098  0.35987358  1
  C  C110  1  0.35987358  0.56309265  0.47166098  1
  C  C111  1  0.47166098  0.35987358  0.56309265  1
  C  C112  1  0.89821768  0.34053537  0.89534749  1
  C  C113  1  0.10465251  0.39821768  0.15946463  1
  C  C114  1  0.84053537  0.60465251  0.10178232  1
  C  C115  1  0.39821768  0.15946463  0.10465251  1
  C  C116  1  0.60465251  0.10178232  0.84053537  1
  C  C117  1  0.34053537  0.89534749  0.89821768  1
  C  C118  1  0.10178232  0.84053537  0.60465251  1
  C  C119  1  0.89534749  0.89821768  0.34053537  1
  C  C120  1  0.15946463  0.10465251  0.39821768  1
  C  C121  1  0.60178232  0.65946463  0.39534749  1
  C  C122  1  0.39534749  0.60178232  0.65946463  1
  C  C123  1  0.65946463  0.39534749  0.60178232  1
  C  C124  1  0.63312347  0.23888499  0.08196633  1
  C  C125  1  0.91803367  0.13312347  0.26111501  1
  C  C126  1  0.73888499  0.41803367  0.36687653  1
  C  C127  1  0.13312347  0.26111501  0.91803367  1
  C  C128  1  0.41803367  0.36687653  0.73888499  1
  C  C129  1  0.23888499  0.08196633  0.63312347  1
  C  C130  1  0.36687653  0.73888499  0.41803367  1
  C  C131  1  0.08196633  0.63312347  0.23888499  1
  C  C132  1  0.26111501  0.91803367  0.13312347  1
  C  C133  1  0.86687653  0.76111501  0.58196633  1
  C  C134  1  0.58196633  0.86687653  0.76111501  1
  C  C135  1  0.76111501  0.58196633  0.86687653  1
  C  C136  1  0.61847121  0.32367405  0.25584734  1
  C  C137  1  0.74415266  0.11847121  0.17632595  1
  C  C138  1  0.82367405  0.24415266  0.38152879  1
  C  C139  1  0.11847121  0.17632595  0.74415266  1
  C  C140  1  0.24415266  0.38152879  0.82367405  1
  C  C141  1  0.32367405  0.25584734  0.61847121  1
  C  C142  1  0.38152879  0.82367405  0.24415266  1
  C  C143  1  0.25584734  0.61847121  0.32367405  1
  C  C144  1  0.17632595  0.74415266  0.11847121  1
  C  C145  1  0.88152879  0.67632595  0.75584734  1
  C  C146  1  0.75584734  0.88152879  0.67632595  1
  C  C147  1  0.67632595  0.75584734  0.88152879  1
  C  C148  1  0.51862430  0.39206258  0.10077985  1
  C  C149  1  0.89922015  0.01862430  0.10793742  1
  C  C150  1  0.89206258  0.39922015  0.48137570  1
  C  C151  1  0.01862430  0.10793742  0.89922015  1
  C  C152  1  0.39922015  0.48137570  0.89206258  1
  C  C153  1  0.39206258  0.10077985  0.51862430  1
  C  C154  1  0.48137570  0.89206258  0.39922015  1
  C  C155  1  0.10077985  0.51862430  0.39206258  1
  C  C156  1  0.10793742  0.89922015  0.01862430  1
  C  C157  1  0.98137570  0.60793742  0.60077985  1
  C  C158  1  0.60077985  0.98137570  0.60793742  1
  C  C159  1  0.60793742  0.60077985  0.98137570  1
