# generated using pymatgen
data_Cu3NiC16
_symmetry_space_group_name_H-M   'P 1'
_cell_length_a   5.30747500
_cell_length_b   5.31822056
_cell_length_c   10.29598424
_cell_angle_alpha   95.55993112
_cell_angle_beta   94.66060520
_cell_angle_gamma   119.82596185
_symmetry_Int_Tables_number   1
_chemical_formula_structural   Cu3NiC16
_chemical_formula_sum   'Cu3 Ni1 C16'
_cell_volume   248.10076641
_cell_formula_units_Z   1
loop_
 _symmetry_equiv_pos_site_id
 _symmetry_equiv_pos_as_xyz
  1  'x, y, z'
loop_
 _atom_site_type_symbol
 _atom_site_label
 _atom_site_symmetry_multiplicity
 _atom_site_fract_x
 _atom_site_fract_y
 _atom_site_fract_z
 _atom_site_occupancy
  C  C0  1  0.99110400  0.99139900  0.97350500  1
  C  C1  1  0.49228900  0.49894500  0.50575800  1
  C  C2  1  0.16811300  0.83495800  0.50295400  1
  C  C3  1  0.83901900  0.17056400  0.50215100  1
  Ni  Ni4  1  0.25840800  0.59165100  0.76753400  1
  Cu  Cu5  1  0.59571500  0.25916700  0.77855100  1
  Cu  Cu6  1  0.74195600  0.40817400  0.22924600  1
  Cu  Cu7  1  0.40902400  0.74570200  0.22936200  1
  C  C8  1  0.48728000  0.47764300  0.84449300  1
  C  C9  1  0.53552100  0.53592200  0.16434700  1
  C  C10  1  0.94241100  0.41434400  0.84667300  1
  C  C11  1  0.42441600  0.96098500  0.84744100  1
  C  C12  1  0.05326500  0.56986800  0.16210000  1
  C  C13  1  0.56964800  0.05245000  0.16032600  1
  C  C14  1  0.19421900  0.53575900  0.59975400  1
  C  C15  1  0.54138800  0.19666100  0.61918900  1
  C  C16  1  0.79900700  0.45873200  0.38551600  1
  C  C17  1  0.46495200  0.81190800  0.38580900  1
  C  C18  1  0.87397500  0.87583400  0.60359700  1
  C  C19  1  0.11828800  0.10933600  0.39169400  1
