# generated using pymatgen
data_Cu(NiC8)2
_symmetry_space_group_name_H-M   'P 1'
_cell_length_a   9.57389900
_cell_length_b   9.80070900
_cell_length_c   13.14732974
_cell_angle_alpha   84.57309598
_cell_angle_beta   90.00000000
_cell_angle_gamma   90.00000000
_symmetry_Int_Tables_number   1
_chemical_formula_structural   Cu(NiC8)2
_chemical_formula_sum   'Cu4 Ni8 C64'
_cell_volume   1228.09754163
_cell_formula_units_Z   4
loop_
 _symmetry_equiv_pos_site_id
 _symmetry_equiv_pos_as_xyz
  1  'x, y, z'
loop_
 _atom_site_type_symbol
 _atom_site_label
 _atom_site_symmetry_multiplicity
 _atom_site_fract_x
 _atom_site_fract_y
 _atom_site_fract_z
 _atom_site_occupancy
  C  C0  1  0.75000000  0.37009700  0.97373000  1
  C  C1  1  0.25000000  0.62990300  0.02627000  1
  C  C2  1  0.75000000  0.01331500  0.38638000  1
  C  C3  1  0.25000000  0.98668500  0.61362000  1
  C  C4  1  0.40928200  0.30425200  0.09008400  1
  C  C5  1  0.90928200  0.69574800  0.90991600  1
  C  C6  1  0.59071800  0.69574800  0.90991600  1
  C  C7  1  0.09071800  0.30425200  0.09008400  1
  C  C8  1  0.59260400  0.14954900  0.60909000  1
  C  C9  1  0.09260400  0.85045100  0.39091000  1
  C  C10  1  0.40739600  0.85045100  0.39091000  1
  C  C11  1  0.90739600  0.14954900  0.60909000  1
  Ni  Ni12  1  0.25000000  0.28522800  0.95023600  1
  Ni  Ni13  1  0.75000000  0.71477200  0.04976400  1
  Ni  Ni14  1  0.25000000  0.13497300  0.04001800  1
  Ni  Ni15  1  0.75000000  0.86502700  0.95998200  1
  Ni  Ni16  1  0.75000000  0.96972500  0.66961500  1
  Ni  Ni17  1  0.25000000  0.03027500  0.33038500  1
  Ni  Ni18  1  0.75000000  0.10590500  0.75124500  1
  Ni  Ni19  1  0.25000000  0.89409500  0.24875500  1
  Cu  Cu20  1  0.25000000  0.24743200  0.03199600  1
  Cu  Cu21  1  0.75000000  0.75256800  0.96800400  1
  Cu  Cu22  1  0.75000000  0.08184200  0.67114900  1
  Cu  Cu23  1  0.25000000  0.91815800  0.32885100  1
  C  C24  1  0.75000000  0.27063200  0.86483000  1
  C  C25  1  0.25000000  0.72936800  0.13517000  1
  C  C26  1  0.75000000  0.45264600  0.09048900  1
  C  C27  1  0.25000000  0.54735400  0.90951100  1
  C  C28  1  0.75000000  0.03896900  0.08599200  1
  C  C29  1  0.25000000  0.96103100  0.91400800  1
  C  C30  1  0.53428900  0.26437300  0.02513300  1
  C  C31  1  0.03428900  0.73562700  0.97486700  1
  C  C32  1  0.46571100  0.73562700  0.97486700  1
  C  C33  1  0.96571100  0.26437300  0.02513300  1
  C  C34  1  0.60413600  0.54028600  0.90291800  1
  C  C35  1  0.10413600  0.45971400  0.09708200  1
  C  C36  1  0.39586400  0.45971400  0.09708200  1
  C  C37  1  0.89586400  0.54028600  0.90291800  1
  C  C38  1  0.43031400  0.22642600  0.19735100  1
  C  C39  1  0.93031400  0.77357400  0.80264900  1
  C  C40  1  0.56968600  0.77357400  0.80264900  1
  C  C41  1  0.06968600  0.22642600  0.19735100  1
  C  C42  1  0.75000000  0.87177400  0.48466600  1
  C  C43  1  0.25000000  0.12822600  0.51533400  1
  C  C44  1  0.75000000  0.15146000  0.28518100  1
  C  C45  1  0.25000000  0.84854000  0.71481900  1
  C  C46  1  0.60452800  0.12764100  0.49409500  1
  C  C47  1  0.10452800  0.87235900  0.50590500  1
  C  C48  1  0.39547200  0.87235900  0.50590500  1
  C  C49  1  0.89547200  0.12764100  0.49409500  1
  C  C50  1  0.53067800  0.92896700  0.33817400  1
  C  C51  1  0.03067800  0.07103300  0.66182600  1
  C  C52  1  0.46932200  0.07103300  0.66182600  1
  C  C53  1  0.96932200  0.92896700  0.33817400  1
  C  C54  1  0.75000000  0.85464600  0.24100700  1
  C  C55  1  0.25000000  0.14535400  0.75899300  1
  C  C56  1  0.57852800  0.30589600  0.61269700  1
  C  C57  1  0.07852800  0.69410400  0.38730300  1
  C  C58  1  0.42147200  0.69410400  0.38730300  1
  C  C59  1  0.92147200  0.30589600  0.61269700  1
  C  C60  1  0.75000000  0.54253700  0.31554200  1
  C  C61  1  0.25000000  0.45746300  0.68445800  1
  C  C62  1  0.36508000  0.01802500  0.88095900  1
  C  C63  1  0.86508000  0.98197500  0.11904100  1
  C  C64  1  0.63492000  0.98197500  0.11904100  1
  C  C65  1  0.13492000  0.01802500  0.88095900  1
  C  C66  1  0.75000000  0.61715200  0.60846800  1
  C  C67  1  0.25000000  0.38284800  0.39153200  1
  C  C68  1  0.63499900  0.58724400  0.27427000  1
  C  C69  1  0.13499900  0.41275600  0.72573000  1
  C  C70  1  0.36500100  0.41275600  0.72573000  1
  C  C71  1  0.86500100  0.58724400  0.27427000  1
  C  C72  1  0.36568600  0.36162900  0.34689800  1
  C  C73  1  0.86568600  0.63837100  0.65310200  1
  C  C74  1  0.63431400  0.63837100  0.65310200  1
  C  C75  1  0.13431400  0.36162900  0.34689800  1
