# generated using pymatgen
data_Cu11Ni3C2
_symmetry_space_group_name_H-M   'P 1'
_cell_length_a   5.96831700
_cell_length_b   9.94777300
_cell_length_c   19.87906886
_cell_angle_alpha   60.02470615
_cell_angle_beta   90.00000000
_cell_angle_gamma   90.00000000
_symmetry_Int_Tables_number   1
_chemical_formula_structural   Cu11Ni3C2
_chemical_formula_sum   'Cu44 Ni12 C8'
_cell_volume   1022.38032823
_cell_formula_units_Z   4
loop_
 _symmetry_equiv_pos_site_id
 _symmetry_equiv_pos_as_xyz
  1  'x, y, z'
loop_
 _atom_site_type_symbol
 _atom_site_label
 _atom_site_symmetry_multiplicity
 _atom_site_fract_x
 _atom_site_fract_y
 _atom_site_fract_z
 _atom_site_occupancy
  C  C0  1  0.26065100  0.67707600  0.82337400  1
  C  C1  1  0.23934900  0.67707600  0.32337400  1
  C  C2  1  0.73934900  0.32292400  0.17662600  1
  C  C3  1  0.76065100  0.32292400  0.67662600  1
  C  C4  1  0.24847100  0.06694000  0.93869700  1
  C  C5  1  0.25152900  0.06694000  0.43869700  1
  C  C6  1  0.75152900  0.93306000  0.06130300  1
  C  C7  1  0.74847100  0.93306000  0.56130300  1
  Ni  Ni8  1  0.24222800  0.35016900  0.07675300  1
  Ni  Ni9  1  0.25777200  0.35016900  0.57675300  1
  Ni  Ni10  1  0.75777200  0.64983100  0.92324700  1
  Ni  Ni11  1  0.74222800  0.64983100  0.42324700  1
  Ni  Ni12  1  0.07505200  0.35004200  0.82467900  1
  Ni  Ni13  1  0.42494800  0.35004200  0.32467900  1
  Ni  Ni14  1  0.92494800  0.64995800  0.17532100  1
  Ni  Ni15  1  0.57505200  0.64995800  0.67532100  1
  Ni  Ni16  1  0.43532600  0.03727700  0.81835200  1
  Ni  Ni17  1  0.06467400  0.03727700  0.31835200  1
  Ni  Ni18  1  0.56467400  0.96272300  0.18164800  1
  Ni  Ni19  1  0.93532600  0.96272300  0.68164800  1
  Cu  Cu20  1  0.98488600  0.90690900  0.98889000  1
  Cu  Cu21  1  0.51511400  0.90690900  0.48889000  1
  Cu  Cu22  1  0.01511400  0.09309100  0.01111000  1
  Cu  Cu23  1  0.48488600  0.09309100  0.51111000  1
  Cu  Cu24  1  0.51574200  0.10972500  0.99461800  1
  Cu  Cu25  1  0.98425800  0.10972500  0.49461800  1
  Cu  Cu26  1  0.48425800  0.89027500  0.00538200  1
  Cu  Cu27  1  0.01574200  0.89027500  0.50538200  1
  Cu  Cu28  1  0.22219800  0.33852100  0.87492600  1
  Cu  Cu29  1  0.27780200  0.33852100  0.37492600  1
  Cu  Cu30  1  0.77780200  0.66147900  0.12507400  1
  Cu  Cu31  1  0.72219800  0.66147900  0.62507400  1
  Cu  Cu32  1  0.28562600  0.94364400  0.86486000  1
  Cu  Cu33  1  0.21437400  0.94364400  0.36486000  1
  Cu  Cu34  1  0.71437400  0.05635600  0.13514000  1
  Cu  Cu35  1  0.78562600  0.05635600  0.63514000  1
  Cu  Cu36  1  0.01552500  0.22001700  0.83020500  1
  Cu  Cu37  1  0.48447500  0.22001700  0.33020500  1
  Cu  Cu38  1  0.98447500  0.77998300  0.16979500  1
  Cu  Cu39  1  0.51552500  0.77998300  0.66979500  1
  Cu  Cu40  1  0.48401100  0.15265200  0.82838800  1
  Cu  Cu41  1  0.01598900  0.15265200  0.32838800  1
  Cu  Cu42  1  0.51598900  0.84734800  0.17161200  1
  Cu  Cu43  1  0.98401100  0.84734800  0.67161200  1
  Cu  Cu44  1  0.99838800  0.47557900  0.77517300  1
  Cu  Cu45  1  0.50161200  0.47557900  0.27517300  1
  Cu  Cu46  1  0.00161200  0.52442100  0.22482700  1
  Cu  Cu47  1  0.49838800  0.52442100  0.72482700  1
  Cu  Cu48  1  0.52588300  0.01837400  0.76817200  1
  Cu  Cu49  1  0.97411700  0.01837400  0.26817200  1
  Cu  Cu50  1  0.47411700  0.98162600  0.23182800  1
  Cu  Cu51  1  0.02588300  0.98162600  0.73182800  1
  Cu  Cu52  1  0.27363400  0.38063200  0.13066400  1
  Cu  Cu53  1  0.22636600  0.38063200  0.63066400  1
  Cu  Cu54  1  0.72636600  0.61936800  0.86933600  1
  Cu  Cu55  1  0.77363400  0.61936800  0.36933600  1
  Cu  Cu56  1  0.04654200  0.33479500  0.05863300  1
  Cu  Cu57  1  0.45345800  0.33479500  0.55863300  1
  Cu  Cu58  1  0.95345800  0.66520500  0.94136700  1
  Cu  Cu59  1  0.54654200  0.66520500  0.44136700  1
  Cu  Cu60  1  0.40739800  0.33470600  0.04217900  1
  Cu  Cu61  1  0.09260200  0.33470600  0.54217900  1
  Cu  Cu62  1  0.59260200  0.66529400  0.95782100  1
  Cu  Cu63  1  0.90739800  0.66529400  0.45782100  1
