# generated using pymatgen
data_CuNiC6
_symmetry_space_group_name_H-M   'P 1'
_cell_length_a   5.09742800
_cell_length_b   5.19049230
_cell_length_c   7.19182568
_cell_angle_alpha   109.53371481
_cell_angle_beta   106.23518401
_cell_angle_gamma   97.73310358
_symmetry_Int_Tables_number   1
_chemical_formula_structural   CuNiC6
_chemical_formula_sum   'Cu2 Ni2 C12'
_cell_volume   166.62201156
_cell_formula_units_Z   2
loop_
 _symmetry_equiv_pos_site_id
 _symmetry_equiv_pos_as_xyz
  1  'x, y, z'
loop_
 _atom_site_type_symbol
 _atom_site_label
 _atom_site_symmetry_multiplicity
 _atom_site_fract_x
 _atom_site_fract_y
 _atom_site_fract_z
 _atom_site_occupancy
  C  C0  1  0.00000000  0.00000000  0.50000000  1
  C  C1  1  0.00000000  0.00000000  0.00000000  1
  Ni  Ni2  1  0.32353900  0.64900000  0.23135500  1
  Ni  Ni3  1  0.67646100  0.35100000  0.76864500  1
  Cu  Cu4  1  0.64976000  0.96569200  0.33716700  1
  Cu  Cu5  1  0.35024000  0.03430800  0.66283300  1
  C  C6  1  0.13863700  0.95196000  0.72747400  1
  C  C7  1  0.27998100  0.80507000  0.39106600  1
  C  C8  1  0.70232300  0.66168600  0.65704200  1
  C  C9  1  0.63439200  0.77157600  0.06562000  1
  C  C10  1  0.10709000  0.67326300  0.12501800  1
  C  C11  1  0.89291000  0.32673700  0.87498200  1
  C  C12  1  0.36560800  0.22842400  0.93438000  1
  C  C13  1  0.29767700  0.33831400  0.34295800  1
  C  C14  1  0.72001900  0.19493000  0.60893400  1
  C  C15  1  0.86136300  0.04804000  0.27252600  1
