# generated using pymatgen
data_CuNiC8
_symmetry_space_group_name_H-M   'P 1'
_cell_length_a   7.80233291
_cell_length_b   7.80233291
_cell_length_c   7.80233308
_cell_angle_alpha   89.99425672
_cell_angle_beta   89.99425672
_cell_angle_gamma   89.99425701
_symmetry_Int_Tables_number   1
_chemical_formula_structural   CuNiC8
_chemical_formula_sum   'Cu4 Ni4 C32'
_cell_volume   474.97793271
_cell_formula_units_Z   4
loop_
 _symmetry_equiv_pos_site_id
 _symmetry_equiv_pos_as_xyz
  1  'x, y, z'
loop_
 _atom_site_type_symbol
 _atom_site_label
 _atom_site_symmetry_multiplicity
 _atom_site_fract_x
 _atom_site_fract_y
 _atom_site_fract_z
 _atom_site_occupancy
  C  C0  1  0.25069300  0.25069300  0.74925100  1
  C  C1  1  0.74931600  0.25071000  0.74931600  1
  C  C2  1  0.74925100  0.25069300  0.25069300  1
  C  C3  1  0.25071000  0.74931600  0.74931600  1
  C  C4  1  0.74926200  0.74926200  0.74926200  1
  C  C5  1  0.25069300  0.74925100  0.25069300  1
  C  C6  1  0.74931600  0.74931600  0.25071000  1
  C  C7  1  0.25099900  0.25099900  0.25099900  1
  Ni  Ni8  1  0.49947900  0.00071200  0.49947900  1
  Ni  Ni9  1  0.49947900  0.49947900  0.00071200  1
  Ni  Ni10  1  0.00071200  0.49947900  0.49947900  1
  Ni  Ni11  1  0.49952500  0.49952500  0.49952500  1
  Cu  Cu12  1  0.00062800  0.00062800  0.00062800  1
  Cu  Cu13  1  0.49940400  0.00061500  0.00061500  1
  Cu  Cu14  1  0.00061500  0.00061500  0.49940400  1
  Cu  Cu15  1  0.00061500  0.49940400  0.00061500  1
  C  C16  1  0.00231900  0.24713800  0.00231900  1
  C  C17  1  0.49747900  0.25361000  0.00245000  1
  C  C18  1  0.00245000  0.25361000  0.49747900  1
  C  C19  1  0.49715200  0.25098100  0.49715200  1
  C  C20  1  0.00054800  0.75298300  0.00054800  1
  C  C21  1  0.49956000  0.74633700  0.00046900  1
  C  C22  1  0.00046900  0.74633700  0.49956000  1
  C  C23  1  0.49969100  0.74896900  0.49969100  1
  C  C24  1  0.00054800  0.00054800  0.75298300  1
  C  C25  1  0.49956000  0.00046900  0.74633700  1
  C  C26  1  0.00231900  0.00231900  0.24713800  1
  C  C27  1  0.49747900  0.00245000  0.25361000  1
  C  C28  1  0.00046900  0.49956000  0.74633700  1
  C  C29  1  0.49969100  0.49969100  0.74896900  1
  C  C30  1  0.00245000  0.49747900  0.25361000  1
  C  C31  1  0.49715200  0.49715200  0.25098100  1
  C  C32  1  0.24713800  0.00231900  0.00231900  1
  C  C33  1  0.75298300  0.00054800  0.00054800  1
  C  C34  1  0.25361000  0.00245000  0.49747900  1
  C  C35  1  0.74633700  0.00046900  0.49956000  1
  C  C36  1  0.25361000  0.49747900  0.00245000  1
  C  C37  1  0.74633700  0.49956000  0.00046900  1
  C  C38  1  0.25098100  0.49715200  0.49715200  1
  C  C39  1  0.74896900  0.49969100  0.49969100  1
