# generated using pymatgen
data_Cu(NiC4)7
_symmetry_space_group_name_H-M   'P 1'
_cell_length_a   10.81082907
_cell_length_b   11.46135785
_cell_length_c   17.85788487
_cell_angle_alpha   108.64212585
_cell_angle_beta   107.57064480
_cell_angle_gamma   89.99599747
_symmetry_Int_Tables_number   1
_chemical_formula_structural   Cu(NiC4)7
_chemical_formula_sum   'Cu4 Ni28 C112'
_cell_volume   1987.38223447
_cell_formula_units_Z   4
loop_
 _symmetry_equiv_pos_site_id
 _symmetry_equiv_pos_as_xyz
  1  'x, y, z'
loop_
 _atom_site_type_symbol
 _atom_site_label
 _atom_site_symmetry_multiplicity
 _atom_site_fract_x
 _atom_site_fract_y
 _atom_site_fract_z
 _atom_site_occupancy
  Ni  Ni0  1  0.30204500  0.06522200  0.11106600  1
  Ni  Ni1  1  0.30835300  0.06527600  0.61024600  1
  Ni  Ni2  1  0.30788400  0.56550800  0.61068700  1
  Ni  Ni3  1  0.80443900  0.06635400  0.61090600  1
  Ni  Ni4  1  0.80530500  0.56790800  0.11089500  1
  Ni  Ni5  1  0.80762100  0.56539100  0.61107700  1
  Ni  Ni6  1  0.19713300  0.43343000  0.38866500  1
  Ni  Ni7  1  0.19306500  0.43544400  0.89047800  1
  Ni  Ni8  1  0.19725900  0.93394000  0.38726700  1
  Ni  Ni9  1  0.19425900  0.93269700  0.88891200  1
  Ni  Ni10  1  0.69671200  0.43476800  0.38915100  1
  Ni  Ni11  1  0.69310900  0.93338700  0.38872200  1
  Ni  Ni12  1  0.69487100  0.93267800  0.88962500  1
  Ni  Ni13  1  0.05382100  0.29479700  0.11163400  1
  Ni  Ni14  1  0.05773600  0.29494900  0.61097900  1
  Ni  Ni15  1  0.05731000  0.79648200  0.61085900  1
  Ni  Ni16  1  0.56018000  0.29423100  0.11153700  1
  Ni  Ni17  1  0.55909500  0.29596000  0.61310100  1
  Ni  Ni18  1  0.55379800  0.79533600  0.11194100  1
  Ni  Ni19  1  0.55768800  0.79604100  0.61061800  1
  Ni  Ni20  1  0.44707500  0.20400600  0.38911500  1
  Ni  Ni21  1  0.44907800  0.20660800  0.88921100  1
  Ni  Ni22  1  0.44572300  0.70410900  0.38674300  1
  Ni  Ni23  1  0.44530800  0.70445700  0.88874400  1
  Ni  Ni24  1  0.94534200  0.20235700  0.38711600  1
  Ni  Ni25  1  0.94167900  0.20604600  0.88875900  1
  Ni  Ni26  1  0.94640400  0.70489900  0.38807400  1
  Ni  Ni27  1  0.94404200  0.70439800  0.88937200  1
  Cu  Cu28  1  0.30042900  0.56934700  0.10902800  1
  Cu  Cu29  1  0.80274400  0.06747200  0.10873100  1
  Cu  Cu30  1  0.69365200  0.43303500  0.89202600  1
  Cu  Cu31  1  0.05342100  0.79097900  0.10951500  1
  C  C32  1  0.00489000  0.99978200  0.49944400  1
  C  C33  1  0.00548600  0.49985900  0.49986400  1
  C  C34  1  0.50530800  0.50002100  0.49985300  1
  C  C35  1  0.25569300  0.25152900  0.00137700  1
  C  C36  1  0.25502700  0.24946900  0.49929200  1
  C  C37  1  0.25553300  0.75010100  0.49983600  1
  C  C38  1  0.75487200  0.24972000  0.49957900  1
  C  C39  1  0.75507000  0.75006600  0.50011000  1
  C  C40  1  0.10505100  0.09292600  0.25015900  1
  C  C41  1  0.10891800  0.09659200  0.75114900  1
  C  C42  1  0.11054400  0.59677700  0.25100000  1
  C  C43  1  0.10718800  0.59284900  0.74820900  1
  C  C44  1  0.61056700  0.09511300  0.25159900  1
  C  C45  1  0.60881600  0.09588900  0.75137700  1
  C  C46  1  0.60581100  0.59544300  0.25065900  1
  C  C47  1  0.60820900  0.59303200  0.74953600  1
  C  C48  1  0.35716000  0.40531600  0.24773300  1
  C  C49  1  0.35875500  0.40427900  0.74836200  1
  C  C50  1  0.35405600  0.90373500  0.24738200  1
  C  C51  1  0.35721800  0.90427400  0.74793600  1
  C  C52  1  0.85929100  0.40526600  0.25166200  1
  C  C53  1  0.85488400  0.40437200  0.74899600  1
  C  C54  1  0.85988300  0.90656400  0.24985900  1
  C  C55  1  0.85743100  0.90444000  0.74829000  1
  C  C56  1  0.00344700  0.99951400  0.00190100  1
  C  C57  1  0.00272600  0.50044100  0.00058700  1
  C  C58  1  0.50373900  0.00033000  0.00103600  1
  C  C59  1  0.50368600  0.99989400  0.49970400  1
  C  C60  1  0.50312500  0.50081900  0.00064300  1
  C  C61  1  0.25336100  0.75065700  0.00122400  1
  C  C62  1  0.75380800  0.24989700  0.00022700  1
  C  C63  1  0.75396100  0.75070500  0.00143200  1
  C  C64  1  0.12006500  0.11892900  0.48361800  1
  C  C65  1  0.11817200  0.11896800  0.98560700  1
  C  C66  1  0.11971100  0.61871500  0.48336800  1
  C  C67  1  0.12101500  0.62290000  0.99101300  1
  C  C68  1  0.62009100  0.12012700  0.48608800  1
  C  C69  1  0.62306200  0.12070500  0.98962800  1
  C  C70  1  0.62043400  0.61925000  0.48406100  1
  C  C71  1  0.62048900  0.61625600  0.98481600  1
  C  C72  1  0.13572200  0.38538400  0.01659300  1
  C  C73  1  0.13624700  0.38118500  0.51572700  1
  C  C74  1  0.13186400  0.87801800  0.01650600  1
  C  C75  1  0.13645900  0.88111900  0.51564000  1
  C  C76  1  0.63261000  0.37903600  0.01025600  1
  C  C77  1  0.63609100  0.38061200  0.51543500  1
  C  C78  1  0.63639100  0.88398500  0.01552800  1
  C  C79  1  0.63387700  0.87970400  0.51352500  1
  C  C80  1  0.37092100  0.11533600  0.48546800  1
  C  C81  1  0.37203100  0.11524200  0.98599900  1
  C  C82  1  0.37010200  0.61504300  0.48392800  1
  C  C83  1  0.37020800  0.61580200  0.98901700  1
  C  C84  1  0.87002700  0.11519600  0.48413100  1
  C  C85  1  0.86988400  0.11483300  0.99064000  1
  C  C86  1  0.87074800  0.61490800  0.48425000  1
  C  C87  1  0.86908400  0.61269400  0.98578600  1
  C  C88  1  0.38543200  0.39057900  0.01773100  1
  C  C89  1  0.38557900  0.38405600  0.51466700  1
  C  C90  1  0.38273400  0.88346600  0.01186700  1
  C  C91  1  0.38553800  0.88415200  0.51389200  1
  C  C92  1  0.88005000  0.38424000  0.00988300  1
  C  C93  1  0.88666500  0.38505500  0.51587000  1
  C  C94  1  0.88647000  0.88722900  0.01884800  1
  C  C95  1  0.88595400  0.88447600  0.51557600  1
  C  C96  1  0.10104400  0.11895400  0.14814100  1
  C  C97  1  0.08992800  0.10903100  0.64102800  1
  C  C98  1  0.10602800  0.61909500  0.14780200  1
  C  C99  1  0.08785800  0.60848800  0.63914100  1
  C  C100  1  0.60690100  0.11611800  0.14815900  1
  C  C101  1  0.59666000  0.11653900  0.64677500  1
  C  C102  1  0.60261600  0.61794300  0.14767700  1
  C  C103  1  0.58797900  0.60772700  0.63968300  1
  C  C104  1  0.44710100  0.39103700  0.35821500  1
  C  C105  1  0.45860800  0.38441600  0.85224800  1
  C  C106  1  0.44710900  0.88400500  0.35245700  1
  C  C107  1  0.45162700  0.88250200  0.85221900  1
  C  C108  1  0.94837300  0.39095400  0.36098400  1
  C  C109  1  0.95374600  0.38435400  0.85313200  1
  C  C110  1  0.95002300  0.89252600  0.35981100  1
  C  C111  1  0.95035200  0.88253100  0.85283500  1
  C  C112  1  0.33982100  0.28028500  0.13862900  1
  C  C113  1  0.33734400  0.28085600  0.63865500  1
  C  C114  1  0.34635900  0.77932900  0.14324800  1
  C  C115  1  0.33751500  0.78155300  0.63827800  1
  C  C116  1  0.84539000  0.27996700  0.14612000  1
  C  C117  1  0.83631500  0.28225000  0.63922200  1
  C  C118  1  0.85697300  0.78102800  0.14621200  1
  C  C119  1  0.83665100  0.78134200  0.63867200  1
  C  C120  1  0.19718900  0.21584000  0.36019300  1
  C  C121  1  0.20182500  0.21905700  0.86201000  1
  C  C122  1  0.19839300  0.72000500  0.36096200  1
  C  C123  1  0.20012200  0.71635700  0.85429100  1
  C  C124  1  0.69815600  0.21863800  0.36138200  1
  C  C125  1  0.70059000  0.22136100  0.85643300  1
  C  C126  1  0.69721000  0.71747000  0.36049600  1
  C  C127  1  0.70105900  0.71880000  0.85490000  1
  C  C128  1  0.42030300  0.07114800  0.24993000  1
  C  C129  1  0.41889400  0.07084100  0.74988800  1
  C  C130  1  0.41454400  0.56950000  0.24436400  1
  C  C131  1  0.41865500  0.57095200  0.74900900  1
  C  C132  1  0.91382600  0.07186800  0.24535800  1
  C  C133  1  0.92058300  0.07107700  0.75000500  1
  C  C134  1  0.92156200  0.56971700  0.25011300  1
  C  C135  1  0.91886400  0.57002600  0.74953400  1
  C  C136  1  0.17023700  0.42990100  0.25069400  1
  C  C137  1  0.17063700  0.42794700  0.75018500  1
  C  C138  1  0.16332300  0.92434100  0.24456300  1
  C  C139  1  0.16954300  0.93020500  0.74983700  1
  C  C140  1  0.66942200  0.42986700  0.25072900  1
  C  C141  1  0.67004100  0.42998100  0.75566900  1
  C  C142  1  0.67128800  0.92870200  0.25061600  1
  C  C143  1  0.66959700  0.92918600  0.74971600  1
