# generated using pymatgen
data_Cu15(NiC)2
_symmetry_space_group_name_H-M   'P 1'
_cell_length_a   6.47086642
_cell_length_b   6.47086642
_cell_length_c   6.47086656
_cell_angle_alpha   82.67557479
_cell_angle_beta   82.67557479
_cell_angle_gamma   82.67557900
_symmetry_Int_Tables_number   1
_chemical_formula_structural   Cu15(NiC)2
_chemical_formula_sum   'Cu15 Ni2 C2'
_cell_volume   264.83569582
_cell_formula_units_Z   1
loop_
 _symmetry_equiv_pos_site_id
 _symmetry_equiv_pos_as_xyz
  1  'x, y, z'
loop_
 _atom_site_type_symbol
 _atom_site_label
 _atom_site_symmetry_multiplicity
 _atom_site_fract_x
 _atom_site_fract_y
 _atom_site_fract_z
 _atom_site_occupancy
  C  C0  1  0.65167600  0.65167600  0.65167600  1
  C  C1  1  0.34832400  0.34832400  0.34832400  1
  Ni  Ni2  1  0.89759300  0.89759300  0.89759300  1
  Ni  Ni3  1  0.10240700  0.10240700  0.10240700  1
  Cu  Cu4  1  0.00000000  0.00000000  0.50000000  1
  Cu  Cu5  1  0.50000000  0.00000000  0.00000000  1
  Cu  Cu6  1  0.00000000  0.50000000  0.00000000  1
  Cu  Cu7  1  0.71057800  0.28942200  0.00000000  1
  Cu  Cu8  1  0.00000000  0.71057800  0.28942200  1
  Cu  Cu9  1  0.28942200  0.00000000  0.71057800  1
  Cu  Cu10  1  0.00000000  0.28942200  0.71057800  1
  Cu  Cu11  1  0.71057800  0.00000000  0.28942200  1
  Cu  Cu12  1  0.28942200  0.71057800  0.00000000  1
  Cu  Cu13  1  0.34068200  0.34068200  0.84700800  1
  Cu  Cu14  1  0.84700800  0.34068200  0.34068200  1
  Cu  Cu15  1  0.34068200  0.84700800  0.34068200  1
  Cu  Cu16  1  0.65931800  0.65931800  0.15299200  1
  Cu  Cu17  1  0.15299200  0.65931800  0.65931800  1
  Cu  Cu18  1  0.65931800  0.15299200  0.65931800  1
