# generated using pymatgen
data_CuNi7C5
_symmetry_space_group_name_H-M   'P 1'
_cell_length_a   7.79643295
_cell_length_b   7.79643295
_cell_length_c   14.06609871
_cell_angle_alpha   70.18305355
_cell_angle_beta   70.18305355
_cell_angle_gamma   30.32706076
_symmetry_Int_Tables_number   1
_chemical_formula_structural   CuNi7C5
_chemical_formula_sum   'Cu1 Ni7 C5'
_cell_volume   404.21150029
_cell_formula_units_Z   1
loop_
 _symmetry_equiv_pos_site_id
 _symmetry_equiv_pos_as_xyz
  1  'x, y, z'
loop_
 _atom_site_type_symbol
 _atom_site_label
 _atom_site_symmetry_multiplicity
 _atom_site_fract_x
 _atom_site_fract_y
 _atom_site_fract_z
 _atom_site_occupancy
  Ni  Ni0  1  0.17385000  0.17385000  0.62843600  1
  Ni  Ni1  1  0.82477800  0.82477800  0.37974900  1
  Ni  Ni2  1  0.90337700  0.90337700  0.65586400  1
  Ni  Ni3  1  0.09840800  0.09840800  0.33966700  1
  Ni  Ni4  1  0.48598400  0.48598400  0.85515600  1
  Ni  Ni5  1  0.51151100  0.51151100  0.14511600  1
  Ni  Ni6  1  0.79809300  0.79809300  0.09459700  1
  C  C7  1  0.99088600  0.99088600  0.00558700  1
  C  C8  1  0.67803200  0.67803200  0.76691100  1
  C  C9  1  0.31997600  0.31997600  0.22607600  1
  C  C10  1  0.36625100  0.36625100  0.54399700  1
  C  C11  1  0.63569700  0.63569700  0.45087000  1
  Cu  Cu12  1  0.21315800  0.21315800  0.90797500  1
