# generated using pymatgen
data_Cu2NiC13
_symmetry_space_group_name_H-M   'P 1'
_cell_length_a   12.08429600
_cell_length_b   5.33832800
_cell_length_c   6.65947023
_cell_angle_alpha   73.07132781
_cell_angle_beta   90.00000000
_cell_angle_gamma   90.00000000
_symmetry_Int_Tables_number   1
_chemical_formula_structural   Cu2NiC13
_chemical_formula_sum   'Cu4 Ni2 C26'
_cell_volume   410.98647835
_cell_formula_units_Z   2
loop_
 _symmetry_equiv_pos_site_id
 _symmetry_equiv_pos_as_xyz
  1  'x, y, z'
loop_
 _atom_site_type_symbol
 _atom_site_label
 _atom_site_symmetry_multiplicity
 _atom_site_fract_x
 _atom_site_fract_y
 _atom_site_fract_z
 _atom_site_occupancy
  Ni  Ni0  1  0.25000000  0.23912300  0.02214600  1
  Ni  Ni1  1  0.75000000  0.76087700  0.97785400  1
  Cu  Cu2  1  0.10093300  0.84623400  0.67778100  1
  Cu  Cu3  1  0.60093300  0.15376600  0.32221900  1
  Cu  Cu4  1  0.89906700  0.15376600  0.32221900  1
  Cu  Cu5  1  0.39906700  0.84623400  0.67778100  1
  C  C6  1  0.25000000  0.42856400  0.48663700  1
  C  C7  1  0.75000000  0.57143600  0.51336300  1
  C  C8  1  0.05399100  0.69818500  0.21030100  1
  C  C9  1  0.55399100  0.30181500  0.78969900  1
  C  C10  1  0.94600900  0.30181500  0.78969900  1
  C  C11  1  0.44600900  0.69818500  0.21030100  1
  C  C12  1  0.25000000  0.65664300  0.60592900  1
  C  C13  1  0.75000000  0.34335700  0.39407100  1
  C  C14  1  0.25000000  0.12509500  0.63489600  1
  C  C15  1  0.75000000  0.87490500  0.36510400  1
  C  C16  1  0.14300400  0.46165200  0.32941600  1
  C  C17  1  0.64300400  0.53834800  0.67058400  1
  C  C18  1  0.85699600  0.53834800  0.67058400  1
  C  C19  1  0.35699600  0.46165200  0.32941600  1
  C  C20  1  0.94001800  0.54168000  0.20171900  1
  C  C21  1  0.44001800  0.45832000  0.79828100  1
  C  C22  1  0.05998200  0.45832000  0.79828100  1
  C  C23  1  0.55998200  0.54168000  0.20171900  1
  C  C24  1  0.11168900  0.84996200  0.98589200  1
  C  C25  1  0.61168900  0.15003800  0.01410800  1
  C  C26  1  0.88831100  0.15003800  0.01410800  1
  C  C27  1  0.38831100  0.84996200  0.98589200  1
  C  C28  1  0.04200900  0.90024000  0.35665100  1
  C  C29  1  0.54200900  0.09976000  0.64334900  1
  C  C30  1  0.95799100  0.09976000  0.64334900  1
  C  C31  1  0.45799100  0.90024000  0.35665100  1
