# generated using pymatgen
data_CuNiC3
_symmetry_space_group_name_H-M   'P 1'
_cell_length_a   5.43233385
_cell_length_b   5.43233385
_cell_length_c   5.43233429
_cell_angle_alpha   52.52246245
_cell_angle_beta   52.52246245
_cell_angle_gamma   52.52246670
_symmetry_Int_Tables_number   1
_chemical_formula_structural   CuNiC3
_chemical_formula_sum   'Cu2 Ni2 C6'
_cell_volume   93.45862086
_cell_formula_units_Z   2
loop_
 _symmetry_equiv_pos_site_id
 _symmetry_equiv_pos_as_xyz
  1  'x, y, z'
loop_
 _atom_site_type_symbol
 _atom_site_label
 _atom_site_symmetry_multiplicity
 _atom_site_fract_x
 _atom_site_fract_y
 _atom_site_fract_z
 _atom_site_occupancy
  Ni  Ni0  1  0.36948100  0.36948100  0.36948100  1
  Ni  Ni1  1  0.63051900  0.63051900  0.63051900  1
  Cu  Cu2  1  0.16087500  0.16087500  0.16087500  1
  Cu  Cu3  1  0.83912500  0.83912500  0.83912500  1
  C  C4  1  0.43735600  0.80248700  0.04604600  1
  C  C5  1  0.80248700  0.04604600  0.43735600  1
  C  C6  1  0.04604600  0.43735600  0.80248700  1
  C  C7  1  0.56264400  0.19751300  0.95395400  1
  C  C8  1  0.19751300  0.95395400  0.56264400  1
  C  C9  1  0.95395400  0.56264400  0.19751300  1
