# generated using pymatgen
data_Cu5Ni2C25
_symmetry_space_group_name_H-M   'P 1'
_cell_length_a   5.92090400
_cell_length_b   7.69454586
_cell_length_c   7.73202903
_cell_angle_alpha   64.51618763
_cell_angle_beta   68.17582279
_cell_angle_gamma   68.90221840
_symmetry_Int_Tables_number   1
_chemical_formula_structural   Cu5Ni2C25
_chemical_formula_sum   'Cu5 Ni2 C25'
_cell_volume   286.66672997
_cell_formula_units_Z   1
loop_
 _symmetry_equiv_pos_site_id
 _symmetry_equiv_pos_as_xyz
  1  'x, y, z'
loop_
 _atom_site_type_symbol
 _atom_site_label
 _atom_site_symmetry_multiplicity
 _atom_site_fract_x
 _atom_site_fract_y
 _atom_site_fract_z
 _atom_site_occupancy
  C  C0  1  0.38204000  0.61657700  0.12686900  1
  C  C1  1  0.24108900  0.24915900  0.25811100  1
  C  C2  1  0.62935900  0.37329200  0.87912600  1
  C  C3  1  0.50044300  0.00439200  0.99669300  1
  C  C4  1  0.87363100  0.12946800  0.61420900  1
  C  C5  1  0.75301800  0.74706000  0.74687700  1
  C  C6  1  0.11066800  0.88340800  0.37977900  1
  C  C7  1  0.00359600  0.49781300  0.50123500  1
  C  C8  1  0.75056700  0.24875200  0.25084800  1
  Ni  Ni9  1  0.99685000  0.00206200  0.00143600  1
  Ni  Ni10  1  0.87730300  0.62080900  0.12693900  1
  Cu  Cu11  1  0.62745200  0.87707000  0.37374200  1
  Cu  Cu12  1  0.50858200  0.49088700  0.49932600  1
  Cu  Cu13  1  0.38453800  0.12757400  0.61519700  1
  Cu  Cu14  1  0.24790700  0.75478400  0.74089300  1
  Cu  Cu15  1  0.12055200  0.37171600  0.88236800  1
  C  C16  1  0.00599700  0.75626100  0.22681000  1
  C  C17  1  0.86828400  0.39550100  0.36384500  1
  C  C18  1  0.22354400  0.51045800  0.00300100  1
  C  C19  1  0.12309000  0.12515700  0.10423600  1
  C  C20  1  0.48885700  0.25669600  0.74756000  1
  C  C21  1  0.34254600  0.89211700  0.86653300  1
  C  C22  1  0.72604000  0.99121800  0.50059000  1
  C  C23  1  0.60430000  0.63915300  0.61189500  1
  C  C24  1  0.76411500  0.51117100  0.00461000  1
  C  C25  1  0.65758000  0.10017600  0.13033200  1
  C  C26  1  0.00014400  0.23640900  0.76782100  1
  C  C27  1  0.88702600  0.86715900  0.89123000  1
  C  C28  1  0.25001400  0.99551500  0.50370700  1
  C  C29  1  0.13597000  0.61414300  0.63824600  1
  C  C30  1  0.54048100  0.74234700  0.25013000  1
  C  C31  1  0.37441900  0.37169900  0.39579800  1
