# generated using pymatgen
data_Cu3NiC10
_symmetry_space_group_name_H-M   'P 1'
_cell_length_a   3.46744100
_cell_length_b   11.15507700
_cell_length_c   13.05059600
_cell_angle_alpha   90.00000000
_cell_angle_beta   90.00000000
_cell_angle_gamma   90.00000000
_symmetry_Int_Tables_number   1
_chemical_formula_structural   Cu3NiC10
_chemical_formula_sum   'Cu6 Ni2 C20'
_cell_volume   504.79145912
_cell_formula_units_Z   2
loop_
 _symmetry_equiv_pos_site_id
 _symmetry_equiv_pos_as_xyz
  1  'x, y, z'
loop_
 _atom_site_type_symbol
 _atom_site_label
 _atom_site_symmetry_multiplicity
 _atom_site_fract_x
 _atom_site_fract_y
 _atom_site_fract_z
 _atom_site_occupancy
  Ni  Ni0  1  0.00000000  0.83598000  0.59720000  1
  Ni  Ni1  1  0.50000000  0.16402000  0.09720000  1
  Cu  Cu2  1  0.50000000  0.68662300  0.89273700  1
  Cu  Cu3  1  0.00000000  0.80045500  0.11181800  1
  Cu  Cu4  1  0.00000000  0.31337700  0.39273700  1
  Cu  Cu5  1  0.50000000  0.19954500  0.61181800  1
  Cu  Cu6  1  0.50000000  0.66435800  0.40096900  1
  Cu  Cu7  1  0.00000000  0.33564200  0.90096900  1
  C  C8  1  0.50000000  0.49669300  0.67434000  1
  C  C9  1  0.00000000  0.99885100  0.33045600  1
  C  C10  1  0.00000000  0.50330700  0.17434000  1
  C  C11  1  0.50000000  0.00114900  0.83045600  1
  C  C12  1  0.00000000  0.72186100  0.28713600  1
  C  C13  1  0.50000000  0.77243700  0.71706200  1
  C  C14  1  0.50000000  0.27813900  0.78713600  1
  C  C15  1  0.00000000  0.22756300  0.21706200  1
  C  C16  1  0.50000000  0.66345600  0.07100000  1
  C  C17  1  0.00000000  0.83136700  0.93143800  1
  C  C18  1  0.00000000  0.33654400  0.57100000  1
  C  C19  1  0.50000000  0.16863300  0.43143800  1
  C  C20  1  0.00000000  0.62903000  0.52570900  1
  C  C21  1  0.50000000  0.87041500  0.46427500  1
  C  C22  1  0.50000000  0.37097000  0.02570900  1
  C  C23  1  0.00000000  0.12958500  0.96427500  1
  C  C24  1  0.00000000  0.54600000  0.84746500  1
  C  C25  1  0.50000000  0.95259100  0.14839400  1
  C  C26  1  0.50000000  0.45400000  0.34746500  1
  C  C27  1  0.00000000  0.04740900  0.64839400  1
