# generated using pymatgen
data_Cu4(Ni2C3)3
_symmetry_space_group_name_H-M   'P 1'
_cell_length_a   6.26769500
_cell_length_b   16.20121200
_cell_length_c   4.57037400
_cell_angle_alpha   90.00000000
_cell_angle_beta   90.00000000
_cell_angle_gamma   90.00000000
_symmetry_Int_Tables_number   1
_chemical_formula_structural   Cu4(Ni2C3)3
_chemical_formula_sum   'Cu8 Ni12 C18'
_cell_volume   464.09522494
_cell_formula_units_Z   2
loop_
 _symmetry_equiv_pos_site_id
 _symmetry_equiv_pos_as_xyz
  1  'x, y, z'
loop_
 _atom_site_type_symbol
 _atom_site_label
 _atom_site_symmetry_multiplicity
 _atom_site_fract_x
 _atom_site_fract_y
 _atom_site_fract_z
 _atom_site_occupancy
  Ni  Ni0  1  0.98227400  0.00467300  0.18968200  1
  Ni  Ni1  1  0.98227400  0.99532700  0.81031800  1
  Ni  Ni2  1  0.01772600  0.49532700  0.68968200  1
  Ni  Ni3  1  0.01772600  0.50467300  0.31031800  1
  Ni  Ni4  1  0.17842900  0.94993200  0.02551900  1
  Ni  Ni5  1  0.17842900  0.05006800  0.97448100  1
  Ni  Ni6  1  0.82157100  0.55006800  0.52551900  1
  Ni  Ni7  1  0.82157100  0.44993200  0.47448100  1
  Ni  Ni8  1  0.85510800  0.69464000  0.72271100  1
  Ni  Ni9  1  0.85510800  0.30536000  0.27728900  1
  Ni  Ni10  1  0.14489200  0.80536000  0.22271100  1
  Ni  Ni11  1  0.14489200  0.19464000  0.77728900  1
  Cu  Cu12  1  0.92017200  0.50000000  0.50000000  1
  Cu  Cu13  1  0.07982800  0.00000000  0.00000000  1
  Cu  Cu14  1  0.63802900  0.00000000  0.50000000  1
  Cu  Cu15  1  0.36197100  0.50000000  0.00000000  1
  Cu  Cu16  1  0.76097400  0.73545900  0.09007800  1
  Cu  Cu17  1  0.76097400  0.26454100  0.90992200  1
  Cu  Cu18  1  0.23902600  0.76454100  0.59007800  1
  Cu  Cu19  1  0.23902600  0.23545900  0.40992200  1
  C  C20  1  0.84883200  0.00000000  0.50000000  1
  C  C21  1  0.15116800  0.50000000  0.00000000  1
  C  C22  1  0.54379900  0.94627400  0.35250600  1
  C  C23  1  0.54379900  0.05372600  0.64749400  1
  C  C24  1  0.45620100  0.55372600  0.85250600  1
  C  C25  1  0.45620100  0.44627400  0.14749400  1
  C  C26  1  0.71914400  0.71441400  0.34103100  1
  C  C27  1  0.71914400  0.28558600  0.65896900  1
  C  C28  1  0.28085600  0.78558600  0.84103100  1
  C  C29  1  0.28085600  0.21441400  0.15896900  1
  C  C30  1  0.86386800  0.67288700  0.92539000  1
  C  C31  1  0.86386800  0.32711300  0.07461000  1
  C  C32  1  0.13613200  0.82711300  0.42539000  1
  C  C33  1  0.13613200  0.17288700  0.57461000  1
  C  C34  1  0.73076300  0.80110400  0.96865200  1
  C  C35  1  0.73076300  0.19889600  0.03134800  1
  C  C36  1  0.26923700  0.69889600  0.46865200  1
  C  C37  1  0.26923700  0.30110400  0.53134800  1
