# generated using pymatgen
data_Cu8Ni4C3
_symmetry_space_group_name_H-M   'P 1'
_cell_length_a   5.62836100
_cell_length_b   11.89774600
_cell_length_c   16.00092800
_cell_angle_alpha   90.00000000
_cell_angle_beta   90.00000000
_cell_angle_gamma   90.00000000
_symmetry_Int_Tables_number   1
_chemical_formula_structural   Cu8Ni4C3
_chemical_formula_sum   'Cu32 Ni16 C12'
_cell_volume   1071.49909653
_cell_formula_units_Z   4
loop_
 _symmetry_equiv_pos_site_id
 _symmetry_equiv_pos_as_xyz
  1  'x, y, z'
loop_
 _atom_site_type_symbol
 _atom_site_label
 _atom_site_symmetry_multiplicity
 _atom_site_fract_x
 _atom_site_fract_y
 _atom_site_fract_z
 _atom_site_occupancy
  C  C0  1  0.75000000  0.64819900  0.87310500  1
  C  C1  1  0.75000000  0.14819900  0.62689500  1
  C  C2  1  0.25000000  0.35180100  0.12689500  1
  C  C3  1  0.25000000  0.85180100  0.37310500  1
  C  C4  1  0.75000000  0.22557900  0.89430400  1
  C  C5  1  0.75000000  0.72557900  0.60569600  1
  C  C6  1  0.25000000  0.77442100  0.10569600  1
  C  C7  1  0.25000000  0.27442100  0.39430400  1
  C  C8  1  0.75000000  0.00207400  0.31862200  1
  C  C9  1  0.75000000  0.50207400  0.18137800  1
  C  C10  1  0.25000000  0.99792600  0.68137800  1
  C  C11  1  0.25000000  0.49792600  0.81862200  1
  Ni  Ni12  1  0.75000000  0.95345600  0.00824600  1
  Ni  Ni13  1  0.75000000  0.45345600  0.49175400  1
  Ni  Ni14  1  0.25000000  0.04654400  0.99175400  1
  Ni  Ni15  1  0.25000000  0.54654400  0.50824600  1
  Ni  Ni16  1  0.75000000  0.65035300  0.00254900  1
  Ni  Ni17  1  0.75000000  0.15035300  0.49745100  1
  Ni  Ni18  1  0.25000000  0.34964700  0.99745100  1
  Ni  Ni19  1  0.25000000  0.84964700  0.50254900  1
  Ni  Ni20  1  0.00071900  0.76711500  0.83884800  1
  Ni  Ni21  1  0.49928100  0.26711500  0.66115200  1
  Ni  Ni22  1  0.50071900  0.23288500  0.16115200  1
  Ni  Ni23  1  0.99928100  0.73288500  0.33884800  1
  Ni  Ni24  1  0.99928100  0.23288500  0.16115200  1
  Ni  Ni25  1  0.50071900  0.73288500  0.33884800  1
  Ni  Ni26  1  0.49928100  0.76711500  0.83884800  1
  Ni  Ni27  1  0.00071900  0.26711500  0.66115200  1
  Cu  Cu28  1  0.75000000  0.05798300  0.03967500  1
  Cu  Cu29  1  0.75000000  0.55798300  0.46032500  1
  Cu  Cu30  1  0.25000000  0.94201700  0.96032500  1
  Cu  Cu31  1  0.25000000  0.44201700  0.53967500  1
  Cu  Cu32  1  0.75000000  0.30992500  0.94925800  1
  Cu  Cu33  1  0.75000000  0.80992500  0.55074200  1
  Cu  Cu34  1  0.25000000  0.69007500  0.05074200  1
  Cu  Cu35  1  0.25000000  0.19007500  0.44925800  1
  Cu  Cu36  1  0.95325000  0.18302000  0.86725400  1
  Cu  Cu37  1  0.54675000  0.68302000  0.63274600  1
  Cu  Cu38  1  0.45325000  0.81698000  0.13274600  1
  Cu  Cu39  1  0.04675000  0.31698000  0.36725400  1
  Cu  Cu40  1  0.04675000  0.81698000  0.13274600  1
  Cu  Cu41  1  0.45325000  0.31698000  0.36725400  1
  Cu  Cu42  1  0.54675000  0.18302000  0.86725400  1
  Cu  Cu43  1  0.95325000  0.68302000  0.63274600  1
  Cu  Cu44  1  0.75000000  0.11721200  0.31531700  1
  Cu  Cu45  1  0.75000000  0.61721200  0.18468300  1
  Cu  Cu46  1  0.25000000  0.88278800  0.68468300  1
  Cu  Cu47  1  0.25000000  0.38278800  0.81531700  1
  Cu  Cu48  1  0.75000000  0.94783000  0.24319600  1
  Cu  Cu49  1  0.75000000  0.44783000  0.25680400  1
  Cu  Cu50  1  0.25000000  0.05217000  0.75680400  1
  Cu  Cu51  1  0.25000000  0.55217000  0.74319600  1
  Cu  Cu52  1  0.53827400  0.96607600  0.36777500  1
  Cu  Cu53  1  0.96172600  0.46607600  0.13222500  1
  Cu  Cu54  1  0.03827400  0.03392400  0.63222500  1
  Cu  Cu55  1  0.46172600  0.53392400  0.86777500  1
  Cu  Cu56  1  0.46172600  0.03392400  0.63222500  1
  Cu  Cu57  1  0.03827400  0.53392400  0.86777500  1
  Cu  Cu58  1  0.96172600  0.96607600  0.36777500  1
  Cu  Cu59  1  0.53827400  0.46607600  0.13222500  1
