# generated using pymatgen
data_Cu6Ni6C7
_symmetry_space_group_name_H-M   'P 1'
_cell_length_a   10.25780800
_cell_length_b   7.20640900
_cell_length_c   11.21081266
_cell_angle_alpha   54.25162817
_cell_angle_beta   90.00000000
_cell_angle_gamma   90.00000000
_symmetry_Int_Tables_number   1
_chemical_formula_structural   Cu6Ni6C7
_chemical_formula_sum   'Cu24 Ni24 C28'
_cell_volume   672.58560505
_cell_formula_units_Z   4
loop_
 _symmetry_equiv_pos_site_id
 _symmetry_equiv_pos_as_xyz
  1  'x, y, z'
loop_
 _atom_site_type_symbol
 _atom_site_label
 _atom_site_symmetry_multiplicity
 _atom_site_fract_x
 _atom_site_fract_y
 _atom_site_fract_z
 _atom_site_occupancy
  C  C0  1  0.05099900  0.74666800  0.98760500  1
  C  C1  1  0.44900100  0.74666800  0.48760500  1
  C  C2  1  0.94900100  0.25333200  0.01239500  1
  C  C3  1  0.55099900  0.25333200  0.51239500  1
  Ni  Ni4  1  0.02848400  0.42022900  0.38525800  1
  Ni  Ni5  1  0.47151600  0.42022900  0.88525800  1
  Ni  Ni6  1  0.97151600  0.57977100  0.61474200  1
  Ni  Ni7  1  0.52848400  0.57977100  0.11474200  1
  Ni  Ni8  1  0.05880000  0.70739700  0.32803600  1
  Ni  Ni9  1  0.44120000  0.70739700  0.82803600  1
  Ni  Ni10  1  0.94120000  0.29260300  0.67196400  1
  Ni  Ni11  1  0.55880000  0.29260300  0.17196400  1
  Ni  Ni12  1  0.15990100  0.47546800  0.46748700  1
  Ni  Ni13  1  0.34009900  0.47546800  0.96748700  1
  Ni  Ni14  1  0.84009900  0.52453200  0.53251300  1
  Ni  Ni15  1  0.65990100  0.52453200  0.03251300  1
  Ni  Ni16  1  0.05856000  0.22856800  0.58043600  1
  Ni  Ni17  1  0.44144000  0.22856800  0.08043600  1
  Ni  Ni18  1  0.94144000  0.77143200  0.41956400  1
  Ni  Ni19  1  0.55856000  0.77143200  0.91956400  1
  Ni  Ni20  1  0.89519800  0.30476900  0.51391000  1
  Ni  Ni21  1  0.60480200  0.30476900  0.01391000  1
  Ni  Ni22  1  0.10480200  0.69523100  0.48609000  1
  Ni  Ni23  1  0.39519800  0.69523100  0.98609000  1
  Ni  Ni24  1  0.89579800  0.60429100  0.35667500  1
  Ni  Ni25  1  0.60420200  0.60429100  0.85667500  1
  Ni  Ni26  1  0.10420200  0.39570900  0.64332500  1
  Ni  Ni27  1  0.39579800  0.39570900  0.14332500  1
  Cu  Cu28  1  0.13953900  0.34509600  0.26896200  1
  Cu  Cu29  1  0.36046100  0.34509600  0.76896200  1
  Cu  Cu30  1  0.86046100  0.65490400  0.73103800  1
  Cu  Cu31  1  0.63953900  0.65490400  0.23103800  1
  Cu  Cu32  1  0.19664200  0.92290300  0.18076800  1
  Cu  Cu33  1  0.30335800  0.92290300  0.68076800  1
  Cu  Cu34  1  0.80335800  0.07709700  0.81923200  1
  Cu  Cu35  1  0.69664200  0.07709700  0.31923200  1
  Cu  Cu36  1  0.30736000  0.41642300  0.37715300  1
  Cu  Cu37  1  0.19264000  0.41642300  0.87715300  1
  Cu  Cu38  1  0.69264000  0.58357700  0.62284700  1
  Cu  Cu39  1  0.80736000  0.58357700  0.12284700  1
  Cu  Cu40  1  0.04816900  0.88265900  0.67633200  1
  Cu  Cu41  1  0.45183100  0.88265900  0.17633200  1
  Cu  Cu42  1  0.95183100  0.11734100  0.32366800  1
  Cu  Cu43  1  0.54816900  0.11734100  0.82366800  1
  Cu  Cu44  1  0.82914900  0.08490100  0.47087700  1
  Cu  Cu45  1  0.67085100  0.08490100  0.97087700  1
  Cu  Cu46  1  0.17085100  0.91509900  0.52912300  1
  Cu  Cu47  1  0.32914900  0.91509900  0.02912300  1
  Cu  Cu48  1  0.78368200  0.85495100  0.18270400  1
  Cu  Cu49  1  0.71631800  0.85495100  0.68270400  1
  Cu  Cu50  1  0.21631800  0.14504900  0.81729600  1
  Cu  Cu51  1  0.28368200  0.14504900  0.31729600  1
  C  C52  1  0.04561900  0.35523100  0.28533000  1
  C  C53  1  0.45438100  0.35523100  0.78533000  1
  C  C54  1  0.95438100  0.64476900  0.71467000  1
  C  C55  1  0.54561900  0.64476900  0.21467000  1
  C  C56  1  0.10530100  0.88023000  0.18136500  1
  C  C57  1  0.39469900  0.88023000  0.68136500  1
  C  C58  1  0.89469900  0.11977000  0.81863500  1
  C  C59  1  0.60530100  0.11977000  0.31863500  1
  C  C60  1  0.29713400  0.45877600  0.44580100  1
  C  C61  1  0.20286600  0.45877600  0.94580100  1
  C  C62  1  0.70286600  0.54122400  0.55419900  1
  C  C63  1  0.79713400  0.54122400  0.05419900  1
  C  C64  1  0.11453000  0.00210600  0.64834000  1
  C  C65  1  0.38547000  0.00210600  0.14834000  1
  C  C66  1  0.88547000  0.99789400  0.35166000  1
  C  C67  1  0.61453000  0.99789400  0.85166000  1
  C  C68  1  0.80351500  0.13711500  0.53138400  1
  C  C69  1  0.69648500  0.13711500  0.03138400  1
  C  C70  1  0.19648500  0.86288500  0.46861600  1
  C  C71  1  0.30351500  0.86288500  0.96861600  1
  C  C72  1  0.80513700  0.69167000  0.23415800  1
  C  C73  1  0.69486300  0.69167000  0.73415800  1
  C  C74  1  0.19486300  0.30833000  0.76584200  1
  C  C75  1  0.30513700  0.30833000  0.26584200  1
