# generated using pymatgen
data_Cu2Ni6C29
_symmetry_space_group_name_H-M   'P 1'
_cell_length_a   7.73650500
_cell_length_b   7.73650500
_cell_length_c   7.44200200
_cell_angle_alpha   90.00000000
_cell_angle_beta   90.00000000
_cell_angle_gamma   90.00000000
_symmetry_Int_Tables_number   1
_chemical_formula_structural   Cu2Ni6C29
_chemical_formula_sum   'Cu2 Ni6 C29'
_cell_volume   445.42993826
_cell_formula_units_Z   1
loop_
 _symmetry_equiv_pos_site_id
 _symmetry_equiv_pos_as_xyz
  1  'x, y, z'
loop_
 _atom_site_type_symbol
 _atom_site_label
 _atom_site_symmetry_multiplicity
 _atom_site_fract_x
 _atom_site_fract_y
 _atom_site_fract_z
 _atom_site_occupancy
  C  C0  1  0.26232900  0.26232900  0.25000000  1
  C  C1  1  0.25163600  0.25163600  0.75000000  1
  C  C2  1  0.26232900  0.73767100  0.25000000  1
  C  C3  1  0.25163600  0.74836400  0.75000000  1
  C  C4  1  0.73767100  0.26232900  0.25000000  1
  C  C5  1  0.74836400  0.25163600  0.75000000  1
  C  C6  1  0.73767100  0.73767100  0.25000000  1
  C  C7  1  0.74836400  0.74836400  0.75000000  1
  Ni  Ni8  1  0.00000000  0.50000000  0.99724400  1
  Ni  Ni9  1  0.00000000  0.50000000  0.50275600  1
  Ni  Ni10  1  0.50000000  0.00000000  0.99724400  1
  Ni  Ni11  1  0.50000000  0.00000000  0.50275600  1
  Ni  Ni12  1  0.50000000  0.50000000  0.99845700  1
  Ni  Ni13  1  0.50000000  0.50000000  0.50154300  1
  Cu  Cu14  1  0.00000000  0.00000000  0.00357800  1
  Cu  Cu15  1  0.00000000  0.00000000  0.49642200  1
  C  C16  1  0.00000000  0.50000000  0.25000000  1
  C  C17  1  0.00000000  0.50000000  0.75000000  1
  C  C18  1  0.50000000  0.00000000  0.25000000  1
  C  C19  1  0.50000000  0.00000000  0.75000000  1
  C  C20  1  0.50000000  0.50000000  0.25000000  1
  C  C21  1  0.23479900  0.00000000  0.00008800  1
  C  C22  1  0.23479900  0.00000000  0.49991200  1
  C  C23  1  0.25557500  0.50000000  0.97742800  1
  C  C24  1  0.25557500  0.50000000  0.52257200  1
  C  C25  1  0.76520100  0.00000000  0.00008800  1
  C  C26  1  0.76520100  0.00000000  0.49991200  1
  C  C27  1  0.74442500  0.50000000  0.97742800  1
  C  C28  1  0.74442500  0.50000000  0.52257200  1
  C  C29  1  0.00000000  0.23479900  0.00008800  1
  C  C30  1  0.00000000  0.23479900  0.49991200  1
  C  C31  1  0.00000000  0.76520100  0.00008800  1
  C  C32  1  0.00000000  0.76520100  0.49991200  1
  C  C33  1  0.50000000  0.25557500  0.97742800  1
  C  C34  1  0.50000000  0.25557500  0.52257200  1
  C  C35  1  0.50000000  0.74442500  0.97742800  1
  C  C36  1  0.50000000  0.74442500  0.52257200  1
