# generated using pymatgen
data_Cu3Ni2C
_symmetry_space_group_name_H-M   'P 1'
_cell_length_a   19.35872600
_cell_length_b   5.45570400
_cell_length_c   6.57886574
_cell_angle_alpha   56.09509126
_cell_angle_beta   90.00000000
_cell_angle_gamma   90.00000000
_symmetry_Int_Tables_number   1
_chemical_formula_structural   Cu3Ni2C
_chemical_formula_sum   'Cu12 Ni8 C4'
_cell_volume   576.68427813
_cell_formula_units_Z   4
loop_
 _symmetry_equiv_pos_site_id
 _symmetry_equiv_pos_as_xyz
  1  'x, y, z'
loop_
 _atom_site_type_symbol
 _atom_site_label
 _atom_site_symmetry_multiplicity
 _atom_site_fract_x
 _atom_site_fract_y
 _atom_site_fract_z
 _atom_site_occupancy
  C  C0  1  0.86684200  0.23073400  0.38493400  1
  C  C1  1  0.36684200  0.76926600  0.11506600  1
  C  C2  1  0.13315800  0.76926600  0.61506600  1
  C  C3  1  0.63315800  0.23073400  0.88493400  1
  Ni  Ni4  1  0.87109200  0.02581600  0.88346600  1
  Ni  Ni5  1  0.37109200  0.97418400  0.61653400  1
  Ni  Ni6  1  0.12890800  0.97418400  0.11653400  1
  Ni  Ni7  1  0.62890800  0.02581600  0.38346600  1
  Ni  Ni8  1  0.68854300  0.79669900  0.78957300  1
  Ni  Ni9  1  0.18854300  0.20330100  0.71042700  1
  Ni  Ni10  1  0.31145700  0.20330100  0.21042700  1
  Ni  Ni11  1  0.81145700  0.79669900  0.28957300  1
  Cu  Cu12  1  0.01615700  0.41095600  0.50502200  1
  Cu  Cu13  1  0.51615700  0.58904400  0.99497800  1
  Cu  Cu14  1  0.98384300  0.58904400  0.49497800  1
  Cu  Cu15  1  0.48384300  0.41095600  0.00502200  1
  Cu  Cu16  1  0.84083700  0.91805300  0.08112100  1
  Cu  Cu17  1  0.34083700  0.08194700  0.41887900  1
  Cu  Cu18  1  0.15916300  0.08194700  0.91887900  1
  Cu  Cu19  1  0.65916300  0.91805300  0.58112100  1
  Cu  Cu20  1  0.71056400  0.66998800  0.99518900  1
  Cu  Cu21  1  0.21056400  0.33001200  0.50481100  1
  Cu  Cu22  1  0.28943600  0.33001200  0.00481100  1
  Cu  Cu23  1  0.78943600  0.66998800  0.49518900  1
