# generated using pymatgen
data_Cu4NiC
_symmetry_space_group_name_H-M   'P 1'
_cell_length_a   5.53302200
_cell_length_b   4.96620700
_cell_length_c   6.73199982
_cell_angle_alpha   67.30890616
_cell_angle_beta   90.00000000
_cell_angle_gamma   90.00000000
_symmetry_Int_Tables_number   1
_chemical_formula_structural   Cu4NiC
_chemical_formula_sum   'Cu8 Ni2 C2'
_cell_volume   170.66475803
_cell_formula_units_Z   2
loop_
 _symmetry_equiv_pos_site_id
 _symmetry_equiv_pos_as_xyz
  1  'x, y, z'
loop_
 _atom_site_type_symbol
 _atom_site_label
 _atom_site_symmetry_multiplicity
 _atom_site_fract_x
 _atom_site_fract_y
 _atom_site_fract_z
 _atom_site_occupancy
  C  C0  1  0.25000000  0.96327600  0.74893900  1
  C  C1  1  0.75000000  0.03672400  0.25106100  1
  Ni  Ni2  1  0.75000000  0.44110100  0.73138700  1
  Ni  Ni3  1  0.25000000  0.55889900  0.26861300  1
  Cu  Cu4  1  0.75000000  0.37301500  0.54107700  1
  Cu  Cu5  1  0.25000000  0.62698500  0.45892300  1
  Cu  Cu6  1  0.75000000  0.76298800  0.66596000  1
  Cu  Cu7  1  0.25000000  0.23701200  0.33404000  1
  Cu  Cu8  1  0.96563900  0.31732700  0.86383000  1
  Cu  Cu9  1  0.46563900  0.68267300  0.13617000  1
  Cu  Cu10  1  0.03436100  0.68267300  0.13617000  1
  Cu  Cu11  1  0.53436100  0.31732700  0.86383000  1
