# generated using pymatgen
data_Cu(NiC)4
_symmetry_space_group_name_H-M   'P 1'
_cell_length_a   5.45739297
_cell_length_b   7.75930680
_cell_length_c   10.45667052
_cell_angle_alpha   78.74270864
_cell_angle_beta   99.55201145
_cell_angle_gamma   69.56919525
_symmetry_Int_Tables_number   1
_chemical_formula_structural   Cu(NiC)4
_chemical_formula_sum   'Cu4 Ni16 C16'
_cell_volume   393.53480718
_cell_formula_units_Z   4
loop_
 _symmetry_equiv_pos_site_id
 _symmetry_equiv_pos_as_xyz
  1  'x, y, z'
loop_
 _atom_site_type_symbol
 _atom_site_label
 _atom_site_symmetry_multiplicity
 _atom_site_fract_x
 _atom_site_fract_y
 _atom_site_fract_z
 _atom_site_occupancy
  C  C0  1  0.49475500  0.53197400  0.81194500  1
  C  C1  1  0.99473000  0.03198400  0.31192900  1
  C  C2  1  0.71530900  0.56457000  0.59147000  1
  C  C3  1  0.21531300  0.06455300  0.09147900  1
  C  C4  1  0.31126700  0.66587500  0.26724400  1
  C  C5  1  0.81124400  0.16587800  0.76723800  1
  C  C6  1  0.30654600  0.29478300  0.27205900  1
  C  C7  1  0.80654300  0.79472100  0.77206600  1
  C  C8  1  0.50125900  0.99945600  0.50071500  1
  C  C9  1  0.25178100  0.24947300  0.75033200  1
  C  C10  1  0.00137000  0.49947600  0.00086900  1
  C  C11  1  0.75200900  0.74936800  0.25031200  1
  C  C12  1  0.65815600  0.19723500  0.05261000  1
  C  C13  1  0.15817100  0.69720300  0.55259600  1
  C  C14  1  0.34277800  0.80247500  0.94757700  1
  C  C15  1  0.84276500  0.30251400  0.44755800  1
  Ni  Ni16  1  0.85545900  0.29224600  0.09375900  1
  Ni  Ni17  1  0.35544400  0.79224200  0.59371400  1
  Ni  Ni18  1  0.31794100  0.48291600  0.63037600  1
  Ni  Ni19  1  0.81797300  0.98290900  0.13033700  1
  Ni  Ni20  1  0.16626500  0.69361900  0.90337800  1
  Ni  Ni21  1  0.66629600  0.19363200  0.40338200  1
  Ni  Ni22  1  0.68744100  0.52172000  0.38143600  1
  Ni  Ni23  1  0.18745300  0.02168400  0.88145200  1
  Ni  Ni24  1  0.38673800  0.26750000  0.09469700  1
  Ni  Ni25  1  0.88675600  0.76750800  0.59467500  1
  Ni  Ni26  1  0.58440600  0.24234500  0.89576900  1
  Ni  Ni27  1  0.08449600  0.74231100  0.39574700  1
  Ni  Ni28  1  0.60740700  0.71998600  0.90247100  1
  Ni  Ni29  1  0.10746300  0.21998600  0.40248400  1
  Ni  Ni30  1  0.40784900  0.77482000  0.10249500  1
  Ni  Ni31  1  0.90783000  0.27481500  0.60246800  1
  Cu  Cu32  1  0.91216200  0.44648000  0.80406600  1
  Cu  Cu33  1  0.41219000  0.94647300  0.30406100  1
  Cu  Cu34  1  0.07303000  0.55904300  0.19121000  1
  Cu  Cu35  1  0.57300300  0.05902600  0.69122500  1
