# generated using pymatgen
data_Cu2NiC11
_symmetry_space_group_name_H-M   'P 1'
_cell_length_a   5.79986736
_cell_length_b   5.79986736
_cell_length_c   14.31381400
_cell_angle_alpha   90.00000000
_cell_angle_beta   90.00000000
_cell_angle_gamma   119.89700578
_symmetry_Int_Tables_number   1
_chemical_formula_structural   Cu2NiC11
_chemical_formula_sum   'Cu4 Ni2 C22'
_cell_volume   417.41871490
_cell_formula_units_Z   2
loop_
 _symmetry_equiv_pos_site_id
 _symmetry_equiv_pos_as_xyz
  1  'x, y, z'
loop_
 _atom_site_type_symbol
 _atom_site_label
 _atom_site_symmetry_multiplicity
 _atom_site_fract_x
 _atom_site_fract_y
 _atom_site_fract_z
 _atom_site_occupancy
  C  C0  1  0.32745400  0.65842500  0.91595300  1
  C  C1  1  0.65842500  0.32745400  0.08404700  1
  C  C2  1  0.65842500  0.32745400  0.41595300  1
  C  C3  1  0.32745400  0.65842500  0.58404700  1
  C  C4  1  0.00938300  0.01984200  0.75000000  1
  C  C5  1  0.01984200  0.00938300  0.25000000  1
  Ni  Ni6  1  0.00638400  0.00638400  0.00000000  1
  Ni  Ni7  1  0.00638400  0.00638400  0.50000000  1
  Cu  Cu8  1  0.36273000  0.68433400  0.14903600  1
  Cu  Cu9  1  0.68433400  0.36273000  0.85096400  1
  Cu  Cu10  1  0.68433400  0.36273000  0.64903600  1
  Cu  Cu11  1  0.36273000  0.68433400  0.35096400  1
  C  C12  1  0.82574600  0.15017100  0.91504900  1
  C  C13  1  0.33097900  0.15443000  0.92167800  1
  C  C14  1  0.84283100  0.68116400  0.92124300  1
  C  C15  1  0.15017100  0.82574600  0.08495100  1
  C  C16  1  0.68116400  0.84283100  0.07875700  1
  C  C17  1  0.15443000  0.33097900  0.07832200  1
  C  C18  1  0.15017100  0.82574600  0.41504900  1
  C  C19  1  0.68116400  0.84283100  0.42124300  1
  C  C20  1  0.15443000  0.33097900  0.42167800  1
  C  C21  1  0.82574600  0.15017100  0.58495100  1
  C  C22  1  0.33097900  0.15443000  0.57832200  1
  C  C23  1  0.84283100  0.68116400  0.57875700  1
  C  C24  1  0.49332200  0.44071400  0.75000000  1
  C  C25  1  0.95821900  0.45739200  0.75000000  1
  C  C26  1  0.44071400  0.49332200  0.25000000  1
  C  C27  1  0.45739200  0.95821900  0.25000000  1
