# generated using pymatgen
data_Cu2NiC4
_symmetry_space_group_name_H-M   'P 1'
_cell_length_a   6.81635580
_cell_length_b   6.81635580
_cell_length_c   6.81635580
_cell_angle_alpha   154.20509156
_cell_angle_beta   153.19903510
_cell_angle_gamma   37.53929303
_symmetry_Int_Tables_number   1
_chemical_formula_structural   Cu2NiC4
_chemical_formula_sum   'Cu2 Ni1 C4'
_cell_volume   62.04727275
_cell_formula_units_Z   1
loop_
 _symmetry_equiv_pos_site_id
 _symmetry_equiv_pos_as_xyz
  1  'x, y, z'
loop_
 _atom_site_type_symbol
 _atom_site_label
 _atom_site_symmetry_multiplicity
 _atom_site_fract_x
 _atom_site_fract_y
 _atom_site_fract_z
 _atom_site_occupancy
  Ni  Ni0  1  0.00000000  0.50000000  0.50000000  1
  Cu  Cu1  1  0.18768100  0.18768100  0.00000000  1
  Cu  Cu2  1  0.81231900  0.81231900  0.00000000  1
  C  C3  1  0.35324000  0.35324000  0.00000000  1
  C  C4  1  0.64676000  0.64676000  0.00000000  1
  C  C5  1  0.42730000  0.92730000  0.50000000  1
  C  C6  1  0.57270000  0.07270000  0.50000000  1
