# generated using pymatgen
data_Cu8NiC32
_symmetry_space_group_name_H-M   'P 1'
_cell_length_a   8.27870833
_cell_length_b   8.26549259
_cell_length_c   10.27637925
_cell_angle_alpha   88.78746941
_cell_angle_beta   88.93043146
_cell_angle_gamma   96.33222022
_symmetry_Int_Tables_number   1
_chemical_formula_structural   Cu8NiC32
_chemical_formula_sum   'Cu8 Ni1 C32'
_cell_volume   698.58534627
_cell_formula_units_Z   1
loop_
 _symmetry_equiv_pos_site_id
 _symmetry_equiv_pos_as_xyz
  1  'x, y, z'
loop_
 _atom_site_type_symbol
 _atom_site_label
 _atom_site_symmetry_multiplicity
 _atom_site_fract_x
 _atom_site_fract_y
 _atom_site_fract_z
 _atom_site_occupancy
  C  C0  1  0.99249559  0.02198922  0.73514123  1
  C  C1  1  0.49218809  0.53734658  0.73982134  1
  C  C2  1  0.96774523  0.01003546  0.26212330  1
  C  C3  1  0.47888555  0.50472486  0.26344623  1
  C  C4  1  0.67662782  0.19530455  0.51624388  1
  C  C5  1  0.17245499  0.77778282  0.98405392  1
  C  C6  1  0.30506565  0.82189927  0.48407091  1
  C  C7  1  0.72705029  0.32441288  0.01589060  1
  Ni  Ni8  1  0.10825943  0.39358079  0.00067505  1
  Cu  Cu9  1  0.02566631  0.51557711  0.70826335  1
  Cu  Cu10  1  0.51266505  0.00652779  0.80718053  1
  Cu  Cu11  1  0.98637248  0.47343724  0.29217052  1
  Cu  Cu12  1  0.49373982  0.98464395  0.19280022  1
  Cu  Cu13  1  0.82003179  0.68089274  0.49970848  1
  Cu  Cu14  1  0.31232584  0.18796722  0.99711872  1
  Cu  Cu15  1  0.19200329  0.30762942  0.50093991  1
  Cu  Cu16  1  0.68854915  0.81006220  0.00188345  1
  C  C17  1  0.97662385  0.44809470  0.85454502  1
  C  C18  1  0.48610312  0.96295806  0.65651430  1
  C  C19  1  0.05207545  0.52521871  0.14589742  1
  C  C20  1  0.52395377  0.02509131  0.34350335  1
  C  C21  1  0.86560466  0.57283456  0.62966374  1
  C  C22  1  0.34622460  0.06467308  0.87534572  1
  C  C23  1  0.14511867  0.41584007  0.37254654  1
  C  C24  1  0.66373807  0.94082089  0.11967517  1
  C  C25  1  0.07850072  0.35753078  0.62476768  1
  C  C26  1  0.54871810  0.84234545  0.89297310  1
  C  C27  1  0.93285968  0.63254278  0.37381248  1
  C  C28  1  0.44247646  0.14566946  0.11149303  1
  C  C29  1  0.17143062  0.66348426  0.71392829  1
  C  C30  1  0.66632250  0.14619700  0.79345638  1
  C  C31  1  0.83750702  0.32864039  0.28600178  1
  C  C32  1  0.35291580  0.83205112  0.20702210  1
  C  C33  1  0.85021837  0.87695006  0.51703959  1
  C  C34  1  0.34514546  0.38089668  0.95930263  1
  C  C35  1  0.15921756  0.11205834  0.48323748  1
  C  C36  1  0.66233814  0.62060700  0.04708056  1
  C  C37  1  0.62510582  0.64841902  0.47855694  1
  C  C38  1  0.12150052  0.15513532  0.04070173  1
  C  C39  1  0.38639582  0.34235287  0.52256524  1
  C  C40  1  0.87444587  0.83910700  0.94883810  1
