# generated using pymatgen
data_CuNi2C
_symmetry_space_group_name_H-M   'P 1'
_cell_length_a   6.78262300
_cell_length_b   6.78262300
_cell_length_c   7.41606900
_cell_angle_alpha   90.00000000
_cell_angle_beta   90.00000000
_cell_angle_gamma   90.00000000
_symmetry_Int_Tables_number   1
_chemical_formula_structural   CuNi2C
_chemical_formula_sum   'Cu8 Ni16 C8'
_cell_volume   341.16865110
_cell_formula_units_Z   8
loop_
 _symmetry_equiv_pos_site_id
 _symmetry_equiv_pos_as_xyz
  1  'x, y, z'
loop_
 _atom_site_type_symbol
 _atom_site_label
 _atom_site_symmetry_multiplicity
 _atom_site_fract_x
 _atom_site_fract_y
 _atom_site_fract_z
 _atom_site_occupancy
  C  C0  1  0.30953900  0.80953900  0.75000000  1
  C  C1  1  0.19046100  0.30953900  0.25000000  1
  C  C2  1  0.80953900  0.69046100  0.25000000  1
  C  C3  1  0.69046100  0.19046100  0.75000000  1
  C  C4  1  0.69046100  0.19046100  0.25000000  1
  C  C5  1  0.80953900  0.69046100  0.75000000  1
  C  C6  1  0.19046100  0.30953900  0.75000000  1
  C  C7  1  0.30953900  0.80953900  0.25000000  1
  Ni  Ni8  1  0.15198300  0.03460300  0.00000000  1
  Ni  Ni9  1  0.53460300  0.65198300  0.50000000  1
  Ni  Ni10  1  0.84801700  0.96539700  0.00000000  1
  Ni  Ni11  1  0.34801700  0.53460300  0.00000000  1
  Ni  Ni12  1  0.65198300  0.46539700  0.00000000  1
  Ni  Ni13  1  0.03460300  0.84801700  0.50000000  1
  Ni  Ni14  1  0.96539700  0.15198300  0.50000000  1
  Ni  Ni15  1  0.46539700  0.34801700  0.50000000  1
  Ni  Ni16  1  0.09700700  0.59461400  0.00000000  1
  Ni  Ni17  1  0.40538600  0.09700700  0.50000000  1
  Ni  Ni18  1  0.59461400  0.90299300  0.50000000  1
  Ni  Ni19  1  0.59700700  0.90538600  0.00000000  1
  Ni  Ni20  1  0.40299300  0.09461400  0.00000000  1
  Ni  Ni21  1  0.90299300  0.40538600  0.00000000  1
  Ni  Ni22  1  0.09461400  0.59700700  0.50000000  1
  Ni  Ni23  1  0.90538600  0.40299300  0.50000000  1
  Cu  Cu24  1  0.17739200  0.04045400  0.50000000  1
  Cu  Cu25  1  0.67739200  0.45954600  0.50000000  1
  Cu  Cu26  1  0.32260800  0.54045400  0.50000000  1
  Cu  Cu27  1  0.95954600  0.17739200  0.00000000  1
  Cu  Cu28  1  0.04045400  0.82260800  0.00000000  1
  Cu  Cu29  1  0.54045400  0.67739200  0.00000000  1
  Cu  Cu30  1  0.82260800  0.95954600  0.50000000  1
  Cu  Cu31  1  0.45954600  0.32260800  0.00000000  1
