# generated using pymatgen
data_CuNi14C17
_symmetry_space_group_name_H-M   'P 1'
_cell_length_a   8.66351600
_cell_length_b   8.66534562
_cell_length_c   4.34399073
_cell_angle_alpha   90.00000000
_cell_angle_beta   90.00000000
_cell_angle_gamma   90.00000000
_symmetry_Int_Tables_number   1
_chemical_formula_structural   CuNi14C17
_chemical_formula_sum   'Cu1 Ni14 C17'
_cell_volume   326.11363776
_cell_formula_units_Z   1
loop_
 _symmetry_equiv_pos_site_id
 _symmetry_equiv_pos_as_xyz
  1  'x, y, z'
loop_
 _atom_site_type_symbol
 _atom_site_label
 _atom_site_symmetry_multiplicity
 _atom_site_fract_x
 _atom_site_fract_y
 _atom_site_fract_z
 _atom_site_occupancy
  Ni  Ni0  1  0.50000000  0.00000000  0.00000000  1
  Ni  Ni1  1  0.50000000  0.50000000  0.00000000  1
  Ni  Ni2  1  0.00000000  0.23604776  0.50000000  1
  Ni  Ni3  1  0.00000000  0.76395224  0.50000000  1
  Ni  Ni4  1  0.50000000  0.24738631  0.50000000  1
  Ni  Ni5  1  0.50000000  0.75261369  0.50000000  1
  Ni  Ni6  1  0.24851469  0.00000000  0.50000000  1
  Ni  Ni7  1  0.25995357  0.50000000  0.50000000  1
  Ni  Ni8  1  0.75148531  0.00000000  0.50000000  1
  Ni  Ni9  1  0.74004643  0.50000000  0.50000000  1
  Ni  Ni10  1  0.25359692  0.24259706  0.00000000  1
  Ni  Ni11  1  0.25359692  0.75740294  0.00000000  1
  Ni  Ni12  1  0.74640308  0.24259706  0.00000000  1
  Ni  Ni13  1  0.74640308  0.75740294  0.00000000  1
  Cu  Cu14  1  0.00000000  0.00000000  0.00000000  1
  C  C15  1  0.00000000  0.50000000  0.00000000  1
  C  C16  1  0.25878950  0.00000000  0.00000000  1
  C  C17  1  0.26755937  0.50000000  0.00000000  1
  C  C18  1  0.74121050  0.00000000  0.00000000  1
  C  C19  1  0.73244063  0.50000000  0.00000000  1
  C  C20  1  0.24883746  0.25038890  0.50000000  1
  C  C21  1  0.24883746  0.74961110  0.50000000  1
  C  C22  1  0.75116254  0.25038890  0.50000000  1
  C  C23  1  0.75116254  0.74961110  0.50000000  1
  C  C24  1  0.00000000  0.00000000  0.50000000  1
  C  C25  1  0.00000000  0.50000000  0.50000000  1
  C  C26  1  0.50000000  0.00000000  0.50000000  1
  C  C27  1  0.50000000  0.50000000  0.50000000  1
  C  C28  1  0.00000000  0.23715818  0.00000000  1
  C  C29  1  0.00000000  0.76284182  0.00000000  1
  C  C30  1  0.50000000  0.24829298  0.00000000  1
  C  C31  1  0.50000000  0.75170702  0.00000000  1
