# generated using pymatgen
data_Cu12Ni3C5
_symmetry_space_group_name_H-M   'P 1'
_cell_length_a   7.59775500
_cell_length_b   7.59775500
_cell_length_c   36.18337600
_cell_angle_alpha   90.00000000
_cell_angle_beta   90.00000000
_cell_angle_gamma   90.00000000
_symmetry_Int_Tables_number   1
_chemical_formula_structural   Cu12Ni3C5
_chemical_formula_sum   'Cu48 Ni12 C20'
_cell_volume   2088.71725860
_cell_formula_units_Z   4
loop_
 _symmetry_equiv_pos_site_id
 _symmetry_equiv_pos_as_xyz
  1  'x, y, z'
loop_
 _atom_site_type_symbol
 _atom_site_label
 _atom_site_symmetry_multiplicity
 _atom_site_fract_x
 _atom_site_fract_y
 _atom_site_fract_z
 _atom_site_occupancy
  C  C0  1  0.00000000  0.00000000  0.83331400  1
  C  C1  1  0.00000000  0.00000000  0.16668600  1
  C  C2  1  0.00000000  0.00000000  0.91769700  1
  C  C3  1  0.00000000  0.00000000  0.25000000  1
  C  C4  1  0.00000000  0.00000000  0.58230300  1
  C  C5  1  0.00000000  0.00000000  0.33331400  1
  C  C6  1  0.00000000  0.00000000  0.66668600  1
  C  C7  1  0.50000000  0.50000000  0.08309600  1
  C  C8  1  0.50000000  0.50000000  0.41690400  1
  C  C9  1  0.50000000  0.50000000  0.00000000  1
  C  C10  1  0.50000000  0.50000000  0.33267600  1
  C  C11  1  0.50000000  0.50000000  0.66732400  1
  C  C12  1  0.50000000  0.50000000  0.83267600  1
  C  C13  1  0.50000000  0.50000000  0.16732400  1
  C  C14  1  0.50000000  0.50000000  0.50000000  1
  C  C15  1  0.00000000  0.00000000  0.08230300  1
  C  C16  1  0.00000000  0.00000000  0.41769700  1
  C  C17  1  0.00000000  0.00000000  0.75000000  1
  C  C18  1  0.50000000  0.50000000  0.91690400  1
  C  C19  1  0.50000000  0.50000000  0.58309600  1
  Ni  Ni20  1  0.50000000  0.00000000  0.12696700  1
  Ni  Ni21  1  0.50000000  0.00000000  0.46149900  1
  Ni  Ni22  1  0.50000000  0.00000000  0.79277200  1
  Ni  Ni23  1  0.00000000  0.50000000  0.87303300  1
  Ni  Ni24  1  0.00000000  0.50000000  0.20722800  1
  Ni  Ni25  1  0.00000000  0.50000000  0.53850100  1
  Ni  Ni26  1  0.50000000  0.00000000  0.03850100  1
  Ni  Ni27  1  0.50000000  0.00000000  0.37303300  1
  Ni  Ni28  1  0.50000000  0.00000000  0.70722800  1
  Ni  Ni29  1  0.00000000  0.50000000  0.96149900  1
  Ni  Ni30  1  0.00000000  0.50000000  0.29277200  1
  Ni  Ni31  1  0.00000000  0.50000000  0.62696700  1
  Cu  Cu32  1  0.84112100  0.83975400  0.87479500  1
  Cu  Cu33  1  0.84109700  0.83865500  0.20832200  1
  Cu  Cu34  1  0.84629600  0.83331700  0.54280800  1
  Cu  Cu35  1  0.65902800  0.33893400  0.04158700  1
  Cu  Cu36  1  0.65786400  0.33897000  0.37524200  1
  Cu  Cu37  1  0.65021800  0.33003000  0.70671700  1
  Cu  Cu38  1  0.33893400  0.34097200  0.95841300  1
  Cu  Cu39  1  0.33003000  0.34978200  0.29328300  1
  Cu  Cu40  1  0.33897000  0.34213600  0.62475800  1
  Cu  Cu41  1  0.83975400  0.15887900  0.12520500  1
  Cu  Cu42  1  0.83331700  0.15370400  0.45719200  1
  Cu  Cu43  1  0.83865500  0.15890300  0.79167800  1
  Cu  Cu44  1  0.34097200  0.66106600  0.04158700  1
  Cu  Cu45  1  0.34213600  0.66103000  0.37524200  1
  Cu  Cu46  1  0.34978200  0.66997000  0.70671700  1
  Cu  Cu47  1  0.15887900  0.16024600  0.87479500  1
  Cu  Cu48  1  0.15890300  0.16134500  0.20832200  1
  Cu  Cu49  1  0.15370400  0.16668300  0.54280800  1
  Cu  Cu50  1  0.83331700  0.84629600  0.04280800  1
  Cu  Cu51  1  0.83975400  0.84112100  0.37479500  1
  Cu  Cu52  1  0.83865500  0.84109700  0.70832200  1
  Cu  Cu53  1  0.66106600  0.65902800  0.95841300  1
  Cu  Cu54  1  0.66997000  0.65021800  0.29328300  1
  Cu  Cu55  1  0.66103000  0.65786400  0.62475800  1
  Cu  Cu56  1  0.65786400  0.66103000  0.12475800  1
  Cu  Cu57  1  0.65902800  0.66106600  0.45841300  1
  Cu  Cu58  1  0.65021800  0.66997000  0.79328300  1
  Cu  Cu59  1  0.16024600  0.84112100  0.12520500  1
  Cu  Cu60  1  0.16668300  0.84629600  0.45719200  1
  Cu  Cu61  1  0.16134500  0.84109700  0.79167800  1
  Cu  Cu62  1  0.66103000  0.34213600  0.87524200  1
  Cu  Cu63  1  0.66997000  0.34978200  0.20671700  1
  Cu  Cu64  1  0.66106600  0.34097200  0.54158700  1
  Cu  Cu65  1  0.33897000  0.65786400  0.87524200  1
  Cu  Cu66  1  0.33003000  0.65021800  0.20671700  1
  Cu  Cu67  1  0.33893400  0.65902800  0.54158700  1
  Cu  Cu68  1  0.16668300  0.15370400  0.04280800  1
  Cu  Cu69  1  0.16024600  0.15887900  0.37479500  1
  Cu  Cu70  1  0.16134500  0.15890300  0.70832200  1
  Cu  Cu71  1  0.15370400  0.83331700  0.95719200  1
  Cu  Cu72  1  0.15890300  0.83865500  0.29167800  1
  Cu  Cu73  1  0.15887900  0.83975400  0.62520500  1
  Cu  Cu74  1  0.84629600  0.16668300  0.95719200  1
  Cu  Cu75  1  0.84109700  0.16134500  0.29167800  1
  Cu  Cu76  1  0.84112100  0.16024600  0.62520500  1
  Cu  Cu77  1  0.34213600  0.33897000  0.12475800  1
  Cu  Cu78  1  0.34097200  0.33893400  0.45841300  1
  Cu  Cu79  1  0.34978200  0.33003000  0.79328300  1
