# generated using pymatgen
data_CuNi3C8
_symmetry_space_group_name_H-M   'P 1'
_cell_length_a   3.39838994
_cell_length_b   3.39838994
_cell_length_c   40.19722300
_cell_angle_alpha   90.00000000
_cell_angle_beta   90.00000000
_cell_angle_gamma   119.99999879
_symmetry_Int_Tables_number   1
_chemical_formula_structural   CuNi3C8
_chemical_formula_sum   'Cu1 Ni3 C8'
_cell_volume   402.04355683
_cell_formula_units_Z   1
loop_
 _symmetry_equiv_pos_site_id
 _symmetry_equiv_pos_as_xyz
  1  'x, y, z'
loop_
 _atom_site_type_symbol
 _atom_site_label
 _atom_site_symmetry_multiplicity
 _atom_site_fract_x
 _atom_site_fract_y
 _atom_site_fract_z
 _atom_site_occupancy
  C  C0  1  0.00000000  0.00000000  0.32719500  1
  C  C1  1  0.33333300  0.66666700  0.42365800  1
  C  C2  1  0.33333300  0.66666700  0.51740900  1
  C  C3  1  0.00000000  0.00000000  0.23388300  1
  Ni  Ni4  1  0.00000000  0.00000000  0.09390700  1
  Ni  Ni5  1  0.33333300  0.66666700  0.28052300  1
  Ni  Ni6  1  0.33333300  0.66666700  0.65795100  1
  Cu  Cu7  1  0.00000000  0.00000000  0.47054500  1
  C  C8  1  0.00000000  0.00000000  0.69899900  1
  C  C9  1  0.00000000  0.00000000  0.61684700  1
  C  C10  1  0.33333300  0.66666700  0.05651000  1
  C  C11  1  0.33333300  0.66666700  0.13132000  1
