# generated using pymatgen
data_Cu20Ni3C2
_symmetry_space_group_name_H-M   'P 1'
_cell_length_a   7.49083040
_cell_length_b   7.49083040
_cell_length_c   18.24898777
_cell_angle_alpha   81.65318060
_cell_angle_beta   81.65318060
_cell_angle_gamma   52.23414490
_symmetry_Int_Tables_number   1
_chemical_formula_structural   Cu20Ni3C2
_chemical_formula_sum   'Cu40 Ni6 C4'
_cell_volume   798.84107083
_cell_formula_units_Z   2
loop_
 _symmetry_equiv_pos_site_id
 _symmetry_equiv_pos_as_xyz
  1  'x, y, z'
loop_
 _atom_site_type_symbol
 _atom_site_label
 _atom_site_symmetry_multiplicity
 _atom_site_fract_x
 _atom_site_fract_y
 _atom_site_fract_z
 _atom_site_occupancy
  C  C0  1  0.81311200  0.84922800  0.89408700  1
  C  C1  1  0.18688800  0.15077200  0.10591300  1
  C  C2  1  0.15077200  0.18688800  0.60591300  1
  C  C3  1  0.84922800  0.81311200  0.39408700  1
  Ni  Ni4  1  0.75720300  0.81141700  0.58996600  1
  Ni  Ni5  1  0.24279700  0.18858300  0.41003400  1
  Ni  Ni6  1  0.18858300  0.24279700  0.91003400  1
  Ni  Ni7  1  0.81141700  0.75720300  0.08996600  1
  Ni  Ni8  1  0.70615700  0.29384300  0.75000000  1
  Ni  Ni9  1  0.29384300  0.70615700  0.25000000  1
  Cu  Cu10  1  0.34106000  0.27040800  0.68399000  1
  Cu  Cu11  1  0.65894000  0.72959200  0.31601000  1
  Cu  Cu12  1  0.72959200  0.65894000  0.81601000  1
  Cu  Cu13  1  0.27040800  0.34106000  0.18399000  1
  Cu  Cu14  1  0.31043400  0.37837900  0.57064100  1
  Cu  Cu15  1  0.68956600  0.62162100  0.42935900  1
  Cu  Cu16  1  0.62162100  0.68956600  0.92935900  1
  Cu  Cu17  1  0.37837900  0.31043400  0.07064100  1
  Cu  Cu18  1  0.52407600  0.88295000  0.61271000  1
  Cu  Cu19  1  0.47592400  0.11705000  0.38729000  1
  Cu  Cu20  1  0.11705000  0.47592400  0.88729000  1
  Cu  Cu21  1  0.88295000  0.52407600  0.11271000  1
  Cu  Cu22  1  0.76738000  0.90889500  0.51435400  1
  Cu  Cu23  1  0.23262000  0.09110500  0.48564600  1
  Cu  Cu24  1  0.09110500  0.23262000  0.98564600  1
  Cu  Cu25  1  0.90889500  0.76738000  0.01435400  1
  Cu  Cu26  1  0.53143300  0.39072700  0.69508800  1
  Cu  Cu27  1  0.46856700  0.60927300  0.30491200  1
  Cu  Cu28  1  0.60927300  0.46856700  0.80491200  1
  Cu  Cu29  1  0.39072700  0.53143300  0.19508800  1
  Cu  Cu30  1  0.81493700  0.88682500  0.64759000  1
  Cu  Cu31  1  0.18506300  0.11317500  0.35241000  1
  Cu  Cu32  1  0.11317500  0.18506300  0.85241000  1
  Cu  Cu33  1  0.88682500  0.81493700  0.14759000  1
  Cu  Cu34  1  0.43958100  0.09000300  0.91089800  1
  Cu  Cu35  1  0.56041900  0.90999700  0.08910200  1
  Cu  Cu36  1  0.90999700  0.56041900  0.58910200  1
  Cu  Cu37  1  0.09000300  0.43958100  0.41089800  1
  Cu  Cu38  1  0.10320000  0.88637500  0.62826500  1
  Cu  Cu39  1  0.89680000  0.11362500  0.37173500  1
  Cu  Cu40  1  0.11362500  0.89680000  0.87173500  1
  Cu  Cu41  1  0.88637500  0.10320000  0.12826500  1
  Cu  Cu42  1  0.79926300  0.13408100  0.93481300  1
  Cu  Cu43  1  0.20073700  0.86591900  0.06518700  1
  Cu  Cu44  1  0.86591900  0.20073700  0.56518700  1
  Cu  Cu45  1  0.13408100  0.79926300  0.43481300  1
  Cu  Cu46  1  0.75580200  0.08036200  0.78864100  1
  Cu  Cu47  1  0.24419800  0.91963800  0.21135900  1
  Cu  Cu48  1  0.91963800  0.24419800  0.71135900  1
  Cu  Cu49  1  0.08036200  0.75580200  0.28864100  1
