# generated using pymatgen
data_CuNi3C17
_symmetry_space_group_name_H-M   'P 1'
_cell_length_a   9.18726749
_cell_length_b   9.18726749
_cell_length_c   10.94178758
_cell_angle_alpha   53.50978594
_cell_angle_beta   53.50978594
_cell_angle_gamma   42.86786612
_symmetry_Int_Tables_number   1
_chemical_formula_structural   CuNi3C17
_chemical_formula_sum   'Cu2 Ni6 C34'
_cell_volume   483.36125529
_cell_formula_units_Z   2
loop_
 _symmetry_equiv_pos_site_id
 _symmetry_equiv_pos_as_xyz
  1  'x, y, z'
loop_
 _atom_site_type_symbol
 _atom_site_label
 _atom_site_symmetry_multiplicity
 _atom_site_fract_x
 _atom_site_fract_y
 _atom_site_fract_z
 _atom_site_occupancy
  C  C0  1  0.99918800  0.50171300  0.95787800  1
  C  C1  1  0.50171300  0.99918800  0.45787800  1
  C  C2  1  0.39598600  0.38171500  0.57064800  1
  C  C3  1  0.62380500  0.60585400  0.84172500  1
  C  C4  1  0.60585400  0.62380500  0.34172500  1
  C  C5  1  0.38171500  0.39598600  0.07064800  1
  C  C6  1  0.11818700  0.86309600  0.25599100  1
  C  C7  1  0.86309600  0.11818700  0.75599100  1
  C  C8  1  0.00238300  0.51088500  0.45698300  1
  C  C9  1  0.51088500  0.00238300  0.95698300  1
  Ni  Ni10  1  0.17059900  0.18702900  0.77961100  1
  Ni  Ni11  1  0.82923700  0.82229400  0.63367700  1
  Ni  Ni12  1  0.82229400  0.82923700  0.13367700  1
  Ni  Ni13  1  0.18702900  0.17059900  0.27961100  1
  Ni  Ni14  1  0.34664000  0.65593200  0.70468700  1
  Ni  Ni15  1  0.65593200  0.34664000  0.20468700  1
  Cu  Cu16  1  0.17386100  0.87899200  0.95523500  1
  Cu  Cu17  1  0.87899200  0.17386100  0.45523500  1
  C  C18  1  0.92571200  0.30109700  0.81470300  1
  C  C19  1  0.07919200  0.68658100  0.54491200  1
  C  C20  1  0.68658100  0.07919200  0.04491200  1
  C  C21  1  0.30109700  0.92571200  0.31470300  1
  C  C22  1  0.48988700  0.51588700  0.58759800  1
  C  C23  1  0.51588700  0.48988700  0.08759800  1
  C  C24  1  0.11970500  0.69111000  0.80079000  1
  C  C25  1  0.88578300  0.30491000  0.11266100  1
  C  C26  1  0.30491000  0.88578300  0.61266100  1
  C  C27  1  0.69111000  0.11970500  0.30079000  1
  C  C28  1  0.48977400  0.51286700  0.82011400  1
  C  C29  1  0.51286700  0.48977400  0.32011400  1
  C  C30  1  0.22851800  0.27355900  0.82029500  1
  C  C31  1  0.77557000  0.72237600  0.82100700  1
  C  C32  1  0.72237600  0.77557000  0.32100700  1
  C  C33  1  0.27355900  0.22851800  0.32029500  1
  C  C34  1  0.27857800  0.92722600  0.88259400  1
  C  C35  1  0.73068700  0.07107500  0.58355200  1
  C  C36  1  0.07107500  0.73068700  0.08355200  1
  C  C37  1  0.92722600  0.27857800  0.38259400  1
  C  C38  1  0.29586700  0.21129600  0.59897700  1
  C  C39  1  0.70677900  0.78796600  0.60481100  1
  C  C40  1  0.78796600  0.70677900  0.10481100  1
  C  C41  1  0.21129600  0.29586700  0.09897700  1
