# generated using pymatgen
data_Cu3NiC10
_symmetry_space_group_name_H-M   'P 1'
_cell_length_a   16.48017115
_cell_length_b   9.10551766
_cell_length_c   17.60940617
_cell_angle_alpha   90.00000000
_cell_angle_beta   90.00000000
_cell_angle_gamma   90.00000000
_symmetry_Int_Tables_number   1
_chemical_formula_structural   Cu3NiC10
_chemical_formula_sum   'Cu24 Ni8 C80'
_cell_volume   2642.47610873
_cell_formula_units_Z   8
loop_
 _symmetry_equiv_pos_site_id
 _symmetry_equiv_pos_as_xyz
  1  'x, y, z'
loop_
 _atom_site_type_symbol
 _atom_site_label
 _atom_site_symmetry_multiplicity
 _atom_site_fract_x
 _atom_site_fract_y
 _atom_site_fract_z
 _atom_site_occupancy
  C  C0  1  0.85044525  0.01748237  0.91328046  1
  C  C1  1  0.35044525  0.48251763  0.08671954  1
  C  C2  1  0.14955475  0.51748237  0.58671954  1
  C  C3  1  0.64955475  0.98251763  0.41328046  1
  C  C4  1  0.14955475  0.98251763  0.08671954  1
  C  C5  1  0.64955475  0.51748237  0.91328046  1
  C  C6  1  0.85044525  0.48251763  0.41328046  1
  C  C7  1  0.35044525  0.01748237  0.58671954  1
  C  C8  1  0.09084465  0.16178862  0.81548765  1
  C  C9  1  0.59084465  0.33821138  0.18451235  1
  C  C10  1  0.90915535  0.66178862  0.68451235  1
  C  C11  1  0.40915535  0.83821138  0.31548765  1
  C  C12  1  0.90915535  0.83821138  0.18451235  1
  C  C13  1  0.40915535  0.66178862  0.81548765  1
  C  C14  1  0.09084465  0.33821138  0.31548765  1
  C  C15  1  0.59084465  0.16178862  0.68451235  1
  C  C16  1  0.88905660  0.37997137  0.92939365  1
  C  C17  1  0.38905660  0.12002863  0.07060635  1
  C  C18  1  0.11094340  0.87997137  0.57060635  1
  C  C19  1  0.61094340  0.62002863  0.42939365  1
  C  C20  1  0.11094340  0.62002863  0.07060635  1
  C  C21  1  0.61094340  0.87997137  0.92939365  1
  C  C22  1  0.88905660  0.12002863  0.42939365  1
  C  C23  1  0.38905660  0.37997137  0.57060635  1
  C  C24  1  0.92100838  0.17806582  0.99235863  1
  C  C25  1  0.42100838  0.32193418  0.00764137  1
  C  C26  1  0.07899162  0.67806582  0.50764137  1
  C  C27  1  0.57899162  0.82193418  0.49235863  1
  C  C28  1  0.07899162  0.82193418  0.00764137  1
  C  C29  1  0.57899162  0.67806582  0.99235863  1
  C  C30  1  0.92100838  0.32193418  0.49235863  1
  C  C31  1  0.42100838  0.17806582  0.50764137  1
  C  C32  1  0.15988734  -0.00006674  0.78265703  1
  C  C33  1  0.65988734  0.50006674  0.21734297  1
  C  C34  1  0.84011266  0.49993326  0.71734297  1
  C  C35  1  0.34011266  1.00006674  0.28265703  1
  C  C36  1  0.84011266  1.00006674  0.21734297  1
  C  C37  1  0.34011266  0.49993326  0.78265703  1
  C  C38  1  0.15988734  0.50006674  0.28265703  1
  C  C39  1  0.65988734  -0.00006674  0.71734297  1
  C  C40  1  0.10090692  0.02536025  0.72809665  1
  C  C41  1  0.60090692  0.47463975  0.27190335  1
  C  C42  1  0.89909308  0.52536025  0.77190335  1
  C  C43  1  0.39909308  0.97463975  0.22809665  1
  C  C44  1  0.89909308  0.97463975  0.27190335  1
  C  C45  1  0.39909308  0.52536025  0.72809665  1
  C  C46  1  0.10090692  0.47463975  0.22809665  1
  C  C47  1  0.60090692  0.02536025  0.77190335  1
  C  C48  1  0.97750744  0.48681630  0.96664594  1
  C  C49  1  0.47750744  0.01318370  0.03335406  1
  C  C50  1  0.02249256  0.98681630  0.53335406  1
  C  C51  1  0.52249256  0.51318370  0.46664594  1
  C  C52  1  0.02249256  0.51318370  0.03335406  1
  C  C53  1  0.52249256  0.98681630  0.96664594  1
  C  C54  1  0.97750744  0.01318370  0.46664594  1
  C  C55  1  0.47750744  0.48681630  0.53335406  1
  C  C56  1  0.92128881  0.48549185  0.84248729  1
  C  C57  1  0.42128881  0.01450815  0.15751271  1
  C  C58  1  0.07871119  0.98549185  0.65751271  1
  C  C59  1  0.57871119  0.51450815  0.34248729  1
  C  C60  1  0.07871119  0.51450815  0.15751271  1
  C  C61  1  0.57871119  0.98549185  0.84248729  1
  C  C62  1  0.92128881  0.01450815  0.34248729  1
  C  C63  1  0.42128881  0.48549185  0.65751271  1
  C  C64  1  0.18565398  0.04959788  0.84832568  1
  C  C65  1  0.68565398  0.45040212  0.15167432  1
  C  C66  1  0.81434602  0.54959788  0.65167432  1
  C  C67  1  0.31434602  0.95040212  0.34832568  1
  C  C68  1  0.81434602  0.95040212  0.15167432  1
  C  C69  1  0.31434602  0.54959788  0.84832568  1
  C  C70  1  0.18565398  0.45040212  0.34832568  1
  C  C71  1  0.68565398  0.04959788  0.65167432  1
  C  C72  1  0.98290381  0.53602357  0.89332514  1
  C  C73  1  0.48290381  0.96397643  0.10667486  1
  C  C74  1  0.01709619  0.03602357  0.60667486  1
  C  C75  1  0.51709619  0.46397643  0.39332514  1
  C  C76  1  0.01709619  0.46397643  0.10667486  1
  C  C77  1  0.51709619  0.03602357  0.89332514  1
  C  C78  1  0.98290381  0.96397643  0.39332514  1
  C  C79  1  0.48290381  0.53602357  0.60667486  1
  Ni  Ni80  1  0.88498618  0.19765349  0.94558596  1
  Ni  Ni81  1  0.38498618  0.30234651  0.05441404  1
  Ni  Ni82  1  0.11501382  0.69765349  0.55441404  1
  Ni  Ni83  1  0.61501382  0.80234651  0.44558596  1
  Ni  Ni84  1  0.11501382  0.80234651  0.05441404  1
  Ni  Ni85  1  0.61501382  0.69765349  0.94558596  1
  Ni  Ni86  1  0.88498618  0.30234651  0.44558596  1
  Ni  Ni87  1  0.38498618  0.19765349  0.55441404  1
  Cu  Cu88  1  0.91929498  0.85277460  0.96952114  1
  Cu  Cu89  1  0.41929498  0.64722540  0.03047886  1
  Cu  Cu90  1  0.08070502  0.35277460  0.53047886  1
  Cu  Cu91  1  0.58070502  0.14722540  0.46952114  1
  Cu  Cu92  1  0.08070502  0.14722540  0.03047886  1
  Cu  Cu93  1  0.58070502  0.35277460  0.96952114  1
  Cu  Cu94  1  0.91929498  0.64722540  0.46952114  1
  Cu  Cu95  1  0.41929498  0.85277460  0.53047886  1
  Cu  Cu96  1  0.83862845  0.98146118  0.79497415  1
  Cu  Cu97  1  0.33862845  0.51853882  0.20502585  1
  Cu  Cu98  1  0.16137155  0.48146118  0.70502585  1
  Cu  Cu99  1  0.66137155  0.01853882  0.29497415  1
  Cu  Cu100  1  0.16137155  0.01853882  0.20502585  1
  Cu  Cu101  1  0.66137155  0.48146118  0.79497415  1
  Cu  Cu102  1  0.83862845  0.51853882  0.29497415  1
  Cu  Cu103  1  0.33862845  0.98146118  0.70502585  1
  Cu  Cu104  1  0.72140235  0.99728805  0.97073788  1
  Cu  Cu105  1  0.22140235  0.50271195  0.02926212  1
  Cu  Cu106  1  0.27859765  0.49728805  0.52926212  1
  Cu  Cu107  1  0.77859765  0.00271195  0.47073788  1
  Cu  Cu108  1  0.27859765  0.00271195  0.02926212  1
  Cu  Cu109  1  0.77859765  0.49728805  0.97073788  1
  Cu  Cu110  1  0.72140235  0.50271195  0.47073788  1
  Cu  Cu111  1  0.22140235  0.99728805  0.52926212  1
