# generated using pymatgen
data_CuNiC
_symmetry_space_group_name_H-M   'P 1'
_cell_length_a   3.06659000
_cell_length_b   6.66559228
_cell_length_c   6.66569198
_cell_angle_alpha   89.99986020
_cell_angle_beta   89.99997819
_cell_angle_gamma   90.00002181
_symmetry_Int_Tables_number   1
_chemical_formula_structural   CuNiC
_chemical_formula_sum   'Cu4 Ni4 C4'
_cell_volume   136.25100092
_cell_formula_units_Z   4
loop_
 _symmetry_equiv_pos_site_id
 _symmetry_equiv_pos_as_xyz
  1  'x, y, z'
loop_
 _atom_site_type_symbol
 _atom_site_label
 _atom_site_symmetry_multiplicity
 _atom_site_fract_x
 _atom_site_fract_y
 _atom_site_fract_z
 _atom_site_occupancy
  C  C0  1  0.50000000  0.47845000  0.01514700  1
  C  C1  1  0.50000000  0.02155100  0.48485500  1
  C  C2  1  0.00000000  0.01515400  0.02155900  1
  C  C3  1  0.00000100  0.48484700  0.47843500  1
  Ni  Ni4  1  0.50000000  0.50776600  0.30120000  1
  Ni  Ni5  1  0.99999900  0.19879300  0.50777200  1
  Ni  Ni6  1  0.00000000  0.30121200  0.99222800  1
  Ni  Ni7  1  0.50000000  0.99223100  0.19880000  1
  Cu  Cu8  1  0.50000000  0.98812000  0.80365400  1
  Cu  Cu9  1  0.00000000  0.69635100  0.98812100  1
  Cu  Cu10  1  0.00000000  0.80364900  0.51187900  1
  Cu  Cu11  1  0.50000000  0.51187700  0.69634800  1
