# generated using pymatgen
data_Cu3(NiC4)5
_symmetry_space_group_name_H-M   'P 1'
_cell_length_a   3.53564700
_cell_length_b   9.56559270
_cell_length_c   19.05481918
_cell_angle_alpha   88.42375180
_cell_angle_beta   90.00000000
_cell_angle_gamma   90.00000000
_symmetry_Int_Tables_number   1
_chemical_formula_structural   Cu3(NiC4)5
_chemical_formula_sum   'Cu3 Ni5 C20'
_cell_volume   644.20078379
_cell_formula_units_Z   1
loop_
 _symmetry_equiv_pos_site_id
 _symmetry_equiv_pos_as_xyz
  1  'x, y, z'
loop_
 _atom_site_type_symbol
 _atom_site_label
 _atom_site_symmetry_multiplicity
 _atom_site_fract_x
 _atom_site_fract_y
 _atom_site_fract_z
 _atom_site_occupancy
  Ni  Ni0  1  0.75000000  0.40591600  0.31683200  1
  Ni  Ni1  1  0.75000000  0.90510100  0.81878400  1
  Ni  Ni2  1  0.25000000  0.09621400  0.18025200  1
  Ni  Ni3  1  0.25000000  0.59752300  0.68069300  1
  Ni  Ni4  1  0.25000000  0.09736400  0.45726600  1
  Cu  Cu5  1  0.25000000  0.61799300  0.94533000  1
  Cu  Cu6  1  0.75000000  0.38245000  0.05383600  1
  Cu  Cu7  1  0.75000000  0.89184300  0.55222500  1
  C  C8  1  0.25000000  0.57760100  0.37708500  1
  C  C9  1  0.25000000  0.07329900  0.88040800  1
  C  C10  1  0.75000000  0.92632500  0.11948900  1
  C  C11  1  0.75000000  0.42754000  0.62013200  1
  C  C12  1  0.25000000  0.19742600  0.31669000  1
  C  C13  1  0.25000000  0.69798400  0.81579900  1
  C  C14  1  0.75000000  0.30361700  0.18244400  1
  C  C15  1  0.75000000  0.80463100  0.68106500  1
  C  C16  1  0.25000000  0.57856600  0.25292900  1
  C  C17  1  0.25000000  0.07812600  0.75577200  1
  C  C18  1  0.75000000  0.92511500  0.24420400  1
  C  C19  1  0.75000000  0.42500300  0.74468000  1
  C  C20  1  0.75000000  0.30427700  0.45394900  1
  C  C21  1  0.75000000  0.80595000  0.95496700  1
  C  C22  1  0.25000000  0.19448200  0.04419700  1
  C  C23  1  0.25000000  0.70492100  0.54477800  1
  C  C24  1  0.75000000  0.91545100  0.42029200  1
  C  C25  1  0.75000000  0.43620700  0.92595100  1
  C  C26  1  0.25000000  0.56370000  0.07320100  1
  C  C27  1  0.25000000  0.06537400  0.58675000  1
