# generated using pymatgen
data_CuNi3C10
_symmetry_space_group_name_H-M   'P 1'
_cell_length_a   8.61866900
_cell_length_b   8.32236054
_cell_length_c   11.87449539
_cell_angle_alpha   111.88058864
_cell_angle_beta   90.00000000
_cell_angle_gamma   90.00000000
_symmetry_Int_Tables_number   1
_chemical_formula_structural   CuNi3C10
_chemical_formula_sum   'Cu4 Ni12 C40'
_cell_volume   790.37346012
_cell_formula_units_Z   4
loop_
 _symmetry_equiv_pos_site_id
 _symmetry_equiv_pos_as_xyz
  1  'x, y, z'
loop_
 _atom_site_type_symbol
 _atom_site_label
 _atom_site_symmetry_multiplicity
 _atom_site_fract_x
 _atom_site_fract_y
 _atom_site_fract_z
 _atom_site_occupancy
  C  C0  1  0.97085300  0.05393000  0.29288200  1
  C  C1  1  0.47085300  0.94607000  0.20711800  1
  C  C2  1  0.02914700  0.94607000  0.70711800  1
  C  C3  1  0.52914700  0.05393000  0.79288200  1
  C  C4  1  0.10025600  0.57856700  0.30654900  1
  C  C5  1  0.60025600  0.42143300  0.19345100  1
  C  C6  1  0.89974400  0.42143300  0.69345100  1
  C  C7  1  0.39974400  0.57856700  0.80654900  1
  Ni  Ni8  1  0.28451000  0.87544500  0.53135900  1
  Ni  Ni9  1  0.78451000  0.12455500  0.96864100  1
  Ni  Ni10  1  0.71549000  0.12455500  0.46864100  1
  Ni  Ni11  1  0.21549000  0.87544500  0.03135900  1
  Ni  Ni12  1  0.33085400  0.68148300  0.51529200  1
  Ni  Ni13  1  0.83085400  0.31851700  0.98470800  1
  Ni  Ni14  1  0.66914600  0.31851700  0.48470800  1
  Ni  Ni15  1  0.16914600  0.68148300  0.01529200  1
  Ni  Ni16  1  0.39833000  0.64372600  0.32196100  1
  Ni  Ni17  1  0.89833000  0.35627400  0.17803900  1
  Ni  Ni18  1  0.60167000  0.35627400  0.67803900  1
  Ni  Ni19  1  0.10167000  0.64372600  0.82196100  1
  Cu  Cu20  1  0.73722600  0.80031600  0.45405400  1
  Cu  Cu21  1  0.23722600  0.19968400  0.04594600  1
  Cu  Cu22  1  0.26277400  0.19968400  0.54594600  1
  Cu  Cu23  1  0.76277400  0.80031600  0.95405400  1
  C  C24  1  0.90983200  0.77294500  0.42739500  1
  C  C25  1  0.40983200  0.22705500  0.07260500  1
  C  C26  1  0.09016800  0.22705500  0.57260500  1
  C  C27  1  0.59016800  0.77294500  0.92739500  1
  C  C28  1  0.36769300  0.52203200  0.29650300  1
  C  C29  1  0.86769300  0.47796800  0.20349700  1
  C  C30  1  0.63230700  0.47796800  0.70349700  1
  C  C31  1  0.13230700  0.52203200  0.79650300  1
  C  C32  1  0.71315100  0.86670600  0.58509600  1
  C  C33  1  0.21315100  0.13329400  0.91490400  1
  C  C34  1  0.28684900  0.13329400  0.41490400  1
  C  C35  1  0.78684900  0.86670600  0.08509600  1
  C  C36  1  0.14167700  0.75099800  0.25052900  1
  C  C37  1  0.64167700  0.24900200  0.24947100  1
  C  C38  1  0.85832300  0.24900200  0.74947100  1
  C  C39  1  0.35832300  0.75099800  0.75052900  1
  C  C40  1  0.06689100  0.40481000  0.36048400  1
  C  C41  1  0.56689100  0.59519000  0.13951600  1
  C  C42  1  0.93310900  0.59519000  0.63951600  1
  C  C43  1  0.43310900  0.40481000  0.86048400  1
  C  C44  1  0.65645800  0.62972400  0.39388600  1
  C  C45  1  0.15645800  0.37027600  0.10611400  1
  C  C46  1  0.34354200  0.37027600  0.60611400  1
  C  C47  1  0.84354200  0.62972400  0.89388600  1
  C  C48  1  0.68024100  0.92289200  0.39790200  1
  C  C49  1  0.18024100  0.07710800  0.10209800  1
  C  C50  1  0.31975900  0.07710800  0.60209800  1
  C  C51  1  0.81975900  0.92289200  0.89790200  1
  C  C52  1  0.24703500  0.75054300  0.50061200  1
  C  C53  1  0.74703500  0.24945700  0.99938800  1
  C  C54  1  0.75296500  0.24945700  0.49938800  1
  C  C55  1  0.25296500  0.75054300  0.00061200  1
