# generated using pymatgen
data_Cu9Ni2C
_symmetry_space_group_name_H-M   'P 1'
_cell_length_a   11.12717300
_cell_length_b   8.28793000
_cell_length_c   16.84126300
_cell_angle_alpha   90.00000000
_cell_angle_beta   90.00000000
_cell_angle_gamma   90.00000000
_symmetry_Int_Tables_number   1
_chemical_formula_structural   Cu9Ni2C
_chemical_formula_sum   'Cu72 Ni16 C8'
_cell_volume   1553.12200414
_cell_formula_units_Z   8
loop_
 _symmetry_equiv_pos_site_id
 _symmetry_equiv_pos_as_xyz
  1  'x, y, z'
loop_
 _atom_site_type_symbol
 _atom_site_label
 _atom_site_symmetry_multiplicity
 _atom_site_fract_x
 _atom_site_fract_y
 _atom_site_fract_z
 _atom_site_occupancy
  C  C0  1  0.19363600  0.53275400  0.88175600  1
  C  C1  1  0.80636400  0.46724600  0.38175600  1
  C  C2  1  0.30636400  0.53275400  0.38175600  1
  C  C3  1  0.69363600  0.46724600  0.88175600  1
  C  C4  1  0.95358900  0.03677700  0.15393000  1
  C  C5  1  0.04641100  0.96322300  0.65393000  1
  C  C6  1  0.54641100  0.03677700  0.65393000  1
  C  C7  1  0.45358900  0.96322300  0.15393000  1
  Ni  Ni8  1  0.22310600  0.29728900  0.19302300  1
  Ni  Ni9  1  0.77689400  0.70271100  0.69302300  1
  Ni  Ni10  1  0.27689400  0.29728900  0.69302300  1
  Ni  Ni11  1  0.72310600  0.70271100  0.19302300  1
  Ni  Ni12  1  0.05480300  0.42962100  0.08099500  1
  Ni  Ni13  1  0.94519700  0.57037900  0.58099500  1
  Ni  Ni14  1  0.44519700  0.42962100  0.58099500  1
  Ni  Ni15  1  0.55480300  0.57037900  0.08099500  1
  Ni  Ni16  1  0.79605000  0.08089700  0.95868800  1
  Ni  Ni17  1  0.20395000  0.91910300  0.45868800  1
  Ni  Ni18  1  0.70395000  0.08089700  0.45868800  1
  Ni  Ni19  1  0.29605000  0.91910300  0.95868800  1
  Ni  Ni20  1  0.96003000  0.20321600  0.83934800  1
  Ni  Ni21  1  0.03997000  0.79678400  0.33934800  1
  Ni  Ni22  1  0.53997000  0.20321600  0.33934800  1
  Ni  Ni23  1  0.46003000  0.79678400  0.83934800  1
  Cu  Cu24  1  0.30867900  0.41253900  0.92533300  1
  Cu  Cu25  1  0.69132100  0.58746100  0.42533300  1
  Cu  Cu26  1  0.19132100  0.41253900  0.42533300  1
  Cu  Cu27  1  0.80867900  0.58746100  0.92533300  1
  Cu  Cu28  1  0.07765900  0.65506700  0.84067100  1
  Cu  Cu29  1  0.92234100  0.34493300  0.34067100  1
  Cu  Cu30  1  0.42234100  0.65506700  0.34067100  1
  Cu  Cu31  1  0.57765900  0.34493300  0.84067100  1
  Cu  Cu32  1  0.83751800  0.15131400  0.20013600  1
  Cu  Cu33  1  0.16248200  0.84868600  0.70013600  1
  Cu  Cu34  1  0.66248200  0.15131400  0.70013600  1
  Cu  Cu35  1  0.33751800  0.84868600  0.20013600  1
  Cu  Cu36  1  0.06874100  0.92509600  0.10520100  1
  Cu  Cu37  1  0.93125900  0.07490400  0.60520100  1
  Cu  Cu38  1  0.43125900  0.92509600  0.60520100  1
  Cu  Cu39  1  0.56874100  0.07490400  0.10520100  1
  Cu  Cu40  1  0.25102300  0.42269300  0.25061100  1
  Cu  Cu41  1  0.74897700  0.57730700  0.75061100  1
  Cu  Cu42  1  0.24897700  0.42269300  0.75061100  1
  Cu  Cu43  1  0.75102300  0.57730700  0.25061100  1
  Cu  Cu44  1  0.32681200  0.19788400  0.17312300  1
  Cu  Cu45  1  0.67318800  0.80211600  0.67312300  1
  Cu  Cu46  1  0.17318800  0.19788400  0.67312300  1
  Cu  Cu47  1  0.82681200  0.80211600  0.17312300  1
  Cu  Cu48  1  0.11447400  0.20663300  0.21297500  1
  Cu  Cu49  1  0.88552600  0.79336700  0.71297500  1
  Cu  Cu50  1  0.38552600  0.20663300  0.71297500  1
  Cu  Cu51  1  0.61447400  0.79336700  0.21297500  1
  Cu  Cu52  1  0.19767600  0.38913900  0.10994300  1
  Cu  Cu53  1  0.80232400  0.61086100  0.60994300  1
  Cu  Cu54  1  0.30232400  0.38913900  0.60994300  1
  Cu  Cu55  1  0.69767600  0.61086100  0.10994300  1
  Cu  Cu56  1  0.00183900  0.53058200  0.14001800  1
  Cu  Cu57  1  0.99816100  0.46941800  0.64001800  1
  Cu  Cu58  1  0.49816100  0.53058200  0.64001800  1
  Cu  Cu59  1  0.50183900  0.46941800  0.14001800  1
  Cu  Cu60  1  0.00085700  0.26843500  0.07132600  1
  Cu  Cu61  1  0.99914300  0.73156500  0.57132600  1
  Cu  Cu62  1  0.49914300  0.26843500  0.57132600  1
  Cu  Cu63  1  0.50085700  0.73156500  0.07132600  1
  Cu  Cu64  1  0.08061300  0.50201100  0.00377500  1
  Cu  Cu65  1  0.91938700  0.49798900  0.50377500  1
  Cu  Cu66  1  0.41938700  0.50201100  0.50377500  1
  Cu  Cu67  1  0.58061300  0.49798900  0.00377500  1
  Cu  Cu68  1  0.72865600  0.98078900  0.90614500  1
  Cu  Cu69  1  0.27134400  0.01921100  0.40614500  1
  Cu  Cu70  1  0.77134400  0.98078900  0.40614500  1
  Cu  Cu71  1  0.22865600  0.01921100  0.90614500  1
  Cu  Cu72  1  0.83243400  0.01109800  0.03456200  1
  Cu  Cu73  1  0.16756600  0.98890200  0.53456200  1
  Cu  Cu74  1  0.66756600  0.01109800  0.53456200  1
  Cu  Cu75  1  0.33243400  0.98890200  0.03456200  1
  Cu  Cu76  1  0.75345300  0.24801800  0.96825000  1
  Cu  Cu77  1  0.24654700  0.75198200  0.46825000  1
  Cu  Cu78  1  0.74654700  0.24801800  0.46825000  1
  Cu  Cu79  1  0.25345300  0.75198200  0.96825000  1
  Cu  Cu80  1  0.93600000  0.10193300  0.91897800  1
  Cu  Cu81  1  0.06400000  0.89806700  0.41897800  1
  Cu  Cu82  1  0.56400000  0.10193300  0.41897800  1
  Cu  Cu83  1  0.43600000  0.89806700  0.91897800  1
  Cu  Cu84  1  0.98671100  0.08275500  0.77898600  1
  Cu  Cu85  1  0.01328900  0.91724500  0.27898600  1
  Cu  Cu86  1  0.51328900  0.08275500  0.27898600  1
  Cu  Cu87  1  0.48671100  0.91724500  0.77898600  1
  Cu  Cu88  1  0.06462400  0.30095100  0.85967700  1
  Cu  Cu89  1  0.93537600  0.69904900  0.35967700  1
  Cu  Cu90  1  0.43537600  0.30095100  0.35967700  1
  Cu  Cu91  1  0.56462400  0.69904900  0.85967700  1
  Cu  Cu92  1  0.85165900  0.29613200  0.82184300  1
  Cu  Cu93  1  0.14834100  0.70386800  0.32184300  1
  Cu  Cu94  1  0.64834100  0.29613200  0.32184300  1
  Cu  Cu95  1  0.35165900  0.70386800  0.82184300  1
