# generated using pymatgen
data_CuNi4C9
_symmetry_space_group_name_H-M   'P 1'
_cell_length_a   8.51505300
_cell_length_b   8.51505300
_cell_length_c   5.01722200
_cell_angle_alpha   90.00000000
_cell_angle_beta   90.00000000
_cell_angle_gamma   90.00000000
_symmetry_Int_Tables_number   1
_chemical_formula_structural   CuNi4C9
_chemical_formula_sum   'Cu2 Ni8 C18'
_cell_volume   363.77933849
_cell_formula_units_Z   2
loop_
 _symmetry_equiv_pos_site_id
 _symmetry_equiv_pos_as_xyz
  1  'x, y, z'
loop_
 _atom_site_type_symbol
 _atom_site_label
 _atom_site_symmetry_multiplicity
 _atom_site_fract_x
 _atom_site_fract_y
 _atom_site_fract_z
 _atom_site_occupancy
  Ni  Ni0  1  0.08895900  0.78027500  0.62333900  1
  Ni  Ni1  1  0.21972500  0.08895900  0.37666100  1
  Ni  Ni2  1  0.71972500  0.58895900  0.62333900  1
  Ni  Ni3  1  0.58895900  0.28027500  0.37666100  1
  Ni  Ni4  1  0.91104100  0.21972500  0.62333900  1
  Ni  Ni5  1  0.28027500  0.41104100  0.62333900  1
  Ni  Ni6  1  0.41104100  0.71972500  0.37666100  1
  Ni  Ni7  1  0.78027500  0.91104100  0.37666100  1
  Cu  Cu8  1  0.00000000  0.50000000  0.03510400  1
  Cu  Cu9  1  0.50000000  0.00000000  0.96489600  1
  C  C10  1  0.00000000  0.00000000  0.50000000  1
  C  C11  1  0.50000000  0.50000000  0.50000000  1
  C  C12  1  0.72745000  0.93384400  0.05089300  1
  C  C13  1  0.43384400  0.77255000  0.05089300  1
  C  C14  1  0.56615600  0.22745000  0.05089300  1
  C  C15  1  0.27255000  0.06615600  0.05089300  1
  C  C16  1  0.77255000  0.56615600  0.94910700  1
  C  C17  1  0.06615600  0.72745000  0.94910700  1
  C  C18  1  0.93384400  0.27255000  0.94910700  1
  C  C19  1  0.22745000  0.43384400  0.94910700  1
  C  C20  1  0.10742300  0.29024000  0.47492000  1
  C  C21  1  0.79024000  0.39257700  0.47492000  1
  C  C22  1  0.20976000  0.60742300  0.47492000  1
  C  C23  1  0.89257700  0.70976000  0.47492000  1
  C  C24  1  0.60742300  0.79024000  0.52508000  1
  C  C25  1  0.70976000  0.10742300  0.52508000  1
  C  C26  1  0.29024000  0.89257700  0.52508000  1
  C  C27  1  0.39257700  0.20976000  0.52508000  1
