# generated using pymatgen
data_Cu2NiC4
_symmetry_space_group_name_H-M   'P 1'
_cell_length_a   6.00506899
_cell_length_b   6.00506899
_cell_length_c   14.82334400
_cell_angle_alpha   90.00000000
_cell_angle_beta   90.00000000
_cell_angle_gamma   119.99998882
_symmetry_Int_Tables_number   1
_chemical_formula_structural   Cu2NiC4
_chemical_formula_sum   'Cu12 Ni6 C24'
_cell_volume   462.92738169
_cell_formula_units_Z   6
loop_
 _symmetry_equiv_pos_site_id
 _symmetry_equiv_pos_as_xyz
  1  'x, y, z'
loop_
 _atom_site_type_symbol
 _atom_site_label
 _atom_site_symmetry_multiplicity
 _atom_site_fract_x
 _atom_site_fract_y
 _atom_site_fract_z
 _atom_site_occupancy
  Ni  Ni0  1  0.33333300  0.66666700  0.04543700  1
  Ni  Ni1  1  0.00000000  0.00000000  0.37991200  1
  Ni  Ni2  1  0.66666700  0.33333300  0.33627800  1
  Ni  Ni3  1  0.66666700  0.33333300  0.70723900  1
  Ni  Ni4  1  0.00000000  0.00000000  0.00184200  1
  Ni  Ni5  1  0.00000000  0.00000000  0.62279500  1
  Cu  Cu6  1  0.33025900  0.16512900  0.16643900  1
  Cu  Cu7  1  0.83487100  0.66974100  0.16643900  1
  Cu  Cu8  1  0.99855500  0.49927700  0.50043200  1
  Cu  Cu9  1  0.83487100  0.16512900  0.16643900  1
  Cu  Cu10  1  0.50072300  0.00144500  0.50043200  1
  Cu  Cu11  1  0.33333300  0.66666700  0.66567100  1
  Cu  Cu12  1  0.33333300  0.66666700  0.28822200  1
  Cu  Cu13  1  0.66493800  0.83246900  0.83183100  1
  Cu  Cu14  1  0.50072300  0.49927700  0.50043200  1
  Cu  Cu15  1  0.16753100  0.33506200  0.83183100  1
  Cu  Cu16  1  0.16753100  0.83246900  0.83183100  1
  Cu  Cu17  1  0.66666700  0.33333300  0.95538800  1
  C  C18  1  0.69082500  0.84541300  0.09077500  1
  C  C19  1  0.00000000  0.00000000  0.23939400  1
  C  C20  1  0.15458700  0.30917500  0.09077500  1
  C  C21  1  0.15458700  0.84541300  0.09077500  1
  C  C22  1  0.35672000  0.17836000  0.42519100  1
  C  C23  1  0.50750000  0.49250000  0.24241400  1
  C  C24  1  0.66666700  0.33333300  0.57269600  1
  C  C25  1  0.50750000  0.01500000  0.24241400  1
  C  C26  1  0.66666700  0.33333300  0.09361200  1
  C  C27  1  0.82164000  0.64328000  0.42519100  1
  C  C28  1  0.82164000  0.17836000  0.42519100  1
  C  C29  1  0.98500000  0.49250000  0.24241400  1
  C  C30  1  0.03113500  0.51556700  0.75370200  1
  C  C31  1  0.18263600  0.81736400  0.58039400  1
  C  C32  1  0.18263600  0.36527200  0.58039400  1
  C  C33  1  0.33333300  0.66666700  0.90512100  1
  C  C34  1  0.33333300  0.66666700  0.42671100  1
  C  C35  1  0.48443300  0.96886500  0.75370200  1
  C  C36  1  0.48443300  0.51556700  0.75370200  1
  C  C37  1  0.63472800  0.81736400  0.58039400  1
  C  C38  1  0.83997900  0.16002100  0.90812800  1
  C  C39  1  0.83997900  0.67995800  0.90812800  1
  C  C40  1  0.00000000  0.00000000  0.76173900  1
  C  C41  1  0.32004200  0.16002100  0.90812800  1
