# generated using pymatgen
data_Cu12NiC6
_symmetry_space_group_name_H-M   'P 1'
_cell_length_a   5.30319700
_cell_length_b   6.60039163
_cell_length_c   9.00660740
_cell_angle_alpha   73.61886062
_cell_angle_beta   77.74507854
_cell_angle_gamma   74.06827236
_symmetry_Int_Tables_number   1
_chemical_formula_structural   Cu12NiC6
_chemical_formula_sum   'Cu12 Ni1 C6'
_cell_volume   287.72101166
_cell_formula_units_Z   1
loop_
 _symmetry_equiv_pos_site_id
 _symmetry_equiv_pos_as_xyz
  1  'x, y, z'
loop_
 _atom_site_type_symbol
 _atom_site_label
 _atom_site_symmetry_multiplicity
 _atom_site_fract_x
 _atom_site_fract_y
 _atom_site_fract_z
 _atom_site_occupancy
  C  C0  1  0.72505600  0.63043000  0.44020900  1
  C  C1  1  0.27494400  0.36957000  0.55979100  1
  C  C2  1  0.31691200  0.68231000  0.16509500  1
  C  C3  1  0.68308800  0.31769000  0.83490500  1
  C  C4  1  0.81872300  0.15102100  0.29069200  1
  C  C5  1  0.18127700  0.84897900  0.70930800  1
  Ni  Ni6  1  0.00000000  0.50000000  0.00000000  1
  Cu  Cu7  1  0.08449900  0.97293700  0.15204300  1
  Cu  Cu8  1  0.91550100  0.02706300  0.84795700  1
  Cu  Cu9  1  0.11915000  0.53510100  0.35322400  1
  Cu  Cu10  1  0.88085000  0.46489900  0.64677600  1
  Cu  Cu11  1  0.54325000  0.25105800  0.17136900  1
  Cu  Cu12  1  0.45675000  0.74894200  0.82863100  1
  Cu  Cu13  1  0.57950800  0.74851100  0.24320400  1
  Cu  Cu14  1  0.42049200  0.25148900  0.75679600  1
  Cu  Cu15  1  0.22321500  0.09342200  0.54624500  1
  Cu  Cu16  1  0.77678500  0.90657800  0.45375500  1
  Cu  Cu17  1  0.65250600  0.34286100  0.43668900  1
  Cu  Cu18  1  0.34749400  0.65713900  0.56331100  1
