# generated using pymatgen
data_CuNi3C8
_symmetry_space_group_name_H-M   'P 1'
_cell_length_a   3.30616845
_cell_length_b   3.30616845
_cell_length_c   38.94484700
_cell_angle_alpha   90.00000000
_cell_angle_beta   90.00000000
_cell_angle_gamma   120.00000906
_symmetry_Int_Tables_number   1
_chemical_formula_structural   CuNi3C8
_chemical_formula_sum   'Cu1 Ni3 C8'
_cell_volume   368.66384576
_cell_formula_units_Z   1
loop_
 _symmetry_equiv_pos_site_id
 _symmetry_equiv_pos_as_xyz
  1  'x, y, z'
loop_
 _atom_site_type_symbol
 _atom_site_label
 _atom_site_symmetry_multiplicity
 _atom_site_fract_x
 _atom_site_fract_y
 _atom_site_fract_z
 _atom_site_occupancy
  C  C0  1  0.33333300  0.66666700  0.04315100  1
  C  C1  1  0.33333300  0.66666700  0.14129400  1
  Ni  Ni2  1  0.00000000  0.00000000  0.09222700  1
  Ni  Ni3  1  0.00000000  0.00000000  0.46972700  1
  Ni  Ni4  1  0.33333300  0.66666700  0.28316100  1
  Cu  Cu5  1  0.33333300  0.66666700  0.65774300  1
  C  C6  1  0.00000000  0.00000000  0.32637800  1
  C  C7  1  0.00000000  0.00000000  0.24002300  1
  C  C8  1  0.00000000  0.00000000  0.69712100  1
  C  C9  1  0.33333300  0.66666700  0.43055300  1
  C  C10  1  0.33333300  0.66666700  0.50898100  1
  C  C11  1  0.00000000  0.00000000  0.61838800  1
