# generated using pymatgen
data_Cu5Ni7C
_symmetry_space_group_name_H-M   'P 1'
_cell_length_a   6.59324463
_cell_length_b   6.59324463
_cell_length_c   6.59324463
_cell_angle_alpha   135.26047243
_cell_angle_beta   98.46952324
_cell_angle_gamma   98.18690087
_symmetry_Int_Tables_number   1
_chemical_formula_structural   Cu5Ni7C
_chemical_formula_sum   'Cu5 Ni7 C1'
_cell_volume   186.56079605
_cell_formula_units_Z   1
loop_
 _symmetry_equiv_pos_site_id
 _symmetry_equiv_pos_as_xyz
  1  'x, y, z'
loop_
 _atom_site_type_symbol
 _atom_site_label
 _atom_site_symmetry_multiplicity
 _atom_site_fract_x
 _atom_site_fract_y
 _atom_site_fract_z
 _atom_site_occupancy
  C  C0  1  0.99494300  0.00000000  0.99494300  1
  Ni  Ni1  1  0.33951500  0.00000000  0.33951500  1
  Ni  Ni2  1  0.66155500  0.00000000  0.66155500  1
  Ni  Ni3  1  0.66650200  0.65793700  0.00856500  1
  Ni  Ni4  1  0.35062800  0.34206300  0.00856500  1
  Ni  Ni5  1  0.22525200  0.50000000  0.72525200  1
  Ni  Ni6  1  0.20447900  0.70942000  0.49505900  1
  Ni  Ni7  1  0.78563900  0.29058000  0.49505900  1
  Cu  Cu8  1  0.50090200  0.99694200  0.99906700  1
  Cu  Cu9  1  0.50090200  0.50183500  0.50396000  1
  Cu  Cu10  1  0.00212500  0.49816500  0.99906700  1
  Cu  Cu11  1  0.00212500  0.00305800  0.50396000  1
  Cu  Cu12  1  0.76543300  0.50000000  0.26543300  1
