# generated using pymatgen
data_CuNiC19
_symmetry_space_group_name_H-M   'P 1'
_cell_length_a   7.29688270
_cell_length_b   7.29688270
_cell_length_c   7.29688269
_cell_angle_alpha   59.51206025
_cell_angle_beta   59.51206025
_cell_angle_gamma   59.51205395
_symmetry_Int_Tables_number   1
_chemical_formula_structural   CuNiC19
_chemical_formula_sum   'Cu1 Ni1 C19'
_cell_volume   271.67589158
_cell_formula_units_Z   1
loop_
 _symmetry_equiv_pos_site_id
 _symmetry_equiv_pos_as_xyz
  1  'x, y, z'
loop_
 _atom_site_type_symbol
 _atom_site_label
 _atom_site_symmetry_multiplicity
 _atom_site_fract_x
 _atom_site_fract_y
 _atom_site_fract_z
 _atom_site_occupancy
  Ni  Ni0  1  0.78890500  0.78890500  0.78890500  1
  Cu  Cu1  1  0.20808200  0.20808200  0.20808200  1
  C  C2  1  0.99882300  0.99882300  0.99882300  1
  C  C3  1  0.63367700  0.75269700  0.36693300  1
  C  C4  1  0.36693300  0.63367700  0.75269700  1
  C  C5  1  0.75269700  0.36693300  0.63367700  1
  C  C6  1  0.36691200  0.24782600  0.63317000  1
  C  C7  1  0.63317000  0.36691200  0.24782600  1
  C  C8  1  0.24782600  0.63317000  0.36691200  1
  C  C9  1  0.17079000  0.67341100  0.91778400  1
  C  C10  1  0.91778400  0.17079000  0.67341100  1
  C  C11  1  0.67341100  0.91778400  0.17079000  1
  C  C12  1  0.83483300  0.31817500  0.09029300  1
  C  C13  1  0.09029300  0.83483300  0.31817500  1
  C  C14  1  0.31817500  0.09029300  0.83483300  1
  C  C15  1  0.79426000  0.53563000  0.41878600  1
  C  C16  1  0.41878600  0.79426000  0.53563000  1
  C  C17  1  0.53563000  0.41878600  0.79426000  1
  C  C18  1  0.20501500  0.46455400  0.57944400  1
  C  C19  1  0.57944400  0.20501500  0.46455400  1
  C  C20  1  0.46455400  0.57944400  0.20501500  1
