# generated using pymatgen
data_Cu(Ni10C11)3
_symmetry_space_group_name_H-M   'P 1'
_cell_length_a   8.50406400
_cell_length_b   8.50406400
_cell_length_c   8.50723000
_cell_angle_alpha   90.00000000
_cell_angle_beta   90.00000000
_cell_angle_gamma   90.00000000
_symmetry_Int_Tables_number   1
_chemical_formula_structural   Cu(Ni10C11)3
_chemical_formula_sum   'Cu1 Ni30 C33'
_cell_volume   615.23525551
_cell_formula_units_Z   1
loop_
 _symmetry_equiv_pos_site_id
 _symmetry_equiv_pos_as_xyz
  1  'x, y, z'
loop_
 _atom_site_type_symbol
 _atom_site_label
 _atom_site_symmetry_multiplicity
 _atom_site_fract_x
 _atom_site_fract_y
 _atom_site_fract_z
 _atom_site_occupancy
  C  C0  1  0.00000000  0.00000000  0.00000000  1
  Ni  Ni1  1  0.00000000  0.50000000  0.00000000  1
  Ni  Ni2  1  0.00000000  0.50000000  0.50000000  1
  Ni  Ni3  1  0.50000000  0.00000000  0.00000000  1
  Ni  Ni4  1  0.50000000  0.00000000  0.50000000  1
  Ni  Ni5  1  0.50000000  0.50000000  0.00000000  1
  Ni  Ni6  1  0.50000000  0.50000000  0.50000000  1
  Ni  Ni7  1  0.00000000  0.24911900  0.24508800  1
  Ni  Ni8  1  0.00000000  0.24911900  0.75491200  1
  Ni  Ni9  1  0.00000000  0.75088100  0.24508800  1
  Ni  Ni10  1  0.00000000  0.75088100  0.75491200  1
  Ni  Ni11  1  0.50000000  0.24992800  0.24877500  1
  Ni  Ni12  1  0.50000000  0.24992800  0.75122500  1
  Ni  Ni13  1  0.50000000  0.75007200  0.24877500  1
  Ni  Ni14  1  0.50000000  0.75007200  0.75122500  1
  Ni  Ni15  1  0.24911900  0.00000000  0.24508800  1
  Ni  Ni16  1  0.24911900  0.00000000  0.75491200  1
  Ni  Ni17  1  0.24992800  0.50000000  0.24877500  1
  Ni  Ni18  1  0.24992800  0.50000000  0.75122500  1
  Ni  Ni19  1  0.75088100  0.00000000  0.24508800  1
  Ni  Ni20  1  0.75088100  0.00000000  0.75491200  1
  Ni  Ni21  1  0.75007200  0.50000000  0.24877500  1
  Ni  Ni22  1  0.75007200  0.50000000  0.75122500  1
  Ni  Ni23  1  0.24729000  0.24729000  0.00000000  1
  Ni  Ni24  1  0.25101400  0.25101400  0.50000000  1
  Ni  Ni25  1  0.24729000  0.75271000  0.00000000  1
  Ni  Ni26  1  0.25101400  0.74898600  0.50000000  1
  Ni  Ni27  1  0.75271000  0.24729000  0.00000000  1
  Ni  Ni28  1  0.74898600  0.25101400  0.50000000  1
  Ni  Ni29  1  0.75271000  0.75271000  0.00000000  1
  Ni  Ni30  1  0.74898600  0.74898600  0.50000000  1
  Cu  Cu31  1  0.00000000  0.00000000  0.50000000  1
  C  C32  1  0.25457900  0.00000000  0.00000000  1
  C  C33  1  0.24427500  0.00000000  0.50000000  1
  C  C34  1  0.25059900  0.50000000  0.00000000  1
  C  C35  1  0.24895500  0.50000000  0.50000000  1
  C  C36  1  0.74542100  0.00000000  0.00000000  1
  C  C37  1  0.75572500  0.00000000  0.50000000  1
  C  C38  1  0.74940100  0.50000000  0.00000000  1
  C  C39  1  0.75104500  0.50000000  0.50000000  1
  C  C40  1  0.24961400  0.24961400  0.25081800  1
  C  C41  1  0.24961400  0.24961400  0.74918200  1
  C  C42  1  0.24961400  0.75038600  0.25081800  1
  C  C43  1  0.24961400  0.75038600  0.74918200  1
  C  C44  1  0.75038600  0.24961400  0.25081800  1
  C  C45  1  0.75038600  0.24961400  0.74918200  1
  C  C46  1  0.75038600  0.75038600  0.25081800  1
  C  C47  1  0.75038600  0.75038600  0.74918200  1
  C  C48  1  0.00000000  0.00000000  0.26599800  1
  C  C49  1  0.00000000  0.00000000  0.73400200  1
  C  C50  1  0.00000000  0.50000000  0.25281900  1
  C  C51  1  0.00000000  0.50000000  0.74718100  1
  C  C52  1  0.50000000  0.00000000  0.25281900  1
  C  C53  1  0.50000000  0.00000000  0.74718100  1
  C  C54  1  0.50000000  0.50000000  0.25116600  1
  C  C55  1  0.50000000  0.50000000  0.74883400  1
  C  C56  1  0.00000000  0.25457900  0.00000000  1
  C  C57  1  0.00000000  0.24427500  0.50000000  1
  C  C58  1  0.00000000  0.74542100  0.00000000  1
  C  C59  1  0.00000000  0.75572500  0.50000000  1
  C  C60  1  0.50000000  0.25059900  0.00000000  1
  C  C61  1  0.50000000  0.24895500  0.50000000  1
  C  C62  1  0.50000000  0.74940100  0.00000000  1
  C  C63  1  0.50000000  0.75104500  0.50000000  1
