# generated using pymatgen
data_CuNiC8
_symmetry_space_group_name_H-M   'P 1'
_cell_length_a   5.62841770
_cell_length_b   15.58214099
_cell_length_c   5.79907447
_cell_angle_alpha   89.98001672
_cell_angle_beta   89.92062798
_cell_angle_gamma   89.48229961
_symmetry_Int_Tables_number   1
_chemical_formula_structural   CuNiC8
_chemical_formula_sum   'Cu4 Ni4 C32'
_cell_volume   508.57377997
_cell_formula_units_Z   4
loop_
 _symmetry_equiv_pos_site_id
 _symmetry_equiv_pos_as_xyz
  1  'x, y, z'
loop_
 _atom_site_type_symbol
 _atom_site_label
 _atom_site_symmetry_multiplicity
 _atom_site_fract_x
 _atom_site_fract_y
 _atom_site_fract_z
 _atom_site_occupancy
  C  C0  1  0.51581000  0.12575800  0.55909000  1
  C  C1  1  0.51578600  0.62575700  0.55913000  1
  C  C2  1  0.01633600  0.37571900  0.94087500  1
  C  C3  1  0.01632400  0.87568800  0.94075000  1
  C  C4  1  0.98611800  0.12451300  0.05240900  1
  C  C5  1  0.98609800  0.62448600  0.05249700  1
  C  C6  1  0.48587600  0.37447100  0.44768000  1
  C  C7  1  0.48586200  0.87445900  0.44773200  1
  Ni  Ni8  1  0.99961300  0.50024300  0.50248500  1
  Ni  Ni9  1  0.49951000  0.75034500  0.99791600  1
  Ni  Ni10  1  0.99952100  0.00037100  0.50238800  1
  Ni  Ni11  1  0.49946800  0.25025400  0.99786200  1
  Cu  Cu12  1  0.00005500  0.24962800  0.50096900  1
  Cu  Cu13  1  0.00002700  0.74964700  0.50101500  1
  Cu  Cu14  1  0.50045500  0.49974400  0.99947600  1
  Cu  Cu15  1  0.50039800  0.99973400  0.99939400  1
  C  C16  1  0.60371600  0.37283200  0.03371000  1
  C  C17  1  0.60375800  0.87280400  0.03369800  1
  C  C18  1  0.10442700  0.12282900  0.46509800  1
  C  C19  1  0.10439100  0.62277100  0.46509200  1
  C  C20  1  0.18512100  0.47354000  0.21765600  1
  C  C21  1  0.18509800  0.97352400  0.21757500  1
  C  C22  1  0.68440000  0.22376700  0.28196100  1
  C  C23  1  0.68434000  0.72377800  0.28194600  1
  C  C24  1  0.21187400  0.27538300  0.18964800  1
  C  C25  1  0.21183500  0.77540700  0.18960800  1
  C  C26  1  0.71209800  0.02515900  0.31118000  1
  C  C27  1  0.71213400  0.52515300  0.31115800  1
  C  C28  1  0.90538000  0.37707700  0.53932700  1
  C  C29  1  0.90542800  0.87711300  0.53921400  1
  C  C30  1  0.40416300  0.12712500  0.95980300  1
  C  C31  1  0.40418000  0.62714700  0.95982800  1
  C  C32  1  0.31059000  0.27561400  0.72043100  1
  C  C33  1  0.31065500  0.77563300  0.72045700  1
  C  C34  1  0.81025100  0.02570500  0.78028100  1
  C  C35  1  0.81027100  0.52569200  0.78026700  1
  C  C36  1  0.28166600  0.47527900  0.69459200  1
  C  C37  1  0.28168700  0.97525100  0.69444600  1
  C  C38  1  0.78265700  0.22527000  0.80562400  1
  C  C39  1  0.78261700  0.72531800  0.80573200  1
