# generated using pymatgen
data_Cu(NiC6)2
_symmetry_space_group_name_H-M   'P 1'
_cell_length_a   5.59570468
_cell_length_b   5.59570468
_cell_length_c   8.20257081
_cell_angle_alpha   64.70109014
_cell_angle_beta   64.70109014
_cell_angle_gamma   66.80722031
_symmetry_Int_Tables_number   1
_chemical_formula_structural   Cu(NiC6)2
_chemical_formula_sum   'Cu1 Ni2 C12'
_cell_volume   202.80492075
_cell_formula_units_Z   1
loop_
 _symmetry_equiv_pos_site_id
 _symmetry_equiv_pos_as_xyz
  1  'x, y, z'
loop_
 _atom_site_type_symbol
 _atom_site_label
 _atom_site_symmetry_multiplicity
 _atom_site_fract_x
 _atom_site_fract_y
 _atom_site_fract_z
 _atom_site_occupancy
  Ni  Ni0  1  0.00000000  0.50000000  0.00000000  1
  Ni  Ni1  1  0.50000000  0.00000000  0.00000000  1
  Cu  Cu2  1  0.50000000  0.50000000  0.50000000  1
  C  C3  1  0.08239800  0.08239800  0.70654500  1
  C  C4  1  0.91760200  0.91760200  0.29345500  1
  C  C5  1  0.17855000  0.17855000  0.83072700  1
  C  C6  1  0.82145000  0.82145000  0.16927300  1
  C  C7  1  0.21670400  0.21670400  0.47714600  1
  C  C8  1  0.78329600  0.78329600  0.52285400  1
  C  C9  1  0.72910400  0.18710100  0.75990900  1
  C  C10  1  0.18710100  0.72910400  0.75990900  1
  C  C11  1  0.27089600  0.81289900  0.24009100  1
  C  C12  1  0.81289900  0.27089600  0.24009100  1
  C  C13  1  0.67807600  0.67807600  0.95089500  1
  C  C14  1  0.32192400  0.32192400  0.04910500  1
