# generated using pymatgen
data_Cu14Ni3C7
_symmetry_space_group_name_H-M   'P 1'
_cell_length_a   11.57498497
_cell_length_b   11.57498497
_cell_length_c   13.38411063
_cell_angle_alpha   74.19977220
_cell_angle_beta   74.19977220
_cell_angle_gamma   58.27595156
_symmetry_Int_Tables_number   1
_chemical_formula_structural   Cu14Ni3C7
_chemical_formula_sum   'Cu28 Ni6 C14'
_cell_volume   1449.27878578
_cell_formula_units_Z   2
loop_
 _symmetry_equiv_pos_site_id
 _symmetry_equiv_pos_as_xyz
  1  'x, y, z'
loop_
 _atom_site_type_symbol
 _atom_site_label
 _atom_site_symmetry_multiplicity
 _atom_site_fract_x
 _atom_site_fract_y
 _atom_site_fract_z
 _atom_site_occupancy
  C  C0  1  0.02119000  0.78955100  0.58713800  1
  C  C1  1  0.21044900  0.97881000  0.91286200  1
  C  C2  1  0.97881000  0.21044900  0.41286200  1
  C  C3  1  0.78955100  0.02119000  0.08713800  1
  C  C4  1  0.89779400  0.67271000  0.35022100  1
  C  C5  1  0.32729000  0.10220600  0.14977900  1
  C  C6  1  0.10220600  0.32729000  0.64977900  1
  C  C7  1  0.67271000  0.89779400  0.85022100  1
  C  C8  1  0.79789300  0.43611500  0.00990000  1
  C  C9  1  0.56388500  0.20210700  0.49010000  1
  C  C10  1  0.20210700  0.56388500  0.99010000  1
  C  C11  1  0.43611500  0.79789300  0.50990000  1
  C  C12  1  0.36598700  0.63401300  0.25000000  1
  C  C13  1  0.63401300  0.36598700  0.75000000  1
  Ni  Ni14  1  0.27419600  0.34225900  0.32935500  1
  Ni  Ni15  1  0.65774100  0.72580400  0.17064500  1
  Ni  Ni16  1  0.72580400  0.65774100  0.67064500  1
  Ni  Ni17  1  0.34225900  0.27419600  0.82935500  1
  Ni  Ni18  1  0.05800600  0.94199400  0.25000000  1
  Ni  Ni19  1  0.94199400  0.05800600  0.75000000  1
  Cu  Cu20  1  0.13330200  0.78585300  0.16122700  1
  Cu  Cu21  1  0.21414700  0.86669800  0.33877300  1
  Cu  Cu22  1  0.86669800  0.21414700  0.83877300  1
  Cu  Cu23  1  0.78585300  0.13330200  0.66122700  1
  Cu  Cu24  1  0.47238000  0.44105300  0.13213200  1
  Cu  Cu25  1  0.55894700  0.52762000  0.36786800  1
  Cu  Cu26  1  0.52762000  0.55894700  0.86786800  1
  Cu  Cu27  1  0.44105300  0.47238000  0.63213200  1
  Cu  Cu28  1  0.24448900  0.49470300  0.40140600  1
  Cu  Cu29  1  0.50529700  0.75551100  0.09859400  1
  Cu  Cu30  1  0.75551100  0.50529700  0.59859400  1
  Cu  Cu31  1  0.49470300  0.24448900  0.90140600  1
  Cu  Cu32  1  0.13343800  0.40523400  0.23799500  1
  Cu  Cu33  1  0.59476600  0.86656200  0.26200500  1
  Cu  Cu34  1  0.86656200  0.59476600  0.76200500  1
  Cu  Cu35  1  0.40523400  0.13343800  0.73799500  1
  Cu  Cu36  1  0.83055400  0.69606400  0.06727500  1
  Cu  Cu37  1  0.30393600  0.16944600  0.43272500  1
  Cu  Cu38  1  0.16944600  0.30393600  0.93272500  1
  Cu  Cu39  1  0.69606400  0.83055400  0.56727500  1
  Cu  Cu40  1  0.72612100  0.52183600  0.25973900  1
  Cu  Cu41  1  0.47816400  0.27387900  0.24026100  1
  Cu  Cu42  1  0.27387900  0.47816400  0.74026100  1
  Cu  Cu43  1  0.52183600  0.72612100  0.75973900  1
  Cu  Cu44  1  0.03031300  0.11957900  0.15150700  1
  Cu  Cu45  1  0.88042100  0.96968700  0.34849300  1
  Cu  Cu46  1  0.96968700  0.88042100  0.84849300  1
  Cu  Cu47  1  0.11957900  0.03031300  0.65150700  1
