# generated using pymatgen
data_Cu6Ni3C2
_symmetry_space_group_name_H-M   'P 1'
_cell_length_a   7.71099474
_cell_length_b   7.69345361
_cell_length_c   7.53248200
_cell_angle_alpha   60.84282841
_cell_angle_beta   60.61005363
_cell_angle_gamma   58.54711797
_symmetry_Int_Tables_number   1
_chemical_formula_structural   Cu6Ni3C2
_chemical_formula_sum   'Cu12 Ni6 C4'
_cell_volume   315.67342949
_cell_formula_units_Z   2
loop_
 _symmetry_equiv_pos_site_id
 _symmetry_equiv_pos_as_xyz
  1  'x, y, z'
loop_
 _atom_site_type_symbol
 _atom_site_label
 _atom_site_symmetry_multiplicity
 _atom_site_fract_x
 _atom_site_fract_y
 _atom_site_fract_z
 _atom_site_occupancy
  C  C0  1  0.75000000  0.75000000  0.75000000  1
  C  C1  1  0.25000000  0.25000000  0.25000000  1
  C  C2  1  0.50000000  0.50000000  0.50000000  1
  C  C3  1  0.00000000  0.00000000  0.00000000  1
  Ni  Ni4  1  0.18238000  0.81762000  0.81762000  1
  Ni  Ni5  1  0.81762000  0.18238000  0.18238000  1
  Ni  Ni6  1  0.80277100  0.80277100  0.19722900  1
  Ni  Ni7  1  0.19722900  0.19722900  0.80277100  1
  Ni  Ni8  1  0.18222600  0.81777400  0.18222600  1
  Ni  Ni9  1  0.81777400  0.18222600  0.81777400  1
  Cu  Cu10  1  0.34085100  0.85339500  0.65914900  1
  Cu  Cu11  1  0.65914900  0.14660500  0.34085100  1
  Cu  Cu12  1  0.85339500  0.34085100  0.14660500  1
  Cu  Cu13  1  0.14660500  0.65914900  0.85339500  1
  Cu  Cu14  1  0.34555500  0.65444500  0.14213400  1
  Cu  Cu15  1  0.14213400  0.85786600  0.34555500  1
  Cu  Cu16  1  0.85786600  0.14213400  0.65444500  1
  Cu  Cu17  1  0.65444500  0.34555500  0.85786600  1
  Cu  Cu18  1  0.35802400  0.15593500  0.84406500  1
  Cu  Cu19  1  0.84406500  0.64197600  0.35802400  1
  Cu  Cu20  1  0.64197600  0.84406500  0.15593500  1
  Cu  Cu21  1  0.15593500  0.35802400  0.64197600  1
