# generated using pymatgen
data_Cu12(NiC3)5
_symmetry_space_group_name_H-M   'P 1'
_cell_length_a   11.88342600
_cell_length_b   11.88342600
_cell_length_c   3.99307500
_cell_angle_alpha   90.00000000
_cell_angle_beta   90.00000000
_cell_angle_gamma   90.00000000
_symmetry_Int_Tables_number   1
_chemical_formula_structural   Cu12(NiC3)5
_chemical_formula_sum   'Cu12 Ni5 C15'
_cell_volume   563.88533448
_cell_formula_units_Z   1
loop_
 _symmetry_equiv_pos_site_id
 _symmetry_equiv_pos_as_xyz
  1  'x, y, z'
loop_
 _atom_site_type_symbol
 _atom_site_label
 _atom_site_symmetry_multiplicity
 _atom_site_fract_x
 _atom_site_fract_y
 _atom_site_fract_z
 _atom_site_occupancy
  C  C0  1  0.25164800  0.50000000  0.00000000  1
  C  C1  1  0.74835200  0.50000000  0.00000000  1
  C  C2  1  0.50000000  0.74835200  0.00000000  1
  C  C3  1  0.50000000  0.25164800  0.00000000  1
  C  C4  1  0.00000000  0.00000000  0.00000000  1
  Ni  Ni5  1  0.20218800  0.20218800  0.00000000  1
  Ni  Ni6  1  0.79781200  0.79781200  0.00000000  1
  Ni  Ni7  1  0.20218800  0.79781200  0.00000000  1
  Ni  Ni8  1  0.79781200  0.20218800  0.00000000  1
  Ni  Ni9  1  0.50000000  0.50000000  0.50000000  1
  Cu  Cu10  1  0.11229800  0.37289800  0.50000000  1
  Cu  Cu11  1  0.88770200  0.62710200  0.50000000  1
  Cu  Cu12  1  0.11229800  0.62710200  0.50000000  1
  Cu  Cu13  1  0.88770200  0.37289800  0.50000000  1
  Cu  Cu14  1  0.37289800  0.88770200  0.50000000  1
  Cu  Cu15  1  0.62710200  0.11229800  0.50000000  1
  Cu  Cu16  1  0.37289800  0.11229800  0.50000000  1
  Cu  Cu17  1  0.62710200  0.88770200  0.50000000  1
  Cu  Cu18  1  0.33178500  0.33178500  0.50000000  1
  Cu  Cu19  1  0.66821500  0.66821500  0.50000000  1
  Cu  Cu20  1  0.33178500  0.66821500  0.50000000  1
  Cu  Cu21  1  0.66821500  0.33178500  0.50000000  1
  C  C22  1  0.30514700  0.00000000  0.00000000  1
  C  C23  1  0.69485300  0.00000000  0.00000000  1
  C  C24  1  0.00000000  0.69485300  0.00000000  1
  C  C25  1  0.00000000  0.30514700  0.00000000  1
  C  C26  1  0.18779300  0.00000000  0.50000000  1
  C  C27  1  0.81220700  0.00000000  0.50000000  1
  C  C28  1  0.00000000  0.81220700  0.50000000  1
  C  C29  1  0.00000000  0.18779300  0.50000000  1
  C  C30  1  0.00000000  0.50000000  0.00000000  1
  C  C31  1  0.50000000  0.00000000  0.00000000  1
