# generated using pymatgen
data_CuNi2C11
_symmetry_space_group_name_H-M   'P 1'
_cell_length_a   3.86602750
_cell_length_b   3.86602750
_cell_length_c   11.85174600
_cell_angle_alpha   90.00000000
_cell_angle_beta   90.00000000
_cell_angle_gamma   90.35689218
_symmetry_Int_Tables_number   1
_chemical_formula_structural   CuNi2C11
_chemical_formula_sum   'Cu1 Ni2 C11'
_cell_volume   177.13475743
_cell_formula_units_Z   1
loop_
 _symmetry_equiv_pos_site_id
 _symmetry_equiv_pos_as_xyz
  1  'x, y, z'
loop_
 _atom_site_type_symbol
 _atom_site_label
 _atom_site_symmetry_multiplicity
 _atom_site_fract_x
 _atom_site_fract_y
 _atom_site_fract_z
 _atom_site_occupancy
  Ni  Ni0  1  0.50221600  0.50221600  0.19402400  1
  Ni  Ni1  1  0.50221600  0.50221600  0.80597600  1
  Cu  Cu2  1  0.49914500  0.49914500  0.50000000  1
  C  C3  1  0.99908300  0.99908300  0.35920600  1
  C  C4  1  0.99908300  0.99908300  0.64079400  1
  C  C5  1  0.98126500  0.98126500  0.00000000  1
  C  C6  1  0.99326300  0.99326300  0.17105700  1
  C  C7  1  0.99326300  0.99326300  0.82894300  1
  C  C8  1  0.49889600  0.99895300  0.37672300  1
  C  C9  1  0.99895300  0.49889600  0.37672300  1
  C  C10  1  0.49889600  0.99895300  0.62327700  1
  C  C11  1  0.99895300  0.49889600  0.62327700  1
  C  C12  1  0.93476500  0.47700300  0.00000000  1
  C  C13  1  0.47700300  0.93476500  0.00000000  1
