# generated using pymatgen
data_CuNiC6
_symmetry_space_group_name_H-M   'P 1'
_cell_length_a   14.56813652
_cell_length_b   12.97493419
_cell_length_c   7.87891624
_cell_angle_alpha   84.89420710
_cell_angle_beta   62.51154926
_cell_angle_gamma   32.59424364
_symmetry_Int_Tables_number   1
_chemical_formula_structural   CuNiC6
_chemical_formula_sum   'Cu2 Ni2 C12'
_cell_volume   554.10718850
_cell_formula_units_Z   2
loop_
 _symmetry_equiv_pos_site_id
 _symmetry_equiv_pos_as_xyz
  1  'x, y, z'
loop_
 _atom_site_type_symbol
 _atom_site_label
 _atom_site_symmetry_multiplicity
 _atom_site_fract_x
 _atom_site_fract_y
 _atom_site_fract_z
 _atom_site_occupancy
  C  C0  1  0.67813600  0.67813600  0.32186400  1
  C  C1  1  0.32186400  0.32186400  0.67813600  1
  C  C2  1  0.57186400  0.57186400  0.92813600  1
  C  C3  1  0.92813600  0.92813600  0.57186400  1
  Ni  Ni4  1  0.50000000  0.50000000  0.50000000  1
  Ni  Ni5  1  0.75000000  0.75000000  0.75000000  1
  Cu  Cu6  1  0.00000000  0.00000000  0.00000000  1
  Cu  Cu7  1  0.25000000  0.25000000  0.25000000  1
  C  C8  1  0.24609900  0.86004700  0.56669300  1
  C  C9  1  0.32716200  0.56669300  0.86004700  1
  C  C10  1  0.56669300  0.32716200  0.24609900  1
  C  C11  1  0.86004700  0.24609900  0.32716200  1
  C  C12  1  0.38995300  0.00390100  0.92283800  1
  C  C13  1  0.92283800  0.68330700  0.38995300  1
  C  C14  1  0.68330700  0.92283800  0.00390100  1
  C  C15  1  0.00390100  0.38995300  0.68330700  1
