# generated using pymatgen
data_Cu2Ni2C11
_symmetry_space_group_name_H-M   'P 1'
_cell_length_a   5.97497300
_cell_length_b   7.95235200
_cell_length_c   8.44613400
_cell_angle_alpha   90.00000000
_cell_angle_beta   90.00000000
_cell_angle_gamma   90.00000000
_symmetry_Int_Tables_number   1
_chemical_formula_structural   Cu2Ni2C11
_chemical_formula_sum   'Cu4 Ni4 C22'
_cell_volume   401.31880438
_cell_formula_units_Z   2
loop_
 _symmetry_equiv_pos_site_id
 _symmetry_equiv_pos_as_xyz
  1  'x, y, z'
loop_
 _atom_site_type_symbol
 _atom_site_label
 _atom_site_symmetry_multiplicity
 _atom_site_fract_x
 _atom_site_fract_y
 _atom_site_fract_z
 _atom_site_occupancy
  Ni  Ni0  1  0.50000000  0.85662800  0.15760600  1
  Ni  Ni1  1  0.50000000  0.14337200  0.84239400  1
  Ni  Ni2  1  0.50000000  0.35662800  0.34239400  1
  Ni  Ni3  1  0.50000000  0.64337200  0.65760600  1
  Cu  Cu4  1  0.26330200  0.00000000  0.50000000  1
  Cu  Cu5  1  0.73669800  0.50000000  0.00000000  1
  Cu  Cu6  1  0.73669800  0.00000000  0.50000000  1
  Cu  Cu7  1  0.26330200  0.50000000  0.00000000  1
  C  C8  1  0.00000000  0.68204200  0.31966200  1
  C  C9  1  0.00000000  0.31795800  0.68033800  1
  C  C10  1  0.00000000  0.18204200  0.18033800  1
  C  C11  1  0.00000000  0.81795800  0.81966200  1
  C  C12  1  0.25295000  0.87577200  0.28254700  1
  C  C13  1  0.25295000  0.12422800  0.71745300  1
  C  C14  1  0.74705000  0.37577200  0.21745300  1
  C  C15  1  0.74705000  0.62422800  0.78254700  1
  C  C16  1  0.74705000  0.12422800  0.71745300  1
  C  C17  1  0.74705000  0.87577200  0.28254700  1
  C  C18  1  0.25295000  0.62422800  0.78254700  1
  C  C19  1  0.25295000  0.37577200  0.21745300  1
  C  C20  1  0.00000000  0.65400700  0.05875500  1
  C  C21  1  0.00000000  0.34599300  0.94124500  1
  C  C22  1  0.00000000  0.15400700  0.44124500  1
  C  C23  1  0.00000000  0.84599300  0.55875500  1
  C  C24  1  0.50000000  0.50000000  0.50000000  1
  C  C25  1  0.50000000  0.00000000  0.00000000  1
  C  C26  1  0.50000000  0.64553500  0.08930800  1
  C  C27  1  0.50000000  0.35446500  0.91069200  1
  C  C28  1  0.50000000  0.14553500  0.41069200  1
  C  C29  1  0.50000000  0.85446500  0.58930800  1
