# generated using pymatgen
data_Cu3Ni3C22
_symmetry_space_group_name_H-M   'P 1'
_cell_length_a   8.94148000
_cell_length_b   10.53081430
_cell_length_c   16.79201297
_cell_angle_alpha   96.37615080
_cell_angle_beta   100.02359752
_cell_angle_gamma   107.13454446
_symmetry_Int_Tables_number   1
_chemical_formula_structural   Cu3Ni3C22
_chemical_formula_sum   'Cu12 Ni12 C88'
_cell_volume   1465.60549396
_cell_formula_units_Z   4
loop_
 _symmetry_equiv_pos_site_id
 _symmetry_equiv_pos_as_xyz
  1  'x, y, z'
loop_
 _atom_site_type_symbol
 _atom_site_label
 _atom_site_symmetry_multiplicity
 _atom_site_fract_x
 _atom_site_fract_y
 _atom_site_fract_z
 _atom_site_occupancy
  C  C0  1  0.55257300  0.67152300  0.27004500  1
  C  C1  1  0.44742700  0.32847700  0.72995500  1
  C  C2  1  0.37214800  0.73267100  0.35302000  1
  C  C3  1  0.62785200  0.26732900  0.64698000  1
  C  C4  1  0.72252000  0.83844300  0.19945700  1
  C  C5  1  0.27748000  0.16155700  0.80054300  1
  C  C6  1  0.52490600  0.42501600  0.22657800  1
  C  C7  1  0.47509400  0.57498400  0.77342200  1
  C  C8  1  0.88680900  0.77828300  0.45545500  1
  C  C9  1  0.11319100  0.22171700  0.54454500  1
  C  C10  1  0.19175000  0.68402500  0.07732900  1
  C  C11  1  0.80825000  0.31597500  0.92267100  1
  C  C12  1  0.35351800  0.92094800  0.28759200  1
  C  C13  1  0.64648200  0.07905200  0.71240800  1
  C  C14  1  0.28095000  0.92230500  0.38144900  1
  C  C15  1  0.71905000  0.07769500  0.61855100  1
  C  C16  1  0.49358700  0.97304800  0.38498200  1
  C  C17  1  0.50641300  0.02695200  0.61501800  1
  C  C18  1  0.40491300  0.61925600  0.46970900  1
  C  C19  1  0.59508700  0.38074400  0.53029100  1
  C  C20  1  0.52577100  0.79350600  0.49155300  1
  C  C21  1  0.47422900  0.20649400  0.50844700  1
  C  C22  1  0.31147100  0.74696400  0.48520400  1
  C  C23  1  0.68852900  0.25303600  0.51479600  1
  C  C24  1  0.15523600  0.52172100  0.31337900  1
  C  C25  1  0.84476400  0.47827900  0.68662100  1
  C  C26  1  0.09038200  0.65985200  0.34862500  1
  C  C27  1  0.90961800  0.34014800  0.65137500  1
  C  C28  1  0.13090400  0.63939800  0.24718400  1
  C  C29  1  0.86909600  0.36060200  0.75281600  1
  C  C30  1  0.55432600  0.74771700  0.06439800  1
  C  C31  1  0.44567400  0.25228300  0.93560200  1
  C  C32  1  0.74859800  0.85866000  0.06128400  1
  C  C33  1  0.25140200  0.14134000  0.93871600  1
  C  C34  1  0.72668500  0.69049300  0.07978800  1
  C  C35  1  0.27331500  0.30950700  0.92021200  1
  C  C36  1  0.55378000  0.97797600  0.18486000  1
  C  C37  1  0.44622000  0.02202400  0.81514000  1
  C  C38  1  0.72503000  0.05244300  0.26957000  1
  C  C39  1  0.27497000  0.94755700  0.73043000  1
  C  C40  1  0.74872100  0.05899600  0.16601900  1
  C  C41  1  0.25127900  0.94100400  0.83398100  1
  C  C42  1  0.97480700  0.92553800  0.30037000  1
  C  C43  1  0.02519300  0.07446200  0.69963000  1
  C  C44  1  0.97608700  0.79696400  0.22056000  1
  C  C45  1  0.02391300  0.20303600  0.77944000  1
  C  C46  1  0.99344700  0.96301600  0.20009100  1
  C  C47  1  0.00655300  0.03698400  0.79990900  1
  C  C48  1  0.79800200  0.45827300  0.20967800  1
  C  C49  1  0.20199800  0.54172700  0.79032200  1
  C  C50  1  0.66258200  0.29317600  0.16314900  1
  C  C51  1  0.33741800  0.70682400  0.83685100  1
  C  C52  1  0.66346400  0.43409700  0.11339300  1
  C  C53  1  0.33653600  0.56590300  0.88660700  1
  C  C54  1  0.65579000  0.39177200  0.35799900  1
  C  C55  1  0.34421000  0.60822800  0.64200100  1
  C  C56  1  0.44233100  0.32402300  0.34199700  1
  C  C57  1  0.55766900  0.67597700  0.65800300  1
  C  C58  1  0.54923200  0.23518800  0.28920100  1
  C  C59  1  0.45076800  0.76481200  0.71079900  1
  C  C60  1  0.23374900  0.32046400  0.18191100  1
  C  C61  1  0.76625100  0.67953600  0.81808900  1
  C  C62  1  0.32695500  0.35516500  0.09787700  1
  C  C63  1  0.67304500  0.64483500  0.90212300  1
  C  C64  1  0.34230500  0.21516500  0.14627600  1
  C  C65  1  0.65769500  0.78483500  0.85372400  1
  C  C66  1  0.89632700  0.71034200  0.55565000  1
  C  C67  1  0.10367300  0.28965800  0.44435000  1
  C  C68  1  0.18618000  0.82454500  0.01631300  1
  C  C69  1  0.81382000  0.17545500  0.98368700  1
  C  C70  1  0.37493200  0.90523100  0.35137600  1
  C  C71  1  0.62506800  0.09476900  0.64862400  1
  C  C72  1  0.40776900  0.72136400  0.46108200  1
  C  C73  1  0.59223100  0.27863600  0.53891800  1
  C  C74  1  0.16619800  0.62774600  0.31109700  1
  C  C75  1  0.83380200  0.37225400  0.68890300  1
  C  C76  1  0.68370300  0.77714700  0.09017600  1
  C  C77  1  0.31629700  0.22285300  0.90982400  1
  C  C78  1  0.68331000  0.99862700  0.20594300  1
  C  C79  1  0.31669000  0.00137300  0.79405700  1
  C  C80  1  0.93815900  0.88544400  0.23431700  1
  C  C81  1  0.06184100  0.11455600  0.76568300  1
  C  C82  1  0.67711700  0.40136600  0.17317200  1
  C  C83  1  0.32288300  0.59863400  0.82682800  1
  C  C84  1  0.54487300  0.33555600  0.31263100  1
  C  C85  1  0.45512700  0.66444400  0.68736900  1
  C  C86  1  0.33880700  0.31914100  0.15667700  1
  C  C87  1  0.66119300  0.68085900  0.84332300  1
  Ni  Ni88  1  0.79890300  0.65477100  0.38818400  1
  Ni  Ni89  1  0.20109700  0.34522900  0.61181600  1
  Ni  Ni90  1  0.78583500  0.87142300  0.46001600  1
  Ni  Ni91  1  0.21416500  0.12857700  0.53998400  1
  Ni  Ni92  1  0.06018200  0.84320300  0.45153000  1
  Ni  Ni93  1  0.93981800  0.15679700  0.54847000  1
  Ni  Ni94  1  0.32144800  0.75442600  0.15496100  1
  Ni  Ni95  1  0.67855200  0.24557400  0.84503900  1
  Ni  Ni96  1  0.24315300  0.58487000  0.02475300  1
  Ni  Ni97  1  0.75684700  0.41513000  0.97524700  1
  Ni  Ni98  1  0.02698500  0.63449700  0.09691900  1
  Ni  Ni99  1  0.97301500  0.36550300  0.90308100  1
  Cu  Cu100  1  0.74554300  0.64120600  0.56648900  1
  Cu  Cu101  1  0.25445700  0.35879400  0.43351100  1
  Cu  Cu102  1  0.98216300  0.62209200  0.56041400  1
  Cu  Cu103  1  0.01783700  0.37790800  0.43958600  1
  Cu  Cu104  1  0.96516200  0.80992800  0.62355100  1
  Cu  Cu105  1  0.03483800  0.19007200  0.37644900  1
  Cu  Cu106  1  0.33311500  0.88699400  0.99933900  1
  Cu  Cu107  1  0.66688500  0.11300600  0.00066100  1
  Cu  Cu108  1  0.14457100  0.92495300  0.05772200  1
  Cu  Cu109  1  0.85542900  0.07504700  0.94227800  1
  Cu  Cu110  1  0.07917000  0.78120600  0.94192800  1
  Cu  Cu111  1  0.92083000  0.21879400  0.05807200  1
