# generated using pymatgen
data_CuNiC8
_symmetry_space_group_name_H-M   'P 1'
_cell_length_a   7.95726451
_cell_length_b   9.83241392
_cell_length_c   7.95859652
_cell_angle_alpha   66.14631305
_cell_angle_beta   90.04119743
_cell_angle_gamma   66.15071362
_symmetry_Int_Tables_number   1
_chemical_formula_structural   CuNiC8
_chemical_formula_sum   'Cu4 Ni4 C32'
_cell_volume   510.72082507
_cell_formula_units_Z   4
loop_
 _symmetry_equiv_pos_site_id
 _symmetry_equiv_pos_as_xyz
  1  'x, y, z'
loop_
 _atom_site_type_symbol
 _atom_site_label
 _atom_site_symmetry_multiplicity
 _atom_site_fract_x
 _atom_site_fract_y
 _atom_site_fract_z
 _atom_site_occupancy
  C  C0  1  0.62498900  0.24994800  0.62506400  1
  C  C1  1  0.37505600  0.74994300  0.87543300  1
  C  C2  1  0.12502500  0.24996500  0.12496000  1
  C  C3  1  0.87499300  0.74994400  0.37459100  1
  C  C4  1  0.37503400  0.75006200  0.37517100  1
  C  C5  1  0.12439700  0.25007500  0.62508600  1
  C  C6  1  0.87494500  0.75003700  0.87480100  1
  C  C7  1  0.62555500  0.25005900  0.12486900  1
  Ni  Ni8  1  0.99999700  0.00002100  0.49998900  1
  Ni  Ni9  1  0.75000200  0.49999900  0.74999800  1
  Ni  Ni10  1  0.50000800  0.99998300  0.00000900  1
  Ni  Ni11  1  0.25000900  0.49998500  0.25001300  1
  Cu  Cu12  1  0.50004400  0.99993300  0.50003300  1
  Cu  Cu13  1  0.25004600  0.49991400  0.75004800  1
  Cu  Cu14  1  0.74998300  0.50003100  0.24998500  1
  Cu  Cu15  1  0.00002700  0.99994800  0.00002500  1
  C  C16  1  0.74600900  0.00031800  0.49904200  1
  C  C17  1  0.50252100  0.49970200  0.75072800  1
  C  C18  1  0.24625800  0.99982000  0.00087300  1
  C  C19  1  0.00217700  0.50023800  0.24887400  1
  C  C20  1  0.25366100  0.00033200  0.50064500  1
  C  C21  1  0.99782900  0.49961200  0.74959800  1
  C  C22  1  0.75393700  0.99977100  0.99933500  1
  C  C23  1  0.49761100  0.50019100  0.25090200  1
  C  C24  1  0.87680900  0.24642000  0.37681900  1
  C  C25  1  0.62693900  0.74622200  0.62692400  1
  C  C26  1  0.37695900  0.24615900  0.87696200  1
  C  C27  1  0.12685400  0.74633600  0.12686600  1
  C  C28  1  0.12303600  0.75387700  0.62301000  1
  C  C29  1  0.87315400  0.25360900  0.87317200  1
  C  C30  1  0.62315100  0.75364300  0.12315100  1
  C  C31  1  0.37299800  0.25390200  0.37302300  1
  C  C32  1  0.99906900  0.00012600  0.74760800  1
  C  C33  1  0.75098300  0.49988600  0.00382200  1
  C  C34  1  0.50098000  0.99966700  0.24783800  1
  C  C35  1  0.24933100  0.50024200  0.50377200  1
  C  C36  1  0.00075300  0.00020200  0.25222800  1
  C  C37  1  0.74913000  0.49990200  0.49628200  1
  C  C38  1  0.49930400  0.99971500  0.75247200  1
  C  C39  1  0.25043600  0.50025900  0.99597600  1
