# generated using pymatgen
data_Cu6NiC17
_symmetry_space_group_name_H-M   'P 1'
_cell_length_a   15.65997900
_cell_length_b   8.45775000
_cell_length_c   12.08425506
_cell_angle_alpha   47.60979097
_cell_angle_beta   90.00000000
_cell_angle_gamma   90.00000000
_symmetry_Int_Tables_number   1
_chemical_formula_structural   Cu6NiC17
_chemical_formula_sum   'Cu24 Ni4 C68'
_cell_volume   1182.11000605
_cell_formula_units_Z   4
loop_
 _symmetry_equiv_pos_site_id
 _symmetry_equiv_pos_as_xyz
  1  'x, y, z'
loop_
 _atom_site_type_symbol
 _atom_site_label
 _atom_site_symmetry_multiplicity
 _atom_site_fract_x
 _atom_site_fract_y
 _atom_site_fract_z
 _atom_site_occupancy
  Ni  Ni0  1  0.60384300  0.88015800  0.43961600  1
  Ni  Ni1  1  0.39615700  0.11984200  0.56038400  1
  Ni  Ni2  1  0.10384300  0.11984200  0.06038400  1
  Ni  Ni3  1  0.89615700  0.88015800  0.93961600  1
  Cu  Cu4  1  0.82204100  0.55103300  0.30676900  1
  Cu  Cu5  1  0.17795900  0.44896700  0.69323100  1
  Cu  Cu6  1  0.32204100  0.44896700  0.19323100  1
  Cu  Cu7  1  0.67795900  0.55103300  0.80676900  1
  Cu  Cu8  1  0.32551800  0.98512100  0.05490100  1
  Cu  Cu9  1  0.67448200  0.01487900  0.94509900  1
  Cu  Cu10  1  0.82551800  0.01487900  0.44509900  1
  Cu  Cu11  1  0.17448200  0.98512100  0.55490100  1
  Cu  Cu12  1  0.35617600  0.84824100  0.42428800  1
  Cu  Cu13  1  0.64382400  0.15175900  0.57571200  1
  Cu  Cu14  1  0.85617600  0.15175900  0.07571200  1
  Cu  Cu15  1  0.14382400  0.84824100  0.92428800  1
  Cu  Cu16  1  0.51349200  0.66549600  0.28271600  1
  Cu  Cu17  1  0.48650800  0.33450400  0.71728400  1
  Cu  Cu18  1  0.01349200  0.33450400  0.21728400  1
  Cu  Cu19  1  0.98650800  0.66549600  0.78271600  1
  Cu  Cu20  1  0.50408500  0.23834000  0.06151000  1
  Cu  Cu21  1  0.49591500  0.76166000  0.93849000  1
  Cu  Cu22  1  0.00408500  0.76166000  0.43849000  1
  Cu  Cu23  1  0.99591500  0.23834000  0.56151000  1
  Cu  Cu24  1  0.66589400  0.41207300  0.16604000  1
  Cu  Cu25  1  0.33410600  0.58792700  0.83396000  1
  Cu  Cu26  1  0.16589400  0.58792700  0.33396000  1
  Cu  Cu27  1  0.83410600  0.41207300  0.66604000  1
  C  C28  1  0.82694300  0.54424200  0.02707300  1
  C  C29  1  0.17305700  0.45575800  0.97292700  1
  C  C30  1  0.32694300  0.45575800  0.47292700  1
  C  C31  1  0.67305700  0.54424200  0.52707300  1
  C  C32  1  0.99931300  0.79136100  0.14477200  1
  C  C33  1  0.00068700  0.20863900  0.85522800  1
  C  C34  1  0.49931300  0.20863900  0.35522800  1
  C  C35  1  0.50068700  0.79136100  0.64477200  1
  C  C36  1  0.69313000  0.95822200  0.22146900  1
  C  C37  1  0.30687000  0.04177800  0.77853100  1
  C  C38  1  0.19313000  0.04177800  0.27853100  1
  C  C39  1  0.80687000  0.95822200  0.72146900  1
  C  C40  1  0.75117200  0.88296800  0.17774100  1
  C  C41  1  0.24882800  0.11703200  0.82225900  1
  C  C42  1  0.25117200  0.11703200  0.32225900  1
  C  C43  1  0.74882800  0.88296800  0.67774100  1
  C  C44  1  0.46685500  0.69685400  0.59402500  1
  C  C45  1  0.53314500  0.30314600  0.40597500  1
  C  C46  1  0.96685500  0.30314600  0.90597500  1
  C  C47  1  0.03314500  0.69685400  0.09402500  1
  C  C48  1  0.42078500  0.93465000  0.22076600  1
  C  C49  1  0.57921500  0.06535000  0.77923400  1
  C  C50  1  0.92078500  0.06535000  0.27923400  1
  C  C51  1  0.07921500  0.93465000  0.72076600  1
  C  C52  1  0.91471900  0.85319900  0.11795800  1
  C  C53  1  0.08528100  0.14680100  0.88204200  1
  C  C54  1  0.41471900  0.14680100  0.38204200  1
  C  C55  1  0.58528100  0.85319900  0.61795800  1
  C  C56  1  0.91210400  0.52480500  0.00936300  1
  C  C57  1  0.08789600  0.47519500  0.99063700  1
  C  C58  1  0.41210400  0.47519500  0.49063700  1
  C  C59  1  0.58789600  0.52480500  0.50936300  1
  C  C60  1  0.79565200  0.64136600  0.07559800  1
  C  C61  1  0.20434800  0.35863400  0.92440200  1
  C  C62  1  0.29565200  0.35863400  0.42440200  1
  C  C63  1  0.70434800  0.64136600  0.57559800  1
  C  C64  1  0.44880500  0.82271900  0.72067200  1
  C  C65  1  0.55119500  0.17728100  0.27932800  1
  C  C66  1  0.94880500  0.17728100  0.77932800  1
  C  C67  1  0.05119500  0.82271900  0.22067200  1
  C  C68  1  0.59816600  0.70194000  0.10558200  1
  C  C69  1  0.40183400  0.29806000  0.89441800  1
  C  C70  1  0.09816600  0.29806000  0.39441800  1
  C  C71  1  0.90183400  0.70194000  0.60558200  1
  C  C72  1  0.91057300  0.52738200  0.46389300  1
  C  C73  1  0.08942700  0.47261800  0.53610700  1
  C  C74  1  0.41057300  0.47261800  0.03610700  1
  C  C75  1  0.58942700  0.52738200  0.96389300  1
  C  C76  1  0.41442700  0.71397600  0.12381500  1
  C  C77  1  0.58557300  0.28602400  0.87618500  1
  C  C78  1  0.91442700  0.28602400  0.37618500  1
  C  C79  1  0.08557300  0.71397600  0.62381500  1
  C  C80  1  0.23191900  0.72376600  0.12179400  1
  C  C81  1  0.76808100  0.27623400  0.87820600  1
  C  C82  1  0.73191900  0.27623400  0.37820600  1
  C  C83  1  0.26808100  0.72376600  0.62179400  1
  C  C84  1  0.22509500  0.94645600  0.22850000  1
  C  C85  1  0.77490500  0.05354400  0.77150000  1
  C  C86  1  0.72509500  0.05354400  0.27150000  1
  C  C87  1  0.27490500  0.94645600  0.72850000  1
  C  C88  1  0.60696700  0.94788000  0.20085400  1
  C  C89  1  0.39303300  0.05212000  0.79914600  1
  C  C90  1  0.10696700  0.05212000  0.29914600  1
  C  C91  1  0.89303300  0.94788000  0.70085400  1
  C  C92  1  0.76779700  0.44750100  0.00345400  1
  C  C93  1  0.23220300  0.55249900  0.99654600  1
  C  C94  1  0.26779700  0.55249900  0.49654600  1
  C  C95  1  0.73220300  0.44750100  0.50345400  1
