# generated using pymatgen
data_Cu3NiC12
_symmetry_space_group_name_H-M   'P 1'
_cell_length_a   2.84330400
_cell_length_b   5.27904400
_cell_length_c   9.80454799
_cell_angle_alpha   83.95945616
_cell_angle_beta   90.00000000
_cell_angle_gamma   90.00000000
_symmetry_Int_Tables_number   1
_chemical_formula_structural   Cu3NiC12
_chemical_formula_sum   'Cu3 Ni1 C12'
_cell_volume   146.34843858
_cell_formula_units_Z   1
loop_
 _symmetry_equiv_pos_site_id
 _symmetry_equiv_pos_as_xyz
  1  'x, y, z'
loop_
 _atom_site_type_symbol
 _atom_site_label
 _atom_site_symmetry_multiplicity
 _atom_site_fract_x
 _atom_site_fract_y
 _atom_site_fract_z
 _atom_site_occupancy
  C  C0  1  0.50000000  0.75201200  0.75046400  1
  C  C1  1  0.00000000  0.00000000  0.50000000  1
  C  C2  1  0.50000000  0.24798800  0.24953600  1
  C  C3  1  0.00000000  0.50000000  0.00000000  1
  Ni  Ni4  1  0.50000000  0.50000000  0.50000000  1
  Cu  Cu5  1  0.00000000  0.24326300  0.75264100  1
  Cu  Cu6  1  0.00000000  0.75673700  0.24735900  1
  Cu  Cu7  1  0.50000000  0.00000000  0.00000000  1
  C  C8  1  0.50000000  0.35751400  0.86541200  1
  C  C9  1  0.00000000  0.61769400  0.61551400  1
  C  C10  1  0.50000000  0.86711800  0.35981200  1
  C  C11  1  0.00000000  0.11561800  0.11673900  1
  C  C12  1  0.50000000  0.13288200  0.64018800  1
  C  C13  1  0.00000000  0.38230600  0.38448600  1
  C  C14  1  0.50000000  0.64248600  0.13458800  1
  C  C15  1  0.00000000  0.88438200  0.88326100  1
