# generated using pymatgen
data_Cu2Ni6C17
_symmetry_space_group_name_H-M   'P 1'
_cell_length_a   18.14641400
_cell_length_b   5.00210000
_cell_length_c   7.58443874
_cell_angle_alpha   73.56263438
_cell_angle_beta   90.00000000
_cell_angle_gamma   90.00000000
_symmetry_Int_Tables_number   1
_chemical_formula_structural   Cu2Ni6C17
_chemical_formula_sum   'Cu4 Ni12 C34'
_cell_volume   660.30402519
_cell_formula_units_Z   2
loop_
 _symmetry_equiv_pos_site_id
 _symmetry_equiv_pos_as_xyz
  1  'x, y, z'
loop_
 _atom_site_type_symbol
 _atom_site_label
 _atom_site_symmetry_multiplicity
 _atom_site_fract_x
 _atom_site_fract_y
 _atom_site_fract_z
 _atom_site_occupancy
  C  C0  1  0.64007400  0.87977800  0.25747500  1
  C  C1  1  0.14007400  0.12022200  0.74252500  1
  C  C2  1  0.34428700  0.10002400  0.20790400  1
  C  C3  1  0.84428700  0.89997600  0.79209600  1
  C  C4  1  0.70354100  0.24238200  0.48597200  1
  C  C5  1  0.20354100  0.75761800  0.51402800  1
  C  C6  1  0.29508000  0.82746200  0.99518500  1
  C  C7  1  0.79508000  0.17253800  0.00481500  1
  Ni  Ni8  1  0.72784900  0.54786200  0.88208500  1
  Ni  Ni9  1  0.22784900  0.45213800  0.11791500  1
  Ni  Ni10  1  0.31259700  0.38013200  0.65155400  1
  Ni  Ni11  1  0.81259700  0.61986800  0.34844600  1
  Ni  Ni12  1  0.37640100  0.02069400  0.80243000  1
  Ni  Ni13  1  0.87640100  0.97930600  0.19757000  1
  Ni  Ni14  1  0.59079300  0.89524800  0.70782300  1
  Ni  Ni15  1  0.09079300  0.10475200  0.29217700  1
  Ni  Ni16  1  0.60622100  0.41209600  0.92456500  1
  Ni  Ni17  1  0.10622100  0.58790400  0.07543500  1
  Ni  Ni18  1  0.38756600  0.51577800  0.68280000  1
  Ni  Ni19  1  0.88756600  0.48422200  0.31720000  1
  Cu  Cu20  1  0.49974400  0.13440900  0.15775100  1
  Cu  Cu21  1  0.99974400  0.86559100  0.84224900  1
  Cu  Cu22  1  0.48652800  0.85357900  0.30709300  1
  Cu  Cu23  1  0.98652800  0.14642100  0.69290700  1
  C  C24  1  0.72605400  0.09846500  0.13091400  1
  C  C25  1  0.22605400  0.90153500  0.86908600  1
  C  C26  1  0.26622300  0.92193800  0.41377300  1
  C  C27  1  0.76622300  0.07806200  0.58622700  1
  C  C28  1  0.86381600  0.66257600  0.30895200  1
  C  C29  1  0.36381600  0.33742400  0.69104800  1
  C  C30  1  0.13725000  0.44756500  0.16729900  1
  C  C31  1  0.63725000  0.55243500  0.83270100  1
  C  C32  1  0.54159400  0.69525900  0.36233600  1
  C  C33  1  0.04159400  0.30474100  0.63766400  1
  C  C34  1  0.44445300  0.28792700  0.10442900  1
  C  C35  1  0.94445300  0.71207300  0.89557100  1
  C  C36  1  0.56572500  0.18481100  0.10069700  1
  C  C37  1  0.06572500  0.81518900  0.89930300  1
  C  C38  1  0.42060200  0.80552100  0.36200300  1
  C  C39  1  0.92060200  0.19447900  0.63799700  1
  C  C40  1  0.71141900  0.55136200  0.40775400  1
  C  C41  1  0.21141900  0.44863800  0.59224600  1
  C  C42  1  0.28304200  0.48241400  0.09493800  1
  C  C43  1  0.78304200  0.51758600  0.90506200  1
  C  C44  1  0.63194100  0.10465600  0.46945000  1
  C  C45  1  0.13194100  0.89534400  0.53055000  1
  C  C46  1  0.36526700  0.81665700  0.86866800  1
  C  C47  1  0.86526700  0.18334300  0.13133200  1
  C  C48  1  0.59963400  0.80908400  0.84017000  1
  C  C49  1  0.09963400  0.19091600  0.15983000  1
