# generated using pymatgen
data_Cu15Ni3C5
_symmetry_space_group_name_H-M   'P 1'
_cell_length_a   10.05897445
_cell_length_b   10.04251420
_cell_length_c   6.20088677
_cell_angle_alpha   90.00000000
_cell_angle_beta   90.00000000
_cell_angle_gamma   120.17993987
_symmetry_Int_Tables_number   1
_chemical_formula_structural   Cu15Ni3C5
_chemical_formula_sum   'Cu30 Ni6 C10'
_cell_volume   541.48979133
_cell_formula_units_Z   2
loop_
 _symmetry_equiv_pos_site_id
 _symmetry_equiv_pos_as_xyz
  1  'x, y, z'
loop_
 _atom_site_type_symbol
 _atom_site_label
 _atom_site_symmetry_multiplicity
 _atom_site_fract_x
 _atom_site_fract_y
 _atom_site_fract_z
 _atom_site_occupancy
  C  C0  1  0.99846009  0.99905629  0.86559473  1
  C  C1  1  0.00153991  0.00094371  0.36559473  1
  C  C2  1  0.50539596  0.50440115  0.75546032  1
  C  C3  1  0.99926602  0.49483243  0.75532658  1
  C  C4  1  0.49565126  0.00086546  0.75603345  1
  C  C5  1  0.49460404  0.49559885  0.25546032  1
  C  C6  1  0.00073398  0.50516757  0.25532658  1
  C  C7  1  0.50434874  0.99913454  0.25603345  1
  C  C8  1  0.33383489  0.66589040  0.08691514  1
  C  C9  1  0.66616511  0.33410960  0.58691514  1
  Ni  Ni10  1  0.55771363  0.76898474  0.50979787  1
  Ni  Ni11  1  0.21113330  0.44247091  0.50921058  1
  Ni  Ni12  1  0.23074478  0.78945044  0.51062153  1
  Ni  Ni13  1  0.44228637  0.23101526  0.00979787  1
  Ni  Ni14  1  0.78886670  0.55752909  0.00921058  1
  Ni  Ni15  1  0.76925522  0.21054956  0.01062153  1
  Cu  Cu16  1  0.91194952  0.11720904  0.61507767  1
  Cu  Cu17  1  0.18220752  0.07705090  0.61783214  1
  Cu  Cu18  1  0.91078043  0.81557812  0.61452300  1
  Cu  Cu19  1  0.08805048  0.88279096  0.11507767  1
  Cu  Cu20  1  0.81779248  0.92294910  0.11783214  1
  Cu  Cu21  1  0.08921957  0.18442188  0.11452300  1
  Cu  Cu22  1  0.39885073  0.52414171  0.00406659  1
  Cu  Cu23  1  0.12563606  0.60234909  0.00404942  1
  Cu  Cu24  1  0.47515060  0.87404861  0.00455087  1
  Cu  Cu25  1  0.60114927  0.47585829  0.50406659  1
  Cu  Cu26  1  0.87436494  0.39765091  0.50404942  1
  Cu  Cu27  1  0.52484940  0.12595139  0.50455087  1
  Cu  Cu28  1  0.57061649  0.71206153  0.68815954  1
  Cu  Cu29  1  0.13921784  0.42678417  0.68704685  1
  Cu  Cu30  1  0.28791722  0.85936604  0.68874279  1
  Cu  Cu31  1  0.42938351  0.28793847  0.18815954  1
  Cu  Cu32  1  0.86078216  0.57321583  0.18704685  1
  Cu  Cu33  1  0.71208278  0.14063396  0.18874279  1
  Cu  Cu34  1  0.52062087  0.69556755  0.32591814  1
  Cu  Cu35  1  0.17541668  0.48091847  0.32604078  1
  Cu  Cu36  1  0.30401768  0.82600144  0.32652155  1
  Cu  Cu37  1  0.47937913  0.30443245  0.82591814  1
  Cu  Cu38  1  0.82458332  0.51908153  0.82604078  1
  Cu  Cu39  1  0.69598232  0.17399856  0.82652155  1
  Cu  Cu40  1  0.58051160  0.90708213  0.51205432  1
  Cu  Cu41  1  0.32677805  0.42119984  0.51184169  1
  Cu  Cu42  1  0.09299613  0.67335364  0.51261545  1
  Cu  Cu43  1  0.41948840  0.09291787  0.01205432  1
  Cu  Cu44  1  0.67322195  0.57880016  0.01184169  1
  Cu  Cu45  1  0.90700387  0.32664636  0.01261545  1
