# generated using pymatgen
data_Cu14NiC2
_symmetry_space_group_name_H-M   'P 1'
_cell_length_a   9.00043300
_cell_length_b   9.00043300
_cell_length_c   7.03529400
_cell_angle_alpha   90.00000000
_cell_angle_beta   90.00000000
_cell_angle_gamma   90.00000000
_symmetry_Int_Tables_number   1
_chemical_formula_structural   Cu14NiC2
_chemical_formula_sum   'Cu28 Ni2 C4'
_cell_volume   569.91364840
_cell_formula_units_Z   2
loop_
 _symmetry_equiv_pos_site_id
 _symmetry_equiv_pos_as_xyz
  1  'x, y, z'
loop_
 _atom_site_type_symbol
 _atom_site_label
 _atom_site_symmetry_multiplicity
 _atom_site_fract_x
 _atom_site_fract_y
 _atom_site_fract_z
 _atom_site_occupancy
  C  C0  1  0.50000000  0.00000000  0.93636900  1
  C  C1  1  0.00000000  0.50000000  0.06363100  1
  C  C2  1  0.00000000  0.00000000  0.50000000  1
  C  C3  1  0.50000000  0.50000000  0.50000000  1
  Ni  Ni4  1  0.50000000  0.00000000  0.44984700  1
  Ni  Ni5  1  0.00000000  0.50000000  0.55015300  1
  Cu  Cu6  1  0.33461200  0.83461200  0.61548300  1
  Cu  Cu7  1  0.33461200  0.16538800  0.61548300  1
  Cu  Cu8  1  0.66538800  0.83461200  0.61548300  1
  Cu  Cu9  1  0.66538800  0.16538800  0.61548300  1
  Cu  Cu10  1  0.16538800  0.66538800  0.38451700  1
  Cu  Cu11  1  0.16538800  0.33461200  0.38451700  1
  Cu  Cu12  1  0.83461200  0.66538800  0.38451700  1
  Cu  Cu13  1  0.83461200  0.33461200  0.38451700  1
  Cu  Cu14  1  0.50000000  0.76912700  0.26023400  1
  Cu  Cu15  1  0.50000000  0.23087300  0.26023400  1
  Cu  Cu16  1  0.26912700  0.00000000  0.26023400  1
  Cu  Cu17  1  0.73087300  0.00000000  0.26023400  1
  Cu  Cu18  1  0.00000000  0.73087300  0.73976600  1
  Cu  Cu19  1  0.00000000  0.26912700  0.73976600  1
  Cu  Cu20  1  0.23087300  0.50000000  0.73976600  1
  Cu  Cu21  1  0.76912700  0.50000000  0.73976600  1
  Cu  Cu22  1  0.50000000  0.34962700  0.85090900  1
  Cu  Cu23  1  0.50000000  0.65037300  0.85090900  1
  Cu  Cu24  1  0.84962700  0.00000000  0.85090900  1
  Cu  Cu25  1  0.15037300  0.00000000  0.85090900  1
  Cu  Cu26  1  0.00000000  0.15037300  0.14909100  1
  Cu  Cu27  1  0.00000000  0.84962700  0.14909100  1
  Cu  Cu28  1  0.65037300  0.50000000  0.14909100  1
  Cu  Cu29  1  0.34962700  0.50000000  0.14909100  1
  Cu  Cu30  1  0.25000000  0.75000000  0.00000000  1
  Cu  Cu31  1  0.25000000  0.25000000  0.00000000  1
  Cu  Cu32  1  0.75000000  0.75000000  0.00000000  1
  Cu  Cu33  1  0.75000000  0.25000000  0.00000000  1
