# generated using pymatgen
data_CuNiC10
_symmetry_space_group_name_H-M   'P 1'
_cell_length_a   9.54718994
_cell_length_b   9.54718994
_cell_length_c   6.16238400
_cell_angle_alpha   90.00000000
_cell_angle_beta   90.00000000
_cell_angle_gamma   119.99999955
_symmetry_Int_Tables_number   1
_chemical_formula_structural   CuNiC10
_chemical_formula_sum   'Cu2 Ni2 C20'
_cell_volume   486.44138490
_cell_formula_units_Z   2
loop_
 _symmetry_equiv_pos_site_id
 _symmetry_equiv_pos_as_xyz
  1  'x, y, z'
loop_
 _atom_site_type_symbol
 _atom_site_label
 _atom_site_symmetry_multiplicity
 _atom_site_fract_x
 _atom_site_fract_y
 _atom_site_fract_z
 _atom_site_occupancy
  C  C0  1  0.15616700  0.78122600  0.82109200  1
  C  C1  1  0.21877400  0.37494100  0.82109200  1
  C  C2  1  0.62505900  0.84383300  0.82109200  1
  C  C3  1  0.84383300  0.21877400  0.32109200  1
  C  C4  1  0.78122600  0.62505900  0.32109200  1
  C  C5  1  0.37494100  0.15616700  0.32109200  1
  Ni  Ni6  1  0.66666700  0.33333300  0.89198500  1
  Ni  Ni7  1  0.33333300  0.66666700  0.39198500  1
  Cu  Cu8  1  0.00000000  0.00000000  0.49750100  1
  Cu  Cu9  1  0.00000000  0.00000000  0.99750100  1
  C  C10  1  0.43430900  0.91430300  0.55241300  1
  C  C11  1  0.08569700  0.52000700  0.55241300  1
  C  C12  1  0.47999300  0.56569100  0.55241300  1
  C  C13  1  0.56569100  0.08569700  0.05241300  1
  C  C14  1  0.91430300  0.47999300  0.05241300  1
  C  C15  1  0.52000700  0.43430900  0.05241300  1
  C  C16  1  0.66666700  0.33333300  0.52627600  1
  C  C17  1  0.33333300  0.66666700  0.02627600  1
  C  C18  1  0.86893900  0.76824200  0.73229500  1
  C  C19  1  0.23175800  0.10069700  0.73229500  1
  C  C20  1  0.89930300  0.13106100  0.73229500  1
  C  C21  1  0.13106100  0.23175800  0.23229500  1
  C  C22  1  0.76824200  0.89930300  0.23229500  1
  C  C23  1  0.10069700  0.86893900  0.23229500  1
