# generated using pymatgen
data_Cu2NiC7
_symmetry_space_group_name_H-M   'P 1'
_cell_length_a   5.22476401
_cell_length_b   9.72615867
_cell_length_c   9.00858364
_cell_angle_alpha   89.99876394
_cell_angle_beta   89.99776452
_cell_angle_gamma   78.92447594
_symmetry_Int_Tables_number   1
_chemical_formula_structural   Cu2NiC7
_chemical_formula_sum   'Cu8 Ni4 C28'
_cell_volume   449.26175912
_cell_formula_units_Z   4
loop_
 _symmetry_equiv_pos_site_id
 _symmetry_equiv_pos_as_xyz
  1  'x, y, z'
loop_
 _atom_site_type_symbol
 _atom_site_label
 _atom_site_symmetry_multiplicity
 _atom_site_fract_x
 _atom_site_fract_y
 _atom_site_fract_z
 _atom_site_occupancy
  C  C0  1  0.74998300  0.50000600  0.23153600  1
  C  C1  1  0.74999300  0.00001600  0.73152400  1
  C  C2  1  0.25002100  0.49999300  0.76846200  1
  C  C3  1  0.25000400  0.99998400  0.26847700  1
  Ni  Ni4  1  0.75000800  0.99999900  0.09199700  1
  Ni  Ni5  1  0.24999100  0.99999900  0.90800600  1
  Ni  Ni6  1  0.75000200  0.50000000  0.59201600  1
  Ni  Ni7  1  0.24999400  0.50000100  0.40799200  1
  Cu  Cu8  1  0.79039300  0.30002100  0.90505200  1
  Cu  Cu9  1  0.79041700  0.80005000  0.40502500  1
  Cu  Cu10  1  0.70959700  0.69999400  0.90502300  1
  Cu  Cu11  1  0.70958300  0.19995100  0.40501000  1
  Cu  Cu12  1  0.20961200  0.69997900  0.09496100  1
  Cu  Cu13  1  0.20960300  0.19994400  0.59497300  1
  Cu  Cu14  1  0.29041100  0.30000200  0.09498700  1
  Cu  Cu15  1  0.29038800  0.80005600  0.59498200  1
  C  C16  1  0.59717600  0.36094100  0.06996700  1
  C  C17  1  0.59721500  0.86098700  0.56993100  1
  C  C18  1  0.90278400  0.63906600  0.06993600  1
  C  C19  1  0.90276800  0.13902200  0.56992300  1
  C  C20  1  0.40283500  0.63905500  0.93004000  1
  C  C21  1  0.40280900  0.13901100  0.43005500  1
  C  C22  1  0.09722500  0.36093800  0.93007100  1
  C  C23  1  0.09719700  0.86098700  0.43006000  1
  C  C24  1  0.11743800  0.38253300  0.24420400  1
  C  C25  1  0.11745600  0.88258100  0.74417900  1
  C  C26  1  0.38249900  0.61745000  0.24417400  1
  C  C27  1  0.38249200  0.11742500  0.74417200  1
  C  C28  1  0.88256600  0.61746200  0.75580700  1
  C  C29  1  0.88255800  0.11744900  0.25579700  1
  C  C30  1  0.61750100  0.38255500  0.75583800  1
  C  C31  1  0.61748200  0.88254600  0.25580700  1
  C  C32  1  0.86906200  0.11512700  0.90929100  1
  C  C33  1  0.86900400  0.61513700  0.40927800  1
  C  C34  1  0.63094400  0.88489100  0.90925800  1
  C  C35  1  0.63096900  0.38486500  0.40925900  1
  C  C36  1  0.13094200  0.88487000  0.09071500  1
  C  C37  1  0.13097200  0.38485600  0.59072500  1
  C  C38  1  0.36905500  0.11510600  0.09074700  1
  C  C39  1  0.36904900  0.61514500  0.59074200  1
