# generated using pymatgen
data_Cu2NiC20
_symmetry_space_group_name_H-M   'P 1'
_cell_length_a   6.83736168
_cell_length_b   6.83736168
_cell_length_c   19.75609258
_cell_angle_alpha   89.10879721
_cell_angle_beta   89.10879721
_cell_angle_gamma   134.96206630
_symmetry_Int_Tables_number   1
_chemical_formula_structural   Cu2NiC20
_chemical_formula_sum   'Cu4 Ni2 C40'
_cell_volume   652.96825450
_cell_formula_units_Z   2
loop_
 _symmetry_equiv_pos_site_id
 _symmetry_equiv_pos_as_xyz
  1  'x, y, z'
loop_
 _atom_site_type_symbol
 _atom_site_label
 _atom_site_symmetry_multiplicity
 _atom_site_fract_x
 _atom_site_fract_y
 _atom_site_fract_z
 _atom_site_occupancy
  Ni  Ni0  1  0.53003900  0.46996100  0.75000000  1
  Ni  Ni1  1  0.46996100  0.53003900  0.25000000  1
  Cu  Cu2  1  0.64459100  0.34801700  0.96933400  1
  Cu  Cu3  1  0.35540900  0.65198300  0.03066600  1
  Cu  Cu4  1  0.65198300  0.35540900  0.53066600  1
  Cu  Cu5  1  0.34801700  0.64459100  0.46933400  1
  C  C6  1  0.92529000  0.04497100  0.58979400  1
  C  C7  1  0.07471000  0.95502900  0.41020600  1
  C  C8  1  0.95502900  0.07471000  0.91020600  1
  C  C9  1  0.04497100  0.92529000  0.08979400  1
  C  C10  1  0.24264400  0.76031100  0.64483100  1
  C  C11  1  0.75735600  0.23968900  0.35516900  1
  C  C12  1  0.23968900  0.75735600  0.85516900  1
  C  C13  1  0.76031100  0.24264400  0.14483100  1
  C  C14  1  0.66290400  0.00493000  0.54208000  1
  C  C15  1  0.33709600  0.99507000  0.45792000  1
  C  C16  1  0.99507000  0.33709600  0.95792000  1
  C  C17  1  0.00493000  0.66290400  0.04208000  1
  C  C18  1  0.44019000  0.91789300  0.93462300  1
  C  C19  1  0.55981000  0.08210700  0.06537700  1
  C  C20  1  0.08210700  0.55981000  0.56537700  1
  C  C21  1  0.91789300  0.44019000  0.43462300  1
  C  C22  1  0.79818700  0.96168900  0.83205400  1
  C  C23  1  0.20181300  0.03831100  0.16794600  1
  C  C24  1  0.03831100  0.20181300  0.66794600  1
  C  C25  1  0.96168900  0.79818700  0.33205400  1
  C  C26  1  0.71910600  0.81935200  0.10051100  1
  C  C27  1  0.28089400  0.18064800  0.89948900  1
  C  C28  1  0.18064800  0.28089400  0.39948900  1
  C  C29  1  0.81935200  0.71910600  0.60051100  1
  C  C30  1  0.41922500  0.11845900  0.62929100  1
  C  C31  1  0.58077500  0.88154100  0.37070900  1
  C  C32  1  0.88154100  0.58077500  0.87070900  1
  C  C33  1  0.11845900  0.41922500  0.12929100  1
  C  C34  1  0.71977000  0.75638400  0.96560100  1
  C  C35  1  0.28023000  0.24361600  0.03439900  1
  C  C36  1  0.24361600  0.28023000  0.53439900  1
  C  C37  1  0.75638400  0.71977000  0.46560100  1
  C  C38  1  0.49438100  0.76788800  0.67108600  1
  C  C39  1  0.50561900  0.23211200  0.32891400  1
  C  C40  1  0.23211200  0.50561900  0.82891400  1
  C  C41  1  0.76788800  0.49438100  0.17108600  1
  C  C42  1  0.39863300  0.01113000  0.79027600  1
  C  C43  1  0.60136700  0.98887000  0.20972400  1
  C  C44  1  0.98887000  0.60136700  0.70972400  1
  C  C45  1  0.01113000  0.39863300  0.29027600  1
