# generated using pymatgen
data_Cu20Ni3C2
_symmetry_space_group_name_H-M   'P 1'
_cell_length_a   7.46356266
_cell_length_b   7.46356266
_cell_length_c   18.18227568
_cell_angle_alpha   81.69490217
_cell_angle_beta   81.69490217
_cell_angle_gamma   52.22076403
_symmetry_Int_Tables_number   1
_chemical_formula_structural   Cu20Ni3C2
_chemical_formula_sum   'Cu40 Ni6 C4'
_cell_volume   790.09997670
_cell_formula_units_Z   2
loop_
 _symmetry_equiv_pos_site_id
 _symmetry_equiv_pos_as_xyz
  1  'x, y, z'
loop_
 _atom_site_type_symbol
 _atom_site_label
 _atom_site_symmetry_multiplicity
 _atom_site_fract_x
 _atom_site_fract_y
 _atom_site_fract_z
 _atom_site_occupancy
  C  C0  1  0.81163800  0.84887500  0.89486000  1
  C  C1  1  0.18836200  0.15112500  0.10514000  1
  C  C2  1  0.15112500  0.18836200  0.60514000  1
  C  C3  1  0.84887500  0.81163800  0.39486000  1
  Ni  Ni4  1  0.75531800  0.81193700  0.59066000  1
  Ni  Ni5  1  0.24468200  0.18806300  0.40934000  1
  Ni  Ni6  1  0.18806300  0.24468200  0.90934000  1
  Ni  Ni7  1  0.81193700  0.75531800  0.09066000  1
  Ni  Ni8  1  0.71311500  0.28688500  0.75000000  1
  Ni  Ni9  1  0.28688500  0.71311500  0.25000000  1
  Cu  Cu10  1  0.34096100  0.26565000  0.68410100  1
  Cu  Cu11  1  0.65903900  0.73435000  0.31589900  1
  Cu  Cu12  1  0.73435000  0.65903900  0.81589900  1
  Cu  Cu13  1  0.26565000  0.34096100  0.18410100  1
  Cu  Cu14  1  0.30804300  0.37852700  0.57012700  1
  Cu  Cu15  1  0.69195700  0.62147300  0.42987300  1
  Cu  Cu16  1  0.62147300  0.69195700  0.92987300  1
  Cu  Cu17  1  0.37852700  0.30804300  0.07012700  1
  Cu  Cu18  1  0.52032500  0.88630300  0.61437000  1
  Cu  Cu19  1  0.47967500  0.11369700  0.38563000  1
  Cu  Cu20  1  0.11369700  0.47967500  0.88563000  1
  Cu  Cu21  1  0.88630300  0.52032500  0.11437000  1
  Cu  Cu22  1  0.76362400  0.90783900  0.51411800  1
  Cu  Cu23  1  0.23637600  0.09216100  0.48588200  1
  Cu  Cu24  1  0.09216100  0.23637600  0.98588200  1
  Cu  Cu25  1  0.90783900  0.76362400  0.01411800  1
  Cu  Cu26  1  0.53648600  0.38306700  0.69551000  1
  Cu  Cu27  1  0.46351400  0.61693300  0.30449000  1
  Cu  Cu28  1  0.61693300  0.46351400  0.80449000  1
  Cu  Cu29  1  0.38306700  0.53648600  0.19551000  1
  Cu  Cu30  1  0.81628900  0.88826700  0.64712300  1
  Cu  Cu31  1  0.18371100  0.11173300  0.35287700  1
  Cu  Cu32  1  0.11173300  0.18371100  0.85287700  1
  Cu  Cu33  1  0.88826700  0.81628900  0.14712300  1
  Cu  Cu34  1  0.44022700  0.09367000  0.90940600  1
  Cu  Cu35  1  0.55977300  0.90633000  0.09059400  1
  Cu  Cu36  1  0.90633000  0.55977300  0.59059400  1
  Cu  Cu37  1  0.09367000  0.44022700  0.40940600  1
  Cu  Cu38  1  0.10946300  0.88433100  0.62791300  1
  Cu  Cu39  1  0.89053700  0.11566900  0.37208700  1
  Cu  Cu40  1  0.11566900  0.89053700  0.87208700  1
  Cu  Cu41  1  0.88433100  0.10946300  0.12791300  1
  Cu  Cu42  1  0.80236100  0.12627000  0.93724100  1
  Cu  Cu43  1  0.19763900  0.87373000  0.06275900  1
  Cu  Cu44  1  0.87373000  0.19763900  0.56275900  1
  Cu  Cu45  1  0.12627000  0.80236100  0.43724100  1
  Cu  Cu46  1  0.76406000  0.07267600  0.78947700  1
  Cu  Cu47  1  0.23594000  0.92732400  0.21052300  1
  Cu  Cu48  1  0.92732400  0.23594000  0.71052300  1
  Cu  Cu49  1  0.07267600  0.76406000  0.28947700  1
