# generated using pymatgen
data_Cu7(Ni3C11)2
_symmetry_space_group_name_H-M   'P 1'
_cell_length_a   7.44773400
_cell_length_b   10.82726400
_cell_length_c   23.84240300
_cell_angle_alpha   90.00000000
_cell_angle_beta   90.00000000
_cell_angle_gamma   90.00000000
_symmetry_Int_Tables_number   1
_chemical_formula_structural   Cu7(Ni3C11)2
_chemical_formula_sum   'Cu28 Ni24 C88'
_cell_volume   1922.61757463
_cell_formula_units_Z   4
loop_
 _symmetry_equiv_pos_site_id
 _symmetry_equiv_pos_as_xyz
  1  'x, y, z'
loop_
 _atom_site_type_symbol
 _atom_site_label
 _atom_site_symmetry_multiplicity
 _atom_site_fract_x
 _atom_site_fract_y
 _atom_site_fract_z
 _atom_site_occupancy
  C  C0  1  0.04421400  0.93145800  0.51620400  1
  C  C1  1  0.95578600  0.06854200  0.01620400  1
  C  C2  1  0.54421400  0.56854200  0.01620400  1
  C  C3  1  0.45578600  0.43145800  0.51620400  1
  C  C4  1  0.95416400  0.83834000  0.69266200  1
  C  C5  1  0.04583600  0.16166000  0.19266200  1
  C  C6  1  0.45416400  0.66166000  0.19266200  1
  C  C7  1  0.54583600  0.33834000  0.69266200  1
  Ni  Ni8  1  0.48602400  0.84608500  0.33296100  1
  Ni  Ni9  1  0.51397600  0.15391500  0.83296100  1
  Ni  Ni10  1  0.98602400  0.65391500  0.83296100  1
  Ni  Ni11  1  0.01397600  0.34608500  0.33296100  1
  Ni  Ni12  1  0.28210800  0.15927800  0.32030400  1
  Ni  Ni13  1  0.71789200  0.84072200  0.82030400  1
  Ni  Ni14  1  0.78210800  0.34072200  0.82030400  1
  Ni  Ni15  1  0.21789200  0.65927800  0.32030400  1
  Ni  Ni16  1  0.81265300  0.03245700  0.41371700  1
  Ni  Ni17  1  0.18734700  0.96754300  0.91371700  1
  Ni  Ni18  1  0.31265300  0.46754300  0.91371700  1
  Ni  Ni19  1  0.68734700  0.53245700  0.41371700  1
  Ni  Ni20  1  0.82382300  0.88845300  0.40041300  1
  Ni  Ni21  1  0.17617700  0.11154700  0.90041300  1
  Ni  Ni22  1  0.32382300  0.61154700  0.90041300  1
  Ni  Ni23  1  0.67617700  0.38845300  0.40041300  1
  Ni  Ni24  1  0.13035100  0.68849200  0.44484000  1
  Ni  Ni25  1  0.86964900  0.31150800  0.94484000  1
  Ni  Ni26  1  0.63035100  0.81150800  0.94484000  1
  Ni  Ni27  1  0.36964900  0.18849200  0.44484000  1
  Ni  Ni28  1  0.92685200  0.71255000  0.43989500  1
  Ni  Ni29  1  0.07314800  0.28745000  0.93989500  1
  Ni  Ni30  1  0.42685200  0.78745000  0.93989500  1
  Ni  Ni31  1  0.57314800  0.21255000  0.43989500  1
  Cu  Cu32  1  0.93298800  0.28204400  0.49139200  1
  Cu  Cu33  1  0.06701200  0.71795600  0.99139200  1
  Cu  Cu34  1  0.43298800  0.21795600  0.99139200  1
  Cu  Cu35  1  0.56701200  0.78204400  0.49139200  1
  Cu  Cu36  1  0.20653500  0.20857900  0.59447800  1
  Cu  Cu37  1  0.79346500  0.79142100  0.09447800  1
  Cu  Cu38  1  0.70653500  0.29142100  0.09447800  1
  Cu  Cu39  1  0.29346500  0.70857900  0.59447800  1
  Cu  Cu40  1  0.70485100  0.06356300  0.60747000  1
  Cu  Cu41  1  0.29514900  0.93643700  0.10747000  1
  Cu  Cu42  1  0.20485100  0.43643700  0.10747000  1
  Cu  Cu43  1  0.79514900  0.56356300  0.60747000  1
  Cu  Cu44  1  0.43872600  0.00395700  0.71419600  1
  Cu  Cu45  1  0.56127400  0.99604300  0.21419600  1
  Cu  Cu46  1  0.93872600  0.49604300  0.21419600  1
  Cu  Cu47  1  0.06127400  0.50395700  0.71419600  1
  Cu  Cu48  1  0.96352000  0.17403700  0.73548000  1
  Cu  Cu49  1  0.03648000  0.82596300  0.23548000  1
  Cu  Cu50  1  0.46352000  0.32596300  0.23548000  1
  Cu  Cu51  1  0.53648000  0.67403700  0.73548000  1
  Cu  Cu52  1  0.23585800  0.31940500  0.81936900  1
  Cu  Cu53  1  0.76414200  0.68059500  0.31936900  1
  Cu  Cu54  1  0.73585800  0.18059500  0.31936900  1
  Cu  Cu55  1  0.26414200  0.81940500  0.81936900  1
  Cu  Cu56  1  0.25460400  0.97075700  0.37180400  1
  Cu  Cu57  1  0.74539600  0.02924300  0.87180400  1
  Cu  Cu58  1  0.75460400  0.52924300  0.87180400  1
  Cu  Cu59  1  0.24539600  0.47075700  0.37180400  1
  C  C60  1  0.89642600  0.13227800  0.51038400  1
  C  C61  1  0.10357400  0.86772200  0.01038400  1
  C  C62  1  0.39642600  0.36772200  0.01038400  1
  C  C63  1  0.60357400  0.63227800  0.51038400  1
  C  C64  1  0.77047500  0.35880300  0.52604300  1
  C  C65  1  0.22952500  0.64119700  0.02604300  1
  C  C66  1  0.27047500  0.14119700  0.02604300  1
  C  C67  1  0.72952500  0.85880300  0.52604300  1
  C  C68  1  0.13621800  0.31428500  0.53479900  1
  C  C69  1  0.86378200  0.68571500  0.03479900  1
  C  C70  1  0.63621800  0.18571500  0.03479900  1
  C  C71  1  0.36378200  0.81428500  0.53479900  1
  C  C72  1  0.25498700  0.07756500  0.56027500  1
  C  C73  1  0.74501300  0.92243500  0.06027500  1
  C  C74  1  0.75498700  0.42243500  0.06027500  1
  C  C75  1  0.24501300  0.57756500  0.56027500  1
  C  C76  1  0.40643900  0.28815200  0.59673200  1
  C  C77  1  0.59356100  0.71184800  0.09673200  1
  C  C78  1  0.90643900  0.21184800  0.09673200  1
  C  C79  1  0.09356100  0.78815200  0.59673200  1
  C  C80  1  0.74218000  0.18895400  0.64833400  1
  C  C81  1  0.25782000  0.81104600  0.14833400  1
  C  C82  1  0.24218000  0.31104600  0.14833400  1
  C  C83  1  0.75782000  0.68895400  0.64833400  1
  C  C84  1  0.90699900  0.98960600  0.61322200  1
  C  C85  1  0.09300100  0.01039400  0.11322200  1
  C  C86  1  0.40699900  0.51039400  0.11322200  1
  C  C87  1  0.59300100  0.48960600  0.61322200  1
  C  C88  1  0.59828000  0.95257300  0.65928600  1
  C  C89  1  0.40172000  0.04742700  0.15928600  1
  C  C90  1  0.09828000  0.54742700  0.15928600  1
  C  C91  1  0.90172000  0.45257300  0.65928600  1
  C  C92  1  0.37102700  0.14286800  0.68935800  1
  C  C93  1  0.62897300  0.85713200  0.18935800  1
  C  C94  1  0.87102700  0.35713200  0.18935800  1
  C  C95  1  0.12897300  0.64286800  0.68935800  1
  C  C96  1  0.26524800  0.90784600  0.70038000  1
  C  C97  1  0.73475200  0.09215400  0.20038000  1
  C  C98  1  0.76524800  0.59215400  0.20038000  1
  C  C99  1  0.23475200  0.40784600  0.70038000  1
  C  C100  1  0.88761300  0.02874300  0.74668800  1
  C  C101  1  0.11238700  0.97125700  0.24668800  1
  C  C102  1  0.38761300  0.47125700  0.24668800  1
  C  C103  1  0.61238700  0.52874300  0.74668800  1
  C  C104  1  0.79355400  0.27096600  0.75736300  1
  C  C105  1  0.20644600  0.72903400  0.25736300  1
  C  C106  1  0.29355400  0.22903400  0.25736300  1
  C  C107  1  0.70644600  0.77096600  0.75736300  1
  C  C108  1  0.10136400  0.17897100  0.80110900  1
  C  C109  1  0.89863600  0.82102900  0.30110900  1
  C  C110  1  0.60136400  0.32102900  0.30110900  1
  C  C111  1  0.39863600  0.67897100  0.80110900  1
  C  C112  1  0.44112500  0.27696900  0.79453500  1
  C  C113  1  0.55887500  0.72303100  0.29453500  1
  C  C114  1  0.94112500  0.22303100  0.29453500  1
  C  C115  1  0.05887500  0.77696900  0.79453500  1
  C  C116  1  0.24707800  0.29196400  0.88922700  1
  C  C117  1  0.75292200  0.70803600  0.38922700  1
  C  C118  1  0.74707800  0.20803600  0.38922700  1
  C  C119  1  0.25292200  0.79196400  0.88922700  1
  C  C120  1  0.26827500  0.97815000  0.44178700  1
  C  C121  1  0.73172500  0.02185000  0.94178700  1
  C  C122  1  0.76827500  0.52185000  0.94178700  1
  C  C123  1  0.23172500  0.47815000  0.44178700  1
  C  C124  1  0.48038700  0.92621300  0.35518600  1
  C  C125  1  0.51961300  0.07378700  0.85518600  1
  C  C126  1  0.98038700  0.57378700  0.85518600  1
  C  C127  1  0.01961300  0.42621300  0.35518600  1
  C  C128  1  0.28808200  0.13249500  0.36109600  1
  C  C129  1  0.71191800  0.86750500  0.86109600  1
  C  C130  1  0.78808200  0.36750500  0.86109600  1
  C  C131  1  0.21191800  0.63249500  0.36109600  1
  C  C132  1  0.88644700  0.95812100  0.41849600  1
  C  C133  1  0.11355300  0.04187900  0.91849600  1
  C  C134  1  0.38644700  0.54187900  0.91849600  1
  C  C135  1  0.61355300  0.45812100  0.41849600  1
  C  C136  1  0.03305400  0.73260600  0.46341600  1
  C  C137  1  0.96694600  0.26739400  0.96341600  1
  C  C138  1  0.53305400  0.76739400  0.96341600  1
  C  C139  1  0.46694600  0.23260600  0.46341600  1
