# generated using pymatgen
data_Cu4NiC44
_symmetry_space_group_name_H-M   'P 1'
_cell_length_a   10.10518043
_cell_length_b   10.10518043
_cell_length_c   7.38506089
_cell_angle_alpha   88.09737089
_cell_angle_beta   88.09737089
_cell_angle_gamma   119.35232640
_symmetry_Int_Tables_number   1
_chemical_formula_structural   Cu4NiC44
_chemical_formula_sum   'Cu4 Ni1 C44'
_cell_volume   655.88749302
_cell_formula_units_Z   1
loop_
 _symmetry_equiv_pos_site_id
 _symmetry_equiv_pos_as_xyz
  1  'x, y, z'
loop_
 _atom_site_type_symbol
 _atom_site_label
 _atom_site_symmetry_multiplicity
 _atom_site_fract_x
 _atom_site_fract_y
 _atom_site_fract_z
 _atom_site_occupancy
  Ni  Ni0  1  0.50000000  0.50000000  0.50000000  1
  Cu  Cu1  1  0.76724700  0.23275300  0.00000000  1
  Cu  Cu2  1  0.23275300  0.76724700  0.00000000  1
  Cu  Cu3  1  0.77563600  0.77563600  0.01581000  1
  Cu  Cu4  1  0.22436400  0.22436400  0.98419000  1
  C  C5  1  0.58362900  0.41637100  0.00000000  1
  C  C6  1  0.41637100  0.58362900  0.00000000  1
  C  C7  1  0.42607000  0.08566400  0.26381700  1
  C  C8  1  0.57393000  0.91433600  0.73618300  1
  C  C9  1  0.91433600  0.57393000  0.73618300  1
  C  C10  1  0.08566400  0.42607000  0.26381700  1
  C  C11  1  0.56357700  0.87223200  0.31334100  1
  C  C12  1  0.43642300  0.12776800  0.68665900  1
  C  C13  1  0.12776800  0.43642300  0.68665900  1
  C  C14  1  0.87223200  0.56357700  0.31334100  1
  C  C15  1  0.90603900  0.08018300  0.28385900  1
  C  C16  1  0.09396100  0.91981700  0.71614100  1
  C  C17  1  0.91981700  0.09396100  0.71614100  1
  C  C18  1  0.08018300  0.90603900  0.28385900  1
  C  C19  1  0.91741500  0.08258500  0.50000000  1
  C  C20  1  0.08258500  0.91741500  0.50000000  1
  C  C21  1  0.55038700  0.21016100  0.12427500  1
  C  C22  1  0.44961300  0.78983900  0.87572500  1
  C  C23  1  0.78983900  0.44961300  0.87572500  1
  C  C24  1  0.21016100  0.55038700  0.12427500  1
  C  C25  1  0.73173000  0.02003600  0.23036300  1
  C  C26  1  0.26827000  0.97996400  0.76963700  1
  C  C27  1  0.97996400  0.26827000  0.76963700  1
  C  C28  1  0.02003600  0.73173000  0.23036300  1
  C  C29  1  0.53443700  0.71982000  0.22351300  1
  C  C30  1  0.46556300  0.28018000  0.77648700  1
  C  C31  1  0.28018000  0.46556300  0.77648700  1
  C  C32  1  0.71982000  0.53443700  0.22351300  1
  C  C33  1  0.43779400  0.92837800  0.28676300  1
  C  C34  1  0.56220600  0.07162200  0.71323700  1
  C  C35  1  0.07162200  0.56220600  0.71323700  1
  C  C36  1  0.92837800  0.43779400  0.28676300  1
  C  C37  1  0.57844400  0.85087000  0.53389800  1
  C  C38  1  0.42155600  0.14913000  0.46610200  1
  C  C39  1  0.14913000  0.42155600  0.46610200  1
  C  C40  1  0.85087000  0.57844400  0.53389800  1
  C  C41  1  0.24871100  0.01889800  0.18886300  1
  C  C42  1  0.75128900  0.98110200  0.81113700  1
  C  C43  1  0.98110200  0.75128900  0.81113700  1
  C  C44  1  0.01889800  0.24871100  0.18886300  1
  C  C45  1  0.40953000  0.40953000  0.12789600  1
  C  C46  1  0.59047000  0.59047000  0.87210400  1
  C  C47  1  0.96292700  0.96292700  0.20720500  1
  C  C48  1  0.03707300  0.03707300  0.79279500  1
