# generated using pymatgen
data_Cu2Ni2C3
_symmetry_space_group_name_H-M   'P 1'
_cell_length_a   8.46436595
_cell_length_b   8.46436595
_cell_length_c   8.46436595
_cell_angle_alpha   95.54080992
_cell_angle_beta   95.54080992
_cell_angle_gamma   143.79323443
_symmetry_Int_Tables_number   1
_chemical_formula_structural   Cu2Ni2C3
_chemical_formula_sum   'Cu4 Ni4 C6'
_cell_volume   340.48806328
_cell_formula_units_Z   2
loop_
 _symmetry_equiv_pos_site_id
 _symmetry_equiv_pos_as_xyz
  1  'x, y, z'
loop_
 _atom_site_type_symbol
 _atom_site_label
 _atom_site_symmetry_multiplicity
 _atom_site_fract_x
 _atom_site_fract_y
 _atom_site_fract_z
 _atom_site_occupancy
  C  C0  1  0.25000000  0.75000000  0.50000000  1
  C  C1  1  0.00000000  0.00000000  0.00000000  1
  Ni  Ni2  1  0.80573400  0.03288700  0.65127700  1
  Ni  Ni3  1  0.96711300  0.61839000  0.77284700  1
  Ni  Ni4  1  0.84554300  0.19426600  0.22715300  1
  Ni  Ni5  1  0.38161000  0.15445700  0.34872300  1
  Cu  Cu6  1  0.13193800  0.19807400  0.73044200  1
  Cu  Cu7  1  0.80192600  0.53236800  0.93386400  1
  Cu  Cu8  1  0.59850400  0.86806200  0.06613600  1
  Cu  Cu9  1  0.46763200  0.40149600  0.26955800  1
  C  C10  1  0.59409700  0.92557100  0.59477300  1
  C  C11  1  0.07442900  0.66920200  0.66852600  1
  C  C12  1  0.33079800  0.99932400  0.40522700  1
  C  C13  1  0.00067600  0.40590300  0.33147400  1
