# generated using pymatgen
data_CuNi8C17
_symmetry_space_group_name_H-M   'P 1'
_cell_length_a   7.29037736
_cell_length_b   9.81098539
_cell_length_c   9.09109289
_cell_angle_alpha   107.29681470
_cell_angle_beta   102.97296375
_cell_angle_gamma   103.14558008
_symmetry_Int_Tables_number   1
_chemical_formula_structural   CuNi8C17
_chemical_formula_sum   'Cu2 Ni16 C34'
_cell_volume   573.95949144
_cell_formula_units_Z   2
loop_
 _symmetry_equiv_pos_site_id
 _symmetry_equiv_pos_as_xyz
  1  'x, y, z'
loop_
 _atom_site_type_symbol
 _atom_site_label
 _atom_site_symmetry_multiplicity
 _atom_site_fract_x
 _atom_site_fract_y
 _atom_site_fract_z
 _atom_site_occupancy
  C  C0  1  0.95962700  0.22244000  0.53452600  1
  C  C1  1  0.78554500  0.90997000  0.82217200  1
  C  C2  1  0.01527300  0.43016900  0.31015800  1
  C  C3  1  0.04400400  0.66071800  0.09406800  1
  C  C4  1  0.31254600  0.94323100  0.87801700  1
  C  C5  1  0.04037300  0.77756000  0.46547400  1
  C  C6  1  0.95599600  0.33928200  0.90593200  1
  C  C7  1  0.21445500  0.09003000  0.17782800  1
  C  C8  1  0.68745400  0.05676900  0.12198300  1
  C  C9  1  0.98472700  0.56983100  0.68984200  1
  Ni  Ni10  1  0.38343400  0.04764100  0.78777700  1
  Ni  Ni11  1  0.68884400  0.62454600  0.76096500  1
  Ni  Ni12  1  0.43449600  0.58235000  0.93617800  1
  Ni  Ni13  1  0.67400900  0.25168600  0.34235400  1
  Ni  Ni14  1  0.49102500  0.34526000  0.05162200  1
  Ni  Ni15  1  0.32599100  0.74831400  0.65764600  1
  Ni  Ni16  1  0.04531000  0.83492400  0.97650600  1
  Ni  Ni17  1  0.50897500  0.65474000  0.94837800  1
  Ni  Ni18  1  0.91735200  0.86957800  0.21604200  1
  Ni  Ni19  1  0.08264800  0.13042200  0.78395800  1
  Ni  Ni20  1  0.95469000  0.16507600  0.02349400  1
  Ni  Ni21  1  0.56550400  0.41765000  0.06382200  1
  Ni  Ni22  1  0.31115600  0.37545400  0.23903500  1
  Ni  Ni23  1  0.61656600  0.95235900  0.21222300  1
  Ni  Ni24  1  0.26840500  0.44311800  0.60176200  1
  Ni  Ni25  1  0.73159500  0.55688200  0.39823800  1
  Cu  Cu26  1  0.46839600  0.72711300  0.41023400  1
  Cu  Cu27  1  0.53160400  0.27288700  0.58976600  1
  C  C28  1  0.56030000  0.89826100  0.91888800  1
  C  C29  1  0.06780200  0.98392700  0.83555100  1
  C  C30  1  0.16739800  0.84820800  0.06012200  1
  C  C31  1  0.20454400  0.76716900  0.68152900  1
  C  C32  1  0.93219800  0.01607300  0.16444900  1
  C  C33  1  0.81939800  0.69864200  0.78590100  1
  C  C34  1  0.93021100  0.77886000  0.24441300  1
  C  C35  1  0.79545600  0.23283100  0.31847100  1
  C  C36  1  0.54405500  0.85250600  0.36267400  1
  C  C37  1  0.87188000  0.56226500  0.44559400  1
  C  C38  1  0.43970000  0.10173900  0.08111200  1
  C  C39  1  0.53088300  0.77654100  0.59210700  1
  C  C40  1  0.76205900  0.32247800  0.64617200  1
  C  C41  1  0.12812000  0.43773500  0.55440600  1
  C  C42  1  0.92305800  0.46546000  0.10048600  1
  C  C43  1  0.45594500  0.14749400  0.63732600  1
  C  C44  1  0.51686000  0.58979600  0.33686000  1
  C  C45  1  0.23794100  0.67752200  0.35382800  1
  C  C46  1  0.07694200  0.53454000  0.89951400  1
  C  C47  1  0.18060200  0.30135800  0.21409900  1
  C  C48  1  0.06978900  0.22114000  0.75558700  1
  C  C49  1  0.48314000  0.41020400  0.66314000  1
  C  C50  1  0.46911700  0.22345900  0.40789300  1
  C  C51  1  0.83260200  0.15179200  0.93987800  1
