# generated using pymatgen
data_Cu14NiC10
_symmetry_space_group_name_H-M   'P 1'
_cell_length_a   10.88329256
_cell_length_b   10.88329256
_cell_length_c   13.90095499
_cell_angle_alpha   62.10553361
_cell_angle_beta   62.10553361
_cell_angle_gamma   27.96761206
_symmetry_Int_Tables_number   1
_chemical_formula_structural   Cu14NiC10
_chemical_formula_sum   'Cu28 Ni2 C20'
_cell_volume   676.49600912
_cell_formula_units_Z   2
loop_
 _symmetry_equiv_pos_site_id
 _symmetry_equiv_pos_as_xyz
  1  'x, y, z'
loop_
 _atom_site_type_symbol
 _atom_site_label
 _atom_site_symmetry_multiplicity
 _atom_site_fract_x
 _atom_site_fract_y
 _atom_site_fract_z
 _atom_site_occupancy
  C  C0  1  0.50000000  0.50000000  0.00000000  1
  C  C1  1  0.50000000  0.50000000  0.50000000  1
  C  C2  1  0.24794500  0.30994500  0.15099300  1
  C  C3  1  0.69005500  0.75205500  0.34900700  1
  C  C4  1  0.75205500  0.69005500  0.84900700  1
  C  C5  1  0.30994500  0.24794500  0.65099300  1
  C  C6  1  0.66421300  0.64352500  0.15773300  1
  C  C7  1  0.35647500  0.33578700  0.34226700  1
  C  C8  1  0.33578700  0.35647500  0.84226700  1
  C  C9  1  0.64352500  0.66421300  0.65773300  1
  C  C10  1  0.93952800  0.06047200  0.25000000  1
  C  C11  1  0.06047200  0.93952800  0.75000000  1
  C  C12  1  0.17896900  0.13721400  0.00729600  1
  C  C13  1  0.86278600  0.82103100  0.49270400  1
  C  C14  1  0.82103100  0.86278600  0.99270400  1
  C  C15  1  0.13721400  0.17896900  0.50729600  1
  C  C16  1  0.87155900  0.89236300  0.17239300  1
  C  C17  1  0.10763700  0.12844100  0.32760700  1
  C  C18  1  0.12844100  0.10763700  0.82760700  1
  C  C19  1  0.89236300  0.87155900  0.67239300  1
  Ni  Ni20  1  0.46102300  0.53897700  0.25000000  1
  Ni  Ni21  1  0.53897700  0.46102300  0.75000000  1
  Cu  Cu22  1  0.95490800  0.96634500  0.14791400  1
  Cu  Cu23  1  0.03365500  0.04509200  0.35208600  1
  Cu  Cu24  1  0.04509200  0.03365500  0.85208600  1
  Cu  Cu25  1  0.96634500  0.95490800  0.64791400  1
  Cu  Cu26  1  0.06767400  0.14705600  0.95024900  1
  Cu  Cu27  1  0.85294400  0.93232600  0.54975100  1
  Cu  Cu28  1  0.93232600  0.85294400  0.04975100  1
  Cu  Cu29  1  0.14705600  0.06767400  0.45024900  1
  Cu  Cu30  1  0.88207300  0.42594100  0.28989300  1
  Cu  Cu31  1  0.57405900  0.11792700  0.21010700  1
  Cu  Cu32  1  0.11792700  0.57405900  0.71010700  1
  Cu  Cu33  1  0.42594100  0.88207300  0.78989300  1
  Cu  Cu34  1  0.98761600  0.25159600  0.11470000  1
  Cu  Cu35  1  0.74840400  0.01238400  0.38530000  1
  Cu  Cu36  1  0.01238400  0.74840400  0.88530000  1
  Cu  Cu37  1  0.25159600  0.98761600  0.61470000  1
  Cu  Cu38  1  0.46500500  0.84543500  0.02614500  1
  Cu  Cu39  1  0.15456500  0.53499500  0.47385500  1
  Cu  Cu40  1  0.53499500  0.15456500  0.97385500  1
  Cu  Cu41  1  0.84543500  0.46500500  0.52614500  1
  Cu  Cu42  1  0.04012100  0.62862900  0.24587900  1
  Cu  Cu43  1  0.37137100  0.95987900  0.25412100  1
  Cu  Cu44  1  0.95987900  0.37137100  0.75412100  1
  Cu  Cu45  1  0.62862900  0.04012100  0.74587900  1
  Cu  Cu46  1  0.84648500  0.68826600  0.07376900  1
  Cu  Cu47  1  0.31173400  0.15351500  0.42623100  1
  Cu  Cu48  1  0.15351500  0.31173400  0.92623100  1
  Cu  Cu49  1  0.68826600  0.84648500  0.57376900  1
