# generated using pymatgen
data_CuNiC10
_symmetry_space_group_name_H-M   'P 1'
_cell_length_a   9.84777087
_cell_length_b   9.84777087
_cell_length_c   6.14846500
_cell_angle_alpha   90.00000000
_cell_angle_beta   90.00000000
_cell_angle_gamma   120.00000587
_symmetry_Int_Tables_number   1
_chemical_formula_structural   CuNiC10
_chemical_formula_sum   'Cu2 Ni2 C20'
_cell_volume   516.38448115
_cell_formula_units_Z   2
loop_
 _symmetry_equiv_pos_site_id
 _symmetry_equiv_pos_as_xyz
  1  'x, y, z'
loop_
 _atom_site_type_symbol
 _atom_site_label
 _atom_site_symmetry_multiplicity
 _atom_site_fract_x
 _atom_site_fract_y
 _atom_site_fract_z
 _atom_site_occupancy
  C  C0  1  0.14982900  0.37430500  0.32033400  1
  C  C1  1  0.22447600  0.85017100  0.32033400  1
  C  C2  1  0.62569500  0.77552400  0.32033400  1
  C  C3  1  0.85017100  0.62569500  0.82033400  1
  C  C4  1  0.77552400  0.14982900  0.82033400  1
  C  C5  1  0.37430500  0.22447600  0.82033400  1
  Ni  Ni6  1  0.66666700  0.33333300  0.39557900  1
  Ni  Ni7  1  0.33333300  0.66666700  0.89557900  1
  Cu  Cu8  1  0.00000000  0.00000000  0.00998100  1
  Cu  Cu9  1  0.00000000  0.00000000  0.50998100  1
  C  C10  1  0.42757600  0.51904300  0.04990700  1
  C  C11  1  0.09146700  0.57242400  0.04990700  1
  C  C12  1  0.48095700  0.90853300  0.04990700  1
  C  C13  1  0.57242400  0.48095700  0.54990700  1
  C  C14  1  0.90853300  0.42757600  0.54990700  1
  C  C15  1  0.51904300  0.09146700  0.54990700  1
  C  C16  1  0.66666700  0.33333300  0.02915000  1
  C  C17  1  0.33333300  0.66666700  0.52915000  1
  C  C18  1  0.86344800  0.09687000  0.24380500  1
  C  C19  1  0.23342300  0.13655200  0.24380500  1
  C  C20  1  0.90313000  0.76657700  0.24380500  1
  C  C21  1  0.13655200  0.90313000  0.74380500  1
  C  C22  1  0.76657700  0.86344800  0.74380500  1
  C  C23  1  0.09687000  0.23342300  0.74380500  1
