# generated using pymatgen
data_Cu(Ni11C3)2
_symmetry_space_group_name_H-M   'P 1'
_cell_length_a   9.50866200
_cell_length_b   11.74053200
_cell_length_c   18.60954455
_cell_angle_alpha   63.99721292
_cell_angle_beta   90.00000000
_cell_angle_gamma   90.00000000
_symmetry_Int_Tables_number   1
_chemical_formula_structural   Cu(Ni11C3)2
_chemical_formula_sum   'Cu2 Ni44 C12'
_cell_volume   1867.20849111
_cell_formula_units_Z   2
loop_
 _symmetry_equiv_pos_site_id
 _symmetry_equiv_pos_as_xyz
  1  'x, y, z'
loop_
 _atom_site_type_symbol
 _atom_site_label
 _atom_site_symmetry_multiplicity
 _atom_site_fract_x
 _atom_site_fract_y
 _atom_site_fract_z
 _atom_site_occupancy
  C  C0  1  0.14361600  0.00899000  0.56520900  1
  C  C1  1  0.64361600  0.99101000  0.93479100  1
  C  C2  1  0.85638400  0.99101000  0.43479100  1
  C  C3  1  0.35638400  0.00899000  0.06520900  1
  C  C4  1  0.17076800  0.24300100  0.31522900  1
  C  C5  1  0.67076800  0.75699900  0.18477100  1
  C  C6  1  0.82923200  0.75699900  0.68477100  1
  C  C7  1  0.32923200  0.24300100  0.81522900  1
  C  C8  1  0.80568300  0.26372200  0.51972200  1
  C  C9  1  0.30568300  0.73627800  0.98027800  1
  C  C10  1  0.19431700  0.73627800  0.48027800  1
  C  C11  1  0.69431700  0.26372200  0.01972200  1
  Ni  Ni12  1  0.30678700  0.04228100  0.46074500  1
  Ni  Ni13  1  0.80678700  0.95771900  0.03925500  1
  Ni  Ni14  1  0.69321300  0.95771900  0.53925500  1
  Ni  Ni15  1  0.19321300  0.04228100  0.96074500  1
  Ni  Ni16  1  0.17722100  0.78161700  0.62006000  1
  Ni  Ni17  1  0.67722100  0.21838300  0.87994000  1
  Ni  Ni18  1  0.82277900  0.21838300  0.37994000  1
  Ni  Ni19  1  0.32277900  0.78161700  0.12006000  1
  Ni  Ni20  1  0.10949700  0.23400200  0.51466700  1
  Ni  Ni21  1  0.60949700  0.76599800  0.98533300  1
  Ni  Ni22  1  0.89050300  0.76599800  0.48533300  1
  Ni  Ni23  1  0.39050300  0.23400200  0.01466700  1
  Ni  Ni24  1  0.32337600  0.01621100  0.64642100  1
  Ni  Ni25  1  0.82337600  0.98378900  0.85357900  1
  Ni  Ni26  1  0.67662400  0.98378900  0.35357900  1
  Ni  Ni27  1  0.17662400  0.01621100  0.14642100  1
  Ni  Ni28  1  0.97592900  0.98018900  0.66849700  1
  Ni  Ni29  1  0.47592900  0.01981100  0.83150300  1
  Ni  Ni30  1  0.02407100  0.01981100  0.33150300  1
  Ni  Ni31  1  0.52407100  0.98018900  0.16849700  1
  Ni  Ni32  1  0.05171700  0.35830900  0.19315300  1
  Ni  Ni33  1  0.55171700  0.64169100  0.30684700  1
  Ni  Ni34  1  0.94828300  0.64169100  0.80684700  1
  Ni  Ni35  1  0.44828300  0.35830900  0.69315300  1
  Ni  Ni36  1  0.35382800  0.18567900  0.25506600  1
  Ni  Ni37  1  0.85382800  0.81432100  0.24493400  1
  Ni  Ni38  1  0.64617200  0.81432100  0.74493400  1
  Ni  Ni39  1  0.14617200  0.18567900  0.75506600  1
  Ni  Ni40  1  0.28526200  0.42634200  0.30963500  1
  Ni  Ni41  1  0.78526200  0.57365800  0.19036500  1
  Ni  Ni42  1  0.71473800  0.57365800  0.69036500  1
  Ni  Ni43  1  0.21473800  0.42634200  0.80963500  1
  Ni  Ni44  1  0.86033900  0.47222300  0.43226100  1
  Ni  Ni45  1  0.36033900  0.52777700  0.06773900  1
  Ni  Ni46  1  0.13966100  0.52777700  0.56773900  1
  Ni  Ni47  1  0.63966100  0.47222300  0.93226100  1
  Ni  Ni48  1  0.81238600  0.30104300  0.63566900  1
  Ni  Ni49  1  0.31238600  0.69895700  0.86433100  1
  Ni  Ni50  1  0.18761400  0.69895700  0.36433100  1
  Ni  Ni51  1  0.68761400  0.30104300  0.13566900  1
  Ni  Ni52  1  0.55965800  0.29868400  0.50403100  1
  Ni  Ni53  1  0.05965800  0.70131600  0.99596900  1
  Ni  Ni54  1  0.44034200  0.70131600  0.49596900  1
  Ni  Ni55  1  0.94034200  0.29868400  0.00403100  1
  Cu  Cu56  1  0.00000000  0.00000000  0.50000000  1
  Cu  Cu57  1  0.50000000  0.00000000  0.00000000  1
