# generated using pymatgen
data_CuNi2C5
_symmetry_space_group_name_H-M   'P 1'
_cell_length_a   7.42507745
_cell_length_b   7.42507745
_cell_length_c   7.42507745
_cell_angle_alpha   109.12422193
_cell_angle_beta   109.12422193
_cell_angle_gamma   110.16746957
_symmetry_Int_Tables_number   1
_chemical_formula_structural   CuNi2C5
_chemical_formula_sum   'Cu1 Ni2 C5'
_cell_volume   315.08875494
_cell_formula_units_Z   1
loop_
 _symmetry_equiv_pos_site_id
 _symmetry_equiv_pos_as_xyz
  1  'x, y, z'
loop_
 _atom_site_type_symbol
 _atom_site_label
 _atom_site_symmetry_multiplicity
 _atom_site_fract_x
 _atom_site_fract_y
 _atom_site_fract_z
 _atom_site_occupancy
  Ni  Ni0  1  0.50000000  0.00000000  0.50000000  1
  Ni  Ni1  1  0.00000000  0.50000000  0.50000000  1
  Cu  Cu2  1  0.50000000  0.50000000  0.00000000  1
  C  C3  1  0.00000000  0.00000000  0.00000000  1
  C  C4  1  0.37990200  0.37990200  0.37883700  1
  C  C5  1  0.00106500  0.00106500  0.62116300  1
  C  C6  1  0.62009800  0.99893500  0.00000000  1
  C  C7  1  0.99893500  0.62009800  0.00000000  1
