# generated using pymatgen
data_Cu12NiC12
_symmetry_space_group_name_H-M   'P 1'
_cell_length_a   15.90158900
_cell_length_b   6.97506800
_cell_length_c   14.32236500
_cell_angle_alpha   89.84121828
_cell_angle_beta   90.00000000
_cell_angle_gamma   90.00000000
_symmetry_Int_Tables_number   1
_chemical_formula_structural   Cu12NiC12
_chemical_formula_sum   'Cu48 Ni4 C48'
_cell_volume   1588.55420970
_cell_formula_units_Z   4
loop_
 _symmetry_equiv_pos_site_id
 _symmetry_equiv_pos_as_xyz
  1  'x, y, z'
loop_
 _atom_site_type_symbol
 _atom_site_label
 _atom_site_symmetry_multiplicity
 _atom_site_fract_x
 _atom_site_fract_y
 _atom_site_fract_z
 _atom_site_occupancy
  Ni  Ni0  1  0.05782400  0.71561600  0.92049600  1
  Ni  Ni1  1  0.94217600  0.28438400  0.07950400  1
  Ni  Ni2  1  0.55782400  0.28438400  0.57950400  1
  Ni  Ni3  1  0.44217600  0.71561600  0.42049600  1
  Cu  Cu4  1  0.44582700  0.58234900  0.81588400  1
  Cu  Cu5  1  0.55417300  0.41765100  0.18411600  1
  Cu  Cu6  1  0.94582700  0.41765100  0.68411600  1
  Cu  Cu7  1  0.05417300  0.58234900  0.31588400  1
  Cu  Cu8  1  0.00992700  0.38607200  0.61957800  1
  Cu  Cu9  1  0.99007300  0.61392800  0.38042200  1
  Cu  Cu10  1  0.50992700  0.61392800  0.88042200  1
  Cu  Cu11  1  0.49007300  0.38607200  0.11957800  1
  Cu  Cu12  1  0.46376400  0.48156100  0.73428000  1
  Cu  Cu13  1  0.53623600  0.51843900  0.26572000  1
  Cu  Cu14  1  0.96376400  0.51843900  0.76572000  1
  Cu  Cu15  1  0.03623600  0.48156100  0.23428000  1
  Cu  Cu16  1  0.76398400  0.91689200  0.68966900  1
  Cu  Cu17  1  0.23601600  0.08310800  0.31033100  1
  Cu  Cu18  1  0.26398400  0.08310800  0.81033100  1
  Cu  Cu19  1  0.73601600  0.91689200  0.18966900  1
  Cu  Cu20  1  0.82114000  0.91650700  0.61547800  1
  Cu  Cu21  1  0.17886000  0.08349300  0.38452200  1
  Cu  Cu22  1  0.32114000  0.08349300  0.88452200  1
  Cu  Cu23  1  0.67886000  0.91650700  0.11547800  1
  Cu  Cu24  1  0.10818400  0.55217200  0.71983600  1
  Cu  Cu25  1  0.89181600  0.44782800  0.28016400  1
  Cu  Cu26  1  0.60818400  0.44782800  0.78016400  1
  Cu  Cu27  1  0.39181600  0.55217200  0.21983600  1
  Cu  Cu28  1  0.09140600  0.45333300  0.63718200  1
  Cu  Cu29  1  0.90859400  0.54666700  0.36281800  1
  Cu  Cu30  1  0.59140600  0.54666700  0.86281800  1
  Cu  Cu31  1  0.40859400  0.45333300  0.13718200  1
  Cu  Cu32  1  0.22758000  0.88254500  0.97401200  1
  Cu  Cu33  1  0.77242000  0.11745500  0.02598800  1
  Cu  Cu34  1  0.72758000  0.11745500  0.52598800  1
  Cu  Cu35  1  0.27242000  0.88254500  0.47401200  1
  Cu  Cu36  1  0.18939700  0.97977600  0.81822300  1
  Cu  Cu37  1  0.81060300  0.02022400  0.18177700  1
  Cu  Cu38  1  0.68939700  0.02022400  0.68177700  1
  Cu  Cu39  1  0.31060300  0.97977600  0.31822300  1
  Cu  Cu40  1  0.17073200  0.87649800  0.89943600  1
  Cu  Cu41  1  0.82926800  0.12350200  0.10056400  1
  Cu  Cu42  1  0.67073200  0.12350200  0.60056400  1
  Cu  Cu43  1  0.32926800  0.87649800  0.39943600  1
  Cu  Cu44  1  0.04408000  0.58931700  0.78405200  1
  Cu  Cu45  1  0.95592000  0.41068300  0.21594800  1
  Cu  Cu46  1  0.54408000  0.41068300  0.71594800  1
  Cu  Cu47  1  0.45592000  0.58931700  0.28405200  1
  Cu  Cu48  1  0.30304700  0.98361300  0.96686500  1
  Cu  Cu49  1  0.69695300  0.01638700  0.03313500  1
  Cu  Cu50  1  0.80304700  0.01638700  0.53313500  1
  Cu  Cu51  1  0.19695300  0.98361300  0.46686500  1
  C  C52  1  0.15062600  0.40091700  0.95583800  1
  C  C53  1  0.84937400  0.59908300  0.04416200  1
  C  C54  1  0.65062600  0.59908300  0.54416200  1
  C  C55  1  0.34937400  0.40091700  0.45583800  1
  C  C56  1  0.46538000  0.98046300  0.63536100  1
  C  C57  1  0.53462000  0.01953700  0.36463900  1
  C  C58  1  0.96538000  0.01953700  0.86463900  1
  C  C59  1  0.03462000  0.98046300  0.13536100  1
  C  C60  1  0.18825200  0.60640100  0.73565900  1
  C  C61  1  0.81174800  0.39359900  0.26434100  1
  C  C62  1  0.68825200  0.39359900  0.76434100  1
  C  C63  1  0.31174800  0.60640100  0.23565900  1
  C  C64  1  0.13620900  0.98318500  0.74493100  1
  C  C65  1  0.86379100  0.01681500  0.25506900  1
  C  C66  1  0.63620900  0.01681500  0.75506900  1
  C  C67  1  0.36379100  0.98318500  0.24493100  1
  C  C68  1  0.78053900  0.81578900  0.76756700  1
  C  C69  1  0.21946100  0.18421100  0.23243300  1
  C  C70  1  0.28053900  0.18421100  0.73243300  1
  C  C71  1  0.71946100  0.81578900  0.26756700  1
  C  C72  1  0.14229000  0.98485000  0.53833600  1
  C  C73  1  0.85771000  0.01515000  0.46166400  1
  C  C74  1  0.64229000  0.01515000  0.96166400  1
  C  C75  1  0.35771000  0.98485000  0.03833600  1
  C  C76  1  0.15279100  0.42326600  0.57439100  1
  C  C77  1  0.84720900  0.57673400  0.42560900  1
  C  C78  1  0.65279100  0.57673400  0.92560900  1
  C  C79  1  0.34720900  0.42326600  0.07439100  1
  C  C80  1  0.49303400  0.70841100  0.95985300  1
  C  C81  1  0.50696600  0.29158900  0.04014700  1
  C  C82  1  0.99303400  0.29158900  0.54014700  1
  C  C83  1  0.00696600  0.70841100  0.45985300  1
  C  C84  1  0.89352800  0.81853700  0.62282800  1
  C  C85  1  0.10647200  0.18146300  0.37717200  1
  C  C86  1  0.39352800  0.18146300  0.87717200  1
  C  C87  1  0.60647200  0.81853700  0.12282800  1
  C  C88  1  0.40161300  0.45737200  0.67114700  1
  C  C89  1  0.59838700  0.54262800  0.32885300  1
  C  C90  1  0.90161300  0.54262800  0.82885300  1
  C  C91  1  0.09838700  0.45737200  0.17114700  1
  C  C92  1  0.36761300  0.64726300  0.83244900  1
  C  C93  1  0.63238700  0.35273700  0.16755100  1
  C  C94  1  0.86761300  0.35273700  0.66755100  1
  C  C95  1  0.13238700  0.64726300  0.33244900  1
  C  C96  1  0.28919800  0.79050400  0.55475200  1
  C  C97  1  0.71080200  0.20949600  0.44524800  1
  C  C98  1  0.78919800  0.20949600  0.94524800  1
  C  C99  1  0.21080200  0.79050400  0.05475200  1
