# generated using pymatgen
data_Cu7NiC10
_symmetry_space_group_name_H-M   'P 1'
_cell_length_a   6.99857280
_cell_length_b   7.37824100
_cell_length_c   10.26334513
_cell_angle_alpha   90.00000000
_cell_angle_beta   102.83117220
_cell_angle_gamma   90.00000000
_symmetry_Int_Tables_number   1
_chemical_formula_structural   Cu7NiC10
_chemical_formula_sum   'Cu14 Ni2 C20'
_cell_volume   516.73590945
_cell_formula_units_Z   2
loop_
 _symmetry_equiv_pos_site_id
 _symmetry_equiv_pos_as_xyz
  1  'x, y, z'
loop_
 _atom_site_type_symbol
 _atom_site_label
 _atom_site_symmetry_multiplicity
 _atom_site_fract_x
 _atom_site_fract_y
 _atom_site_fract_z
 _atom_site_occupancy
  Ni  Ni0  1  0.94944400  0.89697800  0.67288900  1
  Ni  Ni1  1  0.94944400  0.10302200  0.17288900  1
  Cu  Cu2  1  0.54972200  0.98093500  0.82351500  1
  Cu  Cu3  1  0.54972200  0.01906500  0.32351500  1
  Cu  Cu4  1  0.34137500  0.01722700  0.02415400  1
  Cu  Cu5  1  0.34137500  0.98277300  0.52415400  1
  Cu  Cu6  1  0.11744500  0.39600200  0.07316400  1
  Cu  Cu7  1  0.11744500  0.60399800  0.57316400  1
  Cu  Cu8  1  0.65741700  0.35760200  0.99162400  1
  Cu  Cu9  1  0.65741700  0.64239800  0.49162400  1
  Cu  Cu10  1  0.84639300  0.61755400  0.81382200  1
  Cu  Cu11  1  0.84639300  0.38244600  0.31382200  1
  Cu  Cu12  1  0.30435500  0.62696200  0.88182200  1
  Cu  Cu13  1  0.30435500  0.37303800  0.38182200  1
  Cu  Cu14  1  0.48893700  0.36475900  0.68630900  1
  Cu  Cu15  1  0.48893700  0.63524100  0.18630900  1
  C  C16  1  0.76949400  0.85830000  0.79941800  1
  C  C17  1  0.76949400  0.14170000  0.29941800  1
  C  C18  1  0.55467100  0.13197500  0.97250900  1
  C  C19  1  0.55467100  0.86802500  0.47250900  1
  C  C20  1  0.32418900  0.87264300  0.86870900  1
  C  C21  1  0.32418900  0.12735700  0.36870900  1
  C  C22  1  0.12970600  0.14748400  0.04930700  1
  C  C23  1  0.12970600  0.85251600  0.54930700  1
  C  C24  1  0.29312300  0.51235300  0.72171100  1
  C  C25  1  0.29312300  0.48764700  0.22171100  1
  C  C26  1  0.44787000  0.12113100  0.67433300  1
  C  C27  1  0.44787000  0.87886900  0.17433300  1
  C  C28  1  0.88095100  0.37805300  0.13169000  1
  C  C29  1  0.88095100  0.62194700  0.63169000  1
  C  C30  1  0.07833600  0.57414000  0.93994100  1
  C  C31  1  0.07833600  0.42586000  0.43994100  1
  C  C32  1  0.70591500  0.40938000  0.82412200  1
  C  C33  1  0.70591500  0.59062000  0.32412200  1
  C  C34  1  0.50295800  0.54608900  0.02026000  1
  C  C35  1  0.50295800  0.45391100  0.52026000  1
