# generated using pymatgen
data_CuNiC11
_symmetry_space_group_name_H-M   'P 1'
_cell_length_a   7.30538400
_cell_length_b   6.86392300
_cell_length_c   14.36747701
_cell_angle_alpha   80.26567147
_cell_angle_beta   90.00000000
_cell_angle_gamma   90.00000000
_symmetry_Int_Tables_number   1
_chemical_formula_structural   CuNiC11
_chemical_formula_sum   'Cu4 Ni4 C44'
_cell_volume   710.06431947
_cell_formula_units_Z   4
loop_
 _symmetry_equiv_pos_site_id
 _symmetry_equiv_pos_as_xyz
  1  'x, y, z'
loop_
 _atom_site_type_symbol
 _atom_site_label
 _atom_site_symmetry_multiplicity
 _atom_site_fract_x
 _atom_site_fract_y
 _atom_site_fract_z
 _atom_site_occupancy
  C  C0  1  0.25000000  0.38719300  0.54102500  1
  C  C1  1  0.75000000  0.61280700  0.45897500  1
  C  C2  1  0.25000000  0.74431600  0.12204600  1
  C  C3  1  0.75000000  0.25568400  0.87795400  1
  C  C4  1  0.00439900  0.21022300  0.13771500  1
  C  C5  1  0.50439900  0.78977700  0.86228500  1
  C  C6  1  0.99560100  0.78977700  0.86228500  1
  C  C7  1  0.49560100  0.21022300  0.13771500  1
  C  C8  1  0.75000000  0.12983600  0.33219300  1
  C  C9  1  0.25000000  0.87016400  0.66780700  1
  Ni  Ni10  1  0.35669600  0.24690100  0.36029200  1
  Ni  Ni11  1  0.85669600  0.75309900  0.63970800  1
  Ni  Ni12  1  0.64330400  0.75309900  0.63970800  1
  Ni  Ni13  1  0.14330400  0.24690100  0.36029200  1
  Cu  Cu14  1  0.25000000  0.78942500  0.38255500  1
  Cu  Cu15  1  0.75000000  0.21057500  0.61744500  1
  Cu  Cu16  1  0.75000000  0.74726400  0.18931400  1
  Cu  Cu17  1  0.25000000  0.25273600  0.81068600  1
  C  C18  1  0.07331200  0.64881900  0.44436700  1
  C  C19  1  0.57331200  0.35118100  0.55563300  1
  C  C20  1  0.92668800  0.35118100  0.55563300  1
  C  C21  1  0.42668800  0.64881900  0.44436700  1
  C  C22  1  0.25000000  0.71316800  0.27552700  1
  C  C23  1  0.75000000  0.28683200  0.72447300  1
  C  C24  1  0.75000000  0.80059000  0.30140100  1
  C  C25  1  0.25000000  0.19941000  0.69859900  1
  C  C26  1  0.93990200  0.88471500  0.14192200  1
  C  C27  1  0.43990200  0.11528500  0.85807800  1
  C  C28  1  0.06009800  0.11528500  0.85807800  1
  C  C29  1  0.56009800  0.88471500  0.14192200  1
  C  C30  1  0.25000000  0.09352500  0.12927200  1
  C  C31  1  0.75000000  0.90647500  0.87072800  1
  C  C32  1  0.93347800  0.23841000  0.01858700  1
  C  C33  1  0.43347800  0.76159000  0.98141300  1
  C  C34  1  0.06652200  0.76159000  0.98141300  1
  C  C35  1  0.56652200  0.23841000  0.01858700  1
  C  C36  1  0.07410500  0.45314500  0.14536700  1
  C  C37  1  0.57410500  0.54685500  0.85463300  1
  C  C38  1  0.92589500  0.54685500  0.85463300  1
  C  C39  1  0.42589500  0.45314500  0.14536700  1
  C  C40  1  0.99686700  0.12311600  0.28621600  1
  C  C41  1  0.49686700  0.87688400  0.71378400  1
  C  C42  1  0.00313300  0.87688400  0.71378400  1
  C  C43  1  0.50313300  0.12311600  0.28621600  1
  C  C44  1  0.75000000  0.23065100  0.17769000  1
  C  C45  1  0.25000000  0.76934900  0.82231000  1
  C  C46  1  0.75000000  0.37027000  0.36331900  1
  C  C47  1  0.25000000  0.62973000  0.63668100  1
  C  C48  1  0.75000000  0.97226700  0.44308700  1
  C  C49  1  0.25000000  0.02773300  0.55691300  1
  C  C50  1  0.25000000  0.29822500  0.39117100  1
  C  C51  1  0.75000000  0.70177500  0.60882900  1
