# generated using pymatgen
data_Cu2Ni2C5
_symmetry_space_group_name_H-M   'P 1'
_cell_length_a   4.46162900
_cell_length_b   7.35470546
_cell_length_c   9.62748597
_cell_angle_alpha   101.79834020
_cell_angle_beta   102.99842957
_cell_angle_gamma   107.10824062
_symmetry_Int_Tables_number   1
_chemical_formula_structural   Cu2Ni2C5
_chemical_formula_sum   'Cu4 Ni4 C10'
_cell_volume   281.50280775
_cell_formula_units_Z   2
loop_
 _symmetry_equiv_pos_site_id
 _symmetry_equiv_pos_as_xyz
  1  'x, y, z'
loop_
 _atom_site_type_symbol
 _atom_site_label
 _atom_site_symmetry_multiplicity
 _atom_site_fract_x
 _atom_site_fract_y
 _atom_site_fract_z
 _atom_site_occupancy
  C  C0  1  0.43390200  0.64921100  0.21820700  1
  C  C1  1  0.54375200  0.33594800  0.78415200  1
  C  C2  1  0.22901400  0.66545400  0.40357400  1
  C  C3  1  0.86571200  0.67140900  0.40471700  1
  C  C4  1  0.78965500  0.32900300  0.60098600  1
  C  C5  1  0.15756400  0.33088000  0.60034300  1
  C  C6  1  0.55425100  0.86542800  0.32165000  1
  C  C7  1  0.36578400  0.12513900  0.67262300  1
  C  C8  1  0.00677800  0.49973300  0.50335800  1
  C  C9  1  0.13457700  0.00098200  0.00086000  1
  Ni  Ni10  1  0.31213900  0.09860900  0.25947700  1
  Ni  Ni11  1  0.93552500  0.90359200  0.74269800  1
  Ni  Ni12  1  0.97849200  0.67057800  0.99641800  1
  Ni  Ni13  1  0.32607700  0.33147800  0.00484100  1
  Cu  Cu14  1  0.53053100  0.72807300  0.32394300  1
  Cu  Cu15  1  0.47243900  0.26492100  0.67701700  1
  Cu  Cu16  1  0.06108400  0.64611400  0.45881600  1
  Cu  Cu17  1  0.95742100  0.35414700  0.54662100  1
