# generated using pymatgen
data_CuNiC5
_symmetry_space_group_name_H-M   'P 1'
_cell_length_a   3.48192400
_cell_length_b   11.98750600
_cell_length_c   12.10452300
_cell_angle_alpha   90.00000000
_cell_angle_beta   90.00000000
_cell_angle_gamma   90.00000000
_symmetry_Int_Tables_number   1
_chemical_formula_structural   CuNiC5
_chemical_formula_sum   'Cu4 Ni4 C20'
_cell_volume   505.23776472
_cell_formula_units_Z   4
loop_
 _symmetry_equiv_pos_site_id
 _symmetry_equiv_pos_as_xyz
  1  'x, y, z'
loop_
 _atom_site_type_symbol
 _atom_site_label
 _atom_site_symmetry_multiplicity
 _atom_site_fract_x
 _atom_site_fract_y
 _atom_site_fract_z
 _atom_site_occupancy
  C  C0  1  0.25000000  0.15680300  0.71213200  1
  C  C1  1  0.75000000  0.84319700  0.28786800  1
  C  C2  1  0.75000000  0.34319700  0.21213200  1
  C  C3  1  0.25000000  0.65680300  0.78786800  1
  Ni  Ni4  1  0.25000000  0.10406900  0.07606700  1
  Ni  Ni5  1  0.75000000  0.89593100  0.92393300  1
  Ni  Ni6  1  0.75000000  0.39593100  0.57606700  1
  Ni  Ni7  1  0.25000000  0.60406900  0.42393300  1
  Cu  Cu8  1  0.75000000  0.12895500  0.40977900  1
  Cu  Cu9  1  0.25000000  0.87104500  0.59022100  1
  Cu  Cu10  1  0.25000000  0.37104500  0.90977900  1
  Cu  Cu11  1  0.75000000  0.62895500  0.09022100  1
  C  C12  1  0.75000000  0.05730000  0.61873600  1
  C  C13  1  0.25000000  0.94270000  0.38126400  1
  C  C14  1  0.25000000  0.44270000  0.11873600  1
  C  C15  1  0.75000000  0.55730000  0.88126400  1
  C  C16  1  0.25000000  0.03578600  0.88266000  1
  C  C17  1  0.75000000  0.96421400  0.11734000  1
  C  C18  1  0.75000000  0.46421400  0.38266000  1
  C  C19  1  0.25000000  0.53578600  0.61734000  1
  C  C20  1  0.25000000  0.20131700  0.25310500  1
  C  C21  1  0.75000000  0.79868300  0.74689500  1
  C  C22  1  0.75000000  0.29868300  0.75310500  1
  C  C23  1  0.25000000  0.70131700  0.24689500  1
  C  C24  1  0.75000000  0.22927600  0.03696000  1
  C  C25  1  0.25000000  0.77072400  0.96304000  1
  C  C26  1  0.25000000  0.27072400  0.53696000  1
  C  C27  1  0.75000000  0.72927600  0.46304000  1
