# generated using pymatgen
data_Cu2Ni2C11
_symmetry_space_group_name_H-M   'P 1'
_cell_length_a   10.27263542
_cell_length_b   9.17235494
_cell_length_c   7.08070152
_cell_angle_alpha   77.21641950
_cell_angle_beta   60.54705377
_cell_angle_gamma   42.23652673
_symmetry_Int_Tables_number   1
_chemical_formula_structural   Cu2Ni2C11
_chemical_formula_sum   'Cu4 Ni4 C22'
_cell_volume   378.71235393
_cell_formula_units_Z   2
loop_
 _symmetry_equiv_pos_site_id
 _symmetry_equiv_pos_as_xyz
  1  'x, y, z'
loop_
 _atom_site_type_symbol
 _atom_site_label
 _atom_site_symmetry_multiplicity
 _atom_site_fract_x
 _atom_site_fract_y
 _atom_site_fract_z
 _atom_site_occupancy
  C  C0  1  0.00002200  0.49997800  0.49997800  1
  C  C1  1  0.75002200  0.24997800  0.24997800  1
  Ni  Ni2  1  0.37972900  0.87400600  0.36294900  1
  Ni  Ni3  1  0.38331600  0.36294900  0.87400600  1
  Ni  Ni4  1  0.37599400  0.87027100  0.86668400  1
  Ni  Ni5  1  0.88705100  0.86668400  0.87027100  1
  Cu  Cu6  1  0.54850400  0.03926900  0.45088100  1
  Cu  Cu7  1  0.21073100  0.70149600  0.28865500  1
  Cu  Cu8  1  0.96134500  0.45088100  0.03926900  1
  Cu  Cu9  1  0.79911900  0.28865500  0.70149600  1
  C  C10  1  0.73079600  0.57082000  0.24450400  1
  C  C11  1  0.18360700  0.66026500  0.82545500  1
  C  C12  1  0.66447700  0.31098500  0.62944500  1
  C  C13  1  0.00549600  0.79612000  0.51920400  1
  C  C14  1  0.07233600  0.22451600  0.94705700  1
  C  C15  1  0.09855300  0.42161700  0.11405000  1
  C  C16  1  0.58973500  0.06639300  0.91932700  1
  C  C17  1  0.33067300  0.82545500  0.66026500  1
  C  C18  1  0.42454500  0.91932700  0.06639300  1
  C  C19  1  0.02548400  0.17766400  0.49390900  1
  C  C20  1  0.45388000  0.24450400  0.57082000  1
  C  C21  1  0.30294300  0.49390900  0.17766400  1
  C  C22  1  0.75609100  0.94705700  0.22451600  1
  C  C23  1  0.82838300  0.15144700  0.88422000  1
  C  C24  1  0.36578000  0.11405000  0.42161700  1
  C  C25  1  0.13595000  0.88422000  0.15144700  1
  C  C26  1  0.62055500  0.85490800  0.58552300  1
  C  C27  1  0.39509200  0.62944500  0.31098500  1
  C  C28  1  0.67918000  0.51920400  0.79612000  1
  C  C29  1  0.93901500  0.58552300  0.85490800  1
