# generated using pymatgen
data_CuNiC8
_symmetry_space_group_name_H-M   'P 1'
_cell_length_a   5.83495678
_cell_length_b   8.37512565
_cell_length_c   5.83619687
_cell_angle_alpha   89.99520769
_cell_angle_beta   91.73558825
_cell_angle_gamma   89.99480548
_symmetry_Int_Tables_number   1
_chemical_formula_structural   CuNiC8
_chemical_formula_sum   'Cu2 Ni2 C16'
_cell_volume   285.07532119
_cell_formula_units_Z   2
loop_
 _symmetry_equiv_pos_site_id
 _symmetry_equiv_pos_as_xyz
  1  'x, y, z'
loop_
 _atom_site_type_symbol
 _atom_site_label
 _atom_site_symmetry_multiplicity
 _atom_site_fract_x
 _atom_site_fract_y
 _atom_site_fract_z
 _atom_site_occupancy
  C  C0  1  0.00004100  0.24995800  0.49999900  1
  C  C1  1  0.50000200  0.74996400  0.99995900  1
  C  C2  1  0.49999900  0.25003800  0.00004000  1
  C  C3  1  0.99995800  0.75004100  0.50000100  1
  Ni  Ni4  1  0.49999800  0.00000000  0.49999800  1
  Ni  Ni5  1  0.00000300  0.49999400  0.00000700  1
  Cu  Cu6  1  0.99999700  0.00000100  0.00000200  1
  Cu  Cu7  1  0.49999900  0.50000200  0.49999900  1
  C  C8  1  0.26598900  0.50000600  0.73382000  1
  C  C9  1  0.76613900  0.00000500  0.23390500  1
  C  C10  1  0.24219000  0.99996200  0.24229600  1
  C  C11  1  0.74238700  0.50000000  0.74215400  1
  C  C12  1  0.25760900  0.50000300  0.25784400  1
  C  C13  1  0.75781200  0.00003800  0.75770700  1
  C  C14  1  0.23386200  0.99999500  0.76608800  1
  C  C15  1  0.73401300  0.49999700  0.26617700  1
  C  C16  1  0.00000700  0.23398300  0.00000100  1
  C  C17  1  0.49996900  0.73392500  0.49995600  1
  C  C18  1  0.99999100  0.76601600  0.00000300  1
  C  C19  1  0.50003500  0.26607400  0.50004400  1
