# generated using pymatgen
data_Cu2NiC10
_symmetry_space_group_name_H-M   'P 1'
_cell_length_a   5.71834000
_cell_length_b   6.92596446
_cell_length_c   10.37044317
_cell_angle_alpha   108.58881212
_cell_angle_beta   100.53043311
_cell_angle_gamma   96.70861795
_symmetry_Int_Tables_number   1
_chemical_formula_structural   Cu2NiC10
_chemical_formula_sum   'Cu4 Ni2 C20'
_cell_volume   375.92227409
_cell_formula_units_Z   2
loop_
 _symmetry_equiv_pos_site_id
 _symmetry_equiv_pos_as_xyz
  1  'x, y, z'
loop_
 _atom_site_type_symbol
 _atom_site_label
 _atom_site_symmetry_multiplicity
 _atom_site_fract_x
 _atom_site_fract_y
 _atom_site_fract_z
 _atom_site_occupancy
  C  C0  1  0.26383700  0.74343100  0.04525200  1
  C  C1  1  0.73616300  0.25656900  0.95474800  1
  C  C2  1  0.03486100  0.75541000  0.66636900  1
  C  C3  1  0.96513900  0.24459000  0.33363100  1
  Ni  Ni4  1  0.63416400  0.24498100  0.59127200  1
  Ni  Ni5  1  0.36583600  0.75501900  0.40872800  1
  Cu  Cu6  1  0.35676300  0.19488100  0.20341100  1
  Cu  Cu7  1  0.64323700  0.80511900  0.79658900  1
  Cu  Cu8  1  0.81673100  0.75213200  0.27417900  1
  Cu  Cu9  1  0.18326900  0.24786800  0.72582100  1
  C  C10  1  0.86187700  0.66391200  0.88254700  1
  C  C11  1  0.59697500  0.28877800  0.16382700  1
  C  C12  1  0.69315400  0.02456100  0.81090000  1
  C  C13  1  0.97765600  0.40047300  0.70214800  1
  C  C14  1  0.40302500  0.71122200  0.83617300  1
  C  C15  1  0.08849300  0.13209900  0.61455700  1
  C  C16  1  0.91150700  0.86790100  0.38544300  1
  C  C17  1  0.23912800  0.10365500  0.87723700  1
  C  C18  1  0.30684600  0.97543900  0.18910000  1
  C  C19  1  0.76087200  0.89634500  0.12276300  1
  C  C20  1  0.13812300  0.33608800  0.11745300  1
  C  C21  1  0.36565700  0.15545900  0.36093600  1
  C  C22  1  0.63434300  0.84454100  0.63906400  1
  C  C23  1  0.58500300  0.61927800  0.30579800  1
  C  C24  1  0.02234400  0.59952700  0.29785200  1
  C  C25  1  0.41499700  0.38072200  0.69420200  1
