# generated using pymatgen
data_Cu2Ni6C
_symmetry_space_group_name_H-M   'P 1'
_cell_length_a   9.55921900
_cell_length_b   9.55921900
_cell_length_c   5.37536000
_cell_angle_alpha   90.00000000
_cell_angle_beta   90.00000000
_cell_angle_gamma   135.99140811
_symmetry_Int_Tables_number   1
_chemical_formula_structural   Cu2Ni6C
_chemical_formula_sum   'Cu2 Ni6 C1'
_cell_volume   341.26447414
_cell_formula_units_Z   1
loop_
 _symmetry_equiv_pos_site_id
 _symmetry_equiv_pos_as_xyz
  1  'x, y, z'
loop_
 _atom_site_type_symbol
 _atom_site_label
 _atom_site_symmetry_multiplicity
 _atom_site_fract_x
 _atom_site_fract_y
 _atom_site_fract_z
 _atom_site_occupancy
  C  C0  1  0.00000000  0.00000000  0.00000000  1
  Ni  Ni1  1  0.82282700  0.17717300  0.00000000  1
  Ni  Ni2  1  0.30624600  0.10829400  0.00000000  1
  Ni  Ni3  1  0.89170600  0.69375400  0.00000000  1
  Ni  Ni4  1  0.17717300  0.82282700  0.00000000  1
  Ni  Ni5  1  0.69375400  0.89170600  0.00000000  1
  Ni  Ni6  1  0.10829400  0.30624600  0.00000000  1
  Cu  Cu7  1  0.66559200  0.33440800  0.50000000  1
  Cu  Cu8  1  0.33440800  0.66559200  0.50000000  1
