# generated using pymatgen
data_Cu2Ni2C13
_symmetry_space_group_name_H-M   'P 1'
_cell_length_a   21.92170000
_cell_length_b   9.62812500
_cell_length_c   14.76235318
_cell_angle_alpha   49.51438423
_cell_angle_beta   90.00000000
_cell_angle_gamma   90.00000000
_symmetry_Int_Tables_number   1
_chemical_formula_structural   Cu2Ni2C13
_chemical_formula_sum   'Cu16 Ni16 C104'
_cell_volume   2369.79159005
_cell_formula_units_Z   8
loop_
 _symmetry_equiv_pos_site_id
 _symmetry_equiv_pos_as_xyz
  1  'x, y, z'
loop_
 _atom_site_type_symbol
 _atom_site_label
 _atom_site_symmetry_multiplicity
 _atom_site_fract_x
 _atom_site_fract_y
 _atom_site_fract_z
 _atom_site_occupancy
  C  C0  1  0.75135600  0.09741300  0.88844500  1
  C  C1  1  0.74864400  0.09741300  0.38844500  1
  C  C2  1  0.24864400  0.90258700  0.11155500  1
  C  C3  1  0.25135600  0.90258700  0.61155500  1
  C  C4  1  0.75013000  0.59858700  0.38714500  1
  C  C5  1  0.74987000  0.59858700  0.88714500  1
  C  C6  1  0.24987000  0.40141300  0.61285500  1
  C  C7  1  0.25013000  0.40141300  0.11285500  1
  Ni  Ni8  1  0.58326900  0.58070000  0.24870000  1
  Ni  Ni9  1  0.91673100  0.58070000  0.74870000  1
  Ni  Ni10  1  0.41673100  0.41930000  0.75130000  1
  Ni  Ni11  1  0.08326900  0.41930000  0.25130000  1
  Ni  Ni12  1  0.91606600  0.89178100  0.25310600  1
  Ni  Ni13  1  0.58393400  0.89178100  0.75310600  1
  Ni  Ni14  1  0.08393400  0.10821900  0.74689400  1
  Ni  Ni15  1  0.41606600  0.10821900  0.24689400  1
  Ni  Ni16  1  0.91498300  0.29683500  0.52635200  1
  Ni  Ni17  1  0.58501700  0.29683500  0.02635200  1
  Ni  Ni18  1  0.08501700  0.70316500  0.47364800  1
  Ni  Ni19  1  0.41498300  0.70316500  0.97364800  1
  Ni  Ni20  1  0.58524500  0.61045100  0.53432800  1
  Ni  Ni21  1  0.91475500  0.61045100  0.03432800  1
  Ni  Ni22  1  0.41475500  0.38954900  0.46567200  1
  Ni  Ni23  1  0.08524500  0.38954900  0.96567200  1
  Cu  Cu24  1  0.66737000  0.54730200  0.57763500  1
  Cu  Cu25  1  0.83263000  0.54730200  0.07763500  1
  Cu  Cu26  1  0.33263000  0.45269800  0.42236500  1
  Cu  Cu27  1  0.16737000  0.45269800  0.92236500  1
  Cu  Cu28  1  0.83527000  0.92367800  0.20033500  1
  Cu  Cu29  1  0.66473000  0.92367800  0.70033500  1
  Cu  Cu30  1  0.16473000  0.07632200  0.79966500  1
  Cu  Cu31  1  0.33527000  0.07632200  0.29966500  1
  Cu  Cu32  1  0.66468200  0.64935000  0.19929200  1
  Cu  Cu33  1  0.83531800  0.64935000  0.69929200  1
  Cu  Cu34  1  0.33531800  0.35065000  0.80070800  1
  Cu  Cu35  1  0.16468200  0.35065000  0.30070800  1
  Cu  Cu36  1  0.83376300  0.27043800  0.57526100  1
  Cu  Cu37  1  0.66623700  0.27043800  0.07526100  1
  Cu  Cu38  1  0.16623700  0.72956200  0.42473900  1
  Cu  Cu39  1  0.33376300  0.72956200  0.92473900  1
  C  C40  1  0.81583800  0.72713300  0.25678200  1
  C  C41  1  0.68416200  0.72713300  0.75678200  1
  C  C42  1  0.18416200  0.27286700  0.74321800  1
  C  C43  1  0.31583800  0.27286700  0.24321800  1
  C  C44  1  0.81592200  0.46860000  0.51729300  1
  C  C45  1  0.68407800  0.46860000  0.01729300  1
  C  C46  1  0.18407800  0.53140000  0.48270700  1
  C  C47  1  0.31592200  0.53140000  0.98270700  1
  C  C48  1  0.68405200  0.73072400  0.25752400  1
  C  C49  1  0.81594800  0.73072400  0.75752400  1
  C  C50  1  0.31594800  0.26927600  0.74247600  1
  C  C51  1  0.18405200  0.26927600  0.24247600  1
  C  C52  1  0.68473800  0.46678500  0.51805400  1
  C  C53  1  0.81526200  0.46678500  0.01805400  1
  C  C54  1  0.31526200  0.53321500  0.48194600  1
  C  C55  1  0.18473800  0.53321500  0.98194600  1
  C  C56  1  0.83979700  0.03261800  0.07328200  1
  C  C57  1  0.66020300  0.03261800  0.57328200  1
  C  C58  1  0.16020300  0.96738200  0.92671800  1
  C  C59  1  0.33979700  0.96738200  0.42671800  1
  C  C60  1  0.66146100  0.79476900  0.07216500  1
  C  C61  1  0.83853900  0.79476900  0.57216500  1
  C  C62  1  0.33853900  0.20523100  0.92783500  1
  C  C63  1  0.16146100  0.20523100  0.42783500  1
  C  C64  1  0.83714000  0.16185900  0.70249300  1
  C  C65  1  0.66286000  0.16185900  0.20249300  1
  C  C66  1  0.16286000  0.83814100  0.29750700  1
  C  C67  1  0.33714000  0.83814100  0.79750700  1
  C  C68  1  0.66616800  0.40243000  0.70496500  1
  C  C69  1  0.83383200  0.40243000  0.20496500  1
  C  C70  1  0.33383200  0.59757000  0.29503500  1
  C  C71  1  0.16616800  0.59757000  0.79503500  1
  C  C72  1  0.80068900  0.20665400  0.52412900  1
  C  C73  1  0.69931100  0.20665400  0.02412900  1
  C  C74  1  0.19931100  0.79334600  0.47587100  1
  C  C75  1  0.30068900  0.79334600  0.97587100  1
  C  C76  1  0.69910200  0.71564600  0.52457300  1
  C  C77  1  0.80089800  0.71564600  0.02457300  1
  C  C78  1  0.30089800  0.28435400  0.47542700  1
  C  C79  1  0.19910200  0.28435400  0.97542700  1
  C  C80  1  0.80227800  0.98907800  0.25063000  1
  C  C81  1  0.69772200  0.98907800  0.75063000  1
  C  C82  1  0.19772200  0.01092200  0.74937000  1
  C  C83  1  0.30227800  0.01092200  0.24937000  1
  C  C84  1  0.69666900  0.48220400  0.25014900  1
  C  C85  1  0.80333100  0.48220400  0.75014900  1
  C  C86  1  0.30333100  0.51779600  0.74985100  1
  C  C87  1  0.19666900  0.51779600  0.24985100  1
  C  C88  1  0.58079500  0.45126900  0.36837400  1
  C  C89  1  0.91920500  0.45126900  0.86837400  1
  C  C90  1  0.41920500  0.54873100  0.63162600  1
  C  C91  1  0.08079500  0.54873100  0.13162600  1
  C  C92  1  0.91798000  0.40686800  0.40672200  1
  C  C93  1  0.58202000  0.40686800  0.90672200  1
  C  C94  1  0.08202000  0.59313200  0.59327800  1
  C  C95  1  0.41798000  0.59313200  0.09327800  1
  C  C96  1  0.91704300  0.78256400  0.37284400  1
  C  C97  1  0.58295700  0.78256400  0.87284400  1
  C  C98  1  0.08295700  0.21743600  0.62715600  1
  C  C99  1  0.41704300  0.21743600  0.12715600  1
  C  C100  1  0.57983700  0.73690800  0.41498500  1
  C  C101  1  0.92016300  0.73690800  0.91498500  1
  C  C102  1  0.42016300  0.26309200  0.58501500  1
  C  C103  1  0.07983700  0.26309200  0.08501500  1
  C  C104  1  0.56086800  0.51138700  0.20009700  1
  C  C105  1  0.93913200  0.51138700  0.70009700  1
  C  C106  1  0.43913200  0.48861300  0.79990300  1
  C  C107  1  0.06086800  0.48861300  0.29990300  1
  C  C108  1  0.93877800  0.05702700  0.20568300  1
  C  C109  1  0.56122200  0.05702700  0.70568300  1
  C  C110  1  0.06122200  0.94297300  0.79431700  1
  C  C111  1  0.43877800  0.94297300  0.29431700  1
  C  C112  1  0.93663400  0.13020200  0.57457900  1
  C  C113  1  0.56336600  0.13020200  0.07457900  1
  C  C114  1  0.06336600  0.86979800  0.42542100  1
  C  C115  1  0.43663400  0.86979800  0.92542100  1
  C  C116  1  0.56397600  0.68037200  0.58324800  1
  C  C117  1  0.93602400  0.68037200  0.08324800  1
  C  C118  1  0.43602400  0.31962800  0.41675200  1
  C  C119  1  0.06397600  0.31962800  0.91675200  1
  C  C120  1  0.95041300  0.81835100  0.21799300  1
  C  C121  1  0.54958700  0.81835100  0.71799300  1
  C  C122  1  0.04958700  0.18164900  0.78200700  1
  C  C123  1  0.45041300  0.18164900  0.28200700  1
  C  C124  1  0.54959700  0.72594400  0.21210500  1
  C  C125  1  0.95040300  0.72594400  0.71210500  1
  C  C126  1  0.45040300  0.27405600  0.78789500  1
  C  C127  1  0.04959700  0.27405600  0.28789500  1
  C  C128  1  0.55267200  0.46092700  0.57583300  1
  C  C129  1  0.94732800  0.46092700  0.07583300  1
  C  C130  1  0.44732800  0.53907300  0.42416700  1
  C  C131  1  0.05267200  0.53907300  0.92416700  1
  C  C132  1  0.94893300  0.36689500  0.56425500  1
  C  C133  1  0.55106700  0.36689500  0.06425500  1
  C  C134  1  0.05106700  0.63310500  0.43574500  1
  C  C135  1  0.44893300  0.63310500  0.93574500  1
