# generated using pymatgen
data_Cu(NiC6)2
_symmetry_space_group_name_H-M   'P 1'
_cell_length_a   11.86375459
_cell_length_b   11.86375459
_cell_length_c   5.27469100
_cell_angle_alpha   90.00000000
_cell_angle_beta   90.00000000
_cell_angle_gamma   109.91063295
_symmetry_Int_Tables_number   1
_chemical_formula_structural   Cu(NiC6)2
_chemical_formula_sum   'Cu4 Ni8 C48'
_cell_volume   698.02841180
_cell_formula_units_Z   4
loop_
 _symmetry_equiv_pos_site_id
 _symmetry_equiv_pos_as_xyz
  1  'x, y, z'
loop_
 _atom_site_type_symbol
 _atom_site_label
 _atom_site_symmetry_multiplicity
 _atom_site_fract_x
 _atom_site_fract_y
 _atom_site_fract_z
 _atom_site_occupancy
  Ni  Ni0  1  0.19049600  0.19049600  0.00000000  1
  Ni  Ni1  1  0.30950400  0.30950400  0.50000000  1
  Ni  Ni2  1  0.69049600  0.69049600  0.50000000  1
  Ni  Ni3  1  0.80950400  0.80950400  0.00000000  1
  Ni  Ni4  1  0.78839200  0.21160800  0.50000000  1
  Ni  Ni5  1  0.28839200  0.71160800  0.00000000  1
  Ni  Ni6  1  0.71160800  0.28839200  0.00000000  1
  Ni  Ni7  1  0.21160800  0.78839200  0.50000000  1
  Cu  Cu8  1  0.86948600  0.13051400  0.00000000  1
  Cu  Cu9  1  0.36948600  0.63051400  0.50000000  1
  Cu  Cu10  1  0.63051400  0.36948600  0.50000000  1
  Cu  Cu11  1  0.13051400  0.86948600  0.00000000  1
  C  C12  1  0.06315800  0.33506600  0.33364600  1
  C  C13  1  0.16493400  0.43684200  0.83364600  1
  C  C14  1  0.83506600  0.56315800  0.83364600  1
  C  C15  1  0.93684200  0.66493400  0.33364600  1
  C  C16  1  0.43684200  0.16493400  0.16635400  1
  C  C17  1  0.33506600  0.06315800  0.66635400  1
  C  C18  1  0.66493400  0.93684200  0.66635400  1
  C  C19  1  0.56315800  0.83506600  0.16635400  1
  C  C20  1  0.02398600  0.14950900  0.89810200  1
  C  C21  1  0.35049100  0.47601400  0.39810200  1
  C  C22  1  0.64950900  0.52398600  0.39810200  1
  C  C23  1  0.97601400  0.85049100  0.89810200  1
  C  C24  1  0.47601400  0.35049100  0.60189800  1
  C  C25  1  0.14950900  0.02398600  0.10189800  1
  C  C26  1  0.85049100  0.97601400  0.10189800  1
  C  C27  1  0.52398600  0.64950900  0.60189800  1
  C  C28  1  0.16311700  0.26830700  0.31442200  1
  C  C29  1  0.23169300  0.33688300  0.81442200  1
  C  C30  1  0.76830700  0.66311700  0.81442200  1
  C  C31  1  0.83688300  0.73169300  0.31442200  1
  C  C32  1  0.33688300  0.23169300  0.18557800  1
  C  C33  1  0.26830700  0.16311700  0.68557800  1
  C  C34  1  0.73169300  0.83688300  0.68557800  1
  C  C35  1  0.66311700  0.76830700  0.18557800  1
  C  C36  1  0.08010000  0.41954800  0.08258500  1
  C  C37  1  0.08045200  0.41990000  0.58258500  1
  C  C38  1  0.91954800  0.58010000  0.58258500  1
  C  C39  1  0.91990000  0.58045200  0.08258500  1
  C  C40  1  0.41990000  0.08045200  0.41741500  1
  C  C41  1  0.41954800  0.08010000  0.91741500  1
  C  C42  1  0.58045200  0.91990000  0.91741500  1
  C  C43  1  0.58010000  0.91954800  0.41741500  1
  C  C44  1  0.93110100  0.23166500  0.33866800  1
  C  C45  1  0.26833500  0.56889900  0.83866800  1
  C  C46  1  0.73166500  0.43110100  0.83866800  1
  C  C47  1  0.06889900  0.76833500  0.33866800  1
  C  C48  1  0.56889900  0.26833500  0.16133200  1
  C  C49  1  0.23166500  0.93110100  0.66133200  1
  C  C50  1  0.76833500  0.06889900  0.66133200  1
  C  C51  1  0.43110100  0.73166500  0.16133200  1
  C  C52  1  0.85097600  0.27307600  0.83036800  1
  C  C53  1  0.22692400  0.64902400  0.33036800  1
  C  C54  1  0.77307600  0.35097600  0.33036800  1
  C  C55  1  0.14902400  0.72692400  0.83036800  1
  C  C56  1  0.64902400  0.22692400  0.66963200  1
  C  C57  1  0.27307600  0.85097600  0.16963200  1
  C  C58  1  0.72692400  0.14902400  0.16963200  1
  C  C59  1  0.35097600  0.77307600  0.66963200  1
