# generated using pymatgen
data_Cu13Ni2C
_symmetry_space_group_name_H-M   'P 1'
_cell_length_a   18.94472500
_cell_length_b   5.79154000
_cell_length_c   10.48497543
_cell_angle_alpha   86.34029495
_cell_angle_beta   90.00000000
_cell_angle_gamma   90.00000000
_symmetry_Int_Tables_number   1
_chemical_formula_structural   Cu13Ni2C
_chemical_formula_sum   'Cu52 Ni8 C4'
_cell_volume   1148.05645784
_cell_formula_units_Z   4
loop_
 _symmetry_equiv_pos_site_id
 _symmetry_equiv_pos_as_xyz
  1  'x, y, z'
loop_
 _atom_site_type_symbol
 _atom_site_label
 _atom_site_symmetry_multiplicity
 _atom_site_fract_x
 _atom_site_fract_y
 _atom_site_fract_z
 _atom_site_occupancy
  C  C0  1  0.13942000  0.51058300  0.82357400  1
  C  C1  1  0.63942000  0.48941700  0.67642600  1
  C  C2  1  0.86058000  0.48941700  0.17642600  1
  C  C3  1  0.36058000  0.51058300  0.32357400  1
  Ni  Ni4  1  0.96544700  0.24070900  0.77295200  1
  Ni  Ni5  1  0.46544700  0.75929100  0.72704800  1
  Ni  Ni6  1  0.03455300  0.75929100  0.22704800  1
  Ni  Ni7  1  0.53455300  0.24070900  0.27295200  1
  Ni  Ni8  1  0.31362500  0.25119000  0.88962800  1
  Ni  Ni9  1  0.81362500  0.74881000  0.61037200  1
  Ni  Ni10  1  0.68637500  0.74881000  0.11037200  1
  Ni  Ni11  1  0.18637500  0.25119000  0.38962800  1
  Cu  Cu12  1  0.15190900  0.26672200  0.72061500  1
  Cu  Cu13  1  0.65190900  0.73327800  0.77938500  1
  Cu  Cu14  1  0.84809100  0.73327800  0.27938500  1
  Cu  Cu15  1  0.34809100  0.26672200  0.22061500  1
  Cu  Cu16  1  0.13184100  0.79549000  0.89427800  1
  Cu  Cu17  1  0.63184100  0.20451000  0.60572200  1
  Cu  Cu18  1  0.86815900  0.20451000  0.10572200  1
  Cu  Cu19  1  0.36815900  0.79549000  0.39427800  1
  Cu  Cu20  1  0.26218400  0.44336400  0.90494000  1
  Cu  Cu21  1  0.76218400  0.55663600  0.59506000  1
  Cu  Cu22  1  0.73781600  0.55663600  0.09506000  1
  Cu  Cu23  1  0.23781600  0.44336400  0.40494000  1
  Cu  Cu24  1  0.12341200  0.32850600  0.97636600  1
  Cu  Cu25  1  0.62341200  0.67149400  0.52363400  1
  Cu  Cu26  1  0.87658800  0.67149400  0.02363400  1
  Cu  Cu27  1  0.37658800  0.32850600  0.47636600  1
  Cu  Cu28  1  0.00958500  0.43667100  0.81424800  1
  Cu  Cu29  1  0.50958500  0.56332900  0.68575200  1
  Cu  Cu30  1  0.99041500  0.56332900  0.18575200  1
  Cu  Cu31  1  0.49041500  0.43667100  0.31424800  1
  Cu  Cu32  1  0.21314600  0.71204100  0.69177000  1
  Cu  Cu33  1  0.71314600  0.28795900  0.80823000  1
  Cu  Cu34  1  0.78685400  0.28795900  0.30823000  1
  Cu  Cu35  1  0.28685400  0.71204100  0.19177000  1
  Cu  Cu36  1  0.10276800  0.71125000  0.64901300  1
  Cu  Cu37  1  0.60276800  0.28875000  0.85098700  1
  Cu  Cu38  1  0.89723200  0.28875000  0.35098700  1
  Cu  Cu39  1  0.39723200  0.71125000  0.14901300  1
  Cu  Cu40  1  0.31970000  0.20757200  0.75499700  1
  Cu  Cu41  1  0.81970000  0.79242800  0.74500300  1
  Cu  Cu42  1  0.68030000  0.79242800  0.24500300  1
  Cu  Cu43  1  0.18030000  0.20757200  0.25499700  1
  Cu  Cu44  1  0.38033400  0.32156600  0.94021300  1
  Cu  Cu45  1  0.88033400  0.67843400  0.55978700  1
  Cu  Cu46  1  0.61966600  0.67843400  0.05978700  1
  Cu  Cu47  1  0.11966600  0.32156600  0.44021300  1
  Cu  Cu48  1  0.89273000  0.30037100  0.79263000  1
  Cu  Cu49  1  0.39273000  0.69962900  0.70737000  1
  Cu  Cu50  1  0.10727000  0.69962900  0.20737000  1
  Cu  Cu51  1  0.60727000  0.30037100  0.29263000  1
  Cu  Cu52  1  0.28718000  0.04150500  0.95694800  1
  Cu  Cu53  1  0.78718000  0.95849500  0.54305200  1
  Cu  Cu54  1  0.71282000  0.95849500  0.04305200  1
  Cu  Cu55  1  0.21282000  0.04150500  0.45694800  1
  Cu  Cu56  1  0.98078100  0.20441000  0.64004300  1
  Cu  Cu57  1  0.48078100  0.79559000  0.85995700  1
  Cu  Cu58  1  0.01921900  0.79559000  0.35995700  1
  Cu  Cu59  1  0.51921900  0.20441000  0.14004300  1
  Cu  Cu60  1  0.98482400  0.02935400  0.84819500  1
  Cu  Cu61  1  0.48482400  0.97064600  0.65180500  1
  Cu  Cu62  1  0.01517600  0.97064600  0.15180500  1
  Cu  Cu63  1  0.51517600  0.02935400  0.34819500  1
