# generated using pymatgen
data_CuNi2C7
_symmetry_space_group_name_H-M   'P 1'
_cell_length_a   6.29810408
_cell_length_b   6.29810408
_cell_length_c   6.35550392
_cell_angle_alpha   60.09793114
_cell_angle_beta   60.09793114
_cell_angle_gamma   59.80930497
_symmetry_Int_Tables_number   1
_chemical_formula_structural   CuNi2C7
_chemical_formula_sum   'Cu1 Ni2 C7'
_cell_volume   178.26426232
_cell_formula_units_Z   1
loop_
 _symmetry_equiv_pos_site_id
 _symmetry_equiv_pos_as_xyz
  1  'x, y, z'
loop_
 _atom_site_type_symbol
 _atom_site_label
 _atom_site_symmetry_multiplicity
 _atom_site_fract_x
 _atom_site_fract_y
 _atom_site_fract_z
 _atom_site_occupancy
  Ni  Ni0  1  0.75150300  0.75150300  0.23980500  1
  Ni  Ni1  1  0.24849700  0.24849700  0.76019500  1
  Cu  Cu2  1  0.00000000  0.00000000  0.50000000  1
  C  C3  1  0.50000000  0.50000000  0.00000000  1
  C  C4  1  0.78600000  0.30023500  0.19699100  1
  C  C5  1  0.69976500  0.21400000  0.80300900  1
  C  C6  1  0.21400000  0.69976500  0.80300900  1
  C  C7  1  0.30023500  0.78600000  0.19699100  1
  C  C8  1  0.25916200  0.25916200  0.31653000  1
  C  C9  1  0.74083800  0.74083800  0.68347000  1
