# generated using pymatgen
data_Cu10NiC20
_symmetry_space_group_name_H-M   'P 1'
_cell_length_a   4.94567566
_cell_length_b   12.92353064
_cell_length_c   5.59821104
_cell_angle_alpha   104.56806942
_cell_angle_beta   91.55119153
_cell_angle_gamma   88.87736572
_symmetry_Int_Tables_number   1
_chemical_formula_structural   Cu10NiC20
_chemical_formula_sum   'Cu10 Ni1 C20'
_cell_volume   346.15197055
_cell_formula_units_Z   1
loop_
 _symmetry_equiv_pos_site_id
 _symmetry_equiv_pos_as_xyz
  1  'x, y, z'
loop_
 _atom_site_type_symbol
 _atom_site_label
 _atom_site_symmetry_multiplicity
 _atom_site_fract_x
 _atom_site_fract_y
 _atom_site_fract_z
 _atom_site_occupancy
  Ni  Ni0  1  0.49627900  0.30460000  0.59581200  1
  Cu  Cu1  1  0.50492500  0.99590300  0.51052700  1
  Cu  Cu2  1  0.51391400  0.42887000  0.24075900  1
  Cu  Cu3  1  0.42058500  0.19161700  0.94022900  1
  Cu  Cu4  1  0.52373600  0.60829000  0.68114100  1
  Cu  Cu5  1  0.53060200  0.80427300  0.09976600  1
  Cu  Cu6  1  0.98794800  0.40258400  0.77743400  1
  Cu  Cu7  1  0.00422700  0.80467600  0.62022700  1
  Cu  Cu8  1  0.00888800  0.18847400  0.42808300  1
  Cu  Cu9  1  0.98650100  0.60566300  0.20837400  1
  Cu  Cu10  1  0.02083000  0.99122400  0.02906600  1
  C  C11  1  0.83320200  0.25406900  0.72106400  1
  C  C12  1  0.83027000  0.86546000  0.94118600  1
  C  C13  1  0.83163300  0.66540800  0.52767900  1
  C  C14  1  0.83073800  0.05606700  0.34222400  1
  C  C15  1  0.83187400  0.46423800  0.10003600  1
  C  C16  1  0.65363400  0.45305100  0.59779100  1
  C  C17  1  0.68601500  0.66363800  0.01824000  1
  C  C18  1  0.69267600  0.85697300  0.42754800  1
  C  C19  1  0.33628700  0.34143800  0.94240100  1
  C  C20  1  0.33218000  0.74663200  0.78987800  1
  C  C21  1  0.34577400  0.14552300  0.58873900  1
  C  C22  1  0.33368500  0.93549600  0.19198400  1
  C  C23  1  0.31597700  0.55663400  0.37012500  1
  C  C24  1  0.15141100  0.13530100  0.10235800  1
  C  C25  1  0.17792700  0.94651800  0.70799000  1
  C  C26  1  0.14404400  0.32839800  0.45397600  1
  C  C27  1  0.66630400  0.06099000  0.85734100  1
  C  C28  1  0.64159600  0.25904300  0.24557200  1
  C  C29  1  0.18178300  0.54585000  0.86430100  1
  C  C30  1  0.18455800  0.74726800  0.28052900  1
