# generated using pymatgen
data_Cu2NiC4
_symmetry_space_group_name_H-M   'P 1'
_cell_length_a   2.82956400
_cell_length_b   8.69342700
_cell_length_c   10.01413300
_cell_angle_alpha   90.00000000
_cell_angle_beta   90.00000000
_cell_angle_gamma   90.00000000
_symmetry_Int_Tables_number   1
_chemical_formula_structural   Cu2NiC4
_chemical_formula_sum   'Cu8 Ni4 C16'
_cell_volume   246.33373289
_cell_formula_units_Z   4
loop_
 _symmetry_equiv_pos_site_id
 _symmetry_equiv_pos_as_xyz
  1  'x, y, z'
loop_
 _atom_site_type_symbol
 _atom_site_label
 _atom_site_symmetry_multiplicity
 _atom_site_fract_x
 _atom_site_fract_y
 _atom_site_fract_z
 _atom_site_occupancy
  Ni  Ni0  1  0.25000000  0.25909200  0.66175200  1
  Ni  Ni1  1  0.75000000  0.74090800  0.33824800  1
  Ni  Ni2  1  0.25000000  0.75909200  0.83824800  1
  Ni  Ni3  1  0.75000000  0.24090800  0.16175200  1
  Cu  Cu4  1  0.25000000  0.44905400  0.88252700  1
  Cu  Cu5  1  0.75000000  0.55094600  0.11747300  1
  Cu  Cu6  1  0.25000000  0.94905400  0.61747300  1
  Cu  Cu7  1  0.75000000  0.05094600  0.38252700  1
  Cu  Cu8  1  0.25000000  0.40709300  0.40330600  1
  Cu  Cu9  1  0.75000000  0.59290700  0.59669400  1
  Cu  Cu10  1  0.25000000  0.90709300  0.09669400  1
  Cu  Cu11  1  0.75000000  0.09290700  0.90330600  1
  C  C12  1  0.25000000  0.19366500  0.32868600  1
  C  C13  1  0.75000000  0.80633500  0.67131400  1
  C  C14  1  0.25000000  0.69366500  0.17131400  1
  C  C15  1  0.75000000  0.30633500  0.82868600  1
  C  C16  1  0.25000000  0.11691900  0.03851800  1
  C  C17  1  0.75000000  0.88308100  0.96148200  1
  C  C18  1  0.25000000  0.61691900  0.46148200  1
  C  C19  1  0.75000000  0.38308100  0.53851800  1
  C  C20  1  0.25000000  0.05523900  0.78417600  1
  C  C21  1  0.75000000  0.94476100  0.21582400  1
  C  C22  1  0.25000000  0.55523900  0.71582400  1
  C  C23  1  0.75000000  0.44476100  0.28417600  1
  C  C24  1  0.25000000  0.40811100  0.07052000  1
  C  C25  1  0.75000000  0.59188900  0.92948000  1
  C  C26  1  0.25000000  0.90811100  0.42948000  1
  C  C27  1  0.75000000  0.09188900  0.57052000  1
