# generated using pymatgen
data_CuNiC5
_symmetry_space_group_name_H-M   'P 1'
_cell_length_a   5.95498600
_cell_length_b   6.90978665
_cell_length_c   13.36666032
_cell_angle_alpha   89.68520588
_cell_angle_beta   89.80957754
_cell_angle_gamma   89.94106892
_symmetry_Int_Tables_number   1
_chemical_formula_structural   CuNiC5
_chemical_formula_sum   'Cu4 Ni4 C20'
_cell_volume   549.99547915
_cell_formula_units_Z   4
loop_
 _symmetry_equiv_pos_site_id
 _symmetry_equiv_pos_as_xyz
  1  'x, y, z'
loop_
 _atom_site_type_symbol
 _atom_site_label
 _atom_site_symmetry_multiplicity
 _atom_site_fract_x
 _atom_site_fract_y
 _atom_site_fract_z
 _atom_site_occupancy
  Ni  Ni0  1  0.00586100  0.48259900  0.75068900  1
  Ni  Ni1  1  0.50690500  0.77107300  0.75087900  1
  Ni  Ni2  1  0.50061900  0.24733500  0.24944300  1
  Ni  Ni3  1  0.50028700  0.74719800  0.24997700  1
  Cu  Cu4  1  0.99871800  0.99527400  0.75107800  1
  Cu  Cu5  1  0.99985400  0.00068700  0.24918700  1
  Cu  Cu6  1  0.99951500  0.50071700  0.25082300  1
  Cu  Cu7  1  0.49858000  0.25233300  0.74913800  1
  C  C8  1  0.34930000  0.99884400  0.00195800  1
  C  C9  1  0.64458000  0.49702400  0.49924200  1
  C  C10  1  0.02675100  0.00060300  0.49943200  1
  C  C11  1  0.96859300  0.49833200  0.99760100  1
  C  C12  1  0.83794200  0.75015900  0.64517100  1
  C  C13  1  0.83662500  0.25302600  0.35476800  1
  C  C14  1  0.17302200  0.23791400  0.85583600  1
  C  C15  1  0.16239100  0.75416100  0.14580400  1
  C  C16  1  0.16343400  0.75194800  0.85530700  1
  C  C17  1  0.16163000  0.24946900  0.14561600  1
  C  C18  1  0.82813500  0.24767500  0.64523900  1
  C  C19  1  0.83692400  0.74662400  0.35483400  1
  C  C20  1  0.66936400  0.00838400  0.85466600  1
  C  C21  1  0.66951500  0.00142700  0.14576700  1
  C  C22  1  0.33900000  0.50071400  0.64690200  1
  C  C23  1  0.33050000  0.49988100  0.35340000  1
  C  C24  1  0.32847100  0.00600200  0.64667400  1
  C  C25  1  0.33177300  0.00021800  0.35381600  1
  C  C26  1  0.66268400  0.49873700  0.85157100  1
  C  C27  1  0.66902700  0.50164600  0.14518300  1
