# generated using pymatgen
data_Cu5NiC12
_symmetry_space_group_name_H-M   'P 1'
_cell_length_a   3.02328000
_cell_length_b   9.30698400
_cell_length_c   12.35572400
_cell_angle_alpha   90.00000000
_cell_angle_beta   90.00000000
_cell_angle_gamma   90.00000000
_symmetry_Int_Tables_number   1
_chemical_formula_structural   Cu5NiC12
_chemical_formula_sum   'Cu10 Ni2 C24'
_cell_volume   347.66064928
_cell_formula_units_Z   2
loop_
 _symmetry_equiv_pos_site_id
 _symmetry_equiv_pos_as_xyz
  1  'x, y, z'
loop_
 _atom_site_type_symbol
 _atom_site_label
 _atom_site_symmetry_multiplicity
 _atom_site_fract_x
 _atom_site_fract_y
 _atom_site_fract_z
 _atom_site_occupancy
  Ni  Ni0  1  0.00000000  0.01037100  0.61358900  1
  Ni  Ni1  1  0.00000000  0.98962900  0.11358900  1
  Cu  Cu2  1  0.50000000  0.25952800  0.21988000  1
  Cu  Cu3  1  0.50000000  0.25924600  0.78478200  1
  Cu  Cu4  1  0.50000000  0.74075400  0.28478200  1
  Cu  Cu5  1  0.50000000  0.74047200  0.71988000  1
  Cu  Cu6  1  0.50000000  0.25987300  0.49655000  1
  Cu  Cu7  1  0.50000000  0.74012700  0.99655000  1
  Cu  Cu8  1  0.00000000  0.73997600  0.49701100  1
  Cu  Cu9  1  0.00000000  0.26002400  0.99701100  1
  Cu  Cu10  1  0.00000000  0.48790900  0.38521600  1
  Cu  Cu11  1  0.00000000  0.51209100  0.88521600  1
  C  C12  1  0.00000000  0.52584300  0.13998400  1
  C  C13  1  0.00000000  0.97993300  0.85998600  1
  C  C14  1  0.00000000  0.02006700  0.35998600  1
  C  C15  1  0.00000000  0.47415700  0.63998400  1
  C  C16  1  0.00000000  0.39778800  0.54375800  1
  C  C17  1  0.00000000  0.09515500  0.45887300  1
  C  C18  1  0.00000000  0.90484500  0.95887300  1
  C  C19  1  0.00000000  0.60221200  0.04375800  1
  C  C20  1  0.50000000  0.63880700  0.42451700  1
  C  C21  1  0.50000000  0.87624300  0.57728000  1
  C  C22  1  0.50000000  0.12375700  0.07728000  1
  C  C23  1  0.50000000  0.36119300  0.92451700  1
  C  C24  1  0.00000000  0.60023400  0.23659500  1
  C  C25  1  0.00000000  0.90580100  0.76111700  1
  C  C26  1  0.00000000  0.09419900  0.26111700  1
  C  C27  1  0.00000000  0.39976600  0.73659500  1
  C  C28  1  0.50000000  0.35392900  0.35659000  1
  C  C29  1  0.50000000  0.13591300  0.64524400  1
  C  C30  1  0.50000000  0.86408700  0.14524400  1
  C  C31  1  0.50000000  0.64607100  0.85659000  1
  C  C32  1  0.00000000  0.37512600  0.14046600  1
  C  C33  1  0.00000000  0.12630600  0.85856200  1
  C  C34  1  0.00000000  0.87369400  0.35856200  1
  C  C35  1  0.00000000  0.62487400  0.64046600  1
