# generated using pymatgen
data_CuNi4C19
_symmetry_space_group_name_H-M   'P 1'
_cell_length_a   5.81577038
_cell_length_b   5.81577038
_cell_length_c   11.69400100
_cell_angle_alpha   90.00000000
_cell_angle_beta   90.00000000
_cell_angle_gamma   120.00000431
_symmetry_Int_Tables_number   1
_chemical_formula_structural   CuNi4C19
_chemical_formula_sum   'Cu1 Ni4 C19'
_cell_volume   342.53759313
_cell_formula_units_Z   1
loop_
 _symmetry_equiv_pos_site_id
 _symmetry_equiv_pos_as_xyz
  1  'x, y, z'
loop_
 _atom_site_type_symbol
 _atom_site_label
 _atom_site_symmetry_multiplicity
 _atom_site_fract_x
 _atom_site_fract_y
 _atom_site_fract_z
 _atom_site_occupancy
  Ni  Ni0  1  0.66666700  0.33333300  0.79115300  1
  Ni  Ni1  1  0.00000000  0.00000000  0.20364500  1
  Ni  Ni2  1  0.66666700  0.33333300  0.41661000  1
  Ni  Ni3  1  0.33333300  0.66666700  0.99887600  1
  Cu  Cu4  1  0.00000000  0.00000000  0.55101700  1
  C  C5  1  0.00000000  0.00000000  0.88404500  1
  C  C6  1  0.66666700  0.33333300  0.09711700  1
  C  C7  1  0.33333300  0.66666700  0.31849600  1
  C  C8  1  0.33333300  0.66666700  0.68140300  1
  C  C9  1  0.00289300  0.50144700  0.60689000  1
  C  C10  1  0.49855300  0.50144700  0.60689000  1
  C  C11  1  0.49855300  0.99710700  0.60689000  1
  C  C12  1  0.66770200  0.83385100  0.40070200  1
  C  C13  1  0.16614900  0.83385100  0.40070200  1
  C  C14  1  0.16614900  0.33229800  0.40070200  1
  C  C15  1  0.99929900  0.49964900  0.20330500  1
  C  C16  1  0.50035100  0.49964900  0.20330500  1
  C  C17  1  0.50035100  0.00070100  0.20330500  1
  C  C18  1  0.67599900  0.83799900  0.80478200  1
  C  C19  1  0.16200100  0.83799900  0.80478200  1
  C  C20  1  0.16200100  0.32400100  0.80478200  1
  C  C21  1  0.83188400  0.16811600  0.00352500  1
  C  C22  1  0.83188400  0.66376900  0.00352500  1
  C  C23  1  0.33623100  0.16811600  0.00352500  1
