# generated using pymatgen
data_CuNiC2
_symmetry_space_group_name_H-M   'P 1'
_cell_length_a   7.96739300
_cell_length_b   8.99212900
_cell_length_c   9.91197900
_cell_angle_alpha   90.00000000
_cell_angle_beta   90.00000000
_cell_angle_gamma   90.00000000
_symmetry_Int_Tables_number   1
_chemical_formula_structural   CuNiC2
_chemical_formula_sum   'Cu12 Ni12 C24'
_cell_volume   710.13209532
_cell_formula_units_Z   12
loop_
 _symmetry_equiv_pos_site_id
 _symmetry_equiv_pos_as_xyz
  1  'x, y, z'
loop_
 _atom_site_type_symbol
 _atom_site_label
 _atom_site_symmetry_multiplicity
 _atom_site_fract_x
 _atom_site_fract_y
 _atom_site_fract_z
 _atom_site_occupancy
  Ni  Ni0  1  0.74153700  0.83050600  0.04668100  1
  Ni  Ni1  1  0.74153700  0.16949400  0.95331900  1
  Ni  Ni2  1  0.25846300  0.66949400  0.54668100  1
  Ni  Ni3  1  0.25846300  0.33050600  0.45331900  1
  Ni  Ni4  1  0.25846300  0.16949400  0.95331900  1
  Ni  Ni5  1  0.25846300  0.83050600  0.04668100  1
  Ni  Ni6  1  0.74153700  0.33050600  0.45331900  1
  Ni  Ni7  1  0.74153700  0.66949400  0.54668100  1
  Ni  Ni8  1  0.50000000  0.83581700  0.32164500  1
  Ni  Ni9  1  0.50000000  0.16418300  0.67835500  1
  Ni  Ni10  1  0.50000000  0.66418300  0.82164500  1
  Ni  Ni11  1  0.50000000  0.33581700  0.17835500  1
  Cu  Cu12  1  0.74757800  0.58793000  0.24944900  1
  Cu  Cu13  1  0.74757800  0.41207000  0.75055100  1
  Cu  Cu14  1  0.25242200  0.91207000  0.74944900  1
  Cu  Cu15  1  0.25242200  0.08793000  0.25055100  1
  Cu  Cu16  1  0.25242200  0.41207000  0.75055100  1
  Cu  Cu17  1  0.25242200  0.58793000  0.24944900  1
  Cu  Cu18  1  0.74757800  0.08793000  0.25055100  1
  Cu  Cu19  1  0.74757800  0.91207000  0.74944900  1
  Cu  Cu20  1  0.74264800  0.00000000  0.50000000  1
  Cu  Cu21  1  0.25735200  0.50000000  0.00000000  1
  Cu  Cu22  1  0.25735200  0.00000000  0.50000000  1
  Cu  Cu23  1  0.74264800  0.50000000  0.00000000  1
  C  C24  1  0.83652500  0.83523500  0.31629500  1
  C  C25  1  0.83652500  0.16476500  0.68370500  1
  C  C26  1  0.16347500  0.66476500  0.81629500  1
  C  C27  1  0.16347500  0.33523500  0.18370500  1
  C  C28  1  0.16347500  0.16476500  0.68370500  1
  C  C29  1  0.16347500  0.83523500  0.31629500  1
  C  C30  1  0.83652500  0.33523500  0.18370500  1
  C  C31  1  0.83652500  0.66476500  0.81629500  1
  C  C32  1  0.50000000  0.53990300  0.37968400  1
  C  C33  1  0.50000000  0.46009700  0.62031600  1
  C  C34  1  0.50000000  0.96009700  0.87968400  1
  C  C35  1  0.50000000  0.03990300  0.12031600  1
  C  C36  1  0.00000000  0.54623900  0.37989300  1
  C  C37  1  0.00000000  0.45376100  0.62010700  1
  C  C38  1  0.00000000  0.95376100  0.87989300  1
  C  C39  1  0.00000000  0.04623900  0.12010700  1
  C  C40  1  0.50000000  0.63865900  0.10063000  1
  C  C41  1  0.50000000  0.36134100  0.89937000  1
  C  C42  1  0.50000000  0.86134100  0.60063000  1
  C  C43  1  0.50000000  0.13865900  0.39937000  1
  C  C44  1  0.00000000  0.63442600  0.09563600  1
  C  C45  1  0.00000000  0.36557400  0.90436400  1
  C  C46  1  0.00000000  0.86557400  0.59563600  1
  C  C47  1  0.00000000  0.13442600  0.40436400  1
