# generated using pymatgen
data_Cu3(NiC9)2
_symmetry_space_group_name_H-M   'P 1'
_cell_length_a   3.90904129
_cell_length_b   3.90904122
_cell_length_c   21.18840851
_cell_angle_alpha   95.29276107
_cell_angle_beta   95.29276262
_cell_angle_gamma   89.99999637
_symmetry_Int_Tables_number   1
_chemical_formula_structural   Cu3(NiC9)2
_chemical_formula_sum   'Cu3 Ni2 C18'
_cell_volume   321.00484184
_cell_formula_units_Z   1
loop_
 _symmetry_equiv_pos_site_id
 _symmetry_equiv_pos_as_xyz
  1  'x, y, z'
loop_
 _atom_site_type_symbol
 _atom_site_label
 _atom_site_symmetry_multiplicity
 _atom_site_fract_x
 _atom_site_fract_y
 _atom_site_fract_z
 _atom_site_occupancy
  C  C0  1  0.15775700  0.15775700  0.31551300  1
  C  C1  1  0.84224300  0.84224300  0.68448700  1
  Ni  Ni2  1  0.72286500  0.72286500  0.44572900  1
  Ni  Ni3  1  0.27713500  0.27713500  0.55427100  1
  Cu  Cu4  1  0.07678400  0.07678400  0.15356700  1
  Cu  Cu5  1  0.92321600  0.92321600  0.84643300  1
  Cu  Cu6  1  0.00000000  0.00000000  0.00000000  1
  C  C7  1  0.53504300  0.53504300  0.07008600  1
  C  C8  1  0.39511000  0.39511000  0.79022000  1
  C  C9  1  0.60489000  0.60489000  0.20978000  1
  C  C10  1  0.46495700  0.46495700  0.92991400  1
  C  C11  1  0.39647500  0.89647500  0.79295000  1
  C  C12  1  0.53377800  0.03377800  0.06755700  1
  C  C13  1  0.22539700  0.22539700  0.45079500  1
  C  C14  1  0.96622200  0.46622200  0.93244300  1
  C  C15  1  0.77460300  0.77460300  0.54920500  1
  C  C16  1  0.10352500  0.60352500  0.20705000  1
  C  C17  1  0.60352500  0.10352500  0.20705000  1
  C  C18  1  0.32845300  0.32845300  0.65690500  1
  C  C19  1  0.89647500  0.39647500  0.79295000  1
  C  C20  1  0.03377800  0.53377800  0.06755700  1
  C  C21  1  0.46622200  0.96622200  0.93244300  1
  C  C22  1  0.67154700  0.67154700  0.34309500  1
