# generated using pymatgen
data_CuNi2C
_symmetry_space_group_name_H-M   'P 1'
_cell_length_a   11.27430849
_cell_length_b   11.27430849
_cell_length_c   11.27430849
_cell_angle_alpha   128.77326554
_cell_angle_beta   121.26498744
_cell_angle_gamma   81.64899822
_symmetry_Int_Tables_number   1
_chemical_formula_structural   CuNi2C
_chemical_formula_sum   'Cu1 Ni2 C1'
_cell_volume   919.60796131
_cell_formula_units_Z   1
loop_
 _symmetry_equiv_pos_site_id
 _symmetry_equiv_pos_as_xyz
  1  'x, y, z'
loop_
 _atom_site_type_symbol
 _atom_site_label
 _atom_site_symmetry_multiplicity
 _atom_site_fract_x
 _atom_site_fract_y
 _atom_site_fract_z
 _atom_site_occupancy
  C  C0  1  0.00000000  0.00000000  0.00000000  1
  Ni  Ni1  1  0.72071800  0.00000000  0.72071800  1
  Ni  Ni2  1  0.27928200  0.00000000  0.27928200  1
  Cu  Cu3  1  0.50000000  0.00000000  0.50000000  1
