# generated using pymatgen
data_Cu2NiC22
_symmetry_space_group_name_H-M   'P 1'
_cell_length_a   7.36833592
_cell_length_b   7.53524476
_cell_length_c   8.78777888
_cell_angle_alpha   93.47243920
_cell_angle_beta   117.95601009
_cell_angle_gamma   114.15973153
_symmetry_Int_Tables_number   1
_chemical_formula_structural   Cu2NiC22
_chemical_formula_sum   'Cu2 Ni1 C22'
_cell_volume   373.44299903
_cell_formula_units_Z   1
loop_
 _symmetry_equiv_pos_site_id
 _symmetry_equiv_pos_as_xyz
  1  'x, y, z'
loop_
 _atom_site_type_symbol
 _atom_site_label
 _atom_site_symmetry_multiplicity
 _atom_site_fract_x
 _atom_site_fract_y
 _atom_site_fract_z
 _atom_site_occupancy
  C  C0  1  0.02971445  0.72386359  0.35291119  1
  C  C1  1  0.97028555  0.27613641  0.64708881  1
  Ni  Ni2  1  0.00000000  0.50000000  0.00000000  1
  Cu  Cu3  1  0.50692138  0.66015481  0.76567961  1
  Cu  Cu4  1  0.49307862  0.33984519  0.23432039  1
  C  C5  1  0.99166238  0.22680249  0.25460547  1
  C  C6  1  0.00833762  0.77319751  0.74539453  1
  C  C7  1  0.48175450  0.84338374  0.13657978  1
  C  C8  1  0.51824550  0.15661626  0.86342022  1
  C  C9  1  0.78586162  0.37319952  0.10526631  1
  C  C10  1  0.21413838  0.62680048  0.89473369  1
  C  C11  1  0.27109828  0.89193757  0.67908286  1
  C  C12  1  0.72890172  0.10806243  0.32091714  1
  C  C13  1  0.63719401  0.70027627  0.20690489  1
  C  C14  1  0.36280599  0.29972373  0.79309511  1
  C  C15  1  0.28292263  0.76496736  0.22221974  1
  C  C16  1  0.71707737  0.23503264  0.77778026  1
  C  C17  1  0.86361948  0.67373285  0.87000238  1
  C  C18  1  0.13638052  0.32626715  0.12999762  1
  C  C19  1  0.11101885  0.06455742  0.34420970  1
  C  C20  1  0.88898115  0.93544258  0.65579030  1
  C  C21  1  0.67945654  0.99127368  0.01888704  1
  C  C22  1  0.32054346  0.00872632  0.98111296  1
  C  C23  1  0.84823577  0.54987968  0.54155791  1
  C  C24  1  0.15176423  0.45012032  0.45844209  1
