# generated using pymatgen
data_CuNi3C11
_symmetry_space_group_name_H-M   'P 1'
_cell_length_a   6.96851164
_cell_length_b   6.96851164
_cell_length_c   10.17068300
_cell_angle_alpha   90.00000000
_cell_angle_beta   90.00000000
_cell_angle_gamma   119.99999656
_symmetry_Int_Tables_number   1
_chemical_formula_structural   CuNi3C11
_chemical_formula_sum   'Cu2 Ni6 C22'
_cell_volume   427.72124717
_cell_formula_units_Z   2
loop_
 _symmetry_equiv_pos_site_id
 _symmetry_equiv_pos_as_xyz
  1  'x, y, z'
loop_
 _atom_site_type_symbol
 _atom_site_label
 _atom_site_symmetry_multiplicity
 _atom_site_fract_x
 _atom_site_fract_y
 _atom_site_fract_z
 _atom_site_occupancy
  C  C0  1  0.33333300  0.66666700  0.05675300  1
  C  C1  1  0.66666700  0.33333300  0.55675300  1
  C  C2  1  0.33333300  0.66666700  0.44324700  1
  C  C3  1  0.66666700  0.33333300  0.94324700  1
  Ni  Ni4  1  0.61715300  0.74588300  0.75000000  1
  Ni  Ni5  1  0.87127000  0.61715300  0.25000000  1
  Ni  Ni6  1  0.74588300  0.12873000  0.25000000  1
  Ni  Ni7  1  0.25411700  0.87127000  0.75000000  1
  Ni  Ni8  1  0.12873000  0.38284700  0.75000000  1
  Ni  Ni9  1  0.38284700  0.25411700  0.25000000  1
  Cu  Cu10  1  0.00000000  0.00000000  0.00000000  1
  Cu  Cu11  1  0.00000000  0.00000000  0.50000000  1
  C  C12  1  0.25553700  0.23669200  0.38643700  1
  C  C13  1  0.01884500  0.25553700  0.88643700  1
  C  C14  1  0.23669200  0.98115500  0.88643700  1
  C  C15  1  0.76330800  0.01884500  0.38643700  1
  C  C16  1  0.98115500  0.74446300  0.38643700  1
  C  C17  1  0.74446300  0.76330800  0.88643700  1
  C  C18  1  0.74446300  0.76330800  0.61356300  1
  C  C19  1  0.98115500  0.74446300  0.11356300  1
  C  C20  1  0.76330800  0.01884500  0.11356300  1
  C  C21  1  0.23669200  0.98115500  0.61356300  1
  C  C22  1  0.01884500  0.25553700  0.61356300  1
  C  C23  1  0.25553700  0.23669200  0.11356300  1
  C  C24  1  0.48745000  0.08614500  0.25000000  1
  C  C25  1  0.40130500  0.48745000  0.75000000  1
  C  C26  1  0.08614500  0.59869500  0.75000000  1
  C  C27  1  0.91385500  0.40130500  0.25000000  1
  C  C28  1  0.59869500  0.51255000  0.25000000  1
  C  C29  1  0.51255000  0.91385500  0.75000000  1
