# generated using pymatgen
data_CuNiC8
_symmetry_space_group_name_H-M   'P 1'
_cell_length_a   8.54342667
_cell_length_b   8.55309382
_cell_length_c   8.55592848
_cell_angle_alpha   90.00000000
_cell_angle_beta   90.00000000
_cell_angle_gamma   90.00000000
_symmetry_Int_Tables_number   1
_chemical_formula_structural   CuNiC8
_chemical_formula_sum   'Cu4 Ni4 C32'
_cell_volume   625.20505046
_cell_formula_units_Z   4
loop_
 _symmetry_equiv_pos_site_id
 _symmetry_equiv_pos_as_xyz
  1  'x, y, z'
loop_
 _atom_site_type_symbol
 _atom_site_label
 _atom_site_symmetry_multiplicity
 _atom_site_fract_x
 _atom_site_fract_y
 _atom_site_fract_z
 _atom_site_occupancy
  C  C0  1  -0.00000000  0.50000000  0.50000000  1
  C  C1  1  0.50000000  0.50000000  -0.00000000  1
  C  C2  1  0.50000000  -0.00000000  0.00000000  1
  C  C3  1  -0.00000000  -0.00000000  0.50000000  1
  Ni  Ni4  1  0.25000000  0.25000000  0.25000000  1
  Ni  Ni5  1  0.75000000  0.75000000  0.25000000  1
  Ni  Ni6  1  0.75000000  0.25000000  0.75000000  1
  Ni  Ni7  1  0.25000000  0.75000000  0.75000000  1
  Cu  Cu8  1  0.50000000  -0.00000000  0.50000000  1
  Cu  Cu9  1  -0.00000000  0.50000000  -0.00000000  1
  Cu  Cu10  1  -0.00000000  -0.00000000  -0.00000000  1
  Cu  Cu11  1  0.50000000  0.50000000  0.50000000  1
  C  C12  1  0.75000000  0.75000000  0.75000000  1
  C  C13  1  0.25000000  0.25000000  0.75000000  1
  C  C14  1  0.25000000  0.75000000  0.25000000  1
  C  C15  1  0.75000000  0.25000000  0.25000000  1
  C  C16  1  0.97867403  0.20075612  0.28873813  1
  C  C17  1  0.02132597  0.79924388  0.28873813  1
  C  C18  1  0.02132597  0.20075612  0.71126187  1
  C  C19  1  0.97867403  0.79924388  0.71126187  1
  C  C20  1  0.28842119  0.97890606  0.20077598  1
  C  C21  1  0.28842119  0.02109394  0.79922402  1
  C  C22  1  0.71157881  0.02109394  0.20077598  1
  C  C23  1  0.71157881  0.97890606  0.79922402  1
  C  C24  1  0.19892451  0.29023230  0.97877396  1
  C  C25  1  0.80107549  0.29023230  0.02122604  1
  C  C26  1  0.19892451  0.70976770  0.02122604  1
  C  C27  1  0.80107549  0.70976770  0.97877396  1
  C  C28  1  0.52132597  0.29924388  0.21126187  1
  C  C29  1  0.47867403  0.70075612  0.21126187  1
  C  C30  1  0.47867403  0.29924388  0.78873813  1
  C  C31  1  0.52132597  0.70075612  0.78873813  1
  C  C32  1  0.21157881  0.52109394  0.29922402  1
  C  C33  1  0.21157881  0.47890606  0.70077598  1
  C  C34  1  0.78842119  0.47890606  0.29922402  1
  C  C35  1  0.78842119  0.52109394  0.70077598  1
  C  C36  1  0.30107549  0.20976770  0.52122604  1
  C  C37  1  0.69892451  0.20976770  0.47877396  1
  C  C38  1  0.30107549  0.79023230  0.47877396  1
  C  C39  1  0.69892451  0.79023230  0.52122604  1
