# generated using pymatgen
data_Cu4NiC17
_symmetry_space_group_name_H-M   'P 1'
_cell_length_a   6.84245300
_cell_length_b   8.64158800
_cell_length_c   14.45363910
_cell_angle_alpha   53.90624285
_cell_angle_beta   90.00000000
_cell_angle_gamma   90.00000000
_symmetry_Int_Tables_number   1
_chemical_formula_structural   Cu4NiC17
_chemical_formula_sum   'Cu8 Ni2 C34'
_cell_volume   690.59433580
_cell_formula_units_Z   2
loop_
 _symmetry_equiv_pos_site_id
 _symmetry_equiv_pos_as_xyz
  1  'x, y, z'
loop_
 _atom_site_type_symbol
 _atom_site_label
 _atom_site_symmetry_multiplicity
 _atom_site_fract_x
 _atom_site_fract_y
 _atom_site_fract_z
 _atom_site_occupancy
  C  C0  1  0.30429100  0.50000000  0.25000000  1
  C  C1  1  0.69570900  0.50000000  0.75000000  1
  Ni  Ni2  1  0.30341400  0.00000000  0.25000000  1
  Ni  Ni3  1  0.69658600  0.00000000  0.75000000  1
  Cu  Cu4  1  0.83518100  0.70326300  0.09446800  1
  Cu  Cu5  1  0.16481900  0.29673700  0.90553200  1
  Cu  Cu6  1  0.83518100  0.29673700  0.40553200  1
  Cu  Cu7  1  0.16481900  0.70326300  0.59446800  1
  Cu  Cu8  1  0.83495800  0.79831300  0.40422300  1
  Cu  Cu9  1  0.16504200  0.20168700  0.59577700  1
  Cu  Cu10  1  0.83495800  0.20168700  0.09577700  1
  Cu  Cu11  1  0.16504200  0.79831300  0.90422300  1
  C  C12  1  0.84976100  0.81585400  0.93062500  1
  C  C13  1  0.15023900  0.18414600  0.06937500  1
  C  C14  1  0.84976100  0.18414600  0.56937500  1
  C  C15  1  0.15023900  0.81585400  0.43062500  1
  C  C16  1  0.94267900  0.00000000  0.25000000  1
  C  C17  1  0.05732100  0.00000000  0.75000000  1
  C  C18  1  0.92782300  0.50000000  0.25000000  1
  C  C19  1  0.07217700  0.50000000  0.75000000  1
  C  C20  1  0.84410300  0.60000700  0.40203000  1
  C  C21  1  0.15589700  0.39999300  0.59797000  1
  C  C22  1  0.84410300  0.39999300  0.09797000  1
  C  C23  1  0.15589700  0.60000700  0.90203000  1
  C  C24  1  0.85831800  0.69074100  0.55886200  1
  C  C25  1  0.14168200  0.30925900  0.44113800  1
  C  C26  1  0.85831800  0.30925900  0.94113800  1
  C  C27  1  0.14168200  0.69074100  0.05886200  1
  C  C28  1  0.58338200  0.87180900  0.36957400  1
  C  C29  1  0.41661800  0.12819100  0.63042600  1
  C  C30  1  0.58338200  0.12819100  0.13042600  1
  C  C31  1  0.41661800  0.87180900  0.86957400  1
  C  C32  1  0.58828300  0.64212100  0.11894900  1
  C  C33  1  0.41171700  0.35787900  0.88105100  1
  C  C34  1  0.58828300  0.35787900  0.38105100  1
  C  C35  1  0.41171700  0.64212100  0.61894900  1
  C  C36  1  0.29925300  0.79268300  0.24626500  1
  C  C37  1  0.70074700  0.20731700  0.75373500  1
  C  C38  1  0.29925300  0.20731700  0.25373500  1
  C  C39  1  0.70074700  0.79268300  0.74626500  1
  C  C40  1  0.84864500  0.90217900  0.09666700  1
  C  C41  1  0.15135500  0.09782100  0.90333300  1
  C  C42  1  0.84864500  0.09782100  0.40333300  1
  C  C43  1  0.15135500  0.90217900  0.59666700  1
