# generated using pymatgen
data_Cu14Ni2C15
_symmetry_space_group_name_H-M   'P 1'
_cell_length_a   14.11897300
_cell_length_b   6.49200300
_cell_length_c   9.30367946
_cell_angle_alpha   75.68774433
_cell_angle_beta   90.00000000
_cell_angle_gamma   90.00000000
_symmetry_Int_Tables_number   1
_chemical_formula_structural   Cu14Ni2C15
_chemical_formula_sum   'Cu28 Ni4 C30'
_cell_volume   826.31130905
_cell_formula_units_Z   2
loop_
 _symmetry_equiv_pos_site_id
 _symmetry_equiv_pos_as_xyz
  1  'x, y, z'
loop_
 _atom_site_type_symbol
 _atom_site_label
 _atom_site_symmetry_multiplicity
 _atom_site_fract_x
 _atom_site_fract_y
 _atom_site_fract_z
 _atom_site_occupancy
  C  C0  1  0.13719400  0.66948600  0.64374500  1
  C  C1  1  0.63719400  0.33051400  0.85625500  1
  C  C2  1  0.86280600  0.33051400  0.35625500  1
  C  C3  1  0.36280600  0.66948600  0.14374500  1
  C  C4  1  0.50000000  0.00000000  0.50000000  1
  C  C5  1  0.00000000  0.00000000  0.00000000  1
  C  C6  1  0.41313000  0.68128700  0.70102700  1
  C  C7  1  0.91313000  0.31871300  0.79897300  1
  C  C8  1  0.58687000  0.31871300  0.29897300  1
  C  C9  1  0.08687000  0.68128700  0.20102700  1
  C  C10  1  0.37870300  0.90674500  0.72865700  1
  C  C11  1  0.87870300  0.09325500  0.77134300  1
  C  C12  1  0.62129700  0.09325500  0.27134300  1
  C  C13  1  0.12129700  0.90674500  0.22865700  1
  C  C14  1  0.41651200  0.08334700  0.23946300  1
  C  C15  1  0.91651200  0.91665300  0.26053700  1
  C  C16  1  0.58348800  0.91665300  0.76053700  1
  C  C17  1  0.08348800  0.08334700  0.73946300  1
  C  C18  1  0.33514700  0.99339200  0.37339800  1
  C  C19  1  0.83514700  0.00660800  0.12660200  1
  C  C20  1  0.66485300  0.00660800  0.62660200  1
  C  C21  1  0.16485300  0.99339200  0.87339800  1
  C  C22  1  0.56912600  0.66704000  0.40296900  1
  C  C23  1  0.06912600  0.33296000  0.09703100  1
  C  C24  1  0.43087400  0.33296000  0.59703100  1
  C  C25  1  0.93087400  0.66704000  0.90296900  1
  C  C26  1  0.64018100  0.75678900  0.50299200  1
  C  C27  1  0.14018100  0.24321100  0.99700800  1
  C  C28  1  0.35981900  0.24321100  0.49700800  1
  C  C29  1  0.85981900  0.75678900  0.00299200  1
  Ni  Ni30  1  0.35988400  0.31625200  0.89469300  1
  Ni  Ni31  1  0.85988400  0.68374800  0.60530700  1
  Ni  Ni32  1  0.64011600  0.68374800  0.10530700  1
  Ni  Ni33  1  0.14011600  0.31625200  0.39469300  1
  Cu  Cu34  1  0.24797600  0.00629200  0.94363500  1
  Cu  Cu35  1  0.74797600  0.99370800  0.55636500  1
  Cu  Cu36  1  0.75202400  0.99370800  0.05636500  1
  Cu  Cu37  1  0.25202400  0.00629200  0.44363500  1
  Cu  Cu38  1  0.42133200  0.22217200  0.02458300  1
  Cu  Cu39  1  0.92133200  0.77782800  0.47541700  1
  Cu  Cu40  1  0.57866800  0.77782800  0.97541700  1
  Cu  Cu41  1  0.07866800  0.22217200  0.52458300  1
  Cu  Cu42  1  0.42307200  0.41344000  0.76208500  1
  Cu  Cu43  1  0.92307200  0.58656000  0.73791500  1
  Cu  Cu44  1  0.57692800  0.58656000  0.23791500  1
  Cu  Cu45  1  0.07692800  0.41344000  0.26208500  1
  Cu  Cu46  1  0.31803700  0.10988200  0.82971400  1
  Cu  Cu47  1  0.81803700  0.89011800  0.67028600  1
  Cu  Cu48  1  0.68196300  0.89011800  0.17028600  1
  Cu  Cu49  1  0.18196300  0.10988200  0.32971400  1
  Cu  Cu50  1  0.40135300  0.83435200  0.65393500  1
  Cu  Cu51  1  0.90135300  0.16564800  0.84606500  1
  Cu  Cu52  1  0.59864700  0.16564800  0.34606500  1
  Cu  Cu53  1  0.09864700  0.83435200  0.15393500  1
  Cu  Cu54  1  0.40790500  0.97509600  0.33321400  1
  Cu  Cu55  1  0.90790500  0.02490400  0.16678600  1
  Cu  Cu56  1  0.59209500  0.02490400  0.66678600  1
  Cu  Cu57  1  0.09209500  0.97509600  0.83321400  1
  Cu  Cu58  1  0.57372000  0.71455300  0.49673700  1
  Cu  Cu59  1  0.07372000  0.28544700  0.00326300  1
  Cu  Cu60  1  0.42628000  0.28544700  0.50326300  1
  Cu  Cu61  1  0.92628000  0.71455300  0.99673700  1
