# generated using pymatgen
data_CuNiC8
_symmetry_space_group_name_H-M   'P 1'
_cell_length_a   4.00004136
_cell_length_b   11.78606023
_cell_length_c   6.86620506
_cell_angle_alpha   28.99560510
_cell_angle_beta   54.38871634
_cell_angle_gamma   59.40549210
_symmetry_Int_Tables_number   1
_chemical_formula_structural   CuNiC8
_chemical_formula_sum   'Cu1 Ni1 C8'
_cell_volume   127.56866023
_cell_formula_units_Z   1
loop_
 _symmetry_equiv_pos_site_id
 _symmetry_equiv_pos_as_xyz
  1  'x, y, z'
loop_
 _atom_site_type_symbol
 _atom_site_label
 _atom_site_symmetry_multiplicity
 _atom_site_fract_x
 _atom_site_fract_y
 _atom_site_fract_z
 _atom_site_occupancy
  Ni  Ni0  1  0.99866700  0.69463000  0.95799700  1
  Cu  Cu1  1  0.49851000  0.36395200  0.45217100  1
  C  C2  1  0.99673600  0.98927900  0.01621800  1
  C  C3  1  0.00416200  0.33465500  0.99737800  1
  C  C4  1  0.25161100  0.31228600  0.28046000  1
  C  C5  1  0.23056700  0.65231000  0.29054700  1
  C  C6  1  0.73168700  0.03355600  0.71867300  1
  C  C7  1  0.27169800  0.03295200  0.17932600  1
  C  C8  1  0.74815500  0.31158000  0.78467800  1
  C  C9  1  0.76820500  0.65257800  0.75255300  1
