# generated using pymatgen
data_Cu4NiC16
_symmetry_space_group_name_H-M   'P 1'
_cell_length_a   5.50848634
_cell_length_b   6.44178730
_cell_length_c   7.54690600
_cell_angle_alpha   90.00000000
_cell_angle_beta   90.00000000
_cell_angle_gamma   86.81454928
_symmetry_Int_Tables_number   1
_chemical_formula_structural   Cu4NiC16
_chemical_formula_sum   'Cu4 Ni1 C16'
_cell_volume   267.38439246
_cell_formula_units_Z   1
loop_
 _symmetry_equiv_pos_site_id
 _symmetry_equiv_pos_as_xyz
  1  'x, y, z'
loop_
 _atom_site_type_symbol
 _atom_site_label
 _atom_site_symmetry_multiplicity
 _atom_site_fract_x
 _atom_site_fract_y
 _atom_site_fract_z
 _atom_site_occupancy
  C  C0  1  0.44346300  0.58618600  0.75000000  1
  C  C1  1  0.98167700  0.90945000  0.25000000  1
  C  C2  1  0.05998300  0.14455200  0.75000000  1
  C  C3  1  0.53986900  0.40050200  0.25000000  1
  Ni  Ni4  1  0.92443200  0.75154100  0.75000000  1
  Cu  Cu5  1  0.50378800  0.00052300  0.49987300  1
  Cu  Cu6  1  0.99565900  0.48767800  0.48695300  1
  Cu  Cu7  1  0.99565900  0.48767800  0.01304700  1
  Cu  Cu8  1  0.50378800  0.00052300  0.00012700  1
  C  C9  1  0.81186100  0.17038600  0.44667500  1
  C  C10  1  0.33418800  0.30812800  0.55042400  1
  C  C11  1  0.66784000  0.68677300  0.04443600  1
  C  C12  1  0.17422700  0.82876100  0.93495600  1
  C  C13  1  0.17422700  0.82876100  0.56504400  1
  C  C14  1  0.66784000  0.68677300  0.45556400  1
  C  C15  1  0.33418800  0.30812800  0.94957600  1
  C  C16  1  0.81186100  0.17038600  0.05332500  1
  C  C17  1  0.36407100  0.05643000  0.25000000  1
  C  C18  1  0.85082700  0.46196400  0.75000000  1
  C  C19  1  0.13595000  0.54697800  0.25000000  1
  C  C20  1  0.64960200  0.94873100  0.75000000  1
