# generated using pymatgen
data_Cu5(NiC3)2
_symmetry_space_group_name_H-M   'P 1'
_cell_length_a   5.63454373
_cell_length_b   5.70831424
_cell_length_c   14.47752596
_cell_angle_alpha   90.00000195
_cell_angle_beta   83.55819775
_cell_angle_gamma   120.43405554
_symmetry_Int_Tables_number   1
_chemical_formula_structural   Cu5(NiC3)2
_chemical_formula_sum   'Cu10 Ni4 C12'
_cell_volume   398.07708712
_cell_formula_units_Z   2
loop_
 _symmetry_equiv_pos_site_id
 _symmetry_equiv_pos_as_xyz
  1  'x, y, z'
loop_
 _atom_site_type_symbol
 _atom_site_label
 _atom_site_symmetry_multiplicity
 _atom_site_fract_x
 _atom_site_fract_y
 _atom_site_fract_z
 _atom_site_occupancy
  Ni  Ni0  1  0.43361700  0.88631700  0.57870000  1
  Ni  Ni1  1  0.56638300  0.45270100  0.92130000  1
  Ni  Ni2  1  0.56638300  0.11368300  0.42130000  1
  Ni  Ni3  1  0.43361700  0.54729900  0.07870000  1
  Cu  Cu4  1  0.00000000  0.53265900  0.75000000  1
  Cu  Cu5  1  0.00000000  0.46734100  0.25000000  1
  Cu  Cu6  1  0.20039900  0.83182300  0.96223400  1
  Cu  Cu7  1  0.79960100  0.63142500  0.53776600  1
  Cu  Cu8  1  0.79960100  0.16817700  0.03776600  1
  Cu  Cu9  1  0.20039900  0.36857500  0.46223400  1
  Cu  Cu10  1  0.99184900  0.06479000  0.65723700  1
  Cu  Cu11  1  0.00815100  0.07294100  0.84276300  1
  Cu  Cu12  1  0.00815100  0.93521000  0.34276300  1
  Cu  Cu13  1  0.99184900  0.92705900  0.15723700  1
  C  C14  1  0.10202200  0.78187300  0.63900200  1
  C  C15  1  0.89797800  0.67985200  0.86099800  1
  C  C16  1  0.89797800  0.21812700  0.36099800  1
  C  C17  1  0.10202200  0.32014800  0.13900200  1
  C  C18  1  0.59930700  0.23121700  0.53585500  1
  C  C19  1  0.40069300  0.63190900  0.96414500  1
  C  C20  1  0.40069300  0.76878300  0.46414500  1
  C  C21  1  0.59930700  0.36809100  0.03585500  1
  C  C22  1  0.62877000  0.78508700  0.63220000  1
  C  C23  1  0.37123000  0.15631800  0.86780000  1
  C  C24  1  0.37123000  0.21491300  0.36780000  1
  C  C25  1  0.62877000  0.84368200  0.13220000  1
