# generated using pymatgen
data_CuNiC6
_symmetry_space_group_name_H-M   'P 1'
_cell_length_a   6.66970577
_cell_length_b   7.99119781
_cell_length_c   9.28791600
_cell_angle_alpha   90.00000000
_cell_angle_beta   90.00000000
_cell_angle_gamma   109.51307540
_symmetry_Int_Tables_number   1
_chemical_formula_structural   CuNiC6
_chemical_formula_sum   'Cu4 Ni4 C24'
_cell_volume   466.60380731
_cell_formula_units_Z   4
loop_
 _symmetry_equiv_pos_site_id
 _symmetry_equiv_pos_as_xyz
  1  'x, y, z'
loop_
 _atom_site_type_symbol
 _atom_site_label
 _atom_site_symmetry_multiplicity
 _atom_site_fract_x
 _atom_site_fract_y
 _atom_site_fract_z
 _atom_site_occupancy
  Ni  Ni0  1  0.75061700  0.75759900  0.39846100  1
  Ni  Ni1  1  0.24938300  0.24240100  0.60153900  1
  Ni  Ni2  1  0.24938300  0.74240100  0.89846100  1
  Ni  Ni3  1  0.75061700  0.25759900  0.10153900  1
  Cu  Cu4  1  0.75025200  0.99445500  0.75070200  1
  Cu  Cu5  1  0.24974800  0.00554500  0.24929800  1
  Cu  Cu6  1  0.24974800  0.50554500  0.25070200  1
  Cu  Cu7  1  0.75025200  0.49445500  0.74929800  1
  C  C8  1  0.25098100  0.75653600  0.56735100  1
  C  C9  1  0.74901900  0.24346400  0.43264900  1
  C  C10  1  0.74901900  0.74346400  0.06735100  1
  C  C11  1  0.25098100  0.25653600  0.93264900  1
  C  C12  1  0.75251500  0.74326500  0.63972500  1
  C  C13  1  0.24748500  0.25673500  0.36027500  1
  C  C14  1  0.24748500  0.75673500  0.13972500  1
  C  C15  1  0.75251500  0.24326500  0.86027500  1
  C  C16  1  0.61763700  0.83665800  0.96055200  1
  C  C17  1  0.38236300  0.16334200  0.03944800  1
  C  C18  1  0.38236300  0.66334200  0.46055200  1
  C  C19  1  0.61763700  0.33665800  0.53944800  1
  C  C20  1  0.90928300  0.89570700  0.17629200  1
  C  C21  1  0.09071700  0.10429300  0.82370800  1
  C  C22  1  0.09071700  0.60429300  0.67629200  1
  C  C23  1  0.90928300  0.39570700  0.32370800  1
  C  C24  1  0.87700900  0.64625100  0.96196500  1
  C  C25  1  0.12299100  0.35374900  0.03803500  1
  C  C26  1  0.12299100  0.85374900  0.46196500  1
  C  C27  1  0.87700900  0.14625100  0.53803500  1
  C  C28  1  0.40694600  0.90022700  0.68174200  1
  C  C29  1  0.59305400  0.09977300  0.31825800  1
  C  C30  1  0.59305400  0.59977300  0.18174200  1
  C  C31  1  0.40694600  0.40022700  0.81825800  1
