# generated using pymatgen
data_Cu(NiC2)6
_symmetry_space_group_name_H-M   'P 1'
_cell_length_a   16.60485200
_cell_length_b   6.76253100
_cell_length_c   7.30322070
_cell_angle_alpha   74.52030229
_cell_angle_beta   90.00000000
_cell_angle_gamma   90.00000000
_symmetry_Int_Tables_number   1
_chemical_formula_structural   Cu(NiC2)6
_chemical_formula_sum   'Cu4 Ni24 C48'
_cell_volume   790.33618658
_cell_formula_units_Z   4
loop_
 _symmetry_equiv_pos_site_id
 _symmetry_equiv_pos_as_xyz
  1  'x, y, z'
loop_
 _atom_site_type_symbol
 _atom_site_label
 _atom_site_symmetry_multiplicity
 _atom_site_fract_x
 _atom_site_fract_y
 _atom_site_fract_z
 _atom_site_occupancy
  Ni  Ni0  1  0.03508700  0.44455000  0.69328800  1
  Ni  Ni1  1  0.55214000  0.58306400  0.86118900  1
  Ni  Ni2  1  0.05214000  0.91693600  0.13881100  1
  Ni  Ni3  1  0.44786000  0.41693600  0.13881100  1
  Ni  Ni4  1  0.49630800  0.82422000  0.07155100  1
  Ni  Ni5  1  0.99630800  0.67578000  0.92844900  1
  Ni  Ni6  1  0.50369200  0.17578000  0.92844900  1
  Ni  Ni7  1  0.00369200  0.32422000  0.07155100  1
  Ni  Ni8  1  0.53004400  0.32989900  0.54668400  1
  Ni  Ni9  1  0.03004400  0.17010100  0.45331600  1
  Ni  Ni10  1  0.46995600  0.67010100  0.45331600  1
  Ni  Ni11  1  0.96995600  0.82989900  0.54668400  1
  Ni  Ni12  1  0.79430600  0.13438300  0.71417200  1
  Ni  Ni13  1  0.29430600  0.36561700  0.28582800  1
  Ni  Ni14  1  0.20569400  0.86561700  0.28582800  1
  Ni  Ni15  1  0.70569400  0.63438300  0.71417200  1
  Ni  Ni16  1  0.53508700  0.05545000  0.30671200  1
  Ni  Ni17  1  0.94786000  0.08306400  0.86118900  1
  Ni  Ni18  1  0.46491300  0.94455000  0.69328800  1
  Ni  Ni19  1  0.96491300  0.55545000  0.30671200  1
  Ni  Ni20  1  0.70422500  0.04688400  0.43916600  1
  Ni  Ni21  1  0.20422500  0.45311600  0.56083400  1
  Ni  Ni22  1  0.29577500  0.95311600  0.56083400  1
  Ni  Ni23  1  0.79577500  0.54688400  0.43916600  1
  Cu  Cu24  1  0.81038600  0.34730100  0.07955300  1
  Cu  Cu25  1  0.31038600  0.15269900  0.92044700  1
  Cu  Cu26  1  0.18961400  0.65269900  0.92044700  1
  Cu  Cu27  1  0.68961400  0.84730100  0.07955300  1
  C  C28  1  0.13509400  0.16176700  0.91724600  1
  C  C29  1  0.86490600  0.83823300  0.08275400  1
  C  C30  1  0.36490600  0.66176700  0.91724600  1
  C  C31  1  0.63509400  0.33823300  0.08275400  1
  C  C32  1  0.61446800  0.68866600  0.44032800  1
  C  C33  1  0.11446800  0.81133400  0.55967200  1
  C  C34  1  0.38553200  0.31133400  0.55967200  1
  C  C35  1  0.88553200  0.18866600  0.44032800  1
  C  C36  1  0.88007400  0.50044900  0.71242800  1
  C  C37  1  0.38007400  0.99955100  0.28757200  1
  C  C38  1  0.11992600  0.49955100  0.28757200  1
  C  C39  1  0.61992600  0.00044900  0.71242800  1
  C  C40  1  0.67329500  0.52627000  0.00407600  1
  C  C41  1  0.17329500  0.97373000  0.99592400  1
  C  C42  1  0.68445100  0.16714700  0.14908500  1
  C  C43  1  0.32670500  0.47373000  0.99592400  1
  C  C44  1  0.57764900  0.57678500  0.60486800  1
  C  C45  1  0.07764900  0.92321500  0.39513200  1
  C  C46  1  0.42235100  0.42321500  0.39513200  1
  C  C47  1  0.92235100  0.07678500  0.60486800  1
  C  C48  1  0.69699200  0.72647000  0.42395200  1
  C  C49  1  0.19699200  0.77353000  0.57604800  1
  C  C50  1  0.30300800  0.27353000  0.57604800  1
  C  C51  1  0.80300800  0.22647000  0.42395200  1
  C  C52  1  0.93185200  0.27077400  0.27792800  1
  C  C53  1  0.43185200  0.22922600  0.72207200  1
  C  C54  1  0.06814800  0.72922600  0.72207200  1
  C  C55  1  0.56814800  0.77077400  0.27792800  1
  C  C56  1  0.91223000  0.58715600  0.53654700  1
  C  C57  1  0.41223000  0.91284400  0.46345300  1
  C  C58  1  0.08777000  0.41284400  0.46345300  1
  C  C59  1  0.58777000  0.08715600  0.53654700  1
  C  C60  1  0.70117700  0.94449900  0.73753900  1
  C  C61  1  0.20117700  0.55550100  0.26246100  1
  C  C62  1  0.29882300  0.05550100  0.26246100  1
  C  C63  1  0.79882300  0.44449900  0.73753900  1
  C  C64  1  0.92690800  0.45950200  0.87726500  1
  C  C65  1  0.42690800  0.04049800  0.12273500  1
  C  C66  1  0.07309200  0.54049800  0.12273500  1
  C  C67  1  0.57309200  0.95950200  0.87726500  1
  C  C68  1  0.94685700  0.82384300  0.08584400  1
  C  C69  1  0.44685700  0.67615700  0.91415600  1
  C  C70  1  0.05314300  0.17615700  0.91415600  1
  C  C71  1  0.55314300  0.32384300  0.08584400  1
  C  C72  1  0.81554900  0.66714700  0.14908500  1
  C  C73  1  0.31554900  0.83285300  0.85091500  1
  C  C74  1  0.18445100  0.33285300  0.85091500  1
  C  C75  1  0.82670500  0.02627000  0.00407600  1
