# generated using pymatgen
data_Cu3(NiC9)2
_symmetry_space_group_name_H-M   'P 1'
_cell_length_a   26.23218400
_cell_length_b   5.28148500
_cell_length_c   15.19193073
_cell_angle_alpha   89.98220247
_cell_angle_beta   90.00000000
_cell_angle_gamma   90.00000000
_symmetry_Int_Tables_number   1
_chemical_formula_structural   Cu3(NiC9)2
_chemical_formula_sum   'Cu18 Ni12 C108'
_cell_volume   2104.76421473
_cell_formula_units_Z   6
loop_
 _symmetry_equiv_pos_site_id
 _symmetry_equiv_pos_as_xyz
  1  'x, y, z'
loop_
 _atom_site_type_symbol
 _atom_site_label
 _atom_site_symmetry_multiplicity
 _atom_site_fract_x
 _atom_site_fract_y
 _atom_site_fract_z
 _atom_site_occupancy
  Ni  Ni0  1  0.83630900  0.54404100  0.16732400  1
  Ni  Ni1  1  0.83630900  0.45595900  0.83267600  1
  Ni  Ni2  1  0.33393100  0.45302200  0.33576300  1
  Ni  Ni3  1  0.33393100  0.54697800  0.66423700  1
  Ni  Ni4  1  0.17298100  0.55324000  0.16257600  1
  Ni  Ni5  1  0.17298100  0.44676000  0.83742400  1
  Ni  Ni6  1  0.67344100  0.46110200  0.33277200  1
  Ni  Ni7  1  0.67344100  0.53889800  0.66722800  1
  Ni  Ni8  1  0.50217200  0.50837500  0.17309200  1
  Ni  Ni9  1  0.50217200  0.49162500  0.82690800  1
  Ni  Ni10  1  0.00489100  0.45169000  0.32734100  1
  Ni  Ni11  1  0.00489100  0.54831000  0.67265900  1
  Cu  Cu12  1  0.42478000  0.50000000  0.00000000  1
  Cu  Cu13  1  0.92150500  0.50000000  0.50000000  1
  Cu  Cu14  1  0.08402700  0.50000000  0.00000000  1
  Cu  Cu15  1  0.58241200  0.50000000  0.50000000  1
  Cu  Cu16  1  0.74701500  0.50000000  0.00000000  1
  Cu  Cu17  1  0.24582800  0.50000000  0.50000000  1
  Cu  Cu18  1  0.96221900  0.49919400  0.11874000  1
  Cu  Cu19  1  0.96221900  0.50080600  0.88126000  1
  Cu  Cu20  1  0.45928400  0.51534400  0.61779700  1
  Cu  Cu21  1  0.45928400  0.48465600  0.38220300  1
  Cu  Cu22  1  0.30172700  0.50654500  0.11921400  1
  Cu  Cu23  1  0.30172700  0.49345500  0.88078600  1
  Cu  Cu24  1  0.80058700  0.50429600  0.61867000  1
  Cu  Cu25  1  0.80058700  0.49570400  0.38133000  1
  Cu  Cu26  1  0.62703900  0.49001000  0.12624200  1
  Cu  Cu27  1  0.62703900  0.50999000  0.87375800  1
  Cu  Cu28  1  0.13000500  0.48836600  0.62492100  1
  Cu  Cu29  1  0.13000500  0.51163400  0.37507900  1
  C  C30  1  0.34551500  0.00000000  0.00000000  1
  C  C31  1  0.84340400  0.00000000  0.50000000  1
  C  C32  1  0.00199100  0.00000000  0.00000000  1
  C  C33  1  0.50679000  0.00000000  0.50000000  1
  C  C34  1  0.66238900  0.00000000  0.00000000  1
  C  C35  1  0.16637300  0.00000000  0.50000000  1
  C  C36  1  0.52642600  0.00000000  0.00000000  1
  C  C37  1  0.03703000  0.00000000  0.50000000  1
  C  C38  1  0.21363500  0.00000000  0.00000000  1
  C  C39  1  0.71344900  0.00000000  0.50000000  1
  C  C40  1  0.87134100  0.00000000  0.00000000  1
  C  C41  1  0.37473300  0.00000000  0.50000000  1
  C  C42  1  0.90326900  0.99492900  0.29761400  1
  C  C43  1  0.90326900  0.00507100  0.70238600  1
  C  C44  1  0.40294800  0.98773200  0.79379200  1
  C  C45  1  0.40294800  0.01226800  0.20620800  1
  C  C46  1  0.23293300  0.00476300  0.30472300  1
  C  C47  1  0.23293300  0.99523700  0.69527700  1
  C  C48  1  0.73227300  0.00197500  0.80895100  1
  C  C49  1  0.73227300  0.99802500  0.19104900  1
  C  C50  1  0.57875400  0.01809400  0.30524300  1
  C  C51  1  0.57875400  0.98190600  0.69475700  1
  C  C52  1  0.06799700  0.00091800  0.80510300  1
  C  C53  1  0.06799700  0.99908200  0.19489700  1
  C  C54  1  0.28938600  0.21598700  0.04136900  1
  C  C55  1  0.28938600  0.78401300  0.95863100  1
  C  C56  1  0.35200500  0.21990500  0.89582600  1
  C  C57  1  0.35200500  0.78009500  0.10417400  1
  C  C58  1  0.39416500  0.21355200  0.06266600  1
  C  C59  1  0.39416500  0.78644800  0.93733400  1
  C  C60  1  0.78722400  0.21672500  0.54073000  1
  C  C61  1  0.78722400  0.78327500  0.45927000  1
  C  C62  1  0.84814100  0.21414700  0.39512700  1
  C  C63  1  0.84814100  0.78585300  0.60487300  1
  C  C64  1  0.89185900  0.21295700  0.56263700  1
  C  C65  1  0.89185900  0.78704300  0.43736300  1
  C  C66  1  0.94593900  0.21560200  0.04110400  1
  C  C67  1  0.94593900  0.78439800  0.95889600  1
  C  C68  1  0.05035100  0.21906400  0.06148900  1
  C  C69  1  0.05035100  0.78093600  0.93851100  1
  C  C70  1  0.00869400  0.21389500  0.89546800  1
  C  C71  1  0.00869400  0.78610500  0.10453200  1
  C  C72  1  0.45107100  0.21068100  0.54533500  1
  C  C73  1  0.45107100  0.78931900  0.45466500  1
  C  C74  1  0.51232600  0.22608900  0.39840400  1
  C  C75  1  0.51232600  0.77391100  0.60159600  1
  C  C76  1  0.55740300  0.20383200  0.56474000  1
  C  C77  1  0.55740300  0.79616800  0.43526000  1
  C  C78  1  0.60828600  0.22374400  0.04145100  1
  C  C79  1  0.60828600  0.77625600  0.95854900  1
  C  C80  1  0.66885200  0.20564800  0.89268800  1
  C  C81  1  0.66885200  0.79435200  0.10731200  1
  C  C82  1  0.71357100  0.21501200  0.05844800  1
  C  C83  1  0.71357100  0.78498800  0.94155200  1
  C  C84  1  0.11085000  0.21084400  0.54557000  1
  C  C85  1  0.11085000  0.78915600  0.45443000  1
  C  C86  1  0.17378700  0.21832500  0.39675600  1
  C  C87  1  0.17378700  0.78167500  0.60324400  1
  C  C88  1  0.21477200  0.21568300  0.56271100  1
  C  C89  1  0.21477200  0.78431700  0.43728900  1
  C  C90  1  0.83905200  0.22064800  0.16896700  1
  C  C91  1  0.83905200  0.77935200  0.83103300  1
  C  C92  1  0.89479100  0.67181100  0.13201100  1
  C  C93  1  0.89479100  0.32818900  0.86798900  1
  C  C94  1  0.78798000  0.65366000  0.09658800  1
  C  C95  1  0.78798000  0.34634000  0.90341200  1
  C  C96  1  0.82545900  0.66685600  0.27317000  1
  C  C97  1  0.82545900  0.33314400  0.72683000  1
  C  C98  1  0.33507500  0.77621600  0.33498200  1
  C  C99  1  0.33507500  0.22378400  0.66501800  1
  C  C100  1  0.28429000  0.33809800  0.40180500  1
  C  C101  1  0.28429000  0.66190200  0.59819500  1
  C  C102  1  0.32547900  0.33154900  0.22890300  1
  C  C103  1  0.32547900  0.66845100  0.77109700  1
  C  C104  1  0.39078500  0.32465100  0.37940000  1
  C  C105  1  0.39078500  0.67534900  0.62060000  1
  C  C106  1  0.17310500  0.23049400  0.16328500  1
  C  C107  1  0.17310500  0.76950600  0.83671500  1
  C  C108  1  0.12641900  0.67171200  0.09044000  1
  C  C109  1  0.12641900  0.32828800  0.90956000  1
  C  C110  1  0.15915600  0.67433200  0.26818300  1
  C  C111  1  0.15915600  0.32566800  0.73181700  1
  C  C112  1  0.23308000  0.67088800  0.13000300  1
  C  C113  1  0.23308000  0.32911200  0.86999700  1
  C  C114  1  0.67274300  0.78615600  0.32773700  1
  C  C115  1  0.67274300  0.21384400  0.67226300  1
  C  C116  1  0.62500800  0.34680700  0.40152600  1
  C  C117  1  0.62500800  0.65319300  0.59847400  1
  C  C118  1  0.66352100  0.32473800  0.22840700  1
  C  C119  1  0.66352100  0.67526200  0.77159300  1
  C  C120  1  0.73144900  0.34237800  0.37263700  1
  C  C121  1  0.73144900  0.65762200  0.62736300  1
  C  C122  1  0.50082200  0.18374800  0.16202600  1
  C  C123  1  0.50082200  0.81625200  0.83797400  1
  C  C124  1  0.47748500  0.65355700  0.07798200  1
  C  C125  1  0.47748500  0.34644300  0.92201800  1
  C  C126  1  0.46206700  0.60086200  0.25917700  1
  C  C127  1  0.46206700  0.39913800  0.74082300  1
  C  C128  1  0.56503900  0.60939700  0.19107500  1
  C  C129  1  0.56503900  0.39060300  0.80892500  1
  C  C130  1  0.00561400  0.77622200  0.32216600  1
  C  C131  1  0.00561400  0.22377800  0.67783400  1
  C  C132  1  0.96054600  0.33851100  0.40376700  1
  C  C133  1  0.96054600  0.66148900  0.59623300  1
  C  C134  1  0.98936000  0.31944500  0.22439600  1
  C  C135  1  0.98936000  0.68055500  0.77560400  1
  C  C136  1  0.06440000  0.33075100  0.35855400  1
  C  C137  1  0.06440000  0.66924900  0.64144600  1
