# generated using pymatgen
data_Cu20Ni17C60
_symmetry_space_group_name_H-M   'P 1'
_cell_length_a   5.35107641
_cell_length_b   10.05044020
_cell_length_c   23.20579845
_cell_angle_alpha   87.76301324
_cell_angle_beta   83.37929570
_cell_angle_gamma   70.21177645
_symmetry_Int_Tables_number   1
_chemical_formula_structural   Cu20Ni17C60
_chemical_formula_sum   'Cu20 Ni17 C60'
_cell_volume   1166.49675064
_cell_formula_units_Z   1
loop_
 _symmetry_equiv_pos_site_id
 _symmetry_equiv_pos_as_xyz
  1  'x, y, z'
loop_
 _atom_site_type_symbol
 _atom_site_label
 _atom_site_symmetry_multiplicity
 _atom_site_fract_x
 _atom_site_fract_y
 _atom_site_fract_z
 _atom_site_occupancy
  Ni  Ni0  1  0.73447915  0.50000000  0.53104171  1
  Ni  Ni1  1  0.26552085  0.50000000  0.46895829  1
  Ni  Ni2  1  0.19874887  0.50000000  0.60250227  1
  Ni  Ni3  1  0.80125113  0.50000000  0.39749773  1
  Ni  Ni4  1  0.66243696  0.50000000  0.67512608  1
  Ni  Ni5  1  0.33756304  0.50000000  0.32487392  1
  Ni  Ni6  1  0.12866319  0.50000000  0.74267363  1
  Ni  Ni7  1  0.87133681  0.50000000  0.25732637  1
  Ni  Ni8  1  0.59759662  0.50000000  0.80480677  1
  Ni  Ni9  1  0.40240338  0.50000000  0.19519323  1
  Ni  Ni10  1  0.04056386  0.00000000  0.91887227  1
  Ni  Ni11  1  0.95943614  0.00000000  0.08112773  1
  Ni  Ni12  1  0.57199796  0.00000000  0.85600408  1
  Ni  Ni13  1  0.42800204  -0.00000000  0.14399592  1
  Ni  Ni14  1  0.50000000  -0.00000000  0.00000000  1
  Ni  Ni15  1  0.10540505  -0.00000000  0.78918991  1
  Ni  Ni16  1  0.89459495  0.00000000  0.21081009  1
  Cu  Cu17  1  0.21420122  0.79099892  0.53324613  1
  Cu  Cu18  1  0.25255266  0.20900108  0.53324613  1
  Cu  Cu19  1  0.78579878  0.20900108  0.46675387  1
  Cu  Cu20  1  0.74744734  0.79099892  0.46675387  1
  Cu  Cu21  1  0.13817677  0.78750561  0.66741493  1
  Cu  Cu22  1  0.19440830  0.21249439  0.66741493  1
  Cu  Cu23  1  0.86182323  0.21249439  0.33258507  1
  Cu  Cu24  1  0.80559170  0.78750561  0.33258507  1
  Cu  Cu25  1  0.60104154  0.79690714  0.73649281  1
  Cu  Cu26  1  0.66246565  0.20309286  0.73649281  1
  Cu  Cu27  1  0.39895846  0.20309286  0.26350719  1
  Cu  Cu28  1  0.33753435  0.79690714  0.26350719  1
  Cu  Cu29  1  0.55340524  0.71487968  0.93265924  1
  Cu  Cu30  1  0.51393552  0.28512032  0.93265924  1
  Cu  Cu31  1  0.44659476  0.28512032  0.06734076  1
  Cu  Cu32  1  0.48606448  0.71487968  0.06734076  1
  Cu  Cu33  1  0.09227394  0.70196960  0.86355373  1
  Cu  Cu34  1  0.04417233  0.29803040  0.86355373  1
  Cu  Cu35  1  0.90772606  0.29803040  0.13644627  1
  Cu  Cu36  1  0.95582767  0.70196960  0.13644627  1
  C  C37  1  0.78783809  0.59104333  0.60322019  1
  C  C38  1  0.60894173  0.40895667  0.60322019  1
  C  C39  1  0.21216191  0.40895667  0.39677981  1
  C  C40  1  0.39105827  0.59104333  0.39677981  1
  C  C41  1  0.94631076  0.84952243  0.49907496  1
  C  C42  1  0.55461428  0.15047757  0.49907496  1
  C  C43  1  0.05368924  0.15047757  0.50092504  1
  C  C44  1  0.44538572  0.84952243  0.50092504  1
  C  C45  1  0.31938904  0.61753073  0.53341247  1
  C  C46  1  0.14719848  0.38246927  0.53341247  1
  C  C47  1  0.68061096  0.38246927  0.46658753  1
  C  C48  1  0.85280152  0.61753073  0.46658753  1
  C  C49  1  0.14424697  0.84556547  0.60082060  1
  C  C50  1  0.25493243  0.15443453  0.60082060  1
  C  C51  1  0.85575303  0.15443453  0.39917940  1
  C  C52  1  0.74506757  0.84556547  0.39917940  1
  C  C53  1  0.25062714  0.61503350  0.67162914  1
  C  C54  1  0.07774372  0.38496650  0.67162914  1
  C  C55  1  0.74937286  0.38496650  0.32837086  1
  C  C56  1  0.92225628  0.61503350  0.32837086  1
  C  C57  1  0.83256113  0.84863907  0.69944890  1
  C  C58  1  0.46798997  0.15136093  0.69944890  1
  C  C59  1  0.16743887  0.15136093  0.30055110  1
  C  C60  1  0.53201003  0.84863907  0.30055110  1
  C  C61  1  0.31866628  0.85200828  0.70428745  1
  C  C62  1  0.97704627  0.14799172  0.70428745  1
  C  C63  1  0.68133372  0.14799172  0.29571255  1
  C  C64  1  0.02295373  0.85200828  0.29571255  1
  C  C65  1  0.71633973  0.62281464  0.74102506  1
  C  C66  1  0.54263522  0.37718536  0.74102506  1
  C  C67  1  0.28366027  0.37718536  0.25897494  1
  C  C68  1  0.45736478  0.62281464  0.25897494  1
  C  C69  1  0.49306976  0.88171522  0.79699815  1
  C  C70  1  0.70993210  0.11828478  0.79699815  1
  C  C71  1  0.50693024  0.11828478  0.20300185  1
  C  C72  1  0.29006790  0.88171522  0.20300185  1
  C  C73  1  0.95979842  0.93437174  0.00000000  1
  C  C74  1  0.04020158  0.06562826  0.00000000  1
  C  C75  1  0.45218551  0.88779539  0.92958396  1
  C  C76  1  0.61823053  0.11220461  0.92958396  1
  C  C77  1  0.54781449  0.11220461  0.07041604  1
  C  C78  1  0.38176947  0.88779539  0.07041604  1
  C  C79  1  0.98162409  0.87643375  0.85808079  1
  C  C80  1  0.16029512  0.12356625  0.85808079  1
  C  C81  1  0.01837591  0.12356625  0.14191921  1
  C  C82  1  0.83970488  0.87643375  0.14191921  1
  C  C83  1  0.21041325  0.61649722  0.80370478  1
  C  C84  1  0.98588197  0.38350278  0.80370478  1
  C  C85  1  0.78958675  0.38350278  0.19629522  1
  C  C86  1  0.01411803  0.61649722  0.19629522  1
  C  C87  1  0.35484249  0.65241498  0.90175406  1
  C  C88  1  0.74340345  0.34758502  0.90175406  1
  C  C89  1  0.64515751  0.34758502  0.09824594  1
  C  C90  1  0.25659655  0.65241498  0.09824594  1
  C  C91  1  0.85154926  0.65101339  0.89724101  1
  C  C92  1  0.25120974  0.34898661  0.89724101  1
  C  C93  1  0.14845074  0.34898661  0.10275899  1
  C  C94  1  0.74879026  0.65101339  0.10275899  1
  C  C95  1  0.56624013  0.66097557  0.00000000  1
  C  C96  1  0.43375987  0.33902443  0.00000000  1
