# generated using pymatgen
data_CuNi7C32
_symmetry_space_group_name_H-M   'P 1'
_cell_length_a   7.89242404
_cell_length_b   7.89242404
_cell_length_c   7.89242466
_cell_angle_alpha   90.01662437
_cell_angle_beta   90.01662437
_cell_angle_gamma   90.01662165
_symmetry_Int_Tables_number   1
_chemical_formula_structural   CuNi7C32
_chemical_formula_sum   'Cu1 Ni7 C32'
_cell_volume   491.62188967
_cell_formula_units_Z   1
loop_
 _symmetry_equiv_pos_site_id
 _symmetry_equiv_pos_as_xyz
  1  'x, y, z'
loop_
 _atom_site_type_symbol
 _atom_site_label
 _atom_site_symmetry_multiplicity
 _atom_site_fract_x
 _atom_site_fract_y
 _atom_site_fract_z
 _atom_site_occupancy
  C  C0  1  0.24864900  0.24864900  0.24864900  1
  C  C1  1  0.24858800  0.24858800  0.75130700  1
  C  C2  1  0.75142300  0.24856600  0.75142300  1
  C  C3  1  0.75130700  0.24858800  0.24858800  1
  C  C4  1  0.24856600  0.75142300  0.75142300  1
  C  C5  1  0.75145600  0.75145600  0.75145600  1
  C  C6  1  0.24858800  0.75130700  0.24858800  1
  C  C7  1  0.75142300  0.75142300  0.24856600  1
  Ni  Ni8  1  0.50175300  0.99872600  0.99872600  1
  Ni  Ni9  1  0.99872600  0.99872600  0.50175300  1
  Ni  Ni10  1  0.50128000  0.99870700  0.50128000  1
  Ni  Ni11  1  0.99872600  0.50175300  0.99872600  1
  Ni  Ni12  1  0.50128000  0.50128000  0.99870700  1
  Ni  Ni13  1  0.99870700  0.50128000  0.50128000  1
  Ni  Ni14  1  0.50126700  0.50126700  0.50126700  1
  Cu  Cu15  1  0.99893600  0.99893600  0.99893600  1
  C  C16  1  0.99577400  0.24707900  0.99577400  1
  C  C17  1  0.50380100  0.24956800  0.99619100  1
  C  C18  1  0.99619100  0.24956800  0.50380100  1
  C  C19  1  0.50379900  0.24949400  0.50379900  1
  C  C20  1  0.99931800  0.75310000  0.99931800  1
  C  C21  1  0.50081300  0.75032500  0.99914200  1
  C  C22  1  0.99914200  0.75032500  0.50081300  1
  C  C23  1  0.50083900  0.75051000  0.50083900  1
  C  C24  1  0.99931800  0.99931800  0.75310000  1
  C  C25  1  0.50081300  0.99914200  0.75032500  1
  C  C26  1  0.99577400  0.99577400  0.24707900  1
  C  C27  1  0.50380100  0.99619100  0.24956800  1
  C  C28  1  0.99914200  0.50081300  0.75032500  1
  C  C29  1  0.50083900  0.50083900  0.75051000  1
  C  C30  1  0.99619100  0.50380100  0.24956800  1
  C  C31  1  0.50379900  0.50379900  0.24949400  1
  C  C32  1  0.24707900  0.99577400  0.99577400  1
  C  C33  1  0.75310000  0.99931800  0.99931800  1
  C  C34  1  0.24956800  0.99619100  0.50380100  1
  C  C35  1  0.75032500  0.99914200  0.50081300  1
  C  C36  1  0.24956800  0.50380100  0.99619100  1
  C  C37  1  0.75032500  0.50081300  0.99914200  1
  C  C38  1  0.24949400  0.50379900  0.50379900  1
  C  C39  1  0.75051000  0.50083900  0.50083900  1
