# generated using pymatgen
data_Cu2NiC4
_symmetry_space_group_name_H-M   'P 1'
_cell_length_a   8.62056100
_cell_length_b   3.94423500
_cell_length_c   13.42308000
_cell_angle_alpha   90.00000000
_cell_angle_beta   90.00000000
_cell_angle_gamma   90.00000000
_symmetry_Int_Tables_number   1
_chemical_formula_structural   Cu2NiC4
_chemical_formula_sum   'Cu8 Ni4 C16'
_cell_volume   456.40510182
_cell_formula_units_Z   4
loop_
 _symmetry_equiv_pos_site_id
 _symmetry_equiv_pos_as_xyz
  1  'x, y, z'
loop_
 _atom_site_type_symbol
 _atom_site_label
 _atom_site_symmetry_multiplicity
 _atom_site_fract_x
 _atom_site_fract_y
 _atom_site_fract_z
 _atom_site_occupancy
  C  C0  1  0.11659200  0.25000000  0.44688900  1
  C  C1  1  0.61659200  0.25000000  0.05311100  1
  C  C2  1  0.88340800  0.75000000  0.55311100  1
  C  C3  1  0.38340800  0.75000000  0.94688900  1
  C  C4  1  0.63391400  0.25000000  0.28584200  1
  C  C5  1  0.13391400  0.25000000  0.21415800  1
  C  C6  1  0.36608600  0.75000000  0.71415800  1
  C  C7  1  0.86608600  0.75000000  0.78584200  1
  C  C8  1  0.69326700  0.25000000  0.41020400  1
  C  C9  1  0.19326700  0.25000000  0.08979600  1
  C  C10  1  0.30673300  0.75000000  0.58979600  1
  C  C11  1  0.80673300  0.75000000  0.91020400  1
  Ni  Ni12  1  0.46021300  0.25000000  0.38723200  1
  Ni  Ni13  1  0.96021300  0.25000000  0.11276800  1
  Ni  Ni14  1  0.53978700  0.75000000  0.61276800  1
  Ni  Ni15  1  0.03978700  0.75000000  0.88723200  1
  C  C16  1  0.03299700  0.25000000  0.62689100  1
  C  C17  1  0.53299700  0.25000000  0.87310900  1
  C  C18  1  0.96700300  0.75000000  0.37310900  1
  C  C19  1  0.46700300  0.75000000  0.12689100  1
  Cu  Cu20  1  0.32952600  0.25000000  0.41243500  1
  Cu  Cu21  1  0.82952600  0.25000000  0.08756500  1
  Cu  Cu22  1  0.67047400  0.75000000  0.58756500  1
  Cu  Cu23  1  0.17047400  0.75000000  0.91243500  1
  Cu  Cu24  1  0.60556700  0.25000000  0.35939000  1
  Cu  Cu25  1  0.10556700  0.25000000  0.14061000  1
  Cu  Cu26  1  0.39443300  0.75000000  0.64061000  1
  Cu  Cu27  1  0.89443300  0.75000000  0.85939000  1
