# generated using pymatgen
data_CuNi8C3
_symmetry_space_group_name_H-M   'P 1'
_cell_length_a   4.77157511
_cell_length_b   4.77157511
_cell_length_c   7.87483900
_cell_angle_alpha   90.00000000
_cell_angle_beta   90.00000000
_cell_angle_gamma   119.99998761
_symmetry_Int_Tables_number   1
_chemical_formula_structural   CuNi8C3
_chemical_formula_sum   'Cu1 Ni8 C3'
_cell_volume   155.27298345
_cell_formula_units_Z   1
loop_
 _symmetry_equiv_pos_site_id
 _symmetry_equiv_pos_as_xyz
  1  'x, y, z'
loop_
 _atom_site_type_symbol
 _atom_site_label
 _atom_site_symmetry_multiplicity
 _atom_site_fract_x
 _atom_site_fract_y
 _atom_site_fract_z
 _atom_site_occupancy
  C  C0  1  0.00000000  0.00000000  0.55843400  1
  C  C1  1  0.00000000  0.00000000  0.93509500  1
  C  C2  1  0.66666700  0.33333300  0.07515900  1
  Ni  Ni3  1  0.33333300  0.66666700  0.49827000  1
  Ni  Ni4  1  0.33333300  0.66666700  0.99398000  1
  Ni  Ni5  1  0.16171100  0.83828900  0.25160000  1
  Ni  Ni6  1  0.16171100  0.32342200  0.25160000  1
  Ni  Ni7  1  0.67657800  0.83828900  0.25160000  1
  Ni  Ni8  1  0.50680900  0.49319100  0.74906200  1
  Ni  Ni9  1  0.50680900  0.01361700  0.74906200  1
  Ni  Ni10  1  0.98638300  0.49319100  0.74906200  1
  Cu  Cu11  1  0.66666700  0.33333300  0.43707100  1
