# generated using pymatgen
data_Cu4Ni2C
_symmetry_space_group_name_H-M   'P 1'
_cell_length_a   7.71059575
_cell_length_b   7.71059575
_cell_length_c   7.71059575
_cell_angle_alpha   133.76530709
_cell_angle_beta   133.76530709
_cell_angle_gamma   67.45480726
_symmetry_Int_Tables_number   1
_chemical_formula_structural   Cu4Ni2C
_chemical_formula_sum   'Cu4 Ni2 C1'
_cell_volume   235.08213402
_cell_formula_units_Z   1
loop_
 _symmetry_equiv_pos_site_id
 _symmetry_equiv_pos_as_xyz
  1  'x, y, z'
loop_
 _atom_site_type_symbol
 _atom_site_label
 _atom_site_symmetry_multiplicity
 _atom_site_fract_x
 _atom_site_fract_y
 _atom_site_fract_z
 _atom_site_occupancy
  Ni  Ni0  1  0.75000000  0.25000000  0.50000000  1
  Ni  Ni1  1  0.25000000  0.75000000  0.50000000  1
  C  C2  1  0.00000000  0.00000000  0.00000000  1
  Cu  Cu3  1  0.84453500  0.40402200  0.00000000  1
  Cu  Cu4  1  0.40402200  0.84453500  0.00000000  1
  Cu  Cu5  1  0.15546500  0.15546500  0.55948700  1
  Cu  Cu6  1  0.59597800  0.59597800  0.44051300  1
