# generated using pymatgen
data_CuNiC62
_symmetry_space_group_name_H-M   'P 1'
_cell_length_a   5.40697631
_cell_length_b   7.10473773
_cell_length_c   20.84814459
_cell_angle_alpha   90.00000000
_cell_angle_beta   94.25512916
_cell_angle_gamma   90.00000000
_symmetry_Int_Tables_number   1
_chemical_formula_structural   CuNiC62
_chemical_formula_sum   'Cu1 Ni1 C62'
_cell_volume   798.67697179
_cell_formula_units_Z   1
loop_
 _symmetry_equiv_pos_site_id
 _symmetry_equiv_pos_as_xyz
  1  'x, y, z'
loop_
 _atom_site_type_symbol
 _atom_site_label
 _atom_site_symmetry_multiplicity
 _atom_site_fract_x
 _atom_site_fract_y
 _atom_site_fract_z
 _atom_site_occupancy
  C  C0  1  0.00000000  0.50000000  0.00000000  1
  C  C1  1  0.50000000  0.00000000  0.50000000  1
  Ni  Ni2  1  0.00000000  0.50000000  0.50000000  1
  Cu  Cu3  1  0.50000000  0.00000000  0.00000000  1
  C  C4  1  0.47705789  0.50000000  0.41005462  1
  C  C5  1  0.52294211  0.50000000  0.58994538  1
  C  C6  1  0.02165916  0.00000000  0.08896574  1
  C  C7  1  0.97834084  0.00000000  0.91103426  1
  C  C8  1  0.72093225  0.00000000  0.24973850  1
  C  C9  1  0.27906775  0.00000000  0.75026150  1
  C  C10  1  0.26606063  0.26068314  0.26226913  1
  C  C11  1  0.73393937  0.73931686  0.73773087  1
  C  C12  1  0.73393937  0.26068314  0.73773087  1
  C  C13  1  0.26606063  0.73931686  0.26226913  1
  C  C14  1  0.24682389  0.50000000  0.74774839  1
  C  C15  1  0.75317611  0.50000000  0.25225161  1
  C  C16  1  0.53901263  0.27472961  0.12471256  1
  C  C17  1  0.46098737  0.72527039  0.87528744  1
  C  C18  1  0.46098737  0.27472961  0.87528744  1
  C  C19  1  0.53901263  0.72527039  0.12471256  1
  C  C20  1  0.04267496  0.21832697  0.61916969  1
  C  C21  1  0.95732504  0.78167303  0.38083031  1
  C  C22  1  0.95732504  0.21832697  0.38083031  1
  C  C23  1  0.04267496  0.78167303  0.61916969  1
  C  C24  1  0.58227528  0.24572296  0.20394383  1
  C  C25  1  0.41772472  0.75427704  0.79605617  1
  C  C26  1  0.41772472  0.24572296  0.79605617  1
  C  C27  1  0.58227528  0.75427704  0.20394383  1
  C  C28  1  0.50000000  0.50000000  0.00000000  1
  C  C29  1  0.27462307  0.30265354  0.58515099  1
  C  C30  1  0.72537693  0.69734646  0.41484901  1
  C  C31  1  0.72537693  0.30265354  0.41484901  1
  C  C32  1  0.27462307  0.69734646  0.58515099  1
  C  C33  1  0.00000000  0.00000000  0.00000000  1
  C  C34  1  0.41957527  0.00000000  0.28526870  1
  C  C35  1  0.58042473  0.00000000  0.71473130  1
  C  C36  1  0.53909992  0.50000000  0.11658259  1
  C  C37  1  0.46090008  0.50000000  0.88341741  1
  C  C38  1  0.07816173  0.20794915  0.69849696  1
  C  C39  1  0.92183827  0.79205085  0.30150304  1
  C  C40  1  0.92183827  0.20794915  0.30150304  1
  C  C41  1  0.07816173  0.79205085  0.69849696  1
  C  C42  1  0.49799444  0.50000000  0.30931512  1
  C  C43  1  0.50200556  0.50000000  0.69068488  1
  C  C44  1  0.08313856  0.50000000  0.23067269  1
  C  C45  1  0.91686144  0.50000000  0.76932731  1
  C  C46  1  0.27984635  0.18723161  0.09388404  1
  C  C47  1  0.72015365  0.81276839  0.90611596  1
  C  C48  1  0.72015365  0.18723161  0.90611596  1
  C  C49  1  0.27984635  0.81276839  0.09388404  1
  C  C50  1  0.97811671  0.00000000  0.40950794  1
  C  C51  1  0.02188329  0.00000000  0.59049206  1
  C  C52  1  0.21916991  0.31027896  0.40484822  1
  C  C53  1  0.78083009  0.68972104  0.59515178  1
  C  C54  1  0.78083009  0.31027896  0.59515178  1
  C  C55  1  0.21916991  0.68972104  0.40484822  1
  C  C56  1  0.00000000  0.00000000  0.50000000  1
  C  C57  1  0.76014533  0.18744810  0.08556590  1
  C  C58  1  0.23985467  0.81255190  0.91443410  1
  C  C59  1  0.23985467  0.18744810  0.91443410  1
  C  C60  1  0.76014533  0.81255190  0.08556590  1
  C  C61  1  0.50000000  0.50000000  0.50000000  1
  C  C62  1  0.00331515  0.00000000  0.19020158  1
  C  C63  1  0.99668485  0.00000000  0.80979842  1
