# generated using pymatgen
data_Cu12Ni3C17
_symmetry_space_group_name_H-M   'P 1'
_cell_length_a   9.74503972
_cell_length_b   9.74503972
_cell_length_c   17.97643978
_cell_angle_alpha   64.15666800
_cell_angle_beta   64.15666800
_cell_angle_gamma   49.84195879
_symmetry_Int_Tables_number   1
_chemical_formula_structural   Cu12Ni3C17
_chemical_formula_sum   'Cu24 Ni6 C34'
_cell_volume   1144.11207389
_cell_formula_units_Z   2
loop_
 _symmetry_equiv_pos_site_id
 _symmetry_equiv_pos_as_xyz
  1  'x, y, z'
loop_
 _atom_site_type_symbol
 _atom_site_label
 _atom_site_symmetry_multiplicity
 _atom_site_fract_x
 _atom_site_fract_y
 _atom_site_fract_z
 _atom_site_occupancy
  Ni  Ni0  1  0.21622200  0.54650700  0.33860800  1
  Ni  Ni1  1  0.45349300  0.78377800  0.16139200  1
  Ni  Ni2  1  0.78377800  0.45349300  0.66139200  1
  Ni  Ni3  1  0.54650700  0.21622200  0.83860800  1
  Ni  Ni4  1  0.61542800  0.38457200  0.25000000  1
  Ni  Ni5  1  0.38457200  0.61542800  0.75000000  1
  C  C6  1  0.31941700  0.76867600  0.12674100  1
  C  C7  1  0.23132400  0.68058300  0.37325900  1
  C  C8  1  0.68058300  0.23132400  0.87325900  1
  C  C9  1  0.76867600  0.31941700  0.62674100  1
  C  C10  1  0.40501200  0.42093000  0.25559600  1
  C  C11  1  0.57907000  0.59498800  0.24440400  1
  C  C12  1  0.59498800  0.57907000  0.74440400  1
  C  C13  1  0.42093000  0.40501200  0.75559600  1
  Cu  Cu14  1  0.28319100  0.99569600  0.05006300  1
  Cu  Cu15  1  0.00430400  0.71680900  0.44993700  1
  Cu  Cu16  1  0.71680900  0.00430400  0.94993700  1
  Cu  Cu17  1  0.99569600  0.28319100  0.55006300  1
  Cu  Cu18  1  0.14743200  0.77712900  0.09664100  1
  Cu  Cu19  1  0.22287100  0.85256800  0.40335900  1
  Cu  Cu20  1  0.85256800  0.22287100  0.90335900  1
  Cu  Cu21  1  0.77712900  0.14743200  0.59664100  1
  Cu  Cu22  1  0.52282300  0.63106200  0.04772400  1
  Cu  Cu23  1  0.36893800  0.47717700  0.45227600  1
  Cu  Cu24  1  0.47717700  0.36893800  0.95227600  1
  Cu  Cu25  1  0.63106200  0.52282300  0.54772400  1
  Cu  Cu26  1  0.48251700  0.19900200  0.34397100  1
  Cu  Cu27  1  0.80099800  0.51748300  0.15602900  1
  Cu  Cu28  1  0.51748300  0.80099800  0.65602900  1
  Cu  Cu29  1  0.19900200  0.48251700  0.84397100  1
  Cu  Cu30  1  0.19952500  0.44511500  0.24968000  1
  Cu  Cu31  1  0.55488500  0.80047500  0.25032000  1
  Cu  Cu32  1  0.80047500  0.55488500  0.75032000  1
  Cu  Cu33  1  0.44511500  0.19952500  0.74968000  1
  Cu  Cu34  1  0.56152100  0.28759800  0.16851800  1
  Cu  Cu35  1  0.71240200  0.43847900  0.33148200  1
  Cu  Cu36  1  0.43847900  0.71240200  0.83148200  1
  Cu  Cu37  1  0.28759800  0.56152100  0.66851800  1
  C  C38  1  0.03593600  0.96406400  0.25000000  1
  C  C39  1  0.96406400  0.03593600  0.75000000  1
  C  C40  1  0.26921200  0.12786900  0.00055100  1
  C  C41  1  0.87213100  0.73078800  0.49944900  1
  C  C42  1  0.73078800  0.87213100  0.99944900  1
  C  C43  1  0.12786900  0.26921200  0.50055100  1
  C  C44  1  0.03693700  0.79069500  0.07928700  1
  C  C45  1  0.20930500  0.96306300  0.42071300  1
  C  C46  1  0.96306300  0.20930500  0.92071300  1
  C  C47  1  0.79069500  0.03693700  0.57928700  1
  C  C48  1  0.64914200  0.55321400  0.99643500  1
  C  C49  1  0.44678600  0.35085800  0.50356500  1
  C  C50  1  0.35085800  0.44678600  0.00356500  1
  C  C51  1  0.55321400  0.64914200  0.49643500  1
  C  C52  1  0.53477400  0.06051800  0.39404800  1
  C  C53  1  0.93948200  0.46522600  0.10595200  1
  C  C54  1  0.46522600  0.93948200  0.60595200  1
  C  C55  1  0.06051800  0.53477400  0.89404800  1
  C  C56  1  0.07367100  0.45860900  0.24754200  1
  C  C57  1  0.54139100  0.92632900  0.25245800  1
  C  C58  1  0.92632900  0.54139100  0.75245800  1
  C  C59  1  0.45860900  0.07367100  0.74754200  1
  C  C60  1  0.65970400  0.20078700  0.11704100  1
  C  C61  1  0.79921300  0.34029600  0.38295900  1
  C  C62  1  0.34029600  0.79921300  0.88295900  1
  C  C63  1  0.20078700  0.65970400  0.61704100  1
