# generated using pymatgen
data_Cu4NiC
_symmetry_space_group_name_H-M   'P 1'
_cell_length_a   4.76859174
_cell_length_b   4.76859174
_cell_length_c   7.21793413
_cell_angle_alpha   87.62960871
_cell_angle_beta   87.62960871
_cell_angle_gamma   66.56947829
_symmetry_Int_Tables_number   1
_chemical_formula_structural   Cu4NiC
_chemical_formula_sum   'Cu8 Ni2 C2'
_cell_volume   150.41370181
_cell_formula_units_Z   2
loop_
 _symmetry_equiv_pos_site_id
 _symmetry_equiv_pos_as_xyz
  1  'x, y, z'
loop_
 _atom_site_type_symbol
 _atom_site_label
 _atom_site_symmetry_multiplicity
 _atom_site_fract_x
 _atom_site_fract_y
 _atom_site_fract_z
 _atom_site_occupancy
  C  C0  1  0.00000000  0.00000000  0.50000000  1
  C  C1  1  0.00000000  0.00000000  0.00000000  1
  Ni  Ni2  1  0.36627400  0.36627400  0.78464600  1
  Ni  Ni3  1  0.63372600  0.63372600  0.21535400  1
  Cu  Cu4  1  0.28348900  0.28348900  0.61072900  1
  Cu  Cu5  1  0.71651100  0.71651100  0.38927100  1
  Cu  Cu6  1  0.71357600  0.24487300  0.78902000  1
  Cu  Cu7  1  0.28642400  0.75512700  0.21098000  1
  Cu  Cu8  1  0.75512700  0.28642400  0.21098000  1
  Cu  Cu9  1  0.24487300  0.71357600  0.78902000  1
  Cu  Cu10  1  0.25626300  0.25626300  0.95780600  1
  Cu  Cu11  1  0.74373700  0.74373700  0.04219400  1
