# generated using pymatgen
data_Cu3Ni3C10
_symmetry_space_group_name_H-M   'P 1'
_cell_length_a   8.23335355
_cell_length_b   8.23335355
_cell_length_c   9.70773863
_cell_angle_alpha   56.63354681
_cell_angle_beta   56.63354681
_cell_angle_gamma   70.59576869
_symmetry_Int_Tables_number   1
_chemical_formula_structural   Cu3Ni3C10
_chemical_formula_sum   'Cu6 Ni6 C20'
_cell_volume   458.59180444
_cell_formula_units_Z   2
loop_
 _symmetry_equiv_pos_site_id
 _symmetry_equiv_pos_as_xyz
  1  'x, y, z'
loop_
 _atom_site_type_symbol
 _atom_site_label
 _atom_site_symmetry_multiplicity
 _atom_site_fract_x
 _atom_site_fract_y
 _atom_site_fract_z
 _atom_site_occupancy
  C  C0  1  0.75470300  0.43596700  0.07143600  1
  C  C1  1  0.56403300  0.24529700  0.92856400  1
  C  C2  1  0.59521100  0.77889800  0.74209400  1
  C  C3  1  0.22110200  0.40478900  0.25790600  1
  Ni  Ni4  1  0.67840100  0.13285000  0.42636900  1
  Ni  Ni5  1  0.86715000  0.32159900  0.57363100  1
  Ni  Ni6  1  0.64622000  0.18291400  0.62938200  1
  Ni  Ni7  1  0.81708600  0.35378000  0.37061800  1
  Ni  Ni8  1  0.84678800  0.90141000  0.29376800  1
  Ni  Ni9  1  0.09859000  0.15321200  0.70623200  1
  Cu  Cu10  1  0.04183800  0.61109400  0.53009900  1
  Cu  Cu11  1  0.38890600  0.95816200  0.46990100  1
  Cu  Cu12  1  0.15845200  0.59214900  0.80127100  1
  Cu  Cu13  1  0.40785100  0.84154800  0.19872900  1
  Cu  Cu14  1  0.17309600  0.15089900  0.97434800  1
  Cu  Cu15  1  0.84910100  0.82690400  0.02565200  1
  C  C16  1  0.95648800  0.10753100  0.14946500  1
  C  C17  1  0.89246900  0.04351200  0.85053500  1
  C  C18  1  0.21084500  0.14548400  0.79709200  1
  C  C19  1  0.85451600  0.78915500  0.20290800  1
  C  C20  1  0.60821100  0.00183100  0.40538500  1
  C  C21  1  0.99816900  0.39178900  0.59461500  1
  C  C22  1  0.34385700  0.00452700  0.03780100  1
  C  C23  1  0.99547300  0.65614300  0.96219900  1
  C  C24  1  0.88259700  0.76813600  0.47767700  1
  C  C25  1  0.23186400  0.11740300  0.52232300  1
  C  C26  1  0.23533300  0.36987300  0.90651100  1
  C  C27  1  0.63012700  0.76466700  0.09348900  1
  C  C28  1  0.03897900  0.59584400  0.70868000  1
  C  C29  1  0.40415600  0.96102100  0.29132000  1
  C  C30  1  0.34271400  0.73432200  0.64800700  1
  C  C31  1  0.26567800  0.65728600  0.35199300  1
