# generated using pymatgen
data_Cu2Ni8C13
_symmetry_space_group_name_H-M   'P 1'
_cell_length_a   5.75322100
_cell_length_b   11.21638000
_cell_length_c   14.84279500
_cell_angle_alpha   90.00000000
_cell_angle_beta   90.00000000
_cell_angle_gamma   90.00000000
_symmetry_Int_Tables_number   1
_chemical_formula_structural   Cu2Ni8C13
_chemical_formula_sum   'Cu8 Ni32 C52'
_cell_volume   957.81020655
_cell_formula_units_Z   4
loop_
 _symmetry_equiv_pos_site_id
 _symmetry_equiv_pos_as_xyz
  1  'x, y, z'
loop_
 _atom_site_type_symbol
 _atom_site_label
 _atom_site_symmetry_multiplicity
 _atom_site_fract_x
 _atom_site_fract_y
 _atom_site_fract_z
 _atom_site_occupancy
  C  C0  1  0.62482400  0.75000000  0.82880900  1
  C  C1  1  0.87517600  0.75000000  0.32880900  1
  C  C2  1  0.37517600  0.25000000  0.17119100  1
  C  C3  1  0.12482400  0.25000000  0.67119100  1
  Ni  Ni4  1  0.96098800  0.68036000  0.67564400  1
  Ni  Ni5  1  0.53901200  0.81964000  0.17564400  1
  Ni  Ni6  1  0.03901200  0.18036000  0.32435600  1
  Ni  Ni7  1  0.46098800  0.31964000  0.82435600  1
  Ni  Ni8  1  0.03901200  0.31964000  0.32435600  1
  Ni  Ni9  1  0.46098800  0.18036000  0.82435600  1
  Ni  Ni10  1  0.96098800  0.81964000  0.67564400  1
  Ni  Ni11  1  0.53901200  0.68036000  0.17564400  1
  Ni  Ni12  1  0.37483900  0.62381500  0.99121800  1
  Ni  Ni13  1  0.12516100  0.87618500  0.49121800  1
  Ni  Ni14  1  0.62516100  0.12381500  0.00878200  1
  Ni  Ni15  1  0.87483900  0.37618500  0.50878200  1
  Ni  Ni16  1  0.62516100  0.37618500  0.00878200  1
  Ni  Ni17  1  0.87483900  0.12381500  0.50878200  1
  Ni  Ni18  1  0.37483900  0.87618500  0.99121800  1
  Ni  Ni19  1  0.12516100  0.62381500  0.49121800  1
  Ni  Ni20  1  0.30368000  0.55260000  0.90376500  1
  Ni  Ni21  1  0.19632000  0.94740000  0.40376500  1
  Ni  Ni22  1  0.69632000  0.05260000  0.09623500  1
  Ni  Ni23  1  0.80368000  0.44740000  0.59623500  1
  Ni  Ni24  1  0.69632000  0.44740000  0.09623500  1
  Ni  Ni25  1  0.80368000  0.05260000  0.59623500  1
  Ni  Ni26  1  0.30368000  0.94740000  0.90376500  1
  Ni  Ni27  1  0.19632000  0.55260000  0.40376500  1
  Ni  Ni28  1  0.85655100  0.67929900  0.01126600  1
  Ni  Ni29  1  0.64344900  0.82070100  0.51126600  1
  Ni  Ni30  1  0.14344900  0.17929900  0.98873400  1
  Ni  Ni31  1  0.35655100  0.32070100  0.48873400  1
  Ni  Ni32  1  0.14344900  0.32070100  0.98873400  1
  Ni  Ni33  1  0.35655100  0.17929900  0.48873400  1
  Ni  Ni34  1  0.85655100  0.82070100  0.01126600  1
  Ni  Ni35  1  0.64344900  0.67929900  0.51126600  1
  Cu  Cu36  1  0.38140600  0.55495900  0.64901800  1
  Cu  Cu37  1  0.11859400  0.94504100  0.14901800  1
  Cu  Cu38  1  0.61859400  0.05495900  0.35098200  1
  Cu  Cu39  1  0.88140600  0.44504100  0.85098200  1
  Cu  Cu40  1  0.61859400  0.44504100  0.35098200  1
  Cu  Cu41  1  0.88140600  0.05495900  0.85098200  1
  Cu  Cu42  1  0.38140600  0.94504100  0.64901800  1
  Cu  Cu43  1  0.11859400  0.55495900  0.14901800  1
  C  C44  1  0.35081800  0.42451100  0.66866200  1
  C  C45  1  0.14918200  0.07548900  0.16866200  1
  C  C46  1  0.64918200  0.92451100  0.33133800  1
  C  C47  1  0.85081800  0.57548900  0.83133800  1
  C  C48  1  0.64918200  0.57548900  0.33133800  1
  C  C49  1  0.85081800  0.92451100  0.83133800  1
  C  C50  1  0.35081800  0.07548900  0.66866200  1
  C  C51  1  0.14918200  0.42451100  0.16866200  1
  C  C52  1  0.41533600  0.61763500  0.73787000  1
  C  C53  1  0.08466400  0.88236500  0.23787000  1
  C  C54  1  0.58466400  0.11763500  0.26213000  1
  C  C55  1  0.91533600  0.38236500  0.76213000  1
  C  C56  1  0.58466400  0.38236500  0.26213000  1
  C  C57  1  0.91533600  0.11763500  0.76213000  1
  C  C58  1  0.41533600  0.88236500  0.73787000  1
  C  C59  1  0.08466400  0.61763500  0.23787000  1
  C  C60  1  0.59102200  0.56917500  0.59221800  1
  C  C61  1  0.90897800  0.93082500  0.09221800  1
  C  C62  1  0.40897800  0.06917500  0.40778200  1
  C  C63  1  0.09102200  0.43082500  0.90778200  1
  C  C64  1  0.40897800  0.43082500  0.40778200  1
  C  C65  1  0.09102200  0.06917500  0.90778200  1
  C  C66  1  0.59102200  0.93082500  0.59221800  1
  C  C67  1  0.90897800  0.56917500  0.09221800  1
  C  C68  1  0.16975500  0.60378100  0.60592800  1
  C  C69  1  0.33024500  0.89621900  0.10592800  1
  C  C70  1  0.83024500  0.10378100  0.39407200  1
  C  C71  1  0.66975500  0.39621900  0.89407200  1
  C  C72  1  0.83024500  0.39621900  0.39407200  1
  C  C73  1  0.66975500  0.10378100  0.89407200  1
  C  C74  1  0.16975500  0.89621900  0.60592800  1
  C  C75  1  0.33024500  0.60378100  0.10592800  1
  C  C76  1  0.87752600  0.75000000  0.70114900  1
  C  C77  1  0.62247400  0.75000000  0.20114900  1
  C  C78  1  0.12247400  0.25000000  0.29885100  1
  C  C79  1  0.37752600  0.25000000  0.79885100  1
  C  C80  1  0.39266100  0.62313600  0.92450800  1
  C  C81  1  0.10733900  0.87686400  0.42450800  1
  C  C82  1  0.60733900  0.12313600  0.07549200  1
  C  C83  1  0.89266100  0.37686400  0.57549200  1
  C  C84  1  0.60733900  0.37686400  0.07549200  1
  C  C85  1  0.89266100  0.12313600  0.57549200  1
  C  C86  1  0.39266100  0.87686400  0.92450800  1
  C  C87  1  0.10733900  0.62313600  0.42450800  1
  C  C88  1  0.81881400  0.75000000  0.97342000  1
  C  C89  1  0.68118600  0.75000000  0.47342000  1
  C  C90  1  0.18118600  0.25000000  0.02658000  1
  C  C91  1  0.31881400  0.25000000  0.52658000  1
