# generated using pymatgen
data_CuNi3C10
_symmetry_space_group_name_H-M   'P 1'
_cell_length_a   5.65178300
_cell_length_b   7.45266800
_cell_length_c   9.38546959
_cell_angle_alpha   89.00943952
_cell_angle_beta   90.00000000
_cell_angle_gamma   90.00000000
_symmetry_Int_Tables_number   1
_chemical_formula_structural   CuNi3C10
_chemical_formula_sum   'Cu2 Ni6 C20'
_cell_volume   395.26499399
_cell_formula_units_Z   2
loop_
 _symmetry_equiv_pos_site_id
 _symmetry_equiv_pos_as_xyz
  1  'x, y, z'
loop_
 _atom_site_type_symbol
 _atom_site_label
 _atom_site_symmetry_multiplicity
 _atom_site_fract_x
 _atom_site_fract_y
 _atom_site_fract_z
 _atom_site_occupancy
  Ni  Ni0  1  0.25000000  0.20554700  0.91933400  1
  Ni  Ni1  1  0.75000000  0.79445300  0.08066600  1
  Ni  Ni2  1  0.25000000  0.63680000  0.58732500  1
  Ni  Ni3  1  0.75000000  0.36320000  0.41267500  1
  Ni  Ni4  1  0.25000000  0.49703900  0.19261700  1
  Ni  Ni5  1  0.75000000  0.50296100  0.80738300  1
  Cu  Cu6  1  0.25000000  0.99215700  0.28703900  1
  Cu  Cu7  1  0.75000000  0.00784300  0.71296100  1
  C  C8  1  0.25000000  0.18435400  0.57182000  1
  C  C9  1  0.75000000  0.81564600  0.42818000  1
  C  C10  1  0.75000000  0.22638100  0.09106600  1
  C  C11  1  0.25000000  0.77361900  0.90893400  1
  C  C12  1  0.25000000  0.98326800  0.53405700  1
  C  C13  1  0.75000000  0.01673200  0.46594300  1
  C  C14  1  0.25000000  0.28790900  0.42574600  1
  C  C15  1  0.75000000  0.71209100  0.57425400  1
  C  C16  1  0.02513400  0.23282200  0.66042800  1
  C  C17  1  0.52513400  0.76717800  0.33957200  1
  C  C18  1  0.97486600  0.76717800  0.33957200  1
  C  C19  1  0.47486600  0.23282200  0.66042800  1
  C  C20  1  0.97530600  0.14808500  0.16700700  1
  C  C21  1  0.47530600  0.85191500  0.83299300  1
  C  C22  1  0.02469400  0.85191500  0.83299300  1
  C  C23  1  0.52469400  0.14808500  0.16700700  1
  C  C24  1  0.75000000  0.16875700  0.93169400  1
  C  C25  1  0.25000000  0.83124300  0.06830600  1
  C  C26  1  0.75000000  0.43171400  0.10284500  1
  C  C27  1  0.25000000  0.56828600  0.89715500  1
