# generated using pymatgen
data_Cu2Ni2C
_symmetry_space_group_name_H-M   'P 1'
_cell_length_a   8.84803075
_cell_length_b   8.84803075
_cell_length_c   13.78847919
_cell_angle_alpha   63.80806020
_cell_angle_beta   63.80806020
_cell_angle_gamma   89.77789055
_symmetry_Int_Tables_number   1
_chemical_formula_structural   Cu2Ni2C
_chemical_formula_sum   'Cu12 Ni12 C6'
_cell_volume   844.37792050
_cell_formula_units_Z   6
loop_
 _symmetry_equiv_pos_site_id
 _symmetry_equiv_pos_as_xyz
  1  'x, y, z'
loop_
 _atom_site_type_symbol
 _atom_site_label
 _atom_site_symmetry_multiplicity
 _atom_site_fract_x
 _atom_site_fract_y
 _atom_site_fract_z
 _atom_site_occupancy
  C  C0  1  0.14680300  0.85319700  0.75000000  1
  C  C1  1  0.85319700  0.14680300  0.25000000  1
  C  C2  1  0.41672700  0.21937000  0.88819500  1
  C  C3  1  0.58327300  0.78063000  0.11180500  1
  C  C4  1  0.78063000  0.58327300  0.61180500  1
  C  C5  1  0.21937000  0.41672700  0.38819500  1
  Ni  Ni6  1  0.67356900  0.47855900  0.86113400  1
  Ni  Ni7  1  0.32643100  0.52144100  0.13886600  1
  Ni  Ni8  1  0.52144100  0.32643100  0.63886600  1
  Ni  Ni9  1  0.47855900  0.67356900  0.36113400  1
  Ni  Ni10  1  0.65897500  0.93385700  0.85584400  1
  Ni  Ni11  1  0.34102500  0.06614300  0.14415600  1
  Ni  Ni12  1  0.06614300  0.34102500  0.64415600  1
  Ni  Ni13  1  0.93385700  0.65897500  0.35584400  1
  Ni  Ni14  1  0.28213000  0.05039200  0.47316900  1
  Ni  Ni15  1  0.71787000  0.94960800  0.52683100  1
  Ni  Ni16  1  0.94960800  0.71787000  0.02683100  1
  Ni  Ni17  1  0.05039200  0.28213000  0.97316900  1
  Cu  Cu18  1  0.34234000  0.06871700  0.58179500  1
  Cu  Cu19  1  0.65766000  0.93128300  0.41820500  1
  Cu  Cu20  1  0.93128300  0.65766000  0.91820500  1
  Cu  Cu21  1  0.06871700  0.34234000  0.08179500  1
  Cu  Cu22  1  0.12208600  0.91907800  0.89535500  1
  Cu  Cu23  1  0.87791400  0.08092200  0.10464500  1
  Cu  Cu24  1  0.08092200  0.87791400  0.60464500  1
  Cu  Cu25  1  0.91907800  0.12208600  0.39535500  1
  Cu  Cu26  1  0.92155100  0.07844900  0.75000000  1
  Cu  Cu27  1  0.07844900  0.92155100  0.25000000  1
  Cu  Cu28  1  0.30954000  0.69046000  0.75000000  1
  Cu  Cu29  1  0.69046000  0.30954000  0.25000000  1
