# generated using pymatgen
data_Cu2Ni4C
_symmetry_space_group_name_H-M   'P 1'
_cell_length_a   4.82195619
_cell_length_b   4.82195619
_cell_length_c   8.94586937
_cell_angle_alpha   74.36504102
_cell_angle_beta   74.36504102
_cell_angle_gamma   59.99999736
_symmetry_Int_Tables_number   1
_chemical_formula_structural   Cu2Ni4C
_chemical_formula_sum   'Cu2 Ni4 C1'
_cell_volume   171.19090002
_cell_formula_units_Z   1
loop_
 _symmetry_equiv_pos_site_id
 _symmetry_equiv_pos_as_xyz
  1  'x, y, z'
loop_
 _atom_site_type_symbol
 _atom_site_label
 _atom_site_symmetry_multiplicity
 _atom_site_fract_x
 _atom_site_fract_y
 _atom_site_fract_z
 _atom_site_occupancy
  C  C0  1  0.00000000  0.00000000  0.00000000  1
  Ni  Ni1  1  0.85794200  0.85794200  0.42617400  1
  Ni  Ni2  1  0.14205800  0.14205800  0.57382600  1
  Ni  Ni3  1  0.56514200  0.56514200  0.30457400  1
  Ni  Ni4  1  0.43485800  0.43485800  0.69542600  1
  Cu  Cu5  1  0.74583900  0.74583900  0.76248300  1
  Cu  Cu6  1  0.25416100  0.25416100  0.23751700  1
