# generated using pymatgen
data_Cu3Ni8C
_symmetry_space_group_name_H-M   'P 1'
_cell_length_a   8.52177590
_cell_length_b   8.52177590
_cell_length_c   8.52177605
_cell_angle_alpha   89.79093351
_cell_angle_beta   89.79093351
_cell_angle_gamma   89.79093866
_symmetry_Int_Tables_number   1
_chemical_formula_structural   Cu3Ni8C
_chemical_formula_sum   'Cu9 Ni24 C3'
_cell_volume   618.84471035
_cell_formula_units_Z   3
loop_
 _symmetry_equiv_pos_site_id
 _symmetry_equiv_pos_as_xyz
  1  'x, y, z'
loop_
 _atom_site_type_symbol
 _atom_site_label
 _atom_site_symmetry_multiplicity
 _atom_site_fract_x
 _atom_site_fract_y
 _atom_site_fract_z
 _atom_site_occupancy
  C  C0  1  0.00000000  0.50000000  0.00000000  1
  C  C1  1  0.50000000  0.00000000  0.00000000  1
  C  C2  1  0.00000000  0.00000000  0.50000000  1
  Ni  Ni3  1  0.98904700  0.64232300  0.64232300  1
  Ni  Ni4  1  0.64232300  0.64232300  0.98904700  1
  Ni  Ni5  1  0.64232300  0.98904700  0.64232300  1
  Ni  Ni6  1  0.01095300  0.35767700  0.35767700  1
  Ni  Ni7  1  0.35767700  0.35767700  0.01095300  1
  Ni  Ni8  1  0.35767700  0.01095300  0.35767700  1
  Ni  Ni9  1  0.73864600  0.50000000  0.26135400  1
  Ni  Ni10  1  0.26135400  0.50000000  0.73864600  1
  Ni  Ni11  1  0.50000000  0.26135400  0.73864600  1
  Ni  Ni12  1  0.50000000  0.73864600  0.26135400  1
  Ni  Ni13  1  0.26135400  0.73864600  0.50000000  1
  Ni  Ni14  1  0.73864600  0.26135400  0.50000000  1
  Ni  Ni15  1  0.83948900  0.14128000  0.83948900  1
  Ni  Ni16  1  0.14128000  0.83948900  0.83948900  1
  Ni  Ni17  1  0.83948900  0.83948900  0.14128000  1
  Ni  Ni18  1  0.16051100  0.85872000  0.16051100  1
  Ni  Ni19  1  0.85872000  0.16051100  0.16051100  1
  Ni  Ni20  1  0.16051100  0.16051100  0.85872000  1
  Ni  Ni21  1  0.73226000  0.48537100  0.73226000  1
  Ni  Ni22  1  0.48537100  0.73226000  0.73226000  1
  Ni  Ni23  1  0.73226000  0.73226000  0.48537100  1
  Ni  Ni24  1  0.26774000  0.51462900  0.26774000  1
  Ni  Ni25  1  0.51462900  0.26774000  0.26774000  1
  Ni  Ni26  1  0.26774000  0.26774000  0.51462900  1
  Cu  Cu27  1  0.83743400  0.83743400  0.83743400  1
  Cu  Cu28  1  0.16256600  0.16256600  0.16256600  1
  Cu  Cu29  1  0.66372700  0.33627300  0.00000000  1
  Cu  Cu30  1  0.00000000  0.33627300  0.66372700  1
  Cu  Cu31  1  0.33627300  0.00000000  0.66372700  1
  Cu  Cu32  1  0.33627300  0.66372700  0.00000000  1
  Cu  Cu33  1  0.00000000  0.66372700  0.33627300  1
  Cu  Cu34  1  0.66372700  0.00000000  0.33627300  1
  Cu  Cu35  1  0.50000000  0.50000000  0.50000000  1
