# generated using pymatgen
data_CuNiC10
_symmetry_space_group_name_H-M   'P 1'
_cell_length_a   7.40400596
_cell_length_b   7.40400596
_cell_length_c   5.03730204
_cell_angle_alpha   89.41265836
_cell_angle_beta   89.41265836
_cell_angle_gamma   101.77246431
_symmetry_Int_Tables_number   1
_chemical_formula_structural   CuNiC10
_chemical_formula_sum   'Cu2 Ni2 C20'
_cell_volume   270.29722211
_cell_formula_units_Z   2
loop_
 _symmetry_equiv_pos_site_id
 _symmetry_equiv_pos_as_xyz
  1  'x, y, z'
loop_
 _atom_site_type_symbol
 _atom_site_label
 _atom_site_symmetry_multiplicity
 _atom_site_fract_x
 _atom_site_fract_y
 _atom_site_fract_z
 _atom_site_occupancy
  Ni  Ni0  1  0.83101400  0.16898600  0.75000000  1
  Ni  Ni1  1  0.16898600  0.83101400  0.25000000  1
  Cu  Cu2  1  0.33292800  0.66707200  0.75000000  1
  Cu  Cu3  1  0.66707200  0.33292800  0.25000000  1
  C  C4  1  0.33620700  0.16292100  0.75013700  1
  C  C5  1  0.66379300  0.83707900  0.24986300  1
  C  C6  1  0.83707900  0.66379300  0.74986300  1
  C  C7  1  0.16292100  0.33620700  0.25013700  1
  C  C8  1  0.70183900  0.06623700  0.07938300  1
  C  C9  1  0.29816100  0.93376300  0.92061700  1
  C  C10  1  0.93376300  0.29816100  0.42061700  1
  C  C11  1  0.06623700  0.70183900  0.57938300  1
  C  C12  1  0.80610800  0.92554000  0.57340300  1
  C  C13  1  0.19389200  0.07446000  0.42659700  1
  C  C14  1  0.07446000  0.19389200  0.92659700  1
  C  C15  1  0.92554000  0.80610800  0.07340300  1
  C  C16  1  0.57159400  0.18327000  0.61333100  1
  C  C17  1  0.42840600  0.81673000  0.38666900  1
  C  C18  1  0.81673000  0.42840600  0.88666900  1
  C  C19  1  0.18327000  0.57159400  0.11333100  1
  C  C20  1  0.59453700  0.69529600  0.93260600  1
  C  C21  1  0.40546300  0.30470400  0.06739400  1
  C  C22  1  0.30470400  0.40546300  0.56739400  1
  C  C23  1  0.69529600  0.59453700  0.43260600  1
