# generated using pymatgen
data_Cu2Ni2C15
_symmetry_space_group_name_H-M   'P 1'
_cell_length_a   5.38825500
_cell_length_b   5.51132574
_cell_length_c   7.79898064
_cell_angle_alpha   90.61191516
_cell_angle_beta   90.41444583
_cell_angle_gamma   91.64260694
_symmetry_Int_Tables_number   1
_chemical_formula_structural   Cu2Ni2C15
_chemical_formula_sum   'Cu2 Ni2 C15'
_cell_volume   231.48691113
_cell_formula_units_Z   1
loop_
 _symmetry_equiv_pos_site_id
 _symmetry_equiv_pos_as_xyz
  1  'x, y, z'
loop_
 _atom_site_type_symbol
 _atom_site_label
 _atom_site_symmetry_multiplicity
 _atom_site_fract_x
 _atom_site_fract_y
 _atom_site_fract_z
 _atom_site_occupancy
  C  C0  1  0.01587500  0.05422400  0.74791500  1
  C  C1  1  0.49625500  0.54382600  0.74999300  1
  C  C2  1  0.50934500  0.45302900  0.24861000  1
  Ni  Ni3  1  0.00723300  0.50892800  0.49831600  1
  Ni  Ni4  1  0.51282100  0.00787300  0.00330000  1
  Cu  Cu5  1  0.50736000  0.99766000  0.49003500  1
  Cu  Cu6  1  0.00402900  0.51898300  0.00643600  1
  C  C7  1  0.29470300  0.27662800  0.54285800  1
  C  C8  1  0.21283800  0.79154700  0.94860100  1
  C  C9  1  0.68477200  0.70076500  0.46745500  1
  C  C10  1  0.77912900  0.21862800  0.03469900  1
  C  C11  1  0.78491300  0.21686500  0.46636700  1
  C  C12  1  0.70200500  0.69183300  0.03121900  1
  C  C13  1  0.20876700  0.78224600  0.55188900  1
  C  C14  1  0.27979700  0.30178100  0.96004600  1
  C  C15  1  0.92136300  0.47763000  0.75871100  1
  C  C16  1  0.58440500  0.98153100  0.74079900  1
  C  C17  1  0.07954500  0.52060900  0.24304600  1
  C  C18  1  0.42919000  0.01120800  0.25607100  1
