# generated using pymatgen
data_Cu4NiC15
_symmetry_space_group_name_H-M   'P 1'
_cell_length_a   7.78524053
_cell_length_b   10.33025993
_cell_length_c   7.78437667
_cell_angle_alpha   102.00620467
_cell_angle_beta   75.48578378
_cell_angle_gamma   69.09422185
_symmetry_Int_Tables_number   1
_chemical_formula_structural   Cu4NiC15
_chemical_formula_sum   'Cu8 Ni2 C30'
_cell_volume   534.66899602
_cell_formula_units_Z   2
loop_
 _symmetry_equiv_pos_site_id
 _symmetry_equiv_pos_as_xyz
  1  'x, y, z'
loop_
 _atom_site_type_symbol
 _atom_site_label
 _atom_site_symmetry_multiplicity
 _atom_site_fract_x
 _atom_site_fract_y
 _atom_site_fract_z
 _atom_site_occupancy
  C  C0  1  0.12534700  0.37970000  0.26476600  1
  C  C1  1  0.11491300  0.87029600  0.74494800  1
  C  C2  1  0.23876400  0.12500000  0.88627400  1
  C  C3  1  0.21870700  0.62501000  0.40625100  1
  C  C4  1  0.77685000  0.37193100  0.58740200  1
  C  C5  1  0.78446900  0.87813100  0.10125500  1
  Ni  Ni6  1  0.90929700  0.62494400  0.71593800  1
  Ni  Ni7  1  0.90556200  0.12502600  0.21933700  1
  Cu  Cu8  1  0.20694800  0.58683000  0.98269300  1
  Cu  Cu9  1  0.20572100  0.08826500  0.48570800  1
  Cu  Cu10  1  0.60257400  0.16176300  0.95598100  1
  Cu  Cu11  1  0.60415600  0.66312000  0.45640600  1
  Cu  Cu12  1  0.39133200  0.34455900  0.53715400  1
  Cu  Cu13  1  0.39113800  0.84286600  0.04470200  1
  Cu  Cu14  1  0.80715800  0.90537900  0.51395600  1
  Cu  Cu15  1  0.79814400  0.40711600  0.01587900  1
  C  C16  1  0.01611100  0.69735400  0.92967800  1
  C  C17  1  0.02374000  0.19901500  0.42265000  1
  C  C18  1  0.77633400  0.05101500  0.02721000  1
  C  C19  1  0.76782000  0.55270600  0.53672600  1
  C  C20  1  0.12443200  0.55695200  0.18660200  1
  C  C21  1  0.11228300  0.04871500  0.67788100  1
  C  C22  1  0.37089500  0.20128800  0.08904300  1
  C  C23  1  0.37042100  0.69290200  0.56879500  1
  C  C24  1  0.19434500  0.46486300  0.49304900  1
  C  C25  1  0.21500200  0.96474700  0.98888800  1
  C  C26  1  0.97171900  0.78516600  0.59077000  1
  C  C27  1  0.97581000  0.28523300  0.07026700  1
  C  C28  1  0.34107100  0.42058000  0.79766500  1
  C  C29  1  0.35280400  0.91936100  0.28605600  1
  C  C30  1  0.63327300  0.33066000  0.97782900  1
  C  C31  1  0.62260900  0.82949000  0.48846000  1
  C  C32  1  0.35151400  0.17386300  0.53817600  1
  C  C33  1  0.36804900  0.67444500  0.01064800  1
  C  C34  1  0.63568800  0.07614500  0.72457700  1
  C  C35  1  0.66386600  0.57553100  0.20761500  1
  C  C36  1  0.63672500  0.30189900  0.42020600  1
  C  C37  1  0.62483000  0.80723800  0.91920700  1
  C  C38  1  0.88148300  0.94815700  0.31141100  1
  C  C39  1  0.88809700  0.44273800  0.81794400  1
