# generated using pymatgen
data_Cu8(NiC6)5
_symmetry_space_group_name_H-M   'P 1'
_cell_length_a   13.39151441
_cell_length_b   18.30437884
_cell_length_c   5.35703325
_cell_angle_alpha   90.00000000
_cell_angle_beta   90.00000000
_cell_angle_gamma   90.00000000
_symmetry_Int_Tables_number   1
_chemical_formula_structural   Cu8(NiC6)5
_chemical_formula_sum   'Cu16 Ni10 C60'
_cell_volume   1313.13395238
_cell_formula_units_Z   2
loop_
 _symmetry_equiv_pos_site_id
 _symmetry_equiv_pos_as_xyz
  1  'x, y, z'
loop_
 _atom_site_type_symbol
 _atom_site_label
 _atom_site_symmetry_multiplicity
 _atom_site_fract_x
 _atom_site_fract_y
 _atom_site_fract_z
 _atom_site_occupancy
  Ni  Ni0  1  0.50000000  0.50000000  0.00000000  1
  Ni  Ni1  1  -0.00000000  -0.00000000  0.00000000  1
  Ni  Ni2  1  0.50000000  0.59495002  0.50000000  1
  Ni  Ni3  1  -0.00000000  0.90504998  0.50000000  1
  Ni  Ni4  1  0.50000000  0.40504998  0.50000000  1
  Ni  Ni5  1  -0.00000000  0.09495002  0.50000000  1
  Ni  Ni6  1  0.50000000  0.66727656  -0.00000000  1
  Ni  Ni7  1  -0.00000000  0.83272344  0.00000000  1
  Ni  Ni8  1  0.50000000  0.33272344  0.00000000  1
  Ni  Ni9  1  -0.00000000  0.16727656  -0.00000000  1
  Cu  Cu10  1  0.29081189  0.58494670  0.82436383  1
  Cu  Cu11  1  0.70918811  0.58494670  0.17563617  1
  Cu  Cu12  1  0.20918811  0.91505330  0.82436383  1
  Cu  Cu13  1  0.79081189  0.91505330  0.17563617  1
  Cu  Cu14  1  0.70918811  0.41505330  0.17563617  1
  Cu  Cu15  1  0.29081189  0.41505330  0.82436383  1
  Cu  Cu16  1  0.79081189  0.08494670  0.17563617  1
  Cu  Cu17  1  0.20918811  0.08494670  0.82436383  1
  Cu  Cu18  1  0.29028292  0.66652674  0.31818804  1
  Cu  Cu19  1  0.70971708  0.66652674  0.68181196  1
  Cu  Cu20  1  0.20971708  0.83347326  0.31818804  1
  Cu  Cu21  1  0.79028292  0.83347326  0.68181196  1
  Cu  Cu22  1  0.70971708  0.33347326  0.68181196  1
  Cu  Cu23  1  0.29028292  0.33347326  0.31818804  1
  Cu  Cu24  1  0.79028292  0.16652674  0.68181196  1
  Cu  Cu25  1  0.20971708  0.16652674  0.31818804  1
  C  C26  1  0.44081660  0.50000000  0.35321834  1
  C  C27  1  0.55918340  0.50000000  0.64678166  1
  C  C28  1  0.05918340  -0.00000000  0.35321834  1
  C  C29  1  0.94081660  -0.00000000  0.64678166  1
  C  C30  1  0.41352038  0.58881057  0.83375134  1
  C  C31  1  0.58647962  0.58881057  0.16624866  1
  C  C32  1  0.08647962  0.91118943  0.83375134  1
  C  C33  1  0.91352038  0.91118943  0.16624866  1
  C  C34  1  0.58647962  0.41118943  0.16624866  1
  C  C35  1  0.41352038  0.41118943  0.83375134  1
  C  C36  1  0.91352038  0.08881057  0.16624866  1
  C  C37  1  0.08647962  0.08881057  0.83375134  1
  C  C38  1  0.41137523  0.66481058  0.30448317  1
  C  C39  1  0.58862477  0.66481058  0.69551683  1
  C  C40  1  0.08862477  0.83518942  0.30448317  1
  C  C41  1  0.91137523  0.83518942  0.69551683  1
  C  C42  1  0.58862477  0.33518942  0.69551683  1
  C  C43  1  0.41137523  0.33518942  0.30448317  1
  C  C44  1  0.91137523  0.16481058  0.69551683  1
  C  C45  1  0.08862477  0.16481058  0.30448317  1
  C  C46  1  0.46849473  0.78279347  0.81200533  1
  C  C47  1  0.53150527  0.78279347  0.18799467  1
  C  C48  1  0.03150527  0.71720653  0.81200533  1
  C  C49  1  0.96849473  0.71720653  0.18799467  1
  C  C50  1  0.53150527  0.21720653  0.18799467  1
  C  C51  1  0.46849473  0.21720653  0.81200533  1
  C  C52  1  0.96849473  0.28279347  0.18799467  1
  C  C53  1  0.03150527  0.28279347  0.81200533  1
  C  C54  1  0.25333302  0.50000000  0.82881388  1
  C  C55  1  0.74666698  0.50000000  0.17118612  1
  C  C56  1  0.24666698  0.00000000  0.82881388  1
  C  C57  1  0.75333302  0.00000000  0.17118612  1
  C  C58  1  0.25000000  0.75000000  0.32705239  1
  C  C59  1  0.75000000  0.75000000  0.67294761  1
  C  C60  1  0.75000000  0.25000000  0.67294761  1
  C  C61  1  0.25000000  0.25000000  0.32705239  1
  C  C62  1  0.25042256  0.62394516  0.56888305  1
  C  C63  1  0.74957744  0.62394516  0.43111695  1
  C  C64  1  0.24957744  0.87605484  0.56888305  1
  C  C65  1  0.75042256  0.87605484  0.43111695  1
  C  C66  1  0.74957744  0.37605484  0.43111695  1
  C  C67  1  0.25042256  0.37605484  0.56888305  1
  C  C68  1  0.75042256  0.12394516  0.43111695  1
  C  C69  1  0.24957744  0.12394516  0.56888305  1
  C  C70  1  0.24334430  0.62729138  0.06690619  1
  C  C71  1  0.75665570  0.62729138  0.93309381  1
  C  C72  1  0.25665570  0.87270862  0.06690619  1
  C  C73  1  0.74334430  0.87270862  0.93309381  1
  C  C74  1  0.75665570  0.37270862  0.93309381  1
  C  C75  1  0.24334430  0.37270862  0.06690619  1
  C  C76  1  0.74334430  0.12729138  0.93309381  1
  C  C77  1  0.25665570  0.12729138  0.06690619  1
  C  C78  1  0.50000000  0.85837526  0.50000000  1
  C  C79  1  -0.00000000  0.64162474  0.50000000  1
  C  C80  1  0.50000000  0.14162474  0.50000000  1
  C  C81  1  -0.00000000  0.35837526  0.50000000  1
  C  C82  1  0.50000000  0.82248093  0.00000000  1
  C  C83  1  -0.00000000  0.67751907  -0.00000000  1
  C  C84  1  0.50000000  0.17751907  -0.00000000  1
  C  C85  1  -0.00000000  0.32248093  0.00000000  1
