# generated using pymatgen
data_CuNiC15
_symmetry_space_group_name_H-M   'P 1'
_cell_length_a   8.75920200
_cell_length_b   8.75920200
_cell_length_c   12.00184500
_cell_angle_alpha   90.00000000
_cell_angle_beta   90.00000000
_cell_angle_gamma   90.00000000
_symmetry_Int_Tables_number   1
_chemical_formula_structural   CuNiC15
_chemical_formula_sum   'Cu4 Ni4 C60'
_cell_volume   920.82499120
_cell_formula_units_Z   4
loop_
 _symmetry_equiv_pos_site_id
 _symmetry_equiv_pos_as_xyz
  1  'x, y, z'
loop_
 _atom_site_type_symbol
 _atom_site_label
 _atom_site_symmetry_multiplicity
 _atom_site_fract_x
 _atom_site_fract_y
 _atom_site_fract_z
 _atom_site_occupancy
  Ni  Ni0  1  0.23363000  0.76637000  0.50000000  1
  Ni  Ni1  1  0.76637000  0.23363000  0.50000000  1
  Ni  Ni2  1  0.26637000  0.26637000  0.00000000  1
  Ni  Ni3  1  0.73363000  0.73363000  0.00000000  1
  Cu  Cu4  1  0.64493000  0.64493000  0.50000000  1
  Cu  Cu5  1  0.35507000  0.35507000  0.50000000  1
  Cu  Cu6  1  0.85507000  0.14493000  0.00000000  1
  Cu  Cu7  1  0.14493000  0.85507000  0.00000000  1
  C  C8  1  0.93201200  0.72499300  0.37231900  1
  C  C9  1  0.06798800  0.27500700  0.37231900  1
  C  C10  1  0.56798800  0.22499300  0.87231900  1
  C  C11  1  0.43201200  0.77500700  0.87231900  1
  C  C12  1  0.06798800  0.27500700  0.62768100  1
  C  C13  1  0.93201200  0.72499300  0.62768100  1
  C  C14  1  0.43201200  0.77500700  0.12768100  1
  C  C15  1  0.56798800  0.22499300  0.12768100  1
  C  C16  1  0.72499300  0.93201200  0.37231900  1
  C  C17  1  0.27500700  0.06798800  0.37231900  1
  C  C18  1  0.22499300  0.56798800  0.87231900  1
  C  C19  1  0.77500700  0.43201200  0.87231900  1
  C  C20  1  0.27500700  0.06798800  0.62768100  1
  C  C21  1  0.72499300  0.93201200  0.62768100  1
  C  C22  1  0.77500700  0.43201200  0.12768100  1
  C  C23  1  0.22499300  0.56798800  0.12768100  1
  C  C24  1  0.14074200  0.53554300  0.32478800  1
  C  C25  1  0.85925800  0.46445700  0.32478800  1
  C  C26  1  0.35925800  0.03554300  0.82478800  1
  C  C27  1  0.64074200  0.96445700  0.82478800  1
  C  C28  1  0.85925800  0.46445700  0.67521200  1
  C  C29  1  0.14074200  0.53554300  0.67521200  1
  C  C30  1  0.64074200  0.96445700  0.17521200  1
  C  C31  1  0.35925800  0.03554300  0.17521200  1
  C  C32  1  0.53554300  0.14074200  0.32478800  1
  C  C33  1  0.46445700  0.85925800  0.32478800  1
  C  C34  1  0.03554300  0.35925800  0.82478800  1
  C  C35  1  0.96445700  0.64074200  0.82478800  1
  C  C36  1  0.46445700  0.85925800  0.67521200  1
  C  C37  1  0.53554300  0.14074200  0.67521200  1
  C  C38  1  0.96445700  0.64074200  0.17521200  1
  C  C39  1  0.03554300  0.35925800  0.17521200  1
  C  C40  1  0.18230200  0.81769800  0.25283500  1
  C  C41  1  0.81769800  0.18230200  0.25283500  1
  C  C42  1  0.31769800  0.31769800  0.75283500  1
  C  C43  1  0.68230200  0.68230200  0.75283500  1
  C  C44  1  0.81769800  0.18230200  0.74716500  1
  C  C45  1  0.18230200  0.81769800  0.74716500  1
  C  C46  1  0.68230200  0.68230200  0.24716500  1
  C  C47  1  0.31769800  0.31769800  0.24716500  1
  C  C48  1  0.40319300  0.59680700  0.30070300  1
  C  C49  1  0.59680700  0.40319300  0.30070300  1
  C  C50  1  0.09680700  0.09680700  0.80070300  1
  C  C51  1  0.90319300  0.90319300  0.80070300  1
  C  C52  1  0.59680700  0.40319300  0.69929700  1
  C  C53  1  0.40319300  0.59680700  0.69929700  1
  C  C54  1  0.90319300  0.90319300  0.19929700  1
  C  C55  1  0.09680700  0.09680700  0.19929700  1
  C  C56  1  0.00000000  0.50000000  0.50000000  1
  C  C57  1  0.50000000  0.00000000  0.00000000  1
  C  C58  1  0.50000000  0.00000000  0.50000000  1
  C  C59  1  0.00000000  0.50000000  0.00000000  1
  C  C60  1  0.50000000  0.50000000  0.11728600  1
  C  C61  1  0.00000000  0.00000000  0.61728600  1
  C  C62  1  0.50000000  0.50000000  0.88271400  1
  C  C63  1  0.00000000  0.00000000  0.38271400  1
  C  C64  1  0.87623900  0.87623900  0.50000000  1
  C  C65  1  0.12376100  0.12376100  0.50000000  1
  C  C66  1  0.62376100  0.37623900  0.00000000  1
  C  C67  1  0.37623900  0.62376100  0.00000000  1
