# generated using pymatgen
data_CuNiC10
_symmetry_space_group_name_H-M   'P 1'
_cell_length_a   3.98826200
_cell_length_b   4.84197700
_cell_length_c   8.35828000
_cell_angle_alpha   90.00000000
_cell_angle_beta   90.00000000
_cell_angle_gamma   90.00000000
_symmetry_Int_Tables_number   1
_chemical_formula_structural   CuNiC10
_chemical_formula_sum   'Cu1 Ni1 C10'
_cell_volume   161.40735418
_cell_formula_units_Z   1
loop_
 _symmetry_equiv_pos_site_id
 _symmetry_equiv_pos_as_xyz
  1  'x, y, z'
loop_
 _atom_site_type_symbol
 _atom_site_label
 _atom_site_symmetry_multiplicity
 _atom_site_fract_x
 _atom_site_fract_y
 _atom_site_fract_z
 _atom_site_occupancy
  Ni  Ni0  1  0.00000000  0.50000000  0.50000000  1
  Cu  Cu1  1  0.00000000  0.00000000  0.00000000  1
  C  C2  1  0.00000000  0.00000000  0.31524000  1
  C  C3  1  0.00000000  0.50000000  0.84600400  1
  C  C4  1  0.00000000  0.50000000  0.15399600  1
  C  C5  1  0.00000000  0.00000000  0.68476000  1
  C  C6  1  0.50000000  0.50000000  0.00000000  1
  C  C7  1  0.50000000  0.00000000  0.50000000  1
  C  C8  1  0.50000000  0.25321500  0.25038500  1
  C  C9  1  0.50000000  0.74678500  0.74961500  1
  C  C10  1  0.50000000  0.74678500  0.25038500  1
  C  C11  1  0.50000000  0.25321500  0.74961500  1
