# generated using pymatgen
data_Cu5NiC2
_symmetry_space_group_name_H-M   'P 1'
_cell_length_a   6.04207900
_cell_length_b   9.90310446
_cell_length_c   11.72129487
_cell_angle_alpha   87.76078251
_cell_angle_beta   88.90445338
_cell_angle_gamma   88.77280702
_symmetry_Int_Tables_number   1
_chemical_formula_structural   Cu5NiC2
_chemical_formula_sum   'Cu40 Ni8 C16'
_cell_volume   700.53402511
_cell_formula_units_Z   8
loop_
 _symmetry_equiv_pos_site_id
 _symmetry_equiv_pos_as_xyz
  1  'x, y, z'
loop_
 _atom_site_type_symbol
 _atom_site_label
 _atom_site_symmetry_multiplicity
 _atom_site_fract_x
 _atom_site_fract_y
 _atom_site_fract_z
 _atom_site_occupancy
  C  C0  1  0.48976300  0.99802500  0.49552500  1
  C  C1  1  0.73951400  0.01059000  0.27107800  1
  C  C2  1  0.79325700  0.49858700  0.77053300  1
  C  C3  1  0.00075600  0.50714900  0.00272400  1
  C  C4  1  0.48955100  0.50558800  0.00017800  1
  C  C5  1  0.21345200  0.50363200  0.23480200  1
  C  C6  1  0.75614700  0.99133400  0.71970000  1
  C  C7  1  0.25226500  0.98746200  0.72608100  1
  C  C8  1  0.55668100  0.75187700  0.10640600  1
  C  C9  1  0.06679900  0.78574000  0.10932900  1
  C  C10  1  0.95796000  0.76170900  0.59621300  1
  C  C11  1  0.45129500  0.70876600  0.61286100  1
  C  C12  1  0.04566200  0.22676200  0.40098100  1
  C  C13  1  0.54785200  0.28921000  0.38519300  1
  C  C14  1  0.93767400  0.21679400  0.89336200  1
  C  C15  1  0.44173800  0.25143400  0.89535500  1
  Ni  Ni16  1  0.50957500  0.74433600  0.85739600  1
  Ni  Ni17  1  0.99806500  0.75178900  0.85862100  1
  Ni  Ni18  1  0.99768300  0.76407000  0.35054200  1
  Ni  Ni19  1  0.50140800  0.75847200  0.36029700  1
  Ni  Ni20  1  0.99938400  0.23488200  0.64855500  1
  Ni  Ni21  1  0.50196500  0.23468200  0.64072400  1
  Ni  Ni22  1  0.00016700  0.25713800  0.14308700  1
  Ni  Ni23  1  0.49429700  0.26302200  0.14174500  1
  Cu  Cu24  1  0.76148200  0.86610800  0.13647300  1
  Cu  Cu25  1  0.25625600  0.89652800  0.13495200  1
  Cu  Cu26  1  0.78252400  0.88719400  0.56643100  1
  Cu  Cu27  1  0.25913100  0.84612000  0.58277600  1
  Cu  Cu28  1  0.97093200  0.88798700  0.34298500  1
  Cu  Cu29  1  0.51285400  0.88437500  0.36165700  1
  Cu  Cu30  1  0.51019800  0.81721300  0.94871900  1
  Cu  Cu31  1  0.01321400  0.82533800  0.94884100  1
  Cu  Cu32  1  0.99209100  0.82472200  0.76142600  1
  Cu  Cu33  1  0.49019600  0.81623500  0.75982700  1
  Cu  Cu34  1  0.02605200  0.68764100  0.26088300  1
  Cu  Cu35  1  0.49483100  0.69185800  0.26514400  1
  Cu  Cu36  1  0.00384500  0.69309500  0.44958000  1
  Cu  Cu37  1  0.49540200  0.67864400  0.45313300  1
  Cu  Cu38  1  0.98973600  0.62521300  0.86302900  1
  Cu  Cu39  1  0.52427000  0.61788000  0.85906300  1
  Cu  Cu40  1  0.71825200  0.62101300  0.07275000  1
  Cu  Cu41  1  0.24635700  0.64743900  0.07996400  1
  Cu  Cu42  1  0.75576600  0.63987400  0.64190500  1
  Cu  Cu43  1  0.26817100  0.59571900  0.64870000  1
  Cu  Cu44  1  0.71940600  0.40892100  0.35413400  1
  Cu  Cu45  1  0.24561300  0.35395900  0.35916100  1
  Cu  Cu46  1  0.75040200  0.35381100  0.91602100  1
  Cu  Cu47  1  0.27598500  0.38197100  0.92416900  1
  Cu  Cu48  1  0.00989600  0.38366600  0.13719600  1
  Cu  Cu49  1  0.46874000  0.38890100  0.13845500  1
  Cu  Cu50  1  0.00152300  0.30268900  0.55063800  1
  Cu  Cu51  1  0.49596300  0.31096600  0.54841800  1
  Cu  Cu52  1  0.98026000  0.31023700  0.73899200  1
  Cu  Cu53  1  0.50965400  0.30121800  0.73511600  1
  Cu  Cu54  1  0.52745000  0.19243300  0.23717000  1
  Cu  Cu55  1  0.99941800  0.18414700  0.23807600  1
  Cu  Cu56  1  0.98883800  0.18350100  0.05121300  1
  Cu  Cu57  1  0.49253400  0.18929800  0.04975900  1
  Cu  Cu58  1  0.01023200  0.10775600  0.65823700  1
  Cu  Cu59  1  0.50151800  0.10560700  0.64181700  1
  Cu  Cu60  1  0.74445700  0.15299400  0.41743000  1
  Cu  Cu61  1  0.21934300  0.10443600  0.43465800  1
  Cu  Cu62  1  0.75441300  0.10032800  0.86556800  1
  Cu  Cu63  1  0.23988700  0.13436000  0.86357000  1
