# generated using pymatgen
data_CuNi4C3
_symmetry_space_group_name_H-M   'P 1'
_cell_length_a   6.98930793
_cell_length_b   6.98930793
_cell_length_c   8.47370700
_cell_angle_alpha   90.00000000
_cell_angle_beta   90.00000000
_cell_angle_gamma   89.28937845
_symmetry_Int_Tables_number   1
_chemical_formula_structural   CuNi4C3
_chemical_formula_sum   'Cu6 Ni24 C18'
_cell_volume   413.91235318
_cell_formula_units_Z   6
loop_
 _symmetry_equiv_pos_site_id
 _symmetry_equiv_pos_as_xyz
  1  'x, y, z'
loop_
 _atom_site_type_symbol
 _atom_site_label
 _atom_site_symmetry_multiplicity
 _atom_site_fract_x
 _atom_site_fract_y
 _atom_site_fract_z
 _atom_site_occupancy
  C  C0  1  0.74859200  0.25140800  0.82314800  1
  C  C1  1  0.25140800  0.74859200  0.32314800  1
  Ni  Ni2  1  0.63140600  0.78771600  0.50019200  1
  Ni  Ni3  1  0.21228400  0.36859400  0.50019200  1
  Ni  Ni4  1  0.36859400  0.21228400  0.00019200  1
  Ni  Ni5  1  0.78771600  0.63140600  0.00019200  1
  Ni  Ni6  1  0.74737400  0.87586800  0.65798700  1
  Ni  Ni7  1  0.12413200  0.25262600  0.65798700  1
  Ni  Ni8  1  0.25262600  0.12413200  0.15798700  1
  Ni  Ni9  1  0.87586800  0.74737400  0.15798700  1
  Ni  Ni10  1  0.87270000  0.73925900  0.52830500  1
  Ni  Ni11  1  0.26074100  0.12730000  0.52830500  1
  Ni  Ni12  1  0.12730000  0.26074100  0.02830500  1
  Ni  Ni13  1  0.73925900  0.87270000  0.02830500  1
  Ni  Ni14  1  0.70293500  0.63451000  0.64139700  1
  Ni  Ni15  1  0.36549000  0.29706500  0.64139700  1
  Ni  Ni16  1  0.29706500  0.36549000  0.14139700  1
  Ni  Ni17  1  0.63451000  0.70293500  0.14139700  1
  Ni  Ni18  1  0.17953200  0.82046800  0.89338900  1
  Ni  Ni19  1  0.82046800  0.17953200  0.39338900  1
  Ni  Ni20  1  0.23489800  0.59481100  0.84022900  1
  Ni  Ni21  1  0.40518900  0.76510200  0.84022900  1
  Ni  Ni22  1  0.76510200  0.40518900  0.34022900  1
  Ni  Ni23  1  0.59481100  0.23489800  0.34022900  1
  Ni  Ni24  1  0.23281200  0.76718800  0.70289100  1
  Ni  Ni25  1  0.76718800  0.23281200  0.20289100  1
  Cu  Cu26  1  0.73768100  0.76017600  0.58189700  1
  Cu  Cu27  1  0.23982400  0.26231900  0.58189700  1
  Cu  Cu28  1  0.26231900  0.23982400  0.08189700  1
  Cu  Cu29  1  0.76017600  0.73768100  0.08189700  1
  Cu  Cu30  1  0.26263300  0.73736700  0.81942700  1
  Cu  Cu31  1  0.73736700  0.26263300  0.31942700  1
  C  C32  1  0.55025200  0.44974800  0.86132300  1
  C  C33  1  0.44974800  0.55025200  0.36132300  1
  C  C34  1  0.94813600  0.45107300  0.83640400  1
  C  C35  1  0.54892700  0.05186400  0.83640400  1
  C  C36  1  0.05186400  0.54892700  0.33640400  1
  C  C37  1  0.45107300  0.94813600  0.33640400  1
  C  C38  1  0.94319700  0.05680300  0.76798800  1
  C  C39  1  0.05680300  0.94319700  0.26798800  1
  C  C40  1  0.90861600  0.35454800  0.98443700  1
  C  C41  1  0.64545200  0.09138400  0.98443700  1
  C  C42  1  0.09138400  0.64545200  0.48443700  1
  C  C43  1  0.35454800  0.90861600  0.48443700  1
  C  C44  1  0.85161400  0.14838600  0.63305600  1
  C  C45  1  0.14838600  0.85161400  0.13305600  1
  C  C46  1  0.58664700  0.41335300  0.69538100  1
  C  C47  1  0.41335300  0.58664700  0.19538100  1
