# generated using pymatgen
data_Cu2NiC18
_symmetry_space_group_name_H-M   'P 1'
_cell_length_a   5.95009865
_cell_length_b   6.27635652
_cell_length_c   8.46083577
_cell_angle_alpha   92.43547219
_cell_angle_beta   88.63982936
_cell_angle_gamma   92.21530350
_symmetry_Int_Tables_number   1
_chemical_formula_structural   Cu2NiC18
_chemical_formula_sum   'Cu2 Ni1 C18'
_cell_volume   315.37080263
_cell_formula_units_Z   1
loop_
 _symmetry_equiv_pos_site_id
 _symmetry_equiv_pos_as_xyz
  1  'x, y, z'
loop_
 _atom_site_type_symbol
 _atom_site_label
 _atom_site_symmetry_multiplicity
 _atom_site_fract_x
 _atom_site_fract_y
 _atom_site_fract_z
 _atom_site_occupancy
  C  C0  1  0.04893600  0.39430800  0.30412200  1
  C  C1  1  0.98029800  0.56408600  0.74593000  1
  C  C2  1  0.44780800  0.96079900  0.24298000  1
  C  C3  1  0.50313100  0.05097200  0.73070500  1
  C  C4  1  0.00140200  0.98154100  0.50517800  1
  C  C5  1  0.46297000  0.50382600  0.99246500  1
  Ni  Ni6  1  0.86479300  0.72826900  0.15957300  1
  Cu  Cu7  1  0.97637000  0.05945100  0.97989300  1
  Cu  Cu8  1  0.51358400  0.49972400  0.50331600  1
  C  C9  1  0.90015000  0.03090000  0.22677300  1
  C  C10  1  0.09723200  0.97004400  0.76705300  1
  C  C11  1  0.62988100  0.54970400  0.26339200  1
  C  C12  1  0.40466600  0.46530900  0.72938500  1
  C  C13  1  0.16378000  0.69650100  0.06644800  1
  C  C14  1  0.78689800  0.28199400  0.93241600  1
  C  C15  1  0.32728300  0.21752500  0.45285300  1
  C  C16  1  0.70657700  0.76061100  0.56662100  1
  C  C17  1  0.27372500  0.18919000  0.04823900  1
  C  C18  1  0.71822300  0.81172100  0.96240600  1
  C  C19  1  0.25125300  0.69758900  0.46865900  1
  C  C20  1  0.78479000  0.30468400  0.53909200  1
