# generated using pymatgen
data_Cu8Ni3C35
_symmetry_space_group_name_H-M   'P 1'
_cell_length_a   9.54673554
_cell_length_b   13.13943413
_cell_length_c   13.13943413
_cell_angle_alpha   88.43753567
_cell_angle_beta   90.30048193
_cell_angle_gamma   90.30048193
_symmetry_Int_Tables_number   1
_chemical_formula_structural   Cu8Ni3C35
_chemical_formula_sum   'Cu16 Ni6 C70'
_cell_volume   1647.53664987
_cell_formula_units_Z   2
loop_
 _symmetry_equiv_pos_site_id
 _symmetry_equiv_pos_as_xyz
  1  'x, y, z'
loop_
 _atom_site_type_symbol
 _atom_site_label
 _atom_site_symmetry_multiplicity
 _atom_site_fract_x
 _atom_site_fract_y
 _atom_site_fract_z
 _atom_site_occupancy
  C  C0  1  0.43749325  0.14333738  0.62228081  1
  C  C1  1  0.06250675  0.37771919  0.85666262  1
  C  C2  1  0.56250675  0.85666262  0.37771919  1
  C  C3  1  0.93749325  0.62228081  0.14333738  1
  Ni  Ni4  1  0.75000000  0.13087854  0.86912146  1
  Ni  Ni5  1  0.25000000  0.86912146  0.13087854  1
  Ni  Ni6  1  0.16058245  0.87047868  0.63194510  1
  Ni  Ni7  1  0.33941755  0.36805490  0.12952132  1
  Ni  Ni8  1  0.83941755  0.12952132  0.36805490  1
  Ni  Ni9  1  0.66058245  0.63194510  0.87047868  1
  C  C10  1  0.75000000  0.58874902  0.41125098  1
  C  C11  1  0.25000000  0.41125098  0.58874902  1
  Cu  Cu12  1  0.45215980  0.90611649  0.85881166  1
  Cu  Cu13  1  0.04784020  0.14118834  0.09388351  1
  Cu  Cu14  1  0.54784020  0.09388351  0.14118834  1
  Cu  Cu15  1  0.95215980  0.85881166  0.90611649  1
  Cu  Cu16  1  0.03127297  0.16883819  0.64959939  1
  Cu  Cu17  1  0.46872703  0.35040061  0.83116181  1
  Cu  Cu18  1  0.96872703  0.83116181  0.35040061  1
  Cu  Cu19  1  0.53127297  0.64959939  0.16883819  1
  Cu  Cu20  1  0.46452034  0.65570024  0.58734190  1
  Cu  Cu21  1  0.03547966  0.41265810  0.34429976  1
  Cu  Cu22  1  0.53547966  0.34429976  0.41265810  1
  Cu  Cu23  1  0.96452034  0.58734190  0.65570024  1
  Cu  Cu24  1  0.74318924  0.96545764  0.60796434  1
  Cu  Cu25  1  0.75681076  0.39203566  0.03454236  1
  Cu  Cu26  1  0.25681076  0.03454236  0.39203566  1
  Cu  Cu27  1  0.24318924  0.60796434  0.96545764  1
  C  C28  1  0.70351997  0.06057482  0.70238014  1
  C  C29  1  0.79648003  0.29761986  0.93942518  1
  C  C30  1  0.29648003  0.93942518  0.29761986  1
  C  C31  1  0.20351997  0.70238014  0.06057482  1
  C  C32  1  0.15312800  0.26709213  0.61929119  1
  C  C33  1  0.34687200  0.38070881  0.73290787  1
  C  C34  1  0.84687200  0.73290787  0.38070881  1
  C  C35  1  0.65312800  0.61929119  0.26709213  1
  C  C36  1  0.34335416  0.76210698  0.58269354  1
  C  C37  1  0.15664584  0.41730646  0.23789302  1
  C  C38  1  0.65664584  0.23789302  0.41730646  1
  C  C39  1  0.84335416  0.58269354  0.76210698  1
  C  C40  1  0.70357258  0.01502659  0.48006408  1
  C  C41  1  0.79642742  0.51993592  0.98497341  1
  C  C42  1  0.29642742  0.98497341  0.51993592  1
  C  C43  1  0.20357258  0.48006408  0.01502659  1
  C  C44  1  0.93226108  0.20229174  0.76223053  1
  C  C45  1  0.56773892  0.23776947  0.79770826  1
  C  C46  1  0.06773892  0.79770826  0.23776947  1
  C  C47  1  0.43226108  0.76223053  0.20229174  1
  C  C48  1  0.36417695  0.54404888  0.57040998  1
  C  C49  1  0.13582305  0.42959002  0.45595112  1
  C  C50  1  0.63582305  0.45595112  0.42959002  1
  C  C51  1  0.86417695  0.57040998  0.54404888  1
  C  C52  1  0.58541394  0.66804217  0.48397216  1
  C  C53  1  0.91458606  0.51602784  0.33195783  1
  C  C54  1  0.41458606  0.33195783  0.51602784  1
  C  C55  1  0.08541394  0.48397216  0.66804217  1
  C  C56  1  0.53501956  0.02650941  0.87802830  1
  C  C57  1  0.96498044  0.12197170  0.97349059  1
  C  C58  1  0.46498044  0.97349059  0.12197170  1
  C  C59  1  0.03501956  0.87802830  0.02650941  1
  C  C60  1  0.35565469  0.91365818  0.74121418  1
  C  C61  1  0.14434531  0.25878582  0.08634182  1
  C  C62  1  0.64434531  0.08634182  0.25878582  1
  C  C63  1  0.85565469  0.74121418  0.91365818  1
  C  C64  1  0.57854582  0.80624245  0.85762999  1
  C  C65  1  0.92145418  0.14237001  0.19375755  1
  C  C66  1  0.42145418  0.19375755  0.14237001  1
  C  C67  1  0.07854582  0.85762999  0.80624245  1
  C  C68  1  0.91336860  0.14871364  0.54488470  1
  C  C69  1  0.58663140  0.45511530  0.85128636  1
  C  C70  1  0.08663140  0.85128636  0.45511530  1
  C  C71  1  0.41336860  0.54488470  0.14871364  1
  C  C72  1  0.55460462  0.64310280  0.70877087  1
  C  C73  1  0.94539538  0.29122913  0.35689720  1
  C  C74  1  0.44539538  0.35689720  0.29122913  1
  C  C75  1  0.05460462  0.70877087  0.64310280  1
  C  C76  1  0.12987496  0.05597257  0.67691615  1
  C  C77  1  0.37012504  0.32308385  0.94402743  1
  C  C78  1  0.87012504  0.94402743  0.32308385  1
  C  C79  1  0.62987496  0.67691615  0.05597257  1
  C  C80  1  0.92050522  0.91867230  0.61759800  1
  C  C81  1  0.57949478  0.38240200  0.08132770  1
  C  C82  1  0.07949478  0.08132770  0.38240200  1
  C  C83  1  0.42050522  0.61759800  0.91867230  1
  C  C84  1  0.33185958  0.87855117  0.96113856  1
  C  C85  1  0.16814042  0.03886144  0.12144883  1
  C  C86  1  0.66814042  0.12144883  0.03886144  1
  C  C87  1  0.83185958  0.96113856  0.87855117  1
  C  C88  1  0.63104121  0.86190048  0.62606309  1
  C  C89  1  0.86895879  0.37393691  0.13809952  1
  C  C90  1  0.36895879  0.13809952  0.37393691  1
  C  C91  1  0.13104121  0.62606309  0.86190048  1
