# generated using pymatgen
data_Cu2NiC20
_symmetry_space_group_name_H-M   'P 1'
_cell_length_a   8.53366913
_cell_length_b   8.53366913
_cell_length_c   5.26432900
_cell_angle_alpha   90.00000000
_cell_angle_beta   90.00000000
_cell_angle_gamma   119.99999324
_symmetry_Int_Tables_number   1
_chemical_formula_structural   Cu2NiC20
_chemical_formula_sum   'Cu2 Ni1 C20'
_cell_volume   332.00550491
_cell_formula_units_Z   1
loop_
 _symmetry_equiv_pos_site_id
 _symmetry_equiv_pos_as_xyz
  1  'x, y, z'
loop_
 _atom_site_type_symbol
 _atom_site_label
 _atom_site_symmetry_multiplicity
 _atom_site_fract_x
 _atom_site_fract_y
 _atom_site_fract_z
 _atom_site_occupancy
  C  C0  1  0.24947700  0.24947700  0.50000000  1
  C  C1  1  0.00000000  0.75052300  0.50000000  1
  C  C2  1  0.75052300  0.00000000  0.50000000  1
  Ni  Ni3  1  0.00000000  0.00000000  0.00000000  1
  Cu  Cu4  1  0.33333300  0.66666700  0.45890600  1
  Cu  Cu5  1  0.66666700  0.33333300  0.54109400  1
  C  C6  1  0.40575700  0.00000000  0.00000000  1
  C  C7  1  0.59424300  0.59424300  0.00000000  1
  C  C8  1  0.00000000  0.40575700  0.00000000  1
  C  C9  1  0.21683800  0.09216500  0.21101600  1
  C  C10  1  0.87532800  0.78316200  0.21101600  1
  C  C11  1  0.90783500  0.12467200  0.21101600  1
  C  C12  1  0.12467200  0.90783500  0.78898400  1
  C  C13  1  0.78316200  0.87532800  0.78898400  1
  C  C14  1  0.09216500  0.21683800  0.78898400  1
  C  C15  1  0.33333300  0.66666700  0.75076500  1
  C  C16  1  0.66666700  0.33333300  0.24923500  1
  C  C17  1  0.20236900  0.72738000  0.34382700  1
  C  C18  1  0.52501100  0.79763100  0.34382700  1
  C  C19  1  0.27262000  0.47498900  0.34382700  1
  C  C20  1  0.47498900  0.27262000  0.65617300  1
  C  C21  1  0.79763100  0.52501100  0.65617300  1
  C  C22  1  0.72738000  0.20236900  0.65617300  1
