# generated using pymatgen
data_CuNiC10
_symmetry_space_group_name_H-M   'P 1'
_cell_length_a   8.61847100
_cell_length_b   5.09123800
_cell_length_c   16.44382630
_cell_angle_alpha   75.32876765
_cell_angle_beta   90.00000000
_cell_angle_gamma   90.00000000
_symmetry_Int_Tables_number   1
_chemical_formula_structural   CuNiC10
_chemical_formula_sum   'Cu4 Ni4 C40'
_cell_volume   698.00793701
_cell_formula_units_Z   4
loop_
 _symmetry_equiv_pos_site_id
 _symmetry_equiv_pos_as_xyz
  1  'x, y, z'
loop_
 _atom_site_type_symbol
 _atom_site_label
 _atom_site_symmetry_multiplicity
 _atom_site_fract_x
 _atom_site_fract_y
 _atom_site_fract_z
 _atom_site_occupancy
  Ni  Ni0  1  0.95304200  0.69650000  0.64163500  1
  Ni  Ni1  1  0.54695800  0.69650000  0.14163500  1
  Ni  Ni2  1  0.04695800  0.30350000  0.35836500  1
  Ni  Ni3  1  0.45304200  0.30350000  0.85836500  1
  C  C4  1  0.79532500  0.30910900  0.51652300  1
  C  C5  1  0.70467500  0.30910900  0.01652300  1
  C  C6  1  0.20467500  0.69089100  0.48347700  1
  C  C7  1  0.29532500  0.69089100  0.98347700  1
  C  C8  1  0.76365100  0.07897600  0.76329200  1
  C  C9  1  0.73634900  0.07897600  0.26329200  1
  C  C10  1  0.23634900  0.92102400  0.23670800  1
  C  C11  1  0.26365100  0.92102400  0.73670800  1
  Cu  Cu12  1  0.52077700  0.77573900  0.61938000  1
  Cu  Cu13  1  0.97922300  0.77573900  0.11938000  1
  Cu  Cu14  1  0.47922300  0.22426100  0.38062000  1
  Cu  Cu15  1  0.02077700  0.22426100  0.88062000  1
  C  C16  1  0.94430300  0.11156300  0.56603600  1
  C  C17  1  0.55569700  0.11156300  0.06603600  1
  C  C18  1  0.05569700  0.88843700  0.43396400  1
  C  C19  1  0.44430300  0.88843700  0.93396400  1
  C  C20  1  0.83921500  0.42053300  0.41224200  1
  C  C21  1  0.66078500  0.42053300  0.91224200  1
  C  C22  1  0.16078500  0.57946700  0.58775800  1
  C  C23  1  0.33921500  0.57946700  0.08775800  1
  C  C24  1  0.76651800  0.56788200  0.56773300  1
  C  C25  1  0.73348200  0.56788200  0.06773300  1
  C  C26  1  0.23348200  0.43211800  0.43226700  1
  C  C27  1  0.26651800  0.43211800  0.93226700  1
  C  C28  1  0.60965600  0.16197900  0.51854000  1
  C  C29  1  0.89034400  0.16197900  0.01854000  1
  C  C30  1  0.39034400  0.83802100  0.48146000  1
  C  C31  1  0.10965600  0.83802100  0.98146000  1
  C  C32  1  0.58995200  0.24829000  0.75303300  1
  C  C33  1  0.91004800  0.24829000  0.25303300  1
  C  C34  1  0.41004800  0.75171000  0.24696700  1
  C  C35  1  0.08995200  0.75171000  0.74696700  1
  C  C36  1  0.74684700  0.85608900  0.69902200  1
  C  C37  1  0.75315300  0.85608900  0.19902200  1
  C  C38  1  0.25315300  0.14391100  0.30097800  1
  C  C39  1  0.24684700  0.14391100  0.80097800  1
  C  C40  1  0.91819700  0.30674300  0.73379100  1
  C  C41  1  0.58180300  0.30674300  0.23379100  1
  C  C42  1  0.08180300  0.69325700  0.26620900  1
  C  C43  1  0.41819700  0.69325700  0.76620900  1
  C  C44  1  0.82564800  0.92478100  0.86356900  1
  C  C45  1  0.67435200  0.92478100  0.36356900  1
  C  C46  1  0.17435200  0.07521900  0.13643100  1
  C  C47  1  0.32564800  0.07521900  0.63643100  1
