# generated using pymatgen
data_CuNiC2
_symmetry_space_group_name_H-M   'P 1'
_cell_length_a   8.43815000
_cell_length_b   9.00788700
_cell_length_c   10.05634400
_cell_angle_alpha   90.00000000
_cell_angle_beta   90.00000000
_cell_angle_gamma   90.00000000
_symmetry_Int_Tables_number   1
_chemical_formula_structural   CuNiC2
_chemical_formula_sum   'Cu12 Ni12 C24'
_cell_volume   764.38171879
_cell_formula_units_Z   12
loop_
 _symmetry_equiv_pos_site_id
 _symmetry_equiv_pos_as_xyz
  1  'x, y, z'
loop_
 _atom_site_type_symbol
 _atom_site_label
 _atom_site_symmetry_multiplicity
 _atom_site_fract_x
 _atom_site_fract_y
 _atom_site_fract_z
 _atom_site_occupancy
  Ni  Ni0  1  0.47364800  0.16885400  0.95048600  1
  Ni  Ni1  1  0.02635200  0.33114600  0.45048600  1
  Ni  Ni2  1  0.97364800  0.83114600  0.04951400  1
  Ni  Ni3  1  0.52635200  0.66885400  0.54951400  1
  Ni  Ni4  1  0.52635200  0.83114600  0.04951400  1
  Ni  Ni5  1  0.97364800  0.66885400  0.54951400  1
  Ni  Ni6  1  0.02635200  0.16885400  0.95048600  1
  Ni  Ni7  1  0.47364800  0.33114600  0.45048600  1
  Ni  Ni8  1  0.25000000  0.16331300  0.67966900  1
  Ni  Ni9  1  0.25000000  0.33668700  0.17966900  1
  Ni  Ni10  1  0.75000000  0.83668700  0.32033100  1
  Ni  Ni11  1  0.75000000  0.66331300  0.82033100  1
  Cu  Cu12  1  0.49993300  0.42186600  0.74996300  1
  Cu  Cu13  1  0.00006700  0.07813400  0.24996300  1
  Cu  Cu14  1  0.99993300  0.57813400  0.25003700  1
  Cu  Cu15  1  0.50006700  0.92186600  0.75003700  1
  Cu  Cu16  1  0.50006700  0.57813400  0.25003700  1
  Cu  Cu17  1  0.99993300  0.92186600  0.75003700  1
  Cu  Cu18  1  0.00006700  0.42186600  0.74996300  1
  Cu  Cu19  1  0.49993300  0.07813400  0.24996300  1
  Cu  Cu20  1  0.00000000  0.00000000  0.50000000  1
  Cu  Cu21  1  0.50000000  0.50000000  0.00000000  1
  Cu  Cu22  1  0.50000000  0.00000000  0.50000000  1
  Cu  Cu23  1  0.00000000  0.50000000  0.00000000  1
  C  C24  1  0.92058900  0.17321000  0.68034800  1
  C  C25  1  0.57941100  0.32679000  0.18034800  1
  C  C26  1  0.42058900  0.82679000  0.31965200  1
  C  C27  1  0.07941100  0.67321000  0.81965200  1
  C  C28  1  0.07941100  0.82679000  0.31965200  1
  C  C29  1  0.42058900  0.67321000  0.81965200  1
  C  C30  1  0.57941100  0.17321000  0.68034800  1
  C  C31  1  0.92058900  0.32679000  0.18034800  1
  C  C32  1  0.25000000  0.56582600  0.38109500  1
  C  C33  1  0.25000000  0.93417400  0.88109500  1
  C  C34  1  0.75000000  0.43417400  0.61890500  1
  C  C35  1  0.75000000  0.06582600  0.11890500  1
  C  C36  1  0.25000000  0.48695500  0.62760400  1
  C  C37  1  0.25000000  0.01304500  0.12760400  1
  C  C38  1  0.75000000  0.51304500  0.37239600  1
  C  C39  1  0.75000000  0.98695500  0.87239600  1
  C  C40  1  0.25000000  0.64297400  0.09547200  1
  C  C41  1  0.25000000  0.85702600  0.59547200  1
  C  C42  1  0.75000000  0.35702600  0.90452800  1
  C  C43  1  0.75000000  0.14297400  0.40452800  1
  C  C44  1  0.25000000  0.38876300  0.89520400  1
  C  C45  1  0.25000000  0.11123700  0.39520400  1
  C  C46  1  0.75000000  0.61123700  0.10479600  1
  C  C47  1  0.75000000  0.88876300  0.60479600  1
