# generated using pymatgen
data_Cu4Ni2C9
_symmetry_space_group_name_H-M   'P 1'
_cell_length_a   11.13995947
_cell_length_b   11.13995947
_cell_length_c   13.99293000
_cell_angle_alpha   90.00000000
_cell_angle_beta   90.00000000
_cell_angle_gamma   110.55667608
_symmetry_Int_Tables_number   1
_chemical_formula_structural   Cu4Ni2C9
_chemical_formula_sum   'Cu32 Ni16 C72'
_cell_volume   1625.93300484
_cell_formula_units_Z   8
loop_
 _symmetry_equiv_pos_site_id
 _symmetry_equiv_pos_as_xyz
  1  'x, y, z'
loop_
 _atom_site_type_symbol
 _atom_site_label
 _atom_site_symmetry_multiplicity
 _atom_site_fract_x
 _atom_site_fract_y
 _atom_site_fract_z
 _atom_site_occupancy
  C  C0  1  0.75249400  0.24750600  0.50000000  1
  C  C1  1  0.25249400  0.74750600  0.00000000  1
  C  C2  1  0.24750600  0.75249400  0.50000000  1
  C  C3  1  0.74750600  0.25249400  0.00000000  1
  C  C4  1  0.75726100  0.75726100  0.19603200  1
  C  C5  1  0.24273900  0.24273900  0.80396800  1
  C  C6  1  0.74273900  0.74273900  0.69603200  1
  C  C7  1  0.25726100  0.25726100  0.30396800  1
  C  C8  1  0.57334400  0.94678500  0.52670500  1
  C  C9  1  0.05321500  0.42665600  0.47329500  1
  C  C10  1  0.55321500  0.92665600  0.02670500  1
  C  C11  1  0.07334400  0.44678500  0.97329500  1
  C  C12  1  0.42665600  0.05321500  0.47329500  1
  C  C13  1  0.94678500  0.57334400  0.52670500  1
  C  C14  1  0.44678500  0.07334400  0.97329500  1
  C  C15  1  0.92665600  0.55321500  0.02670500  1
  C  C16  1  0.64186600  0.00978100  0.61887600  1
  C  C17  1  0.99021900  0.35813400  0.38112400  1
  C  C18  1  0.49021900  0.85813400  0.11887600  1
  C  C19  1  0.14186600  0.50978100  0.88112400  1
  C  C20  1  0.35813400  0.99021900  0.38112400  1
  C  C21  1  0.00978100  0.64186600  0.61887600  1
  C  C22  1  0.50978100  0.14186600  0.88112400  1
  C  C23  1  0.85813400  0.49021900  0.11887600  1
  C  C24  1  0.47315900  0.23441300  0.56046200  1
  C  C25  1  0.76558700  0.52684100  0.43953800  1
  C  C26  1  0.26558700  0.02684100  0.06046200  1
  C  C27  1  0.97315900  0.73441300  0.93953800  1
  C  C28  1  0.52684100  0.76558700  0.43953800  1
  C  C29  1  0.23441300  0.47315900  0.56046200  1
  C  C30  1  0.73441300  0.97315900  0.93953800  1
  C  C31  1  0.02684100  0.26558700  0.06046200  1
  C  C32  1  0.50066500  0.29822100  0.45878200  1
  C  C33  1  0.70177900  0.49933500  0.54121800  1
  C  C34  1  0.20177900  0.99933500  0.95878200  1
  C  C35  1  0.00066500  0.79822100  0.04121800  1
  C  C36  1  0.49933500  0.70177900  0.54121800  1
  C  C37  1  0.29822100  0.50066500  0.45878200  1
  C  C38  1  0.79822100  0.00066500  0.04121800  1
  C  C39  1  0.99933500  0.20177900  0.95878200  1
  C  C40  1  0.75884400  0.38858500  0.70121700  1
  C  C41  1  0.61141500  0.24115600  0.29878300  1
  C  C42  1  0.11141500  0.74115600  0.20121700  1
  C  C43  1  0.25884400  0.88858500  0.79878300  1
  C  C44  1  0.24115600  0.61141500  0.29878300  1
  C  C45  1  0.38858500  0.75884400  0.70121700  1
  C  C46  1  0.88858500  0.25884400  0.79878300  1
  C  C47  1  0.74115600  0.11141500  0.20121700  1
  C  C48  1  0.62973000  0.27691300  0.69728200  1
  C  C49  1  0.72308700  0.37027000  0.30271800  1
  C  C50  1  0.22308700  0.87027000  0.19728200  1
  C  C51  1  0.12973000  0.77691300  0.80271800  1
  C  C52  1  0.37027000  0.72308700  0.30271800  1
  C  C53  1  0.27691300  0.62973000  0.69728200  1
  C  C54  1  0.77691300  0.12973000  0.80271800  1
  C  C55  1  0.87027000  0.22308700  0.19728200  1
  C  C56  1  0.78846600  0.03222000  0.37161100  1
  C  C57  1  0.96778000  0.21153400  0.62838900  1
  C  C58  1  0.46778000  0.71153400  0.87161100  1
  C  C59  1  0.28846600  0.53222000  0.12838900  1
  C  C60  1  0.21153400  0.96778000  0.62838900  1
  C  C61  1  0.03222000  0.78846600  0.37161100  1
  C  C62  1  0.53222000  0.28846600  0.12838900  1
  C  C63  1  0.71153400  0.46778000  0.87161100  1
  C  C64  1  0.92453400  0.11968000  0.40792900  1
  C  C65  1  0.88032000  0.07546600  0.59207100  1
  C  C66  1  0.38032000  0.57546600  0.90792900  1
  C  C67  1  0.42453400  0.61968000  0.09207100  1
  C  C68  1  0.07546600  0.88032000  0.59207100  1
  C  C69  1  0.11968000  0.92453400  0.40792900  1
  C  C70  1  0.61968000  0.42453400  0.09207100  1
  C  C71  1  0.57546600  0.38032000  0.90792900  1
  Ni  Ni72  1  0.86828700  0.60366200  0.27904500  1
  Ni  Ni73  1  0.39633800  0.13171300  0.72095500  1
  Ni  Ni74  1  0.89633800  0.63171300  0.77904500  1
  Ni  Ni75  1  0.36828700  0.10366200  0.22095500  1
  Ni  Ni76  1  0.13171300  0.39633800  0.72095500  1
  Ni  Ni77  1  0.60366200  0.86828700  0.27904500  1
  Ni  Ni78  1  0.10366200  0.36828700  0.22095500  1
  Ni  Ni79  1  0.63171300  0.89633800  0.77904500  1
  Ni  Ni80  1  0.96261000  0.96261000  0.15287300  1
  Ni  Ni81  1  0.03739000  0.03739000  0.84712700  1
  Ni  Ni82  1  0.53739000  0.53739000  0.65287300  1
  Ni  Ni83  1  0.46261000  0.46261000  0.34712700  1
  Ni  Ni84  1  0.63685700  0.63685700  0.04210000  1
  Ni  Ni85  1  0.36314300  0.36314300  0.95790000  1
  Ni  Ni86  1  0.86314300  0.86314300  0.54210000  1
  Ni  Ni87  1  0.13685700  0.13685700  0.45790000  1
  Cu  Cu88  1  0.62130600  0.03120200  0.55470300  1
  Cu  Cu89  1  0.96879800  0.37869400  0.44529700  1
  Cu  Cu90  1  0.46879800  0.87869400  0.05470300  1
  Cu  Cu91  1  0.12130600  0.53120200  0.94529700  1
  Cu  Cu92  1  0.37869400  0.96879800  0.44529700  1
  Cu  Cu93  1  0.03120200  0.62130600  0.55470300  1
  Cu  Cu94  1  0.53120200  0.12130600  0.94529700  1
  Cu  Cu95  1  0.87869400  0.46879800  0.05470300  1
  Cu  Cu96  1  0.51394100  0.23065000  0.49886000  1
  Cu  Cu97  1  0.76935000  0.48605900  0.50114000  1
  Cu  Cu98  1  0.26935000  0.98605900  0.99886000  1
  Cu  Cu99  1  0.01394100  0.73065000  0.00114000  1
  Cu  Cu100  1  0.48605900  0.76935000  0.50114000  1
  Cu  Cu101  1  0.23065000  0.51394100  0.49886000  1
  Cu  Cu102  1  0.73065000  0.01394100  0.00114000  1
  Cu  Cu103  1  0.98605900  0.26935000  0.99886000  1
  Cu  Cu104  1  0.81543200  0.21018300  0.83829800  1
  Cu  Cu105  1  0.78981700  0.18456800  0.16170200  1
  Cu  Cu106  1  0.28981700  0.68456800  0.33829800  1
  Cu  Cu107  1  0.31543200  0.71018300  0.66170200  1
  Cu  Cu108  1  0.18456800  0.78981700  0.16170200  1
  Cu  Cu109  1  0.21018300  0.81543200  0.83829800  1
  Cu  Cu110  1  0.71018300  0.31543200  0.66170200  1
  Cu  Cu111  1  0.68456800  0.28981700  0.33829800  1
  Cu  Cu112  1  0.83949200  0.12061500  0.38892700  1
  Cu  Cu113  1  0.87938500  0.16050800  0.61107300  1
  Cu  Cu114  1  0.37938500  0.66050800  0.88892700  1
  Cu  Cu115  1  0.33949200  0.62061500  0.11107300  1
  Cu  Cu116  1  0.16050800  0.87938500  0.61107300  1
  Cu  Cu117  1  0.12061500  0.83949200  0.38892700  1
  Cu  Cu118  1  0.62061500  0.33949200  0.11107300  1
  Cu  Cu119  1  0.66050800  0.37938500  0.88892700  1
