# generated using pymatgen
data_Cu6Ni3C31
_symmetry_space_group_name_H-M   'P 1'
_cell_length_a   12.87837800
_cell_length_b   12.87837800
_cell_length_c   12.87837800
_cell_angle_alpha   90.00000000
_cell_angle_beta   90.00000000
_cell_angle_gamma   90.00000000
_symmetry_Int_Tables_number   1
_chemical_formula_structural   Cu6Ni3C31
_chemical_formula_sum   'Cu24 Ni12 C124'
_cell_volume   2135.91273150
_cell_formula_units_Z   4
loop_
 _symmetry_equiv_pos_site_id
 _symmetry_equiv_pos_as_xyz
  1  'x, y, z'
loop_
 _atom_site_type_symbol
 _atom_site_label
 _atom_site_symmetry_multiplicity
 _atom_site_fract_x
 _atom_site_fract_y
 _atom_site_fract_z
 _atom_site_occupancy
  C  C0  1  0.64862700  0.35137300  0.85137300  1
  C  C1  1  0.14862700  0.14862700  0.14862700  1
  C  C2  1  0.85137300  0.64862700  0.35137300  1
  C  C3  1  0.35137300  0.85137300  0.64862700  1
  C  C4  1  0.65356000  0.84644000  0.15356000  1
  C  C5  1  0.84644000  0.15356000  0.65356000  1
  C  C6  1  0.34644000  0.34644000  0.34644000  1
  C  C7  1  0.15356000  0.65356000  0.84644000  1
  C  C8  1  0.59397600  0.59397600  0.59397600  1
  C  C9  1  0.40602400  0.09397600  0.90602400  1
  C  C10  1  0.09397600  0.90602400  0.40602400  1
  C  C11  1  0.90602400  0.40602400  0.09397600  1
  C  C12  1  0.42981800  0.57018200  0.07018200  1
  C  C13  1  0.92981800  0.92981800  0.92981800  1
  C  C14  1  0.07018200  0.42981800  0.57018200  1
  C  C15  1  0.57018200  0.07018200  0.42981800  1
  C  C16  1  0.69540000  0.56119800  0.09767800  1
  C  C17  1  0.90232200  0.19540000  0.93880200  1
  C  C18  1  0.06119800  0.40232200  0.30460000  1
  C  C19  1  0.19540000  0.93880200  0.90232200  1
  C  C20  1  0.40232200  0.30460000  0.06119800  1
  C  C21  1  0.56119800  0.09767800  0.69540000  1
  C  C22  1  0.30460000  0.06119800  0.40232200  1
  C  C23  1  0.09767800  0.69540000  0.56119800  1
  C  C24  1  0.93880200  0.90232200  0.19540000  1
  C  C25  1  0.80460000  0.43880200  0.59767800  1
  C  C26  1  0.59767800  0.80460000  0.43880200  1
  C  C27  1  0.43880200  0.59767800  0.80460000  1
  Ni  Ni28  1  0.64611100  0.13306000  0.12111100  1
  Ni  Ni29  1  0.87888900  0.14611100  0.36694000  1
  Ni  Ni30  1  0.63306000  0.37888900  0.35388900  1
  Ni  Ni31  1  0.14611100  0.36694000  0.87888900  1
  Ni  Ni32  1  0.37888900  0.35388900  0.63306000  1
  Ni  Ni33  1  0.13306000  0.12111100  0.64611100  1
  Ni  Ni34  1  0.35388900  0.63306000  0.37888900  1
  Ni  Ni35  1  0.12111100  0.64611100  0.13306000  1
  Ni  Ni36  1  0.36694000  0.87888900  0.14611100  1
  Ni  Ni37  1  0.85388900  0.86694000  0.62111100  1
  Ni  Ni38  1  0.62111100  0.85388900  0.86694000  1
  Ni  Ni39  1  0.86694000  0.62111100  0.85388900  1
  Cu  Cu40  1  0.94538200  0.41648800  0.81759700  1
  Cu  Cu41  1  0.18240300  0.44538200  0.08351200  1
  Cu  Cu42  1  0.91648800  0.68240300  0.05461800  1
  Cu  Cu43  1  0.44538200  0.08351200  0.18240300  1
  Cu  Cu44  1  0.68240300  0.05461800  0.91648800  1
  Cu  Cu45  1  0.41648800  0.81759700  0.94538200  1
  Cu  Cu46  1  0.05461800  0.91648800  0.68240300  1
  Cu  Cu47  1  0.81759700  0.94538200  0.41648800  1
  Cu  Cu48  1  0.08351200  0.18240300  0.44538200  1
  Cu  Cu49  1  0.55461800  0.58351200  0.31759700  1
  Cu  Cu50  1  0.31759700  0.55461800  0.58351200  1
  Cu  Cu51  1  0.58351200  0.31759700  0.55461800  1
  Cu  Cu52  1  0.61926200  0.34729000  0.13806600  1
  Cu  Cu53  1  0.86193400  0.11926200  0.15271000  1
  Cu  Cu54  1  0.84729000  0.36193400  0.38073800  1
  Cu  Cu55  1  0.11926200  0.15271000  0.86193400  1
  Cu  Cu56  1  0.36193400  0.38073800  0.84729000  1
  Cu  Cu57  1  0.34729000  0.13806600  0.61926200  1
  Cu  Cu58  1  0.38073800  0.84729000  0.36193400  1
  Cu  Cu59  1  0.13806600  0.61926200  0.34729000  1
  Cu  Cu60  1  0.15271000  0.86193400  0.11926200  1
  Cu  Cu61  1  0.88073800  0.65271000  0.63806600  1
  Cu  Cu62  1  0.63806600  0.88073800  0.65271000  1
  Cu  Cu63  1  0.65271000  0.63806600  0.88073800  1
  C  C64  1  0.60242900  0.59852600  0.21087500  1
  C  C65  1  0.78912500  0.10242900  0.90147400  1
  C  C66  1  0.09852600  0.28912500  0.39757100  1
  C  C67  1  0.10242900  0.90147400  0.78912500  1
  C  C68  1  0.28912500  0.39757100  0.09852600  1
  C  C69  1  0.59852600  0.21087500  0.60242900  1
  C  C70  1  0.39757100  0.09852600  0.28912500  1
  C  C71  1  0.21087500  0.60242900  0.59852600  1
  C  C72  1  0.90147400  0.78912500  0.10242900  1
  C  C73  1  0.89757100  0.40147400  0.71087500  1
  C  C74  1  0.71087500  0.89757100  0.40147400  1
  C  C75  1  0.40147400  0.71087500  0.89757100  1
  C  C76  1  0.06684100  0.40117600  0.80100200  1
  C  C77  1  0.19899800  0.56684100  0.09882400  1
  C  C78  1  0.90117600  0.69899800  0.93315900  1
  C  C79  1  0.56684100  0.09882400  0.19899800  1
  C  C80  1  0.69899800  0.93315900  0.90117600  1
  C  C81  1  0.40117600  0.80100200  0.06684100  1
  C  C82  1  0.93315900  0.90117600  0.69899800  1
  C  C83  1  0.80100200  0.06684100  0.40117600  1
  C  C84  1  0.09882400  0.19899800  0.56684100  1
  C  C85  1  0.43315900  0.59882400  0.30100200  1
  C  C86  1  0.30100200  0.43315900  0.59882400  1
  C  C87  1  0.59882400  0.30100200  0.43315900  1
  C  C88  1  0.71193800  0.41164100  0.10196500  1
  C  C89  1  0.89803500  0.21193800  0.08835900  1
  C  C90  1  0.91164100  0.39803500  0.28806200  1
  C  C91  1  0.21193800  0.08835900  0.89803500  1
  C  C92  1  0.39803500  0.28806200  0.91164100  1
  C  C93  1  0.41164100  0.10196500  0.71193800  1
  C  C94  1  0.28806200  0.91164100  0.39803500  1
  C  C95  1  0.10196500  0.71193800  0.41164100  1
  C  C96  1  0.08835900  0.89803500  0.21193800  1
  C  C97  1  0.78806200  0.58835900  0.60196500  1
  C  C98  1  0.60196500  0.78806200  0.58835900  1
  C  C99  1  0.58835900  0.60196500  0.78806200  1
  C  C100  1  0.93932600  0.53199900  0.85925700  1
  C  C101  1  0.14074300  0.43932600  0.96800100  1
  C  C102  1  0.03199900  0.64074300  0.06067400  1
  C  C103  1  0.43932600  0.96800100  0.14074300  1
  C  C104  1  0.64074300  0.06067400  0.03199900  1
  C  C105  1  0.53199900  0.85925700  0.93932600  1
  C  C106  1  0.06067400  0.03199900  0.64074300  1
  C  C107  1  0.85925700  0.93932600  0.53199900  1
  C  C108  1  0.96800100  0.14074300  0.43932600  1
  C  C109  1  0.56067400  0.46800100  0.35925700  1
  C  C110  1  0.35925700  0.56067400  0.46800100  1
  C  C111  1  0.46800100  0.35925700  0.56067400  1
  C  C112  1  0.90239500  0.34483700  0.90183900  1
  C  C113  1  0.09816100  0.40239500  0.15516300  1
  C  C114  1  0.84483700  0.59816100  0.09760500  1
  C  C115  1  0.40239500  0.15516300  0.09816100  1
  C  C116  1  0.59816100  0.09760500  0.84483700  1
  C  C117  1  0.34483700  0.90183900  0.90239500  1
  C  C118  1  0.09760500  0.84483700  0.59816100  1
  C  C119  1  0.90183900  0.90239500  0.34483700  1
  C  C120  1  0.15516300  0.09816100  0.40239500  1
  C  C121  1  0.59760500  0.65516300  0.40183900  1
  C  C122  1  0.40183900  0.59760500  0.65516300  1
  C  C123  1  0.65516300  0.40183900  0.59760500  1
  C  C124  1  0.62556400  0.23815600  0.08206500  1
  C  C125  1  0.91793500  0.12556400  0.26184400  1
  C  C126  1  0.73815600  0.41793500  0.37443600  1
  C  C127  1  0.12556400  0.26184400  0.91793500  1
  C  C128  1  0.41793500  0.37443600  0.73815600  1
  C  C129  1  0.23815600  0.08206500  0.62556400  1
  C  C130  1  0.37443600  0.73815600  0.41793500  1
  C  C131  1  0.08206500  0.62556400  0.23815600  1
  C  C132  1  0.26184400  0.91793500  0.12556400  1
  C  C133  1  0.87443600  0.76184400  0.58206500  1
  C  C134  1  0.58206500  0.87443600  0.76184400  1
  C  C135  1  0.76184400  0.58206500  0.87443600  1
  C  C136  1  0.62429800  0.32127300  0.25659700  1
  C  C137  1  0.74340300  0.12429800  0.17872700  1
  C  C138  1  0.82127300  0.24340300  0.37570200  1
  C  C139  1  0.12429800  0.17872700  0.74340300  1
  C  C140  1  0.24340300  0.37570200  0.82127300  1
  C  C141  1  0.32127300  0.25659700  0.62429800  1
  C  C142  1  0.37570200  0.82127300  0.24340300  1
  C  C143  1  0.25659700  0.62429800  0.32127300  1
  C  C144  1  0.17872700  0.74340300  0.12429800  1
  C  C145  1  0.87570200  0.67872700  0.75659700  1
  C  C146  1  0.75659700  0.87570200  0.67872700  1
  C  C147  1  0.67872700  0.75659700  0.87570200  1
  C  C148  1  0.51450600  0.39548800  0.10977900  1
  C  C149  1  0.89022100  0.01450600  0.10451200  1
  C  C150  1  0.89548800  0.39022100  0.48549400  1
  C  C151  1  0.01450600  0.10451200  0.89022100  1
  C  C152  1  0.39022100  0.48549400  0.89548800  1
  C  C153  1  0.39548800  0.10977900  0.51450600  1
  C  C154  1  0.48549400  0.89548800  0.39022100  1
  C  C155  1  0.10977900  0.51450600  0.39548800  1
  C  C156  1  0.10451200  0.89022100  0.01450600  1
  C  C157  1  0.98549400  0.60451200  0.60977900  1
  C  C158  1  0.60977900  0.98549400  0.60451200  1
  C  C159  1  0.60451200  0.60977900  0.98549400  1
