# generated using pymatgen
data_CuNi14C17
_symmetry_space_group_name_H-M   'P 1'
_cell_length_a   8.49546175
_cell_length_b   8.53714399
_cell_length_c   4.22936451
_cell_angle_alpha   90.00000000
_cell_angle_beta   90.00000000
_cell_angle_gamma   90.00000000
_symmetry_Int_Tables_number   1
_chemical_formula_structural   CuNi14C17
_chemical_formula_sum   'Cu1 Ni14 C17'
_cell_volume   306.74303617
_cell_formula_units_Z   1
loop_
 _symmetry_equiv_pos_site_id
 _symmetry_equiv_pos_as_xyz
  1  'x, y, z'
loop_
 _atom_site_type_symbol
 _atom_site_label
 _atom_site_symmetry_multiplicity
 _atom_site_fract_x
 _atom_site_fract_y
 _atom_site_fract_z
 _atom_site_occupancy
  C  C0  1  0.00000000  0.00000000  0.00000000  1
  Ni  Ni1  1  0.50000000  0.00000000  0.00000000  1
  Ni  Ni2  1  0.50000000  0.50000000  0.00000000  1
  Ni  Ni3  1  0.00000000  0.23952585  0.50000000  1
  Ni  Ni4  1  0.00000000  0.76047415  0.50000000  1
  Ni  Ni5  1  0.50000000  0.24741480  0.50000000  1
  Ni  Ni6  1  0.50000000  0.75258520  0.50000000  1
  Ni  Ni7  1  0.24426868  0.00000000  0.50000000  1
  Ni  Ni8  1  0.25173181  0.50000000  0.50000000  1
  Ni  Ni9  1  0.75573132  0.00000000  0.50000000  1
  Ni  Ni10  1  0.74826819  0.50000000  0.50000000  1
  Ni  Ni11  1  0.24846920  0.24302317  0.00000000  1
  Ni  Ni12  1  0.24846920  0.75697683  0.00000000  1
  Ni  Ni13  1  0.75153080  0.24302317  0.00000000  1
  Ni  Ni14  1  0.75153080  0.75697683  0.00000000  1
  Cu  Cu15  1  0.00000000  0.50000000  0.00000000  1
  C  C16  1  0.25569403  0.00000000  0.00000000  1
  C  C17  1  0.24185825  0.50000000  0.00000000  1
  C  C18  1  0.74430597  0.00000000  0.00000000  1
  C  C19  1  0.75814175  0.50000000  0.00000000  1
  C  C20  1  0.24915265  0.25196081  0.50000000  1
  C  C21  1  0.24915265  0.74803919  0.50000000  1
  C  C22  1  0.75084735  0.25196081  0.50000000  1
  C  C23  1  0.75084735  0.74803919  0.50000000  1
  C  C24  1  0.00000000  0.00000000  0.50000000  1
  C  C25  1  0.00000000  0.50000000  0.50000000  1
  C  C26  1  0.50000000  0.00000000  0.50000000  1
  C  C27  1  0.50000000  0.50000000  0.50000000  1
  C  C28  1  0.00000000  0.26533448  0.00000000  1
  C  C29  1  0.00000000  0.73466552  0.00000000  1
  C  C30  1  0.50000000  0.25467122  0.00000000  1
  C  C31  1  0.50000000  0.74532878  0.00000000  1
