# generated using pymatgen
data_Cu(NiC)2
_symmetry_space_group_name_H-M   'P 1'
_cell_length_a   8.21402500
_cell_length_b   8.22768947
_cell_length_c   8.23181676
_cell_angle_alpha   109.55984444
_cell_angle_beta   109.42252621
_cell_angle_gamma   109.34800533
_symmetry_Int_Tables_number   1
_chemical_formula_structural   Cu(NiC)2
_chemical_formula_sum   'Cu8 Ni16 C16'
_cell_volume   428.69869567
_cell_formula_units_Z   8
loop_
 _symmetry_equiv_pos_site_id
 _symmetry_equiv_pos_as_xyz
  1  'x, y, z'
loop_
 _atom_site_type_symbol
 _atom_site_label
 _atom_site_symmetry_multiplicity
 _atom_site_fract_x
 _atom_site_fract_y
 _atom_site_fract_z
 _atom_site_occupancy
  C  C0  1  0.98789100  0.99116800  0.51858100  1
  C  C1  1  0.76335000  0.96893300  0.28700600  1
  C  C2  1  0.95586700  0.70606100  0.25083600  1
  C  C3  1  0.54698300  0.78712000  0.75655300  1
  C  C4  1  0.21429300  0.26760900  0.03294900  1
  C  C5  1  0.70197700  0.25252800  0.53547500  1
  C  C6  1  0.51479800  0.50405200  0.48641500  1
  C  C7  1  0.48887200  0.99341200  0.00889000  1
  C  C8  1  0.26270500  0.55488600  0.20432300  1
  C  C9  1  0.99822600  0.50250100  0.98873300  1
  C  C10  1  0.74339300  0.45568100  0.79892100  1
  C  C11  1  0.28164600  0.73673500  0.46469100  1
  C  C12  1  0.79503400  0.74593000  0.96372000  1
  C  C13  1  0.04522500  0.29349300  0.74662700  1
  C  C14  1  0.45402500  0.20604700  0.24812400  1
  C  C15  1  0.23960600  0.03191900  0.70349600  1
  Ni  Ni16  1  0.94985300  0.22217300  0.04292100  1
  Ni  Ni17  1  0.77323500  0.04950300  0.49003100  1
  Ni  Ni18  1  0.53960300  0.76833100  0.00943900  1
  Ni  Ni19  1  0.27946400  0.53899900  0.94919000  1
  Ni  Ni20  1  0.73464200  0.50733400  0.53943800  1
  Ni  Ni21  1  0.26452500  0.48828900  0.45893100  1
  Ni  Ni22  1  0.76445200  0.72321000  0.72503200  1
  Ni  Ni23  1  0.22582700  0.77715800  0.23215800  1
  Ni  Ni24  1  0.72369300  0.45564100  0.05428700  1
  Ni  Ni25  1  0.99399400  0.04496800  0.73024300  1
  Ni  Ni26  1  0.45713400  0.23124000  0.99344200  1
  Ni  Ni27  1  0.04065000  0.54995700  0.72463500  1
  Ni  Ni28  1  0.72562600  0.73611200  0.22613700  1
  Ni  Ni29  1  0.22614000  0.95186100  0.50844800  1
  Ni  Ni30  1  0.51107200  0.27443000  0.45135400  1
  Ni  Ni31  1  0.05473000  0.77550100  0.95688100  1
  Cu  Cu32  1  0.48843700  0.72789200  0.54761700  1
  Cu  Cu33  1  0.27509200  0.27134600  0.77532300  1
  Cu  Cu34  1  0.95807400  0.45106000  0.27589400  1
  Cu  Cu35  1  0.00770700  0.95621900  0.26888600  1
  Cu  Cu36  1  0.77469600  0.22409500  0.76984600  1
  Cu  Cu37  1  0.23341100  0.27246300  0.27274400  1
  Cu  Cu38  1  0.45497200  0.99799900  0.77662600  1
  Cu  Cu39  1  0.54908000  0.00614100  0.22515800  1
