# generated using pymatgen
data_Cu6Ni2C27
_symmetry_space_group_name_H-M   'P 1'
_cell_length_a   16.00783815
_cell_length_b   16.00783815
_cell_length_c   8.45637593
_cell_angle_alpha   89.88388651
_cell_angle_beta   89.88388651
_cell_angle_gamma   20.52545802
_symmetry_Int_Tables_number   1
_chemical_formula_structural   Cu6Ni2C27
_chemical_formula_sum   'Cu6 Ni2 C27'
_cell_volume   759.78338726
_cell_formula_units_Z   1
loop_
 _symmetry_equiv_pos_site_id
 _symmetry_equiv_pos_as_xyz
  1  'x, y, z'
loop_
 _atom_site_type_symbol
 _atom_site_label
 _atom_site_symmetry_multiplicity
 _atom_site_fract_x
 _atom_site_fract_y
 _atom_site_fract_z
 _atom_site_occupancy
  C  C0  1  0.78311100  0.78311100  0.39684400  1
  C  C1  1  0.10512100  0.10512100  0.39262000  1
  C  C2  1  0.44887200  0.44887200  0.37815800  1
  C  C3  1  0.21688900  0.21688900  0.60315600  1
  C  C4  1  0.55112800  0.55112800  0.62184200  1
  C  C5  1  0.89487900  0.89487900  0.60738000  1
  Ni  Ni6  1  0.33387500  0.33387500  0.80124500  1
  Ni  Ni7  1  0.66612500  0.66612500  0.19875500  1
  Cu  Cu8  1  0.22373200  0.22373200  0.15826000  1
  Cu  Cu9  1  0.55850500  0.55850500  0.13831600  1
  Cu  Cu10  1  0.88637200  0.88637200  0.12862500  1
  Cu  Cu11  1  0.77626800  0.77626800  0.84174000  1
  Cu  Cu12  1  0.11362800  0.11362800  0.87137500  1
  Cu  Cu13  1  0.44149500  0.44149500  0.86168400  1
  C  C14  1  0.55611900  0.05784600  0.72949600  1
  C  C15  1  0.92113700  0.34567500  0.70143400  1
  C  C16  1  0.24739300  0.69310500  0.72334800  1
  C  C17  1  0.94215400  0.44388100  0.27050400  1
  C  C18  1  0.30689500  0.75260700  0.27665200  1
  C  C19  1  0.65432500  0.07886300  0.29856600  1
  C  C20  1  0.05784600  0.55611900  0.72949600  1
  C  C21  1  0.34567500  0.92113700  0.70143400  1
  C  C22  1  0.69310500  0.24739300  0.72334800  1
  C  C23  1  0.72672400  0.72672400  0.71052600  1
  C  C24  1  0.06256500  0.06256500  0.73503100  1
  C  C25  1  0.38771700  0.38771700  0.73738200  1
  C  C26  1  0.44388100  0.94215400  0.27050400  1
  C  C27  1  0.75260700  0.30689500  0.27665200  1
  C  C28  1  0.07886300  0.65432500  0.29856600  1
  C  C29  1  0.34362800  0.34362800  0.00966300  1
  C  C30  1  0.65637200  0.65637200  0.99033700  1
  C  C31  1  0.00000000  0.00000000  0.00000000  1
  C  C32  1  0.27327600  0.27327600  0.28947400  1
  C  C33  1  0.61228300  0.61228300  0.26261800  1
  C  C34  1  0.93743500  0.93743500  0.26496900  1
