# generated using pymatgen
data_CuNiC11
_symmetry_space_group_name_H-M   'P 1'
_cell_length_a   7.58612702
_cell_length_b   7.58612702
_cell_length_c   23.93561900
_cell_angle_alpha   90.00000000
_cell_angle_beta   90.00000000
_cell_angle_gamma   119.82004561
_symmetry_Int_Tables_number   1
_chemical_formula_structural   CuNiC11
_chemical_formula_sum   'Cu6 Ni6 C66'
_cell_volume   1195.08882793
_cell_formula_units_Z   6
loop_
 _symmetry_equiv_pos_site_id
 _symmetry_equiv_pos_as_xyz
  1  'x, y, z'
loop_
 _atom_site_type_symbol
 _atom_site_label
 _atom_site_symmetry_multiplicity
 _atom_site_fract_x
 _atom_site_fract_y
 _atom_site_fract_z
 _atom_site_occupancy
  Ni  Ni0  1  0.49051300  0.50948700  0.75000000  1
  Ni  Ni1  1  0.50948700  0.49051300  0.25000000  1
  Ni  Ni2  1  0.53644200  0.49459100  0.58349700  1
  Ni  Ni3  1  0.46355800  0.50540900  0.08349700  1
  Ni  Ni4  1  0.50540900  0.46355800  0.91650300  1
  Ni  Ni5  1  0.49459100  0.53644200  0.41650300  1
  Cu  Cu6  1  0.01496200  0.01496200  0.50000000  1
  Cu  Cu7  1  0.98503800  0.98503800  0.00000000  1
  Cu  Cu8  1  0.99865400  0.48577000  0.83336000  1
  Cu  Cu9  1  0.00134600  0.51423000  0.33336000  1
  Cu  Cu10  1  0.51423000  0.00134600  0.66664000  1
  Cu  Cu11  1  0.48577000  0.99865400  0.16664000  1
  C  C12  1  0.02015300  0.51747000  0.50230300  1
  C  C13  1  0.97984700  0.48253000  0.00230300  1
  C  C14  1  0.48253000  0.97984700  0.99769700  1
  C  C15  1  0.51747000  0.02015300  0.49769700  1
  C  C16  1  0.01574400  0.49826400  0.66464500  1
  C  C17  1  0.98425600  0.50173600  0.16464500  1
  C  C18  1  0.50173600  0.98425600  0.83535500  1
  C  C19  1  0.49826400  0.01574400  0.33535500  1
  C  C20  1  0.98821400  0.00380100  0.16892800  1
  C  C21  1  0.01178600  0.99619900  0.66892800  1
  C  C22  1  0.99619900  0.01178600  0.33107200  1
  C  C23  1  0.00380100  0.98821400  0.83107200  1
  C  C24  1  0.17147100  0.37645500  0.51640100  1
  C  C25  1  0.82852900  0.62354500  0.01640100  1
  C  C26  1  0.62354500  0.82852900  0.98359900  1
  C  C27  1  0.37645500  0.17147100  0.48359900  1
  C  C28  1  0.72361100  0.36321200  0.67735900  1
  C  C29  1  0.27638900  0.63678800  0.17735900  1
  C  C30  1  0.63678800  0.27638900  0.82264100  1
  C  C31  1  0.36321200  0.72361100  0.32264100  1
  C  C32  1  0.97307600  0.22681200  0.65402800  1
  C  C33  1  0.02692400  0.77318800  0.15402800  1
  C  C34  1  0.77318800  0.02692400  0.84597200  1
  C  C35  1  0.22681200  0.97307600  0.34597200  1
  C  C36  1  0.07490900  0.48821300  0.74291800  1
  C  C37  1  0.92509100  0.51178700  0.24291800  1
  C  C38  1  0.51178700  0.92509100  0.75708200  1
  C  C39  1  0.48821300  0.07490900  0.25708200  1
  C  C40  1  0.04072300  0.97934100  0.58997600  1
  C  C41  1  0.95927700  0.02065900  0.08997600  1
  C  C42  1  0.02065900  0.95927700  0.91002400  1
  C  C43  1  0.97934100  0.04072300  0.41002400  1
  C  C44  1  0.24973300  0.78892300  0.51342200  1
  C  C45  1  0.75026700  0.21107700  0.01342200  1
  C  C46  1  0.21107700  0.75026700  0.98657800  1
  C  C47  1  0.78892300  0.24973300  0.48657800  1
  C  C48  1  0.98205400  0.01794600  0.75000000  1
  C  C49  1  0.01794600  0.98205400  0.25000000  1
  C  C50  1  0.91230800  0.46425900  0.92373300  1
  C  C51  1  0.08769200  0.53574100  0.42373300  1
  C  C52  1  0.53574100  0.08769200  0.57626700  1
  C  C53  1  0.46425900  0.91230800  0.07626700  1
  C  C54  1  0.16665600  0.28373900  0.83570600  1
  C  C55  1  0.83334400  0.71626100  0.33570600  1
  C  C56  1  0.71626100  0.83334400  0.66429400  1
  C  C57  1  0.28373900  0.16665600  0.16429400  1
  C  C58  1  0.14106700  0.34968700  0.99178000  1
  C  C59  1  0.85893300  0.65031300  0.49178000  1
  C  C60  1  0.65031300  0.85893300  0.50822000  1
  C  C61  1  0.34968700  0.14106700  0.00822000  1
  C  C62  1  0.84167100  0.69357700  0.82259200  1
  C  C63  1  0.15832900  0.30642300  0.32259200  1
  C  C64  1  0.30642300  0.15832900  0.67740800  1
  C  C65  1  0.69357700  0.84167100  0.17740800  1
  C  C66  1  0.04846600  0.76369800  0.67995200  1
  C  C67  1  0.95153400  0.23630200  0.17995200  1
  C  C68  1  0.23630200  0.95153400  0.82004800  1
  C  C69  1  0.76369800  0.04846600  0.32004800  1
  C  C70  1  0.30498700  0.63986800  0.64801400  1
  C  C71  1  0.69501300  0.36013200  0.14801400  1
  C  C72  1  0.36013200  0.69501300  0.85198600  1
  C  C73  1  0.63986800  0.30498700  0.35198600  1
  C  C74  1  0.95387300  0.50511700  0.58352100  1
  C  C75  1  0.04612700  0.49488300  0.08352100  1
  C  C76  1  0.49488300  0.04612700  0.91647900  1
  C  C77  1  0.50511700  0.95387300  0.41647900  1
