# generated using pymatgen
data_Cu2(NiC4)3
_symmetry_space_group_name_H-M   'P 1'
_cell_length_a   10.27659692
_cell_length_b   10.27659692
_cell_length_c   10.27659692
_cell_angle_alpha   109.47122063
_cell_angle_beta   109.47122063
_cell_angle_gamma   109.47122063
_symmetry_Int_Tables_number   1
_chemical_formula_structural   Cu2(NiC4)3
_chemical_formula_sum   'Cu8 Ni12 C48'
_cell_volume   835.46079923
_cell_formula_units_Z   4
loop_
 _symmetry_equiv_pos_site_id
 _symmetry_equiv_pos_as_xyz
  1  'x, y, z'
loop_
 _atom_site_type_symbol
 _atom_site_label
 _atom_site_symmetry_multiplicity
 _atom_site_fract_x
 _atom_site_fract_y
 _atom_site_fract_z
 _atom_site_occupancy
  Ni  Ni0  1  0.12500000  0.75000000  0.87500000  1
  Ni  Ni1  1  0.87500000  0.25000000  0.12500000  1
  Ni  Ni2  1  0.75000000  0.37500000  0.62500000  1
  Ni  Ni3  1  0.12500000  0.87500000  0.25000000  1
  Ni  Ni4  1  0.25000000  0.12500000  0.87500000  1
  Ni  Ni5  1  0.37500000  0.62500000  0.75000000  1
  Ni  Ni6  1  0.37500000  0.25000000  0.62500000  1
  Ni  Ni7  1  0.87500000  0.12500000  0.75000000  1
  Ni  Ni8  1  0.62500000  0.37500000  0.25000000  1
  Ni  Ni9  1  0.75000000  0.87500000  0.12500000  1
  Ni  Ni10  1  0.25000000  0.62500000  0.37500000  1
  Ni  Ni11  1  0.62500000  0.75000000  0.37500000  1
  Cu  Cu12  1  0.50000000  0.00000000  0.00000000  1
  Cu  Cu13  1  0.50000000  0.50000000  0.00000000  1
  Cu  Cu14  1  0.00000000  0.50000000  0.50000000  1
  Cu  Cu15  1  0.00000000  0.00000000  0.50000000  1
  Cu  Cu16  1  0.50000000  0.50000000  0.50000000  1
  Cu  Cu17  1  0.00000000  0.50000000  0.00000000  1
  Cu  Cu18  1  0.50000000  0.00000000  0.50000000  1
  Cu  Cu19  1  0.00000000  0.00000000  0.00000000  1
  C  C20  1  0.58420700  0.89433400  0.38703800  1
  C  C21  1  0.38703800  0.58420700  0.89433400  1
  C  C22  1  0.30283100  0.31012700  0.91579300  1
  C  C23  1  0.49270400  0.60566600  0.18987300  1
  C  C24  1  0.31012700  0.89433400  0.00729600  1
  C  C25  1  0.11296200  0.00729600  0.19716900  1
  C  C26  1  0.38703800  0.30283100  0.49270400  1
  C  C27  1  0.89433400  0.38703800  0.58420700  1
  C  C28  1  0.18987300  0.19716900  0.58420700  1
  C  C29  1  0.49270400  0.38703800  0.30283100  1
  C  C30  1  0.89433400  0.00729600  0.31012700  1
  C  C31  1  0.60566600  0.91579300  0.11296200  1
  C  C32  1  0.91579300  0.11296200  0.60566600  1
  C  C33  1  0.30283100  0.49270400  0.38703800  1
  C  C34  1  0.58420700  0.18987300  0.19716900  1
  C  C35  1  0.19716900  0.58420700  0.18987300  1
  C  C36  1  0.00729600  0.31012700  0.89433400  1
  C  C37  1  0.91579300  0.30283100  0.31012700  1
  C  C38  1  0.00729600  0.19716900  0.11296200  1
  C  C39  1  0.81012700  0.80283100  0.41579300  1
  C  C40  1  0.18987300  0.49270400  0.60566600  1
  C  C41  1  0.60566600  0.18987300  0.49270400  1
  C  C42  1  0.19716900  0.11296200  0.00729600  1
  C  C43  1  0.11296200  0.60566600  0.91579300  1
  C  C44  1  0.41579300  0.10566600  0.61296200  1
  C  C45  1  0.61296200  0.41579300  0.10566600  1
  C  C46  1  0.69716900  0.68987300  0.08420700  1
  C  C47  1  0.50729600  0.39433400  0.81012700  1
  C  C48  1  0.68987300  0.10566600  0.99270400  1
  C  C49  1  0.88703800  0.99270400  0.80283100  1
  C  C50  1  0.61296200  0.69716900  0.50729600  1
  C  C51  1  0.10566600  0.61296200  0.41579300  1
  C  C52  1  0.88703800  0.39433400  0.08420700  1
  C  C53  1  0.80283100  0.88703800  0.99270400  1
  C  C54  1  0.39433400  0.81012700  0.50729600  1
  C  C55  1  0.68987300  0.08420700  0.69716900  1
  C  C56  1  0.81012700  0.50729600  0.39433400  1
  C  C57  1  0.99270400  0.80283100  0.88703800  1
  C  C58  1  0.08420700  0.69716900  0.68987300  1
  C  C59  1  0.99270400  0.68987300  0.10566600  1
  C  C60  1  0.80283100  0.41579300  0.81012700  1
  C  C61  1  0.41579300  0.81012700  0.80283100  1
  C  C62  1  0.69716900  0.50729600  0.61296200  1
  C  C63  1  0.08420700  0.88703800  0.39433400  1
  C  C64  1  0.39433400  0.08420700  0.88703800  1
  C  C65  1  0.10566600  0.99270400  0.68987300  1
  C  C66  1  0.50729600  0.61296200  0.69716900  1
  C  C67  1  0.31012700  0.91579300  0.30283100  1
