# generated using pymatgen
data_Cu6NiC41
_symmetry_space_group_name_H-M   'P 1'
_cell_length_a   6.91423000
_cell_length_b   11.21124989
_cell_length_c   11.31947664
_cell_angle_alpha   98.30480738
_cell_angle_beta   95.83247909
_cell_angle_gamma   103.92038796
_symmetry_Int_Tables_number   1
_chemical_formula_structural   Cu6NiC41
_chemical_formula_sum   'Cu6 Ni1 C41'
_cell_volume   834.21474552
_cell_formula_units_Z   1
loop_
 _symmetry_equiv_pos_site_id
 _symmetry_equiv_pos_as_xyz
  1  'x, y, z'
loop_
 _atom_site_type_symbol
 _atom_site_label
 _atom_site_symmetry_multiplicity
 _atom_site_fract_x
 _atom_site_fract_y
 _atom_site_fract_z
 _atom_site_occupancy
  C  C0  1  0.50000000  0.00000000  0.50000000  1
  Ni  Ni1  1  0.50000000  0.50000000  0.00000000  1
  Cu  Cu2  1  0.90216900  0.67463500  0.88949100  1
  Cu  Cu3  1  0.09783100  0.32536500  0.11050900  1
  Cu  Cu4  1  0.85495400  0.76016700  0.18542100  1
  Cu  Cu5  1  0.14504600  0.23983300  0.81457900  1
  Cu  Cu6  1  0.46627900  0.57057800  0.30024200  1
  Cu  Cu7  1  0.53372100  0.42942200  0.69975800  1
  C  C8  1  0.69717100  0.48619700  0.89596800  1
  C  C9  1  0.30282900  0.51380300  0.10403200  1
  C  C10  1  0.65289600  0.60840200  0.76699800  1
  C  C11  1  0.34710400  0.39159800  0.23300200  1
  C  C12  1  0.09533300  0.63419800  0.82135900  1
  C  C13  1  0.90466700  0.36580200  0.17864100  1
  C  C14  1  0.91588700  0.82779600  0.87560100  1
  C  C15  1  0.08411300  0.17220400  0.12439900  1
  C  C16  1  0.58538400  0.66401300  0.00925600  1
  C  C17  1  0.41461600  0.33598700  0.99074400  1
  C  C18  1  0.98931900  0.69099600  0.05954500  1
  C  C19  1  0.01068100  0.30900400  0.94045500  1
  C  C20  1  0.02076000  0.77189500  0.31387600  1
  C  C21  1  0.97924000  0.22810500  0.68612400  1
  C  C22  1  0.87529200  0.91003000  0.15965000  1
  C  C23  1  0.12470800  0.08997000  0.84035000  1
  C  C24  1  0.68111900  0.54134700  0.13485300  1
  C  C25  1  0.31888100  0.45865300  0.86514700  1
  C  C26  1  0.59246400  0.72624000  0.24583500  1
  C  C27  1  0.40753600  0.27376000  0.75416500  1
  C  C28  1  0.28745800  0.61240500  0.38030000  1
  C  C29  1  0.71254200  0.38759500  0.61970000  1
  C  C30  1  0.65634900  0.55813800  0.40566000  1
  C  C31  1  0.34365100  0.44186200  0.59434000  1
  C  C32  1  0.14873000  0.90558100  0.54807700  1
  C  C33  1  0.85127000  0.09441900  0.45192300  1
  C  C34  1  0.42898000  0.19264400  0.42914600  1
  C  C35  1  0.57102000  0.80735600  0.57085400  1
  C  C36  1  0.50425500  0.05497400  0.65098500  1
  C  C37  1  0.49574500  0.94502600  0.34901500  1
  C  C38  1  0.04079100  0.71953500  0.59943900  1
  C  C39  1  0.95920900  0.28046500  0.40056100  1
  C  C40  1  0.45073500  0.76164600  0.63519900  1
  C  C41  1  0.54926500  0.23835400  0.36480100  1
  C  C42  1  0.97869200  0.17066200  0.40150500  1
  C  C43  1  0.02130800  0.82933800  0.59849500  1
  C  C44  1  0.39775000  0.02428200  0.11106300  1
  C  C45  1  0.60225000  0.97571800  0.88893700  1
  C  C46  1  0.48258000  0.88449200  0.90881800  1
  C  C47  1  0.51742000  0.11550800  0.09118200  1
