# generated using pymatgen
data_Cu4NiC9
_symmetry_space_group_name_H-M   'P 1'
_cell_length_a   8.17901100
_cell_length_b   8.17901100
_cell_length_c   5.07890200
_cell_angle_alpha   90.00000000
_cell_angle_beta   90.00000000
_cell_angle_gamma   90.00000000
_symmetry_Int_Tables_number   1
_chemical_formula_structural   Cu4NiC9
_chemical_formula_sum   'Cu8 Ni2 C18'
_cell_volume   339.75935032
_cell_formula_units_Z   2
loop_
 _symmetry_equiv_pos_site_id
 _symmetry_equiv_pos_as_xyz
  1  'x, y, z'
loop_
 _atom_site_type_symbol
 _atom_site_label
 _atom_site_symmetry_multiplicity
 _atom_site_fract_x
 _atom_site_fract_y
 _atom_site_fract_z
 _atom_site_occupancy
  Ni  Ni0  1  0.50000000  0.00000000  0.79634800  1
  Ni  Ni1  1  0.00000000  0.50000000  0.20365200  1
  Cu  Cu2  1  0.18682400  0.88286900  0.27388900  1
  Cu  Cu3  1  0.88286900  0.81317600  0.72611100  1
  Cu  Cu4  1  0.38286900  0.31317600  0.27388900  1
  Cu  Cu5  1  0.68682400  0.38286900  0.72611100  1
  Cu  Cu6  1  0.81317600  0.11713100  0.27388900  1
  Cu  Cu7  1  0.61713100  0.68682400  0.27388900  1
  Cu  Cu8  1  0.31317600  0.61713100  0.72611100  1
  Cu  Cu9  1  0.11713100  0.18682400  0.72611100  1
  C  C10  1  0.00000000  0.00000000  0.50000000  1
  C  C11  1  0.50000000  0.50000000  0.50000000  1
  C  C12  1  0.01436800  0.24567200  0.08371900  1
  C  C13  1  0.25432800  0.51436800  0.08371900  1
  C  C14  1  0.74567200  0.48563200  0.08371900  1
  C  C15  1  0.98563200  0.75432800  0.08371900  1
  C  C16  1  0.48563200  0.25432800  0.91628100  1
  C  C17  1  0.24567200  0.98563200  0.91628100  1
  C  C18  1  0.75432800  0.01436800  0.91628100  1
  C  C19  1  0.51436800  0.74567200  0.91628100  1
  C  C20  1  0.71115400  0.89667900  0.43372400  1
  C  C21  1  0.60332100  0.21115400  0.43372400  1
  C  C22  1  0.39667900  0.78884600  0.43372400  1
  C  C23  1  0.28884600  0.10332100  0.43372400  1
  C  C24  1  0.21115400  0.39667900  0.56627600  1
  C  C25  1  0.89667900  0.28884600  0.56627600  1
  C  C26  1  0.10332100  0.71115400  0.56627600  1
  C  C27  1  0.78884600  0.60332100  0.56627600  1
