# generated using pymatgen
data_Cu31Ni15C16
_symmetry_space_group_name_H-M   'P 1'
_cell_length_a   10.71074239
_cell_length_b   10.71074239
_cell_length_c   10.71074239
_cell_angle_alpha   109.47122063
_cell_angle_beta   109.47122063
_cell_angle_gamma   109.47122063
_symmetry_Int_Tables_number   1
_chemical_formula_structural   Cu31Ni15C16
_chemical_formula_sum   'Cu31 Ni15 C16'
_cell_volume   945.88171634
_cell_formula_units_Z   1
loop_
 _symmetry_equiv_pos_site_id
 _symmetry_equiv_pos_as_xyz
  1  'x, y, z'
loop_
 _atom_site_type_symbol
 _atom_site_label
 _atom_site_symmetry_multiplicity
 _atom_site_fract_x
 _atom_site_fract_y
 _atom_site_fract_z
 _atom_site_occupancy
  C  C0  1  0.00000000  0.00000000  0.50000000  1
  C  C1  1  0.50000000  0.00000000  0.00000000  1
  C  C2  1  0.00000000  0.50000000  0.00000000  1
  C  C3  1  0.50000000  0.50000000  0.50000000  1
  C  C4  1  0.68796900  0.78159400  0.46956300  1
  C  C5  1  0.68796900  0.21840600  0.90637500  1
  C  C6  1  0.31203100  0.78159400  0.09362500  1
  C  C7  1  0.31203100  0.21840600  0.53043700  1
  C  C8  1  0.78159400  0.46956300  0.68796900  1
  C  C9  1  0.21840600  0.90637500  0.68796900  1
  C  C10  1  0.78159400  0.09362500  0.31203100  1
  C  C11  1  0.21840600  0.53043700  0.31203100  1
  C  C12  1  0.46956300  0.68796900  0.78159400  1
  C  C13  1  0.90637500  0.68796900  0.21840600  1
  C  C14  1  0.09362500  0.31203100  0.78159400  1
  C  C15  1  0.53043700  0.31203100  0.21840600  1
  Ni  Ni16  1  0.76285500  0.73230900  0.49516400  1
  Ni  Ni17  1  0.76285500  0.26769100  0.03054600  1
  Ni  Ni18  1  0.23714500  0.73230900  0.96945400  1
  Ni  Ni19  1  0.23714500  0.26769100  0.50483600  1
  Ni  Ni20  1  0.73230900  0.49516400  0.76285500  1
  Ni  Ni21  1  0.26769100  0.03054600  0.76285500  1
  Ni  Ni22  1  0.73230900  0.96945400  0.23714500  1
  Ni  Ni23  1  0.26769100  0.50483600  0.23714500  1
  Ni  Ni24  1  0.49516400  0.76285500  0.73230900  1
  Ni  Ni25  1  0.03054600  0.76285500  0.26769100  1
  Ni  Ni26  1  0.96945400  0.23714500  0.73230900  1
  Ni  Ni27  1  0.50483600  0.23714500  0.26769100  1
  Ni  Ni28  1  0.50000000  0.00000000  0.50000000  1
  Ni  Ni29  1  0.00000000  0.50000000  0.50000000  1
  Ni  Ni30  1  0.50000000  0.50000000  0.00000000  1
  Cu  Cu31  1  0.89478900  0.79358600  0.50980300  1
  Cu  Cu32  1  0.71621700  0.20641400  0.10120300  1
  Cu  Cu33  1  0.10521100  0.61501500  0.89879700  1
  Cu  Cu34  1  0.28378300  0.38498500  0.49019700  1
  Cu  Cu35  1  0.79358600  0.50980300  0.89478900  1
  Cu  Cu36  1  0.20641400  0.10120300  0.71621700  1
  Cu  Cu37  1  0.61501500  0.89879700  0.10521100  1
  Cu  Cu38  1  0.38498500  0.49019700  0.28378300  1
  Cu  Cu39  1  0.50980300  0.89478900  0.79358600  1
  Cu  Cu40  1  0.10120300  0.71621700  0.20641400  1
  Cu  Cu41  1  0.89879700  0.10521100  0.61501500  1
  Cu  Cu42  1  0.49019700  0.28378300  0.38498500  1
  Cu  Cu43  1  0.10521100  0.20641400  0.49019700  1
  Cu  Cu44  1  0.28378300  0.79358600  0.89879700  1
  Cu  Cu45  1  0.89478900  0.38498500  0.10120300  1
  Cu  Cu46  1  0.71621700  0.61501500  0.50980300  1
  Cu  Cu47  1  0.20641400  0.49019700  0.10521100  1
  Cu  Cu48  1  0.79358600  0.89879700  0.28378300  1
  Cu  Cu49  1  0.38498500  0.10120300  0.89478900  1
  Cu  Cu50  1  0.61501500  0.50980300  0.71621700  1
  Cu  Cu51  1  0.49019700  0.10521100  0.20641400  1
  Cu  Cu52  1  0.89879700  0.28378300  0.79358600  1
  Cu  Cu53  1  0.10120300  0.89478900  0.38498500  1
  Cu  Cu54  1  0.50980300  0.71621700  0.61501500  1
  Cu  Cu55  1  0.50000000  0.90489000  0.40489000  1
  Cu  Cu56  1  0.50000000  0.09511000  0.59511000  1
  Cu  Cu57  1  0.90489000  0.40489000  0.50000000  1
  Cu  Cu58  1  0.09511000  0.59511000  0.50000000  1
  Cu  Cu59  1  0.40489000  0.50000000  0.90489000  1
  Cu  Cu60  1  0.59511000  0.50000000  0.09511000  1
  Cu  Cu61  1  0.00000000  0.00000000  0.00000000  1
