# generated using pymatgen
data_Cu3Ni2
_symmetry_space_group_name_H-M   'P 1'
_cell_length_a   5.87859500
_cell_length_b   9.11789662
_cell_length_c   11.03338181
_cell_angle_alpha   100.94520550
_cell_angle_beta   103.21453344
_cell_angle_gamma   89.97885474
_symmetry_Int_Tables_number   1
_chemical_formula_structural   Cu3Ni2
_chemical_formula_sum   'Cu12 Ni8'
_cell_volume   564.68806676
_cell_formula_units_Z   4
loop_
 _symmetry_equiv_pos_site_id
 _symmetry_equiv_pos_as_xyz
  1  'x, y, z'
loop_
 _atom_site_type_symbol
 _atom_site_label
 _atom_site_symmetry_multiplicity
 _atom_site_fract_x
 _atom_site_fract_y
 _atom_site_fract_z
 _atom_site_occupancy
  Ni  Ni0  1  0.39135600  0.36045500  0.32255700  1
  Ni  Ni1  1  0.60864400  0.63954500  0.67744300  1
  Ni  Ni2  1  0.81730700  0.17145300  0.16888400  1
  Ni  Ni3  1  0.18269300  0.82854700  0.83111600  1
  Ni  Ni4  1  0.37524800  0.67487100  0.17257100  1
  Ni  Ni5  1  0.62475200  0.32512900  0.82742900  1
  Ni  Ni6  1  0.93134700  0.86173700  0.32620700  1
  Ni  Ni7  1  0.06865300  0.13826300  0.67379300  1
  Cu  Cu8  1  0.89814800  0.92318400  0.13016800  1
  Cu  Cu9  1  0.10185200  0.07681600  0.86983200  1
  Cu  Cu10  1  0.50421600  0.12520200  0.24827700  1
  Cu  Cu11  1  0.49578400  0.87479800  0.75172300  1
  Cu  Cu12  1  0.75386900  0.62648200  0.25508200  1
  Cu  Cu13  1  0.24613100  0.37351800  0.74491800  1
  Cu  Cu14  1  0.05858700  0.26947800  0.36376300  1
  Cu  Cu15  1  0.94141300  0.73052200  0.63623700  1
  Cu  Cu16  1  0.29863700  0.76981400  0.36735400  1
  Cu  Cu17  1  0.70136300  0.23018600  0.63264600  1
  Cu  Cu18  1  0.25584100  0.42718100  0.12877500  1
  Cu  Cu19  1  0.74415900  0.57281900  0.87122500  1
