# generated using pymatgen
data_CuNi14C17
_symmetry_space_group_name_H-M   'P 1'
_cell_length_a   4.48262700
_cell_length_b   8.76638600
_cell_length_c   8.86752100
_cell_angle_alpha   90.00000000
_cell_angle_beta   90.00000000
_cell_angle_gamma   90.00000000
_symmetry_Int_Tables_number   1
_chemical_formula_structural   CuNi14C17
_chemical_formula_sum   'Cu1 Ni14 C17'
_cell_volume   348.46199430
_cell_formula_units_Z   1
loop_
 _symmetry_equiv_pos_site_id
 _symmetry_equiv_pos_as_xyz
  1  'x, y, z'
loop_
 _atom_site_type_symbol
 _atom_site_label
 _atom_site_symmetry_multiplicity
 _atom_site_fract_x
 _atom_site_fract_y
 _atom_site_fract_z
 _atom_site_occupancy
  C  C0  1  0.00000000  0.00000000  0.00000000  1
  Ni  Ni1  1  0.00000000  0.50000000  0.00000000  1
  Ni  Ni2  1  0.00000000  0.50000000  0.50000000  1
  Ni  Ni3  1  0.50000000  0.00000000  0.24190200  1
  Ni  Ni4  1  0.50000000  0.00000000  0.75809800  1
  Ni  Ni5  1  0.50000000  0.50000000  0.24860800  1
  Ni  Ni6  1  0.50000000  0.50000000  0.75139200  1
  Ni  Ni7  1  0.50000000  0.25807100  0.00000000  1
  Ni  Ni8  1  0.50000000  0.26327900  0.50000000  1
  Ni  Ni9  1  0.50000000  0.74192900  0.00000000  1
  Ni  Ni10  1  0.50000000  0.73672100  0.50000000  1
  Ni  Ni11  1  0.00000000  0.26136900  0.24520500  1
  Ni  Ni12  1  0.00000000  0.26136900  0.75479500  1
  Ni  Ni13  1  0.00000000  0.73863100  0.24520500  1
  Ni  Ni14  1  0.00000000  0.73863100  0.75479500  1
  Cu  Cu15  1  0.00000000  0.00000000  0.50000000  1
  C  C16  1  0.00000000  0.26528400  0.00000000  1
  C  C17  1  0.00000000  0.27132800  0.50000000  1
  C  C18  1  0.00000000  0.73471600  0.00000000  1
  C  C19  1  0.00000000  0.72867200  0.50000000  1
  C  C20  1  0.50000000  0.24962600  0.25009400  1
  C  C21  1  0.50000000  0.24962600  0.74990600  1
  C  C22  1  0.50000000  0.75037400  0.25009400  1
  C  C23  1  0.50000000  0.75037400  0.74990600  1
  C  C24  1  0.50000000  0.00000000  0.00000000  1
  C  C25  1  0.50000000  0.00000000  0.50000000  1
  C  C26  1  0.50000000  0.50000000  0.00000000  1
  C  C27  1  0.50000000  0.50000000  0.50000000  1
  C  C28  1  0.00000000  0.00000000  0.24302200  1
  C  C29  1  0.00000000  0.00000000  0.75697800  1
  C  C30  1  0.00000000  0.50000000  0.24878900  1
  C  C31  1  0.00000000  0.50000000  0.75121100  1
