# generated using pymatgen
data_CuNiC14
_symmetry_space_group_name_H-M   'P 1'
_cell_length_a   9.21899781
_cell_length_b   9.21899781
_cell_length_c   9.21899781
_cell_angle_alpha   121.90842472
_cell_angle_beta   121.90842472
_cell_angle_gamma   86.72511998
_symmetry_Int_Tables_number   1
_chemical_formula_structural   CuNiC14
_chemical_formula_sum   'Cu1 Ni1 C14'
_cell_volume   537.09745281
_cell_formula_units_Z   1
loop_
 _symmetry_equiv_pos_site_id
 _symmetry_equiv_pos_as_xyz
  1  'x, y, z'
loop_
 _atom_site_type_symbol
 _atom_site_label
 _atom_site_symmetry_multiplicity
 _atom_site_fract_x
 _atom_site_fract_y
 _atom_site_fract_z
 _atom_site_occupancy
  C  C0  1  0.51191700  0.30428300  0.49927200  1
  C  C1  1  0.80501100  0.01264500  0.50072800  1
  C  C2  1  0.01264500  0.51191700  0.20763400  1
  C  C3  1  0.30428300  0.80501100  0.79236600  1
  C  C4  1  0.48808300  0.69571700  0.50072800  1
  C  C5  1  0.19499000  0.98735500  0.49927200  1
  C  C6  1  0.98735500  0.48808300  0.79236600  1
  C  C7  1  0.69571700  0.19499000  0.20763400  1
  Ni  Ni8  1  0.00000000  0.00000000  0.00000000  1
  C  C9  1  0.16208100  0.33214700  0.49422900  1
  C  C10  1  0.83791900  0.66785300  0.50577100  1
  C  C11  1  0.66785300  0.16208100  0.82993400  1
  C  C12  1  0.33214700  0.83791900  0.17006600  1
  C  C13  1  0.75283100  0.75283100  0.00000000  1
  C  C14  1  0.24716900  0.24716900  0.00000000  1
  Cu  Cu15  1  0.50000000  0.50000000  0.00000000  1
