# generated using pymatgen
data_Cu2Ni3C5
_symmetry_space_group_name_H-M   'P 1'
_cell_length_a   10.61295497
_cell_length_b   10.61295497
_cell_length_c   6.88702885
_cell_angle_alpha   83.68102120
_cell_angle_beta   83.68102120
_cell_angle_gamma   142.35265458
_symmetry_Int_Tables_number   1
_chemical_formula_structural   Cu2Ni3C5
_chemical_formula_sum   'Cu4 Ni6 C10'
_cell_volume   445.39044734
_cell_formula_units_Z   2
loop_
 _symmetry_equiv_pos_site_id
 _symmetry_equiv_pos_as_xyz
  1  'x, y, z'
loop_
 _atom_site_type_symbol
 _atom_site_label
 _atom_site_symmetry_multiplicity
 _atom_site_fract_x
 _atom_site_fract_y
 _atom_site_fract_z
 _atom_site_occupancy
  C  C0  1  0.60909400  0.90396300  0.99325700  1
  C  C1  1  0.18486100  0.29060000  0.00027800  1
  C  C2  1  0.09603700  0.39090600  0.50674300  1
  C  C3  1  0.81513900  0.70940000  0.99972200  1
  C  C4  1  0.70940000  0.81513900  0.49972200  1
  C  C5  1  0.39090600  0.09603700  0.00674300  1
  C  C6  1  0.29060000  0.18486100  0.50027800  1
  C  C7  1  0.00000000  0.50000000  0.00000000  1
  C  C8  1  0.90396300  0.60909400  0.49325700  1
  C  C9  1  0.50000000  0.00000000  0.50000000  1
  Ni  Ni10  1  0.34973400  0.65026600  0.75000000  1
  Ni  Ni11  1  0.95148300  0.04851700  0.75000000  1
  Ni  Ni12  1  0.84836200  0.15163800  0.25000000  1
  Ni  Ni13  1  0.15163800  0.84836200  0.75000000  1
  Ni  Ni14  1  0.04851700  0.95148300  0.25000000  1
  Ni  Ni15  1  0.65026600  0.34973400  0.25000000  1
  Cu  Cu16  1  0.74832500  0.25167500  0.75000000  1
  Cu  Cu17  1  0.54844200  0.45155800  0.75000000  1
  Cu  Cu18  1  0.45155800  0.54844200  0.25000000  1
  Cu  Cu19  1  0.25167500  0.74832500  0.25000000  1
