# generated using pymatgen
data_CuNiC8
_symmetry_space_group_name_H-M   'P 1'
_cell_length_a   5.46935795
_cell_length_b   5.70050000
_cell_length_c   7.81733678
_cell_angle_alpha   90.00000000
_cell_angle_beta   90.00805946
_cell_angle_gamma   90.00000000
_symmetry_Int_Tables_number   1
_chemical_formula_structural   CuNiC8
_chemical_formula_sum   'Cu2 Ni2 C16'
_cell_volume   243.72950984
_cell_formula_units_Z   2
loop_
 _symmetry_equiv_pos_site_id
 _symmetry_equiv_pos_as_xyz
  1  'x, y, z'
loop_
 _atom_site_type_symbol
 _atom_site_label
 _atom_site_symmetry_multiplicity
 _atom_site_fract_x
 _atom_site_fract_y
 _atom_site_fract_z
 _atom_site_occupancy
  C  C0  1  0.01487100  0.55950600  0.24831000  1
  C  C1  1  0.51487100  0.94049400  0.74831000  1
  C  C2  1  0.98512900  0.44049400  0.75169000  1
  C  C3  1  0.48512900  0.05950600  0.25169000  1
  Ni  Ni4  1  0.50000000  0.50000000  0.50000000  1
  Ni  Ni5  1  0.00000000  0.00000000  0.00000000  1
  Cu  Cu6  1  0.00000000  0.00000000  0.50000000  1
  Cu  Cu7  1  0.50000000  0.50000000  0.00000000  1
  C  C8  1  0.29439300  0.80199900  0.45469400  1
  C  C9  1  0.79439300  0.69800100  0.95469400  1
  C  C10  1  0.70560700  0.19800100  0.54530600  1
  C  C11  1  0.20560700  0.30199900  0.04530600  1
  C  C12  1  0.90920200  0.97302200  0.25423800  1
  C  C13  1  0.40920200  0.52697800  0.75423800  1
  C  C14  1  0.09079800  0.02697800  0.74576200  1
  C  C15  1  0.59079800  0.47302200  0.24576200  1
  C  C16  1  0.19365100  0.28924800  0.45027900  1
  C  C17  1  0.69365100  0.21075200  0.95027900  1
  C  C18  1  0.80634900  0.71075200  0.54972100  1
  C  C19  1  0.30634900  0.78924800  0.04972100  1
