# generated using pymatgen
data_CuNiC8
_symmetry_space_group_name_H-M   'P 1'
_cell_length_a   8.78182393
_cell_length_b   8.65586945
_cell_length_c   8.67541243
_cell_angle_alpha   90.00000000
_cell_angle_beta   90.00000000
_cell_angle_gamma   90.00000000
_symmetry_Int_Tables_number   1
_chemical_formula_structural   CuNiC8
_chemical_formula_sum   'Cu4 Ni4 C32'
_cell_volume   659.45558935
_cell_formula_units_Z   4
loop_
 _symmetry_equiv_pos_site_id
 _symmetry_equiv_pos_as_xyz
  1  'x, y, z'
loop_
 _atom_site_type_symbol
 _atom_site_label
 _atom_site_symmetry_multiplicity
 _atom_site_fract_x
 _atom_site_fract_y
 _atom_site_fract_z
 _atom_site_occupancy
  C  C0  1  0.00000000  0.00000000  -0.00000000  1
  C  C1  1  0.50000000  0.50000000  0.50000000  1
  C  C2  1  0.00000000  0.50000000  0.50000000  1
  C  C3  1  0.50000000  0.50000000  0.00000000  1
  Ni  Ni4  1  0.25896614  0.24879993  0.24436947  1
  Ni  Ni5  1  0.74103386  0.75120007  0.24436947  1
  Ni  Ni6  1  0.74103386  0.24879993  0.75563053  1
  Ni  Ni7  1  0.25896614  0.75120007  0.75563053  1
  Cu  Cu8  1  0.74791518  0.75450708  0.74912223  1
  Cu  Cu9  1  0.25208482  0.24549292  0.74912223  1
  Cu  Cu10  1  0.25208482  0.75450708  0.25087777  1
  Cu  Cu11  1  0.74791518  0.24549292  0.25087777  1
  C  C12  1  0.50000000  0.00000000  0.50000000  1
  C  C13  1  0.50000000  0.00000000  -0.00000000  1
  C  C14  1  0.00000000  0.50000000  0.00000000  1
  C  C15  1  0.00000000  0.00000000  0.50000000  1
  C  C16  1  0.00670933  0.20555096  0.28694054  1
  C  C17  1  0.99329067  0.79444904  0.28694054  1
  C  C18  1  0.99329067  0.20555096  0.71305946  1
  C  C19  1  0.00670933  0.79444904  0.71305946  1
  C  C20  1  0.28120265  0.00604107  0.20163164  1
  C  C21  1  0.28120265  0.99395893  0.79836836  1
  C  C22  1  0.71879735  0.99395893  0.20163164  1
  C  C23  1  0.71879735  0.00604107  0.79836836  1
  C  C24  1  0.21015721  0.28435097  0.01032546  1
  C  C25  1  0.78984279  0.28435097  0.98967454  1
  C  C26  1  0.21015721  0.71564903  0.98967454  1
  C  C27  1  0.78984279  0.71564903  0.01032546  1
  C  C28  1  0.48652090  0.29795777  0.21521383  1
  C  C29  1  0.51347910  0.70204223  0.21521383  1
  C  C30  1  0.51347910  0.29795777  0.78478617  1
  C  C31  1  0.48652090  0.70204223  0.78478617  1
  C  C32  1  0.22096225  0.48703668  0.29412684  1
  C  C33  1  0.22096225  0.51296332  0.70587316  1
  C  C34  1  0.77903775  0.51296332  0.29412684  1
  C  C35  1  0.77903775  0.48703668  0.70587316  1
  C  C36  1  0.29540491  0.22005145  0.49507467  1
  C  C37  1  0.70459509  0.22005145  0.50492533  1
  C  C38  1  0.29540491  0.77994855  0.50492533  1
  C  C39  1  0.70459509  0.77994855  0.49507467  1
