# generated using pymatgen
data_Cu2NiC9
_symmetry_space_group_name_H-M   'P 1'
_cell_length_a   8.49792500
_cell_length_b   8.49792500
_cell_length_c   5.62883900
_cell_angle_alpha   90.00000000
_cell_angle_beta   90.00000000
_cell_angle_gamma   90.00000000
_symmetry_Int_Tables_number   1
_chemical_formula_structural   Cu2NiC9
_chemical_formula_sum   'Cu4 Ni2 C18'
_cell_volume   406.48508469
_cell_formula_units_Z   2
loop_
 _symmetry_equiv_pos_site_id
 _symmetry_equiv_pos_as_xyz
  1  'x, y, z'
loop_
 _atom_site_type_symbol
 _atom_site_label
 _atom_site_symmetry_multiplicity
 _atom_site_fract_x
 _atom_site_fract_y
 _atom_site_fract_z
 _atom_site_occupancy
  C  C0  1  0.33484600  0.83484600  0.50858000  1
  C  C1  1  0.16515400  0.33484600  0.49142000  1
  C  C2  1  0.66515400  0.16515400  0.50858000  1
  C  C3  1  0.83484600  0.66515400  0.49142000  1
  Ni  Ni4  1  0.50000000  0.50000000  0.00000000  1
  Ni  Ni5  1  0.00000000  0.00000000  0.00000000  1
  Cu  Cu6  1  0.14099500  0.64099500  0.95822800  1
  Cu  Cu7  1  0.35900500  0.14099500  0.04177200  1
  Cu  Cu8  1  0.85900500  0.35900500  0.95822800  1
  Cu  Cu9  1  0.64099500  0.85900500  0.04177200  1
  C  C10  1  0.50000000  0.00000000  0.16147400  1
  C  C11  1  0.00000000  0.50000000  0.83852600  1
  C  C12  1  0.13904800  0.63904800  0.26838100  1
  C  C13  1  0.36095200  0.13904800  0.73161900  1
  C  C14  1  0.86095200  0.36095200  0.26838100  1
  C  C15  1  0.63904800  0.86095200  0.73161900  1
  C  C16  1  0.31659400  0.57948400  0.81476800  1
  C  C17  1  0.18340600  0.07948400  0.18523200  1
  C  C18  1  0.68340600  0.42051600  0.81476800  1
  C  C19  1  0.81659400  0.92051600  0.18523200  1
  C  C20  1  0.57948400  0.68340600  0.18523200  1
  C  C21  1  0.92051600  0.18340600  0.81476800  1
  C  C22  1  0.42051600  0.31659400  0.18523200  1
  C  C23  1  0.07948400  0.81659400  0.81476800  1
