# generated using pymatgen
data_Cu14Ni8C3
_symmetry_space_group_name_H-M   'P 1'
_cell_length_a   13.53349600
_cell_length_b   6.25772200
_cell_length_c   12.21674779
_cell_angle_alpha   89.04280496
_cell_angle_beta   90.00000000
_cell_angle_gamma   90.00000000
_symmetry_Int_Tables_number   1
_chemical_formula_structural   Cu14Ni8C3
_chemical_formula_sum   'Cu28 Ni16 C6'
_cell_volume   1034.47801346
_cell_formula_units_Z   2
loop_
 _symmetry_equiv_pos_site_id
 _symmetry_equiv_pos_as_xyz
  1  'x, y, z'
loop_
 _atom_site_type_symbol
 _atom_site_label
 _atom_site_symmetry_multiplicity
 _atom_site_fract_x
 _atom_site_fract_y
 _atom_site_fract_z
 _atom_site_occupancy
  C  C0  1  0.50000000  0.50000000  0.50000000  1
  C  C1  1  0.00000000  0.00000000  0.50000000  1
  C  C2  1  0.34349600  0.32162300  0.16745400  1
  C  C3  1  0.84349600  0.17837700  0.83254600  1
  C  C4  1  0.65650400  0.67837700  0.83254600  1
  C  C5  1  0.15650400  0.82162300  0.16745400  1
  Ni  Ni6  1  0.68713800  0.03658600  0.58382200  1
  Ni  Ni7  1  0.18713800  0.46341400  0.41617800  1
  Ni  Ni8  1  0.31286200  0.96341400  0.41617800  1
  Ni  Ni9  1  0.81286200  0.53658600  0.58382200  1
  Ni  Ni10  1  0.68602900  0.04223800  0.38890700  1
  Ni  Ni11  1  0.18602900  0.45776200  0.61109300  1
  Ni  Ni12  1  0.31397100  0.95776200  0.61109300  1
  Ni  Ni13  1  0.81397100  0.54223800  0.38890700  1
  Ni  Ni14  1  0.68774600  0.38309700  0.15024500  1
  Ni  Ni15  1  0.18774600  0.11690300  0.84975500  1
  Ni  Ni16  1  0.31225400  0.61690300  0.84975500  1
  Ni  Ni17  1  0.81225400  0.88309700  0.15024500  1
  Ni  Ni18  1  0.95415600  0.38247100  0.15288900  1
  Ni  Ni19  1  0.45415600  0.11752900  0.84711100  1
  Ni  Ni20  1  0.04584400  0.61752900  0.84711100  1
  Ni  Ni21  1  0.54584400  0.88247100  0.15288900  1
  Cu  Cu22  1  0.95294800  0.37075800  0.33832000  1
  Cu  Cu23  1  0.45294800  0.12924200  0.66168000  1
  Cu  Cu24  1  0.04705200  0.62924200  0.66168000  1
  Cu  Cu25  1  0.54705200  0.87075800  0.33832000  1
  Cu  Cu26  1  0.55256100  0.22451100  0.08171900  1
  Cu  Cu27  1  0.05256100  0.27548900  0.91828100  1
  Cu  Cu28  1  0.44743900  0.77548900  0.91828100  1
  Cu  Cu29  1  0.94743900  0.72451100  0.08171900  1
  Cu  Cu30  1  0.94726100  0.35750900  0.64126000  1
  Cu  Cu31  1  0.44726100  0.14249100  0.35874000  1
  Cu  Cu32  1  0.05273900  0.64249100  0.35874000  1
  Cu  Cu33  1  0.55273900  0.85750900  0.64126000  1
  Cu  Cu34  1  0.10562400  0.28825400  0.09126700  1
  Cu  Cu35  1  0.60562400  0.21174600  0.90873300  1
  Cu  Cu36  1  0.89437600  0.71174600  0.90873300  1
  Cu  Cu37  1  0.39437600  0.78825400  0.09126700  1
  Cu  Cu38  1  0.82093100  0.21713100  0.07469600  1
  Cu  Cu39  1  0.32093100  0.28286900  0.92530400  1
  Cu  Cu40  1  0.17906900  0.78286900  0.92530400  1
  Cu  Cu41  1  0.67906900  0.71713100  0.07469600  1
  Cu  Cu42  1  0.67161600  0.38941000  0.33353400  1
  Cu  Cu43  1  0.17161600  0.11059000  0.66646600  1
  Cu  Cu44  1  0.32838400  0.61059000  0.66646600  1
  Cu  Cu45  1  0.82838400  0.88941000  0.33353400  1
  Cu  Cu46  1  0.67727000  0.37165300  0.64679200  1
  Cu  Cu47  1  0.17727000  0.12834700  0.35320800  1
  Cu  Cu48  1  0.32273000  0.62834700  0.35320800  1
  Cu  Cu49  1  0.82273000  0.87165300  0.64679200  1
