# generated using pymatgen
data_Cu7(NiC)4
_symmetry_space_group_name_H-M   'P 1'
_cell_length_a   8.65589000
_cell_length_b   8.73417600
_cell_length_c   21.58183493
_cell_angle_alpha   69.29294373
_cell_angle_beta   90.00000000
_cell_angle_gamma   90.00000000
_symmetry_Int_Tables_number   1
_chemical_formula_structural   Cu7(NiC)4
_chemical_formula_sum   'Cu28 Ni16 C16'
_cell_volume   1526.22874217
_cell_formula_units_Z   4
loop_
 _symmetry_equiv_pos_site_id
 _symmetry_equiv_pos_as_xyz
  1  'x, y, z'
loop_
 _atom_site_type_symbol
 _atom_site_label
 _atom_site_symmetry_multiplicity
 _atom_site_fract_x
 _atom_site_fract_y
 _atom_site_fract_z
 _atom_site_occupancy
  C  C0  1  0.24186300  0.42761700  0.43753000  1
  C  C1  1  0.74186300  0.57238300  0.06247000  1
  C  C2  1  0.75813700  0.57238300  0.56247000  1
  C  C3  1  0.25813700  0.42761700  0.93753000  1
  C  C4  1  0.44914000  0.19951900  0.24566800  1
  C  C5  1  0.94914000  0.80048100  0.25433200  1
  C  C6  1  0.55086000  0.80048100  0.75433200  1
  C  C7  1  0.05086000  0.19951900  0.74566800  1
  C  C8  1  0.11492800  0.93628400  0.43865900  1
  C  C9  1  0.61492800  0.06371600  0.06134100  1
  C  C10  1  0.88507200  0.06371600  0.56134100  1
  C  C11  1  0.38507200  0.93628400  0.93865900  1
  C  C12  1  0.29826900  0.71584500  0.12929300  1
  C  C13  1  0.79826900  0.28415500  0.37070700  1
  C  C14  1  0.70173100  0.28415500  0.87070700  1
  C  C15  1  0.20173100  0.71584500  0.62929300  1
  Ni  Ni16  1  0.26881600  0.84364800  0.34696100  1
  Ni  Ni17  1  0.76881600  0.15635200  0.15303900  1
  Ni  Ni18  1  0.73118400  0.15635200  0.65303900  1
  Ni  Ni19  1  0.23118400  0.84364800  0.84696100  1
  Ni  Ni20  1  0.23692300  0.51918500  0.25427400  1
  Ni  Ni21  1  0.73692300  0.48081500  0.24572600  1
  Ni  Ni22  1  0.76307700  0.48081500  0.74572600  1
  Ni  Ni23  1  0.26307700  0.51918500  0.75427400  1
  Ni  Ni24  1  0.15502200  0.70253800  0.01454000  1
  Ni  Ni25  1  0.65502200  0.29746200  0.48546000  1
  Ni  Ni26  1  0.84497800  0.29746200  0.98546000  1
  Ni  Ni27  1  0.34497800  0.70253800  0.51454000  1
  Ni  Ni28  1  0.48779800  0.87515900  0.18786000  1
  Ni  Ni29  1  0.98779800  0.12484100  0.31214000  1
  Ni  Ni30  1  0.51220200  0.12484100  0.81214000  1
  Ni  Ni31  1  0.01220200  0.87515900  0.68786000  1
  Cu  Cu32  1  0.24991800  0.10344900  0.42707100  1
  Cu  Cu33  1  0.74991800  0.89655100  0.07292900  1
  Cu  Cu34  1  0.75008200  0.89655100  0.57292900  1
  Cu  Cu35  1  0.25008200  0.10344900  0.92707100  1
  Cu  Cu36  1  0.48299800  0.23408900  0.05055400  1
  Cu  Cu37  1  0.98299800  0.76591100  0.44944600  1
  Cu  Cu38  1  0.51700200  0.76591100  0.94944600  1
  Cu  Cu39  1  0.01700200  0.23408900  0.55055400  1
  Cu  Cu40  1  0.13816100  0.84265800  0.13681000  1
  Cu  Cu41  1  0.63816100  0.15734200  0.36319000  1
  Cu  Cu42  1  0.86183900  0.15734200  0.86319000  1
  Cu  Cu43  1  0.36183900  0.84265800  0.63681000  1
  Cu  Cu44  1  0.44090700  0.56452200  0.12620400  1
  Cu  Cu45  1  0.94090700  0.43547800  0.37379600  1
  Cu  Cu46  1  0.55909300  0.43547800  0.87379600  1
  Cu  Cu47  1  0.05909300  0.56452200  0.62620400  1
  Cu  Cu48  1  0.41282800  0.90229000  0.04802400  1
  Cu  Cu49  1  0.91282800  0.09771000  0.45197600  1
  Cu  Cu50  1  0.58717200  0.09771000  0.95197600  1
  Cu  Cu51  1  0.08717200  0.90229000  0.54802400  1
  Cu  Cu52  1  0.08274900  0.42476700  0.14108200  1
  Cu  Cu53  1  0.58274900  0.57523300  0.35891800  1
  Cu  Cu54  1  0.91725100  0.57523300  0.85891800  1
  Cu  Cu55  1  0.41725100  0.42476700  0.64108200  1
  Cu  Cu56  1  0.13689000  0.30036900  0.13494800  1
  Cu  Cu57  1  0.63689000  0.69963100  0.36505200  1
  Cu  Cu58  1  0.86311000  0.69963100  0.86505200  1
  Cu  Cu59  1  0.36311000  0.30036900  0.63494800  1
