# generated using pymatgen
data_CuNiC11
_symmetry_space_group_name_H-M   'P 1'
_cell_length_a   5.53321900
_cell_length_b   7.04323946
_cell_length_c   9.52228361
_cell_angle_alpha   110.93407439
_cell_angle_beta   101.57921467
_cell_angle_gamma   98.14936883
_symmetry_Int_Tables_number   1
_chemical_formula_structural   CuNiC11
_chemical_formula_sum   'Cu2 Ni2 C22'
_cell_volume   330.18035608
_cell_formula_units_Z   2
loop_
 _symmetry_equiv_pos_site_id
 _symmetry_equiv_pos_as_xyz
  1  'x, y, z'
loop_
 _atom_site_type_symbol
 _atom_site_label
 _atom_site_symmetry_multiplicity
 _atom_site_fract_x
 _atom_site_fract_y
 _atom_site_fract_z
 _atom_site_occupancy
  C  C0  1  0.19891000  0.75148000  0.04657800  1
  C  C1  1  0.80109000  0.24852000  0.95342200  1
  Ni  Ni2  1  0.07816100  0.28922800  0.56147900  1
  Ni  Ni3  1  0.92183900  0.71077200  0.43852100  1
  Cu  Cu4  1  0.34719100  0.73169400  0.64678500  1
  Cu  Cu5  1  0.65280900  0.26830600  0.35321500  1
  C  C6  1  0.15854800  0.19089700  0.23160500  1
  C  C7  1  0.84145200  0.80910300  0.76839500  1
  C  C8  1  0.53885800  0.72115000  0.30061700  1
  C  C9  1  0.46114200  0.27885000  0.69938300  1
  C  C10  1  0.90992000  0.65727800  0.89755300  1
  C  C11  1  0.44999300  0.26189100  0.21375700  1
  C  C12  1  0.89614900  0.02886500  0.77028200  1
  C  C13  1  0.25917300  0.41797700  0.70027100  1
  C  C14  1  0.55000700  0.73810900  0.78624300  1
  C  C15  1  0.42433200  0.17585300  0.57800100  1
  C  C16  1  0.57566800  0.82414700  0.42199900  1
  C  C17  1  0.39875400  0.12902200  0.86434400  1
  C  C18  1  0.10385100  0.97113500  0.22971800  1
  C  C19  1  0.60124600  0.87097800  0.13565600  1
  C  C20  1  0.09008000  0.34272200  0.10244700  1
  C  C21  1  0.97156400  0.19247700  0.39046600  1
  C  C22  1  0.02843600  0.80752300  0.60953400  1
  C  C23  1  0.25588000  0.58537000  0.36533500  1
  C  C24  1  0.74082700  0.58202300  0.29972900  1
  C  C25  1  0.74412000  0.41463000  0.63466500  1
