# generated using pymatgen
data_Cu2NiC2
_symmetry_space_group_name_H-M   'P 1'
_cell_length_a   6.54360736
_cell_length_b   7.87645075
_cell_length_c   6.87009890
_cell_angle_alpha   90.00000257
_cell_angle_beta   58.33530105
_cell_angle_gamma   52.99798273
_symmetry_Int_Tables_number   1
_chemical_formula_structural   Cu2NiC2
_chemical_formula_sum   'Cu4 Ni2 C4'
_cell_volume   213.10520111
_cell_formula_units_Z   2
loop_
 _symmetry_equiv_pos_site_id
 _symmetry_equiv_pos_as_xyz
  1  'x, y, z'
loop_
 _atom_site_type_symbol
 _atom_site_label
 _atom_site_symmetry_multiplicity
 _atom_site_fract_x
 _atom_site_fract_y
 _atom_site_fract_z
 _atom_site_occupancy
  Ni  Ni0  1  0.00000000  0.00000000  0.25000000  1
  Ni  Ni1  1  0.00000000  0.00000000  0.75000000  1
  Cu  Cu2  1  0.74338800  0.50000000  0.62830600  1
  Cu  Cu3  1  0.25661200  0.50000000  0.37169400  1
  Cu  Cu4  1  0.25661200  0.24338800  0.87169400  1
  Cu  Cu5  1  0.74338800  0.75661200  0.12830600  1
  C  C6  1  0.66638500  0.50000000  0.16680800  1
  C  C7  1  0.33361500  0.50000000  0.83319200  1
  C  C8  1  0.33361500  0.16638500  0.33319200  1
  C  C9  1  0.66638500  0.83361500  0.66680800  1
