# generated using pymatgen
data_Cu15Ni7C
_symmetry_space_group_name_H-M   'P 1'
_cell_length_a   11.30169031
_cell_length_b   11.30169031
_cell_length_c   9.41646800
_cell_angle_alpha   90.00000000
_cell_angle_beta   90.00000000
_cell_angle_gamma   120.00000180
_symmetry_Int_Tables_number   1
_chemical_formula_structural   Cu15Ni7C
_chemical_formula_sum   'Cu45 Ni21 C3'
_cell_volume   1041.61077436
_cell_formula_units_Z   3
loop_
 _symmetry_equiv_pos_site_id
 _symmetry_equiv_pos_as_xyz
  1  'x, y, z'
loop_
 _atom_site_type_symbol
 _atom_site_label
 _atom_site_symmetry_multiplicity
 _atom_site_fract_x
 _atom_site_fract_y
 _atom_site_fract_z
 _atom_site_occupancy
  C  C0  1  0.66599400  0.00173200  0.19383600  1
  C  C1  1  0.99826800  0.66426200  0.52717000  1
  C  C2  1  0.33573800  0.33400600  0.86050300  1
  Ni  Ni3  1  0.93927100  0.33251700  0.85575100  1
  Ni  Ni4  1  0.66748300  0.60675400  0.18908400  1
  Ni  Ni5  1  0.39324600  0.06072900  0.52241800  1
  Ni  Ni6  1  0.11964400  0.33138400  0.35466800  1
  Ni  Ni7  1  0.66861600  0.78825900  0.68800100  1
  Ni  Ni8  1  0.21174100  0.88035600  0.02133500  1
  Ni  Ni9  1  0.56532500  0.97156600  0.90029700  1
  Ni  Ni10  1  0.02843400  0.59375900  0.23363000  1
  Ni  Ni11  1  0.40624100  0.43467500  0.56696400  1
  Ni  Ni12  1  0.91708000  0.00099100  0.12883300  1
  Ni  Ni13  1  0.99900900  0.91608900  0.46216700  1
  Ni  Ni14  1  0.08391100  0.08292000  0.79550000  1
  Ni  Ni15  1  0.30515200  0.23380100  0.14965700  1
  Ni  Ni16  1  0.76619900  0.07135000  0.48299100  1
  Ni  Ni17  1  0.92865000  0.69484800  0.81632400  1
  Ni  Ni18  1  0.33301800  0.58265900  0.91890200  1
  Ni  Ni19  1  0.41734100  0.75035900  0.25223600  1
  Ni  Ni20  1  0.24964100  0.66698200  0.58556900  1
  Ni  Ni21  1  0.74767300  0.41564900  0.52345500  1
  Ni  Ni22  1  0.58435100  0.33202400  0.85678800  1
  Ni  Ni23  1  0.66797600  0.25232700  0.19012200  1
  Cu  Cu24  1  0.49078500  0.49318100  0.66891100  1
  Cu  Cu25  1  0.50681900  0.99760400  0.00224400  1
  Cu  Cu26  1  0.00239600  0.50921500  0.33557800  1
  Cu  Cu27  1  0.29132200  0.33228000  0.60334600  1
  Cu  Cu28  1  0.66772000  0.95904200  0.93668000  1
  Cu  Cu29  1  0.04095800  0.70867800  0.27001300  1
  Cu  Cu30  1  0.43339900  0.47461500  0.44343600  1
  Cu  Cu31  1  0.52538500  0.95878400  0.77677000  1
  Cu  Cu32  1  0.04121600  0.56660100  0.11010300  1
  Cu  Cu33  1  0.19761900  0.08656000  0.77944700  1
  Cu  Cu34  1  0.91344000  0.11105900  0.11278000  1
  Cu  Cu35  1  0.88894100  0.80238100  0.44611300  1
  Cu  Cu36  1  0.09169500  0.19488700  0.83673200  1
  Cu  Cu37  1  0.80511300  0.89680800  0.17006500  1
  Cu  Cu38  1  0.10319200  0.90830500  0.50339800  1
  Cu  Cu39  1  0.97305500  0.97881700  0.77413000  1
  Cu  Cu40  1  0.02118300  0.99423800  0.10746300  1
  Cu  Cu41  1  0.00576200  0.02694500  0.44079700  1
  Cu  Cu42  1  0.29248900  0.33680200  0.11443900  1
  Cu  Cu43  1  0.66319800  0.95568800  0.44777200  1
  Cu  Cu44  1  0.04431200  0.70751100  0.78110600  1
  Cu  Cu45  1  0.33126900  0.17685900  0.04562200  1
  Cu  Cu46  1  0.82314100  0.15441000  0.37895500  1
  Cu  Cu47  1  0.84559000  0.66873100  0.71228900  1
  Cu  Cu48  1  0.89999600  0.70734200  0.93873900  1
  Cu  Cu49  1  0.29265800  0.19265400  0.27207200  1
  Cu  Cu50  1  0.80734600  0.10000400  0.60540500  1
  Cu  Cu51  1  0.22937700  0.47158500  0.87428200  1
  Cu  Cu52  1  0.52841500  0.75779300  0.20761500  1
  Cu  Cu53  1  0.24220700  0.77062300  0.54094800  1
  Cu  Cu54  1  0.44267900  0.57777200  0.93543800  1
  Cu  Cu55  1  0.42222800  0.86490700  0.26877100  1
  Cu  Cu56  1  0.13509300  0.55732100  0.60210400  1
  Cu  Cu57  1  0.35986900  0.67359500  0.60958000  1
  Cu  Cu58  1  0.32640500  0.68627400  0.94291300  1
  Cu  Cu59  1  0.31372600  0.64013100  0.27624700  1
  Cu  Cu60  1  0.56805200  0.41867500  0.93000800  1
  Cu  Cu61  1  0.58132500  0.14937800  0.26334200  1
  Cu  Cu62  1  0.85062200  0.43194800  0.59667500  1
  Cu  Cu63  1  0.76656800  0.51933400  0.44998200  1
  Cu  Cu64  1  0.48066600  0.24723300  0.78331600  1
  Cu  Cu65  1  0.75276700  0.23343200  0.11664900  1
  Cu  Cu66  1  0.63815000  0.30780200  0.52386700  1
  Cu  Cu67  1  0.69219800  0.33034800  0.85720100  1
  Cu  Cu68  1  0.66965200  0.36185000  0.19053400  1
