# generated using pymatgen
data_Cu8NiC7
_symmetry_space_group_name_H-M   'P 1'
_cell_length_a   20.53541500
_cell_length_b   6.39054000
_cell_length_c   9.00794881
_cell_angle_alpha   88.85018437
_cell_angle_beta   90.00000000
_cell_angle_gamma   90.00000000
_symmetry_Int_Tables_number   1
_chemical_formula_structural   Cu8NiC7
_chemical_formula_sum   'Cu32 Ni4 C28'
_cell_volume   1181.89662949
_cell_formula_units_Z   4
loop_
 _symmetry_equiv_pos_site_id
 _symmetry_equiv_pos_as_xyz
  1  'x, y, z'
loop_
 _atom_site_type_symbol
 _atom_site_label
 _atom_site_symmetry_multiplicity
 _atom_site_fract_x
 _atom_site_fract_y
 _atom_site_fract_z
 _atom_site_occupancy
  C  C0  1  0.13766200  0.61864400  0.29608000  1
  C  C1  1  0.86233800  0.38135600  0.70392000  1
  C  C2  1  0.63766200  0.38135600  0.20392000  1
  C  C3  1  0.36233800  0.61864400  0.79608000  1
  C  C4  1  0.41678500  0.73319800  0.15297800  1
  C  C5  1  0.58321500  0.26680200  0.84702200  1
  C  C6  1  0.91678500  0.26680200  0.34702200  1
  C  C7  1  0.08321500  0.73319800  0.65297800  1
  C  C8  1  0.99758300  0.70821900  0.08764300  1
  C  C9  1  0.00241700  0.29178100  0.91235700  1
  C  C10  1  0.49758300  0.29178100  0.41235700  1
  C  C11  1  0.50241700  0.70821900  0.58764300  1
  C  C12  1  0.34775600  0.27243700  0.25807200  1
  C  C13  1  0.65224400  0.72756300  0.74192800  1
  C  C14  1  0.84775600  0.72756300  0.24192800  1
  C  C15  1  0.15224400  0.27243700  0.75807200  1
  C  C16  1  0.47033200  0.27992600  0.07590000  1
  C  C17  1  0.52966800  0.72007400  0.92410000  1
  C  C18  1  0.97033200  0.72007400  0.42410000  1
  C  C19  1  0.02966800  0.27992600  0.57590000  1
  C  C20  1  0.27785300  0.64603400  0.42298900  1
  C  C21  1  0.72214700  0.35396600  0.57701100  1
  C  C22  1  0.77785300  0.35396600  0.07701100  1
  C  C23  1  0.22214700  0.64603400  0.92298900  1
  C  C24  1  0.09446300  0.17183400  0.21744300  1
  C  C25  1  0.90553700  0.82816600  0.78255700  1
  C  C26  1  0.59446300  0.82816600  0.28255700  1
  C  C27  1  0.40553700  0.17183400  0.71744300  1
  Ni  Ni28  1  0.39675200  0.05258300  0.18565600  1
  Ni  Ni29  1  0.60324800  0.94741700  0.81434400  1
  Ni  Ni30  1  0.89675200  0.94741700  0.31434400  1
  Ni  Ni31  1  0.10324800  0.05258300  0.68565600  1
  Cu  Cu32  1  0.08594100  0.28443700  0.36290100  1
  Cu  Cu33  1  0.91405900  0.71556300  0.63709900  1
  Cu  Cu34  1  0.58594100  0.71556300  0.13709900  1
  Cu  Cu35  1  0.41405900  0.28443700  0.86290100  1
  Cu  Cu36  1  0.73584300  0.18268400  0.13173900  1
  Cu  Cu37  1  0.26415700  0.81731600  0.86826100  1
  Cu  Cu38  1  0.23584300  0.81731600  0.36826100  1
  Cu  Cu39  1  0.76415700  0.18268400  0.63173900  1
  Cu  Cu40  1  0.33511500  0.60923300  0.31616800  1
  Cu  Cu41  1  0.66488500  0.39076700  0.68383200  1
  Cu  Cu42  1  0.83511500  0.39076700  0.18383200  1
  Cu  Cu43  1  0.16488500  0.60923300  0.81616800  1
  Cu  Cu44  1  0.13673900  0.31568100  0.12967600  1
  Cu  Cu45  1  0.86326100  0.68431900  0.87032400  1
  Cu  Cu46  1  0.63673900  0.68431900  0.37032400  1
  Cu  Cu47  1  0.36326100  0.31568100  0.62967600  1
  Cu  Cu48  1  0.19631000  0.68824400  0.07029800  1
  Cu  Cu49  1  0.80369000  0.31175600  0.92970200  1
  Cu  Cu50  1  0.69631000  0.31175600  0.42970200  1
  Cu  Cu51  1  0.30369000  0.68824400  0.57029800  1
  Cu  Cu52  1  0.23974400  0.44433400  0.41425900  1
  Cu  Cu53  1  0.76025600  0.55566600  0.58574100  1
  Cu  Cu54  1  0.73974400  0.55566600  0.08574100  1
  Cu  Cu55  1  0.26025600  0.44433400  0.91425900  1
  Cu  Cu56  1  0.03007700  0.13997200  0.14218900  1
  Cu  Cu57  1  0.96992300  0.86002800  0.85781100  1
  Cu  Cu58  1  0.53007700  0.86002800  0.35781100  1
  Cu  Cu59  1  0.46992300  0.13997200  0.64218900  1
  Cu  Cu60  1  0.12491900  0.96978200  0.24728800  1
  Cu  Cu61  1  0.87508100  0.03021800  0.75271200  1
  Cu  Cu62  1  0.62491900  0.03021800  0.25271200  1
  Cu  Cu63  1  0.37508100  0.96978200  0.74728800  1
