# generated using pymatgen
data_Cu10Ni4C5
_symmetry_space_group_name_H-M   'P 1'
_cell_length_a   4.15344500
_cell_length_b   12.70193300
_cell_length_c   12.70193300
_cell_angle_alpha   90.00000000
_cell_angle_beta   90.00000000
_cell_angle_gamma   90.00000000
_symmetry_Int_Tables_number   1
_chemical_formula_structural   Cu10Ni4C5
_chemical_formula_sum   'Cu20 Ni8 C10'
_cell_volume   670.11308624
_cell_formula_units_Z   2
loop_
 _symmetry_equiv_pos_site_id
 _symmetry_equiv_pos_as_xyz
  1  'x, y, z'
loop_
 _atom_site_type_symbol
 _atom_site_label
 _atom_site_symmetry_multiplicity
 _atom_site_fract_x
 _atom_site_fract_y
 _atom_site_fract_z
 _atom_site_occupancy
  C  C0  1  0.00000000  0.50000000  0.50000000  1
  C  C1  1  0.00000000  0.00000000  0.00000000  1
  C  C2  1  0.50000000  0.17565300  0.67565300  1
  C  C3  1  0.50000000  0.82434700  0.32434700  1
  C  C4  1  0.50000000  0.32434700  0.17565300  1
  C  C5  1  0.50000000  0.67565300  0.82434700  1
  C  C6  1  0.50000000  0.38651100  0.88651100  1
  C  C7  1  0.50000000  0.61348900  0.11348900  1
  C  C8  1  0.50000000  0.11348900  0.38651100  1
  C  C9  1  0.50000000  0.88651100  0.61348900  1
  Ni  Ni10  1  0.00000000  0.52388300  0.74592700  1
  Ni  Ni11  1  0.00000000  0.47611700  0.25407300  1
  Ni  Ni12  1  0.00000000  0.97611700  0.24592700  1
  Ni  Ni13  1  0.00000000  0.02388300  0.75407300  1
  Ni  Ni14  1  0.00000000  0.74592700  0.47611700  1
  Ni  Ni15  1  0.00000000  0.25407300  0.52388300  1
  Ni  Ni16  1  0.00000000  0.24592700  0.02388300  1
  Ni  Ni17  1  0.00000000  0.75407300  0.97611700  1
  Cu  Cu18  1  0.00000000  0.06834900  0.56834900  1
  Cu  Cu19  1  0.00000000  0.93165100  0.43165100  1
  Cu  Cu20  1  0.00000000  0.43165100  0.06834900  1
  Cu  Cu21  1  0.00000000  0.56834900  0.93165100  1
  Cu  Cu22  1  0.00000000  0.69732700  0.65643900  1
  Cu  Cu23  1  0.00000000  0.30267300  0.34356100  1
  Cu  Cu24  1  0.00000000  0.80267300  0.15643900  1
  Cu  Cu25  1  0.00000000  0.19732700  0.84356100  1
  Cu  Cu26  1  0.00000000  0.65643900  0.30267300  1
  Cu  Cu27  1  0.00000000  0.34356100  0.69732700  1
  Cu  Cu28  1  0.00000000  0.15643900  0.19732700  1
  Cu  Cu29  1  0.00000000  0.84356100  0.80267300  1
  Cu  Cu30  1  0.50000000  0.50591100  0.66549700  1
  Cu  Cu31  1  0.50000000  0.49408900  0.33450300  1
  Cu  Cu32  1  0.50000000  0.99408900  0.16549700  1
  Cu  Cu33  1  0.50000000  0.00591100  0.83450300  1
  Cu  Cu34  1  0.50000000  0.66549700  0.49408900  1
  Cu  Cu35  1  0.50000000  0.33450300  0.50591100  1
  Cu  Cu36  1  0.50000000  0.16549700  0.00591100  1
  Cu  Cu37  1  0.50000000  0.83450300  0.99408900  1
