# generated using pymatgen
data_CuNiC12
_symmetry_space_group_name_H-M   'P 1'
_cell_length_a   6.18447200
_cell_length_b   7.25332700
_cell_length_c   14.30347700
_cell_angle_alpha   90.00000000
_cell_angle_beta   90.00000000
_cell_angle_gamma   90.00000000
_symmetry_Int_Tables_number   1
_chemical_formula_structural   CuNiC12
_chemical_formula_sum   'Cu4 Ni4 C48'
_cell_volume   641.62533892
_cell_formula_units_Z   4
loop_
 _symmetry_equiv_pos_site_id
 _symmetry_equiv_pos_as_xyz
  1  'x, y, z'
loop_
 _atom_site_type_symbol
 _atom_site_label
 _atom_site_symmetry_multiplicity
 _atom_site_fract_x
 _atom_site_fract_y
 _atom_site_fract_z
 _atom_site_occupancy
  Ni  Ni0  1  0.75000000  0.35237000  0.38125400  1
  Ni  Ni1  1  0.25000000  0.64763000  0.61874600  1
  Ni  Ni2  1  0.25000000  0.85237000  0.11874600  1
  Ni  Ni3  1  0.75000000  0.14763000  0.88125400  1
  C  C4  1  0.75000000  0.88039700  0.28380700  1
  C  C5  1  0.75000000  0.61960300  0.78380700  1
  C  C6  1  0.25000000  0.11960300  0.71619300  1
  C  C7  1  0.25000000  0.38039700  0.21619300  1
  Cu  Cu8  1  0.50000000  0.00000000  0.50000000  1
  Cu  Cu9  1  0.50000000  0.50000000  0.00000000  1
  Cu  Cu10  1  0.00000000  0.50000000  0.00000000  1
  Cu  Cu11  1  0.00000000  0.00000000  0.50000000  1
  C  C12  1  0.25000000  0.36054700  0.43347900  1
  C  C13  1  0.75000000  0.63945300  0.56652100  1
  C  C14  1  0.75000000  0.86054700  0.06652100  1
  C  C15  1  0.25000000  0.13945300  0.93347900  1
  C  C16  1  0.75000000  0.39425600  0.20005300  1
  C  C17  1  0.25000000  0.60574400  0.79994700  1
  C  C18  1  0.25000000  0.89425600  0.29994700  1
  C  C19  1  0.75000000  0.10574400  0.70005300  1
  C  C20  1  0.03784800  0.60856900  0.85820600  1
  C  C21  1  0.53784800  0.39143100  0.14179400  1
  C  C22  1  0.96215200  0.10856900  0.64179400  1
  C  C23  1  0.46215200  0.89143100  0.35820600  1
  C  C24  1  0.96215200  0.39143100  0.14179400  1
  C  C25  1  0.46215200  0.60856900  0.85820600  1
  C  C26  1  0.03784800  0.89143100  0.35820600  1
  C  C27  1  0.53784800  0.10856900  0.64179400  1
  C  C28  1  0.25000000  0.32890200  0.98007400  1
  C  C29  1  0.75000000  0.67109800  0.01992600  1
  C  C30  1  0.75000000  0.82890200  0.51992600  1
  C  C31  1  0.25000000  0.17109800  0.48007400  1
  C  C32  1  0.75000000  0.14426600  0.44745900  1
  C  C33  1  0.25000000  0.85573400  0.55254100  1
  C  C34  1  0.25000000  0.64426600  0.05254100  1
  C  C35  1  0.75000000  0.35573400  0.94745900  1
  C  C36  1  0.75000000  0.21706400  0.26528600  1
  C  C37  1  0.25000000  0.78293600  0.73471400  1
  C  C38  1  0.25000000  0.71706400  0.23471400  1
  C  C39  1  0.75000000  0.28293600  0.76528600  1
  C  C40  1  0.44087000  0.12230700  0.86274100  1
  C  C41  1  0.94087000  0.87769300  0.13725900  1
  C  C42  1  0.55913000  0.62230700  0.63725900  1
  C  C43  1  0.05913000  0.37769300  0.36274100  1
  C  C44  1  0.55913000  0.87769300  0.13725900  1
  C  C45  1  0.05913000  0.12230700  0.86274100  1
  C  C46  1  0.44087000  0.37769300  0.36274100  1
  C  C47  1  0.94087000  0.62230700  0.63725900  1
  C  C48  1  0.75000000  0.94395200  0.77309600  1
  C  C49  1  0.25000000  0.05604800  0.22690400  1
  C  C50  1  0.25000000  0.44395200  0.72690400  1
  C  C51  1  0.75000000  0.55604800  0.27309600  1
  C  C52  1  0.75000000  0.01147000  0.99405600  1
  C  C53  1  0.25000000  0.98853000  0.00594400  1
  C  C54  1  0.25000000  0.51147000  0.50594400  1
  C  C55  1  0.75000000  0.48853000  0.49405600  1
