# generated using pymatgen
data_Cu5Ni2C25
_symmetry_space_group_name_H-M   'P 1'
_cell_length_a   5.84748200
_cell_length_b   5.15437700
_cell_length_c   9.71034539
_cell_angle_alpha   79.55958932
_cell_angle_beta   90.00000000
_cell_angle_gamma   90.00000000
_symmetry_Int_Tables_number   1
_chemical_formula_structural   Cu5Ni2C25
_chemical_formula_sum   'Cu5 Ni2 C25'
_cell_volume   287.82555141
_cell_formula_units_Z   1
loop_
 _symmetry_equiv_pos_site_id
 _symmetry_equiv_pos_as_xyz
  1  'x, y, z'
loop_
 _atom_site_type_symbol
 _atom_site_label
 _atom_site_symmetry_multiplicity
 _atom_site_fract_x
 _atom_site_fract_y
 _atom_site_fract_z
 _atom_site_occupancy
  C  C0  1  0.74359600  0.50000000  0.00000000  1
  C  C1  1  0.50000000  0.25637600  0.25797000  1
  C  C2  1  0.25595600  0.00000000  0.50000000  1
  C  C3  1  0.50000000  0.74362400  0.74203000  1
  C  C4  1  0.25640400  0.50000000  0.00000000  1
  C  C5  1  0.00000000  0.24154500  0.25512400  1
  C  C6  1  0.00000000  0.75845500  0.74487600  1
  C  C7  1  0.74404400  0.00000000  0.50000000  1
  C  C8  1  0.50000000  0.50000000  0.50000000  1
  Ni  Ni9  1  0.00000000  0.00000000  0.00000000  1
  Ni  Ni10  1  0.00000000  0.50000000  0.50000000  1
  Cu  Cu11  1  0.74236500  0.74091000  0.25709800  1
  Cu  Cu12  1  0.25763500  0.25909000  0.74290200  1
  Cu  Cu13  1  0.50000000  0.00000000  0.00000000  1
  Cu  Cu14  1  0.25763500  0.74091000  0.25709800  1
  Cu  Cu15  1  0.74236500  0.25909000  0.74290200  1
  C  C16  1  0.75943900  0.89131600  0.88512100  1
  C  C17  1  0.50000000  0.63641200  0.12769100  1
  C  C18  1  0.23332700  0.39275100  0.37741200  1
  C  C19  1  0.50000000  0.12329100  0.64202100  1
  C  C20  1  0.24056100  0.89131600  0.88512100  1
  C  C21  1  0.00000000  0.66125700  0.12740300  1
  C  C22  1  0.00000000  0.15428500  0.61843500  1
  C  C23  1  0.76667300  0.39275100  0.37741200  1
  C  C24  1  0.75943900  0.10868400  0.11487900  1
  C  C25  1  0.50000000  0.87670900  0.35797900  1
  C  C26  1  0.23332700  0.60724900  0.62258800  1
  C  C27  1  0.50000000  0.36358800  0.87230900  1
  C  C28  1  0.24056100  0.10868400  0.11487900  1
  C  C29  1  0.00000000  0.84571500  0.38156500  1
  C  C30  1  0.00000000  0.33874300  0.87259700  1
  C  C31  1  0.76667300  0.60724900  0.62258800  1
