# generated using pymatgen
data_Cu2(NiC3)3
_symmetry_space_group_name_H-M   'P 1'
_cell_length_a   3.45010400
_cell_length_b   11.07370700
_cell_length_c   12.57677100
_cell_angle_alpha   90.00000000
_cell_angle_beta   90.00000000
_cell_angle_gamma   90.00000000
_symmetry_Int_Tables_number   1
_chemical_formula_structural   Cu2(NiC3)3
_chemical_formula_sum   'Cu4 Ni6 C18'
_cell_volume   480.50108009
_cell_formula_units_Z   2
loop_
 _symmetry_equiv_pos_site_id
 _symmetry_equiv_pos_as_xyz
  1  'x, y, z'
loop_
 _atom_site_type_symbol
 _atom_site_label
 _atom_site_symmetry_multiplicity
 _atom_site_fract_x
 _atom_site_fract_y
 _atom_site_fract_z
 _atom_site_occupancy
  C  C0  1  0.50000000  0.70836500  0.88374000  1
  C  C1  1  0.00000000  0.29163500  0.38374000  1
  Ni  Ni2  1  0.00000000  0.79713700  0.12804100  1
  Ni  Ni3  1  0.50000000  0.20286300  0.62804100  1
  Ni  Ni4  1  0.50000000  0.65872600  0.41362800  1
  Ni  Ni5  1  0.00000000  0.84658300  0.58760200  1
  Ni  Ni6  1  0.00000000  0.34127400  0.91362800  1
  Ni  Ni7  1  0.50000000  0.15341700  0.08760200  1
  Cu  Cu8  1  0.50000000  0.48112300  0.64574600  1
  Cu  Cu9  1  0.00000000  0.99238700  0.29073700  1
  Cu  Cu10  1  0.00000000  0.51887700  0.14574600  1
  Cu  Cu11  1  0.50000000  0.00761300  0.79073700  1
  C  C12  1  0.00000000  0.68128900  0.28835200  1
  C  C13  1  0.50000000  0.81072300  0.71628400  1
  C  C14  1  0.50000000  0.31871100  0.78835200  1
  C  C15  1  0.00000000  0.18927700  0.21628400  1
  C  C16  1  0.50000000  0.65305400  0.07493300  1
  C  C17  1  0.00000000  0.85508000  0.94584600  1
  C  C18  1  0.00000000  0.34694600  0.57493300  1
  C  C19  1  0.50000000  0.14492000  0.44584600  1
  C  C20  1  0.00000000  0.63517500  0.55027300  1
  C  C21  1  0.50000000  0.86514700  0.45982200  1
  C  C22  1  0.50000000  0.36482500  0.05027300  1
  C  C23  1  0.00000000  0.13485300  0.95982200  1
  C  C24  1  0.00000000  0.55606500  0.84655500  1
  C  C25  1  0.50000000  0.94255600  0.16843900  1
  C  C26  1  0.50000000  0.44393500  0.34655500  1
  C  C27  1  0.00000000  0.05744400  0.66843900  1
