# generated using pymatgen
data_Cu5(NiC)3
_symmetry_space_group_name_H-M   'P 1'
_cell_length_a   7.75455480
_cell_length_b   5.98771708
_cell_length_c   10.70303679
_cell_angle_alpha   95.40811003
_cell_angle_beta   137.03405572
_cell_angle_gamma   93.54073173
_symmetry_Int_Tables_number   1
_chemical_formula_structural   Cu5(NiC)3
_chemical_formula_sum   'Cu10 Ni6 C6'
_cell_volume   330.88761379
_cell_formula_units_Z   2
loop_
 _symmetry_equiv_pos_site_id
 _symmetry_equiv_pos_as_xyz
  1  'x, y, z'
loop_
 _atom_site_type_symbol
 _atom_site_label
 _atom_site_symmetry_multiplicity
 _atom_site_fract_x
 _atom_site_fract_y
 _atom_site_fract_z
 _atom_site_occupancy
  C  C0  1  0.75578600  0.32222400  0.67138800  1
  C  C1  1  0.24421400  0.67777600  0.32861200  1
  C  C2  1  0.70495200  0.91855400  0.92427300  1
  C  C3  1  0.29504800  0.08144600  0.07572700  1
  C  C4  1  0.64849900  0.65715900  0.22660300  1
  C  C5  1  0.35150100  0.34284100  0.77339700  1
  Ni  Ni6  1  0.98640100  0.33870400  0.01824300  1
  Ni  Ni7  1  0.01359900  0.66129600  0.98175700  1
  Ni  Ni8  1  0.79594300  0.90445900  0.54086700  1
  Ni  Ni9  1  0.20405700  0.09554100  0.45913300  1
  Ni  Ni10  1  0.10946600  0.79514200  0.74451400  1
  Ni  Ni11  1  0.89053400  0.20485800  0.25548700  1
  Cu  Cu12  1  0.04218500  0.02251500  0.72193200  1
  Cu  Cu13  1  0.95781500  0.97748500  0.27806800  1
  Cu  Cu14  1  0.85510500  0.67833800  0.56511900  1
  Cu  Cu15  1  0.14489500  0.32166200  0.43488100  1
  Cu  Cu16  1  0.82861300  0.51054800  0.95389900  1
  Cu  Cu17  1  0.17138700  0.48945200  0.04610100  1
  Cu  Cu18  1  0.40508500  0.02371500  0.60039800  1
  Cu  Cu19  1  0.59491500  0.97628500  0.39960200  1
  Cu  Cu20  1  0.32213000  0.72973200  0.87595500  1
  Cu  Cu21  1  0.67787000  0.27026800  0.12404500  1
