# generated using pymatgen
data_Cu13Ni3C
_symmetry_space_group_name_H-M   'P 1'
_cell_length_a   8.68170700
_cell_length_b   8.85099500
_cell_length_c   12.61443639
_cell_angle_alpha   84.66125225
_cell_angle_beta   90.00000000
_cell_angle_gamma   90.00000000
_symmetry_Int_Tables_number   1
_chemical_formula_structural   Cu13Ni3C
_chemical_formula_sum   'Cu52 Ni12 C4'
_cell_volume   965.11042042
_cell_formula_units_Z   4
loop_
 _symmetry_equiv_pos_site_id
 _symmetry_equiv_pos_as_xyz
  1  'x, y, z'
loop_
 _atom_site_type_symbol
 _atom_site_label
 _atom_site_symmetry_multiplicity
 _atom_site_fract_x
 _atom_site_fract_y
 _atom_site_fract_z
 _atom_site_occupancy
  C  C0  1  0.50000000  0.00000000  0.00000000  1
  C  C1  1  0.00000000  0.00000000  0.50000000  1
  C  C2  1  0.50000000  0.50000000  0.50000000  1
  C  C3  1  0.00000000  0.50000000  0.00000000  1
  Ni  Ni4  1  0.87514600  0.79665500  0.68682500  1
  Ni  Ni5  1  0.12485400  0.20334500  0.31317500  1
  Ni  Ni6  1  0.37514600  0.20334500  0.81317500  1
  Ni  Ni7  1  0.62485400  0.79665500  0.18682500  1
  Ni  Ni8  1  0.32317700  0.96157600  0.58869100  1
  Ni  Ni9  1  0.67682300  0.03842400  0.41130900  1
  Ni  Ni10  1  0.82317700  0.03842400  0.91130900  1
  Ni  Ni11  1  0.17682300  0.96157600  0.08869100  1
  Ni  Ni12  1  0.44912200  0.71368300  0.88871100  1
  Ni  Ni13  1  0.55087800  0.28631700  0.11128900  1
  Ni  Ni14  1  0.94912200  0.28631700  0.61128900  1
  Ni  Ni15  1  0.05087800  0.71368300  0.38871100  1
  Cu  Cu16  1  0.78605900  0.85857800  0.61465400  1
  Cu  Cu17  1  0.21394100  0.14142200  0.38534600  1
  Cu  Cu18  1  0.28605900  0.14142200  0.88534600  1
  Cu  Cu19  1  0.71394100  0.85857800  0.11465400  1
  Cu  Cu20  1  0.82087300  0.70462300  0.75824400  1
  Cu  Cu21  1  0.17912700  0.29537700  0.24175600  1
  Cu  Cu22  1  0.32087300  0.29537700  0.74175600  1
  Cu  Cu23  1  0.67912700  0.70462300  0.25824400  1
  Cu  Cu24  1  0.30604300  0.51287800  0.55255000  1
  Cu  Cu25  1  0.69395700  0.48712200  0.44745000  1
  Cu  Cu26  1  0.80604300  0.48712200  0.94745000  1
  Cu  Cu27  1  0.19395700  0.51287800  0.05255000  1
  Cu  Cu28  1  0.51404100  0.71094900  0.97956400  1
  Cu  Cu29  1  0.48595900  0.28905100  0.02043600  1
  Cu  Cu30  1  0.01404100  0.28905100  0.52043600  1
  Cu  Cu31  1  0.98595900  0.71094900  0.47956400  1
  Cu  Cu32  1  0.01494000  0.66103200  0.89532100  1
  Cu  Cu33  1  0.98506000  0.33896800  0.10467900  1
  Cu  Cu34  1  0.51494000  0.33896800  0.60467900  1
  Cu  Cu35  1  0.48506000  0.66103200  0.39532100  1
  Cu  Cu36  1  0.45544500  0.95195400  0.62071400  1
  Cu  Cu37  1  0.54455500  0.04804600  0.37928600  1
  Cu  Cu38  1  0.95544500  0.04804600  0.87928600  1
  Cu  Cu39  1  0.04455500  0.95195400  0.12071400  1
  Cu  Cu40  1  0.42906700  0.59088900  0.84806300  1
  Cu  Cu41  1  0.57093300  0.40911100  0.15193700  1
  Cu  Cu42  1  0.92906700  0.40911100  0.65193700  1
  Cu  Cu43  1  0.07093300  0.59088900  0.34806300  1
  Cu  Cu44  1  0.04445800  0.42940400  0.87116700  1
  Cu  Cu45  1  0.95554200  0.57059600  0.12883300  1
  Cu  Cu46  1  0.54445800  0.57059600  0.62883300  1
  Cu  Cu47  1  0.45554200  0.42940400  0.37116700  1
  Cu  Cu48  1  0.40753500  0.84100800  0.84338500  1
  Cu  Cu49  1  0.59246500  0.15899200  0.15661500  1
  Cu  Cu50  1  0.90753500  0.15899200  0.65661500  1
  Cu  Cu51  1  0.09246500  0.84100800  0.34338500  1
  Cu  Cu52  1  0.27805900  0.60440400  0.70118700  1
  Cu  Cu53  1  0.72194100  0.39559600  0.29881300  1
  Cu  Cu54  1  0.77805900  0.39559600  0.79881300  1
  Cu  Cu55  1  0.22194100  0.60440400  0.20118700  1
  Cu  Cu56  1  0.73074700  0.93092100  0.88998300  1
  Cu  Cu57  1  0.26925300  0.06907900  0.11001700  1
  Cu  Cu58  1  0.23074700  0.06907900  0.61001700  1
  Cu  Cu59  1  0.76925300  0.93092100  0.38998300  1
  Cu  Cu60  1  0.01690300  0.83298700  0.68175600  1
  Cu  Cu61  1  0.98309700  0.16701300  0.31824400  1
  Cu  Cu62  1  0.51690300  0.16701300  0.81824400  1
  Cu  Cu63  1  0.48309700  0.83298700  0.18175600  1
  Cu  Cu64  1  0.26243900  0.86480000  0.52977500  1
  Cu  Cu65  1  0.73756100  0.13520000  0.47022500  1
  Cu  Cu66  1  0.76243900  0.13520000  0.97022500  1
  Cu  Cu67  1  0.23756100  0.86480000  0.02977500  1
