# generated using pymatgen
data_Cu3Ni2C
_symmetry_space_group_name_H-M   'P 1'
_cell_length_a   3.93023600
_cell_length_b   3.93023531
_cell_length_c   24.48010800
_cell_angle_alpha   90.00000000
_cell_angle_beta   90.00000000
_cell_angle_gamma   119.99998897
_symmetry_Int_Tables_number   1
_chemical_formula_structural   Cu3Ni2C
_chemical_formula_sum   'Cu9 Ni6 C3'
_cell_volume   327.47729316
_cell_formula_units_Z   3
loop_
 _symmetry_equiv_pos_site_id
 _symmetry_equiv_pos_as_xyz
  1  'x, y, z'
loop_
 _atom_site_type_symbol
 _atom_site_label
 _atom_site_symmetry_multiplicity
 _atom_site_fract_x
 _atom_site_fract_y
 _atom_site_fract_z
 _atom_site_occupancy
  C  C0  1  0.00000000  0.25578000  0.66666700  1
  C  C1  1  0.25578000  0.00000000  0.33333300  1
  C  C2  1  0.74422000  0.74422000  0.00000000  1
  Ni  Ni3  1  0.08190500  0.68888400  0.21287200  1
  Ni  Ni4  1  0.60697900  0.91809500  0.87953800  1
  Ni  Ni5  1  0.31111600  0.39302100  0.54620500  1
  Ni  Ni6  1  0.91809500  0.60697900  0.12046200  1
  Ni  Ni7  1  0.68888400  0.08190500  0.78712800  1
  Ni  Ni8  1  0.39302100  0.31111600  0.45379500  1
  Cu  Cu9  1  0.00000000  0.51050700  0.16666700  1
  Cu  Cu10  1  0.51050700  0.00000000  0.83333300  1
  Cu  Cu11  1  0.48949300  0.48949300  0.50000000  1
  Cu  Cu12  1  0.16400100  0.81689500  0.25732800  1
  Cu  Cu13  1  0.65289500  0.83599900  0.92399400  1
  Cu  Cu14  1  0.18310500  0.34710500  0.59066100  1
  Cu  Cu15  1  0.83599900  0.65289500  0.07600600  1
  Cu  Cu16  1  0.81689500  0.16400100  0.74267200  1
  Cu  Cu17  1  0.34710500  0.18310500  0.40933900  1
