# generated using pymatgen
data_Cu7NiC17
_symmetry_space_group_name_H-M   'P 1'
_cell_length_a   5.43309449
_cell_length_b   7.48706603
_cell_length_c   7.48706392
_cell_angle_alpha   89.24603164
_cell_angle_beta   86.41568834
_cell_angle_gamma   93.58431269
_symmetry_Int_Tables_number   1
_chemical_formula_structural   Cu7NiC17
_chemical_formula_sum   'Cu7 Ni1 C17'
_cell_volume   303.32344302
_cell_formula_units_Z   1
loop_
 _symmetry_equiv_pos_site_id
 _symmetry_equiv_pos_as_xyz
  1  'x, y, z'
loop_
 _atom_site_type_symbol
 _atom_site_label
 _atom_site_symmetry_multiplicity
 _atom_site_fract_x
 _atom_site_fract_y
 _atom_site_fract_z
 _atom_site_occupancy
  C  C0  1  1.00000000  0.96942637  0.96942637  1
  Ni  Ni1  1  1.00000000  0.22885121  0.22885121  1
  Cu  Cu2  1  0.50000000  0.27734048  0.27734048  1
  Cu  Cu3  1  0.00390587  0.96424343  0.51451449  1
  Cu  Cu4  1  0.50211473  0.25716133  0.78303517  1
  Cu  Cu5  1  0.99609413  0.51451449  0.96424343  1
  Cu  Cu6  1  0.49788527  0.78303517  0.25716133  1
  Cu  Cu7  1  1.00000000  0.50578200  0.50578200  1
  Cu  Cu8  1  0.50000000  0.74921239  0.74921239  1
  C  C9  1  0.20780058  0.27309002  0.00595506  1
  C  C10  1  0.29476091  0.01212147  0.25075632  1
  C  C11  1  0.79219942  0.00595506  0.27309002  1
  C  C12  1  0.70523909  0.25075632  0.01212147  1
  C  C13  1  0.13339545  0.24498470  0.46550262  1
  C  C14  1  0.28817315  0.00845139  0.72751028  1
  C  C15  1  0.75458305  0.00640527  0.73338927  1
  C  C16  1  0.64512283  0.28167961  0.51512589  1
  C  C17  1  0.24541695  0.73338927  0.00640527  1
  C  C18  1  0.35487717  0.51512589  0.28167961  1
  C  C19  1  0.86660455  0.46550262  0.24498470  1
  C  C20  1  0.71182685  0.72751028  0.00845139  1
  C  C21  1  0.22766014  0.75084457  0.49400234  1
  C  C22  1  0.27545383  0.49034393  0.73134138  1
  C  C23  1  0.77233986  0.49400234  0.75084457  1
  C  C24  1  0.72454617  0.73134138  0.49034393  1
