# generated using pymatgen
data_Cu6Ni2C3
_symmetry_space_group_name_H-M   'P 1'
_cell_length_a   5.73529500
_cell_length_b   7.22092726
_cell_length_c   9.84417630
_cell_angle_alpha   102.73187685
_cell_angle_beta   101.85467712
_cell_angle_gamma   109.33748855
_symmetry_Int_Tables_number   1
_chemical_formula_structural   Cu6Ni2C3
_chemical_formula_sum   'Cu12 Ni4 C6'
_cell_volume   357.65088154
_cell_formula_units_Z   2
loop_
 _symmetry_equiv_pos_site_id
 _symmetry_equiv_pos_as_xyz
  1  'x, y, z'
loop_
 _atom_site_type_symbol
 _atom_site_label
 _atom_site_symmetry_multiplicity
 _atom_site_fract_x
 _atom_site_fract_y
 _atom_site_fract_z
 _atom_site_occupancy
  C  C0  1  0.81814500  0.92933000  0.86698300  1
  C  C1  1  0.18185500  0.07067000  0.13301700  1
  C  C2  1  0.87928900  0.76079300  0.63170000  1
  C  C3  1  0.12071100  0.23920700  0.36830000  1
  C  C4  1  0.82026800  0.18408500  0.80082800  1
  C  C5  1  0.17973200  0.81591500  0.19917200  1
  Ni  Ni6  1  0.85727900  0.05655000  0.06188900  1
  Ni  Ni7  1  0.14272100  0.94345000  0.93811100  1
  Ni  Ni8  1  0.55217300  0.71264700  0.80108200  1
  Ni  Ni9  1  0.44782700  0.28735300  0.19891800  1
  Cu  Cu10  1  0.90563300  0.58852500  0.64337500  1
  Cu  Cu11  1  0.09436700  0.41147500  0.35662500  1
  Cu  Cu12  1  0.09869100  0.89780100  0.62567200  1
  Cu  Cu13  1  0.90130900  0.10219900  0.37432800  1
  Cu  Cu14  1  0.68001800  0.72333800  0.51793300  1
  Cu  Cu15  1  0.31998200  0.27666200  0.48206700  1
  Cu  Cu16  1  0.76229400  0.13863800  0.65425500  1
  Cu  Cu17  1  0.23770600  0.86136200  0.34574500  1
  Cu  Cu18  1  0.64069700  0.24148200  0.84488300  1
  Cu  Cu19  1  0.35930300  0.75851800  0.15511700  1
  Cu  Cu20  1  0.05589300  0.33871900  0.86432900  1
  Cu  Cu21  1  0.94410700  0.66128100  0.13567100  1
