# generated using pymatgen
data_Cu4Ni10C23
_symmetry_space_group_name_H-M   'P 1'
_cell_length_a   7.79446254
_cell_length_b   7.87989394
_cell_length_c   14.56796800
_cell_angle_alpha   90.00000000
_cell_angle_beta   90.00000000
_cell_angle_gamma   100.89890843
_symmetry_Int_Tables_number   1
_chemical_formula_structural   Cu4Ni10C23
_chemical_formula_sum   'Cu8 Ni20 C46'
_cell_volume   878.61850608
_cell_formula_units_Z   2
loop_
 _symmetry_equiv_pos_site_id
 _symmetry_equiv_pos_as_xyz
  1  'x, y, z'
loop_
 _atom_site_type_symbol
 _atom_site_label
 _atom_site_symmetry_multiplicity
 _atom_site_fract_x
 _atom_site_fract_y
 _atom_site_fract_z
 _atom_site_occupancy
  C  C0  1  0.15032700  0.78393700  0.75180800  1
  C  C1  1  0.84967300  0.21606300  0.25180800  1
  C  C2  1  0.46708100  0.19258800  0.40158200  1
  C  C3  1  0.53291900  0.80741200  0.90158200  1
  C  C4  1  0.51364100  0.80264300  0.59222800  1
  C  C5  1  0.48635900  0.19735700  0.09222800  1
  C  C6  1  0.76394200  0.34340100  0.61392300  1
  C  C7  1  0.23605800  0.65659900  0.11392300  1
  C  C8  1  0.23530500  0.65688200  0.38528700  1
  C  C9  1  0.76469500  0.34311800  0.88528700  1
  C  C10  1  0.30549400  0.27904200  0.74974200  1
  C  C11  1  0.69450600  0.72095800  0.24974200  1
  Ni  Ni12  1  0.69219100  0.56190900  0.47444000  1
  Ni  Ni13  1  0.30780900  0.43809100  0.97444000  1
  Ni  Ni14  1  0.30817300  0.43810200  0.52555000  1
  Ni  Ni15  1  0.69182700  0.56189800  0.02555000  1
  Ni  Ni16  1  0.86429200  0.12971100  0.48148100  1
  Ni  Ni17  1  0.13570800  0.87028900  0.98148100  1
  Ni  Ni18  1  0.13565600  0.87128500  0.51808600  1
  Ni  Ni19  1  0.86434400  0.12871500  0.01808600  1
  Ni  Ni20  1  0.04567100  0.19816100  0.53525700  1
  Ni  Ni21  1  0.95432900  0.80183900  0.03525700  1
  Ni  Ni22  1  0.95409700  0.80245600  0.46431400  1
  Ni  Ni23  1  0.04590300  0.19754400  0.96431400  1
  Ni  Ni24  1  0.80782400  0.44466400  0.42951200  1
  Ni  Ni25  1  0.19217600  0.55533600  0.92951200  1
  Ni  Ni26  1  0.19137100  0.55459500  0.57030100  1
  Ni  Ni27  1  0.80862900  0.44540500  0.07030100  1
  Ni  Ni28  1  0.88326200  0.01140100  0.74750800  1
  Ni  Ni29  1  0.11673800  0.98859900  0.24750800  1
  Ni  Ni30  1  0.81129200  0.82571200  0.70722200  1
  Ni  Ni31  1  0.18870800  0.17428800  0.20722200  1
  Cu  Cu32  1  0.05176000  0.38474300  0.74969200  1
  Cu  Cu33  1  0.94824000  0.61525700  0.24969200  1
  Cu  Cu34  1  0.51249300  0.52630600  0.74935300  1
  Cu  Cu35  1  0.48750700  0.47369400  0.24935300  1
  Cu  Cu36  1  0.34935600  0.13245700  0.62051400  1
  Cu  Cu37  1  0.65064400  0.86754300  0.12051400  1
  Cu  Cu38  1  0.65049800  0.86708000  0.38006200  1
  Cu  Cu39  1  0.34950200  0.13292000  0.88006200  1
  C  C40  1  0.03538900  0.49679900  0.66538600  1
  C  C41  1  0.96461100  0.50320100  0.16538600  1
  C  C42  1  0.96441000  0.50456600  0.33444300  1
  C  C43  1  0.03559000  0.49543400  0.83444300  1
  C  C44  1  0.91751500  0.18831600  0.53788500  1
  C  C45  1  0.08248500  0.81168400  0.03788500  1
  C  C46  1  0.08185300  0.80873800  0.46289400  1
  C  C47  1  0.91814700  0.19126200  0.96289400  1
  C  C48  1  0.63472400  0.54218200  0.66542000  1
  C  C49  1  0.36527600  0.45781800  0.16542000  1
  C  C50  1  0.37287100  0.46610200  0.33496000  1
  C  C51  1  0.62712900  0.53389800  0.83496000  1
  C  C52  1  0.54528200  0.13141300  0.60683400  1
  C  C53  1  0.45471800  0.86858700  0.10683400  1
  C  C54  1  0.45472800  0.86760700  0.39447800  1
  C  C55  1  0.54527300  0.13239300  0.89447800  1
  C  C56  1  0.44160100  0.69254400  0.74951400  1
  C  C57  1  0.55839900  0.30745600  0.24951400  1
  C  C58  1  0.87433100  0.25305200  0.74951200  1
  C  C59  1  0.12566900  0.74694800  0.24951200  1
  C  C60  1  0.89065600  0.88850700  0.75272400  1
  C  C61  1  0.10934400  0.11149300  0.25272400  1
  C  C62  1  0.28842400  0.21558100  0.53451200  1
  C  C63  1  0.71157600  0.78441900  0.03451200  1
  C  C64  1  0.71228100  0.78488800  0.46632600  1
  C  C65  1  0.28771900  0.21511200  0.96632600  1
  C  C66  1  0.71424800  0.44092100  0.47602100  1
  C  C67  1  0.28575200  0.55907900  0.97602100  1
  C  C68  1  0.28577000  0.55902500  0.52415200  1
  C  C69  1  0.71423000  0.44097500  0.02415200  1
  C  C70  1  0.26374800  0.94234200  0.61821800  1
  C  C71  1  0.73625200  0.05765800  0.11821800  1
  C  C72  1  0.73542600  0.05714800  0.38175800  1
  C  C73  1  0.26457400  0.94285200  0.88175800  1
