# generated using pymatgen
data_Cu2NiC10
_symmetry_space_group_name_H-M   'P 1'
_cell_length_a   6.58144600
_cell_length_b   8.63324409
_cell_length_c   10.16071253
_cell_angle_alpha   92.57909733
_cell_angle_beta   90.27223839
_cell_angle_gamma   90.63672623
_symmetry_Int_Tables_number   1
_chemical_formula_structural   Cu2NiC10
_chemical_formula_sum   'Cu8 Ni4 C40'
_cell_volume   576.69547940
_cell_formula_units_Z   4
loop_
 _symmetry_equiv_pos_site_id
 _symmetry_equiv_pos_as_xyz
  1  'x, y, z'
loop_
 _atom_site_type_symbol
 _atom_site_label
 _atom_site_symmetry_multiplicity
 _atom_site_fract_x
 _atom_site_fract_y
 _atom_site_fract_z
 _atom_site_occupancy
  Ni  Ni0  1  0.26169100  0.08438300  0.12137300  1
  Ni  Ni1  1  0.99894800  0.25727800  0.37573500  1
  Ni  Ni2  1  0.99980600  0.25586200  0.87177400  1
  Ni  Ni3  1  0.50161400  0.74350400  0.62548100  1
  Cu  Cu4  1  0.25373100  0.08132100  0.62443100  1
  Cu  Cu5  1  0.47771200  0.27701300  0.38425700  1
  Cu  Cu6  1  0.48305300  0.27390200  0.87614200  1
  Cu  Cu7  1  0.51904200  0.72854200  0.12142100  1
  Cu  Cu8  1  0.97815900  0.72671800  0.11977700  1
  Cu  Cu9  1  0.98689000  0.73096900  0.62170500  1
  Cu  Cu10  1  0.74319700  0.91282700  0.37356500  1
  Cu  Cu11  1  0.74808900  0.90978000  0.87616400  1
  C  C12  1  0.74649000  0.34648300  0.10786600  1
  C  C13  1  0.74477400  0.34579300  0.60807500  1
  C  C14  1  0.24541800  0.65739100  0.39183100  1
  C  C15  1  0.24989300  0.65379400  0.89309700  1
  C  C16  1  0.25513000  0.41896000  0.14782500  1
  C  C17  1  0.24817800  0.40772300  0.64672600  1
  C  C18  1  0.74422200  0.59357400  0.35276500  1
  C  C19  1  0.75062200  0.58993400  0.85439000  1
  C  C20  1  0.74797100  0.03821600  0.13793300  1
  C  C21  1  0.75567100  0.04280400  0.64092300  1
  C  C22  1  0.25842000  0.95849800  0.36545100  1
  C  C23  1  0.25621600  0.95098600  0.85399100  1
  C  C24  1  0.27873700  0.10486900  0.34841800  1
  C  C25  1  0.27643800  0.09850100  0.83806000  1
  C  C26  1  0.75452100  0.08408300  0.01762600  1
  C  C27  1  0.75286300  0.08345100  0.51930000  1
  C  C28  1  0.74103000  0.14109200  0.23549000  1
  C  C29  1  0.73157400  0.14795500  0.73585300  1
  C  C30  1  0.05995100  0.32392900  0.10783900  1
  C  C31  1  0.43431100  0.32147700  0.08976400  1
  C  C32  1  0.05898300  0.30203800  0.61428800  1
  C  C33  1  0.43050100  0.31338900  0.58907700  1
  C  C34  1  0.27239200  0.43188900  0.30106600  1
  C  C35  1  0.73091100  0.43031700  0.40986400  1
  C  C36  1  0.27311800  0.42932900  0.79963500  1
  C  C37  1  0.73086500  0.42705000  0.91050800  1
  C  C38  1  0.25465200  0.58503200  0.09500200  1
  C  C39  1  0.75365700  0.57524500  0.19871700  1
  C  C40  1  0.22975800  0.56894200  0.58766600  1
  C  C41  1  0.77024200  0.57109100  0.70144900  1
  C  C42  1  0.56057500  0.69762500  0.39239300  1
  C  C43  1  0.93173900  0.68854900  0.40673200  1
  C  C44  1  0.56623600  0.69580400  0.89154400  1
  C  C45  1  0.93650600  0.68298100  0.91344700  1
  C  C46  1  0.24003900  0.86046600  0.26409300  1
  C  C47  1  0.23648800  0.85634800  0.75120900  1
  C  C48  1  0.25502600  0.90616300  0.48380400  1
  C  C49  1  0.25524000  0.89439500  0.97017000  1
  C  C50  1  0.74760200  0.89179600  0.16288800  1
  C  C51  1  0.78110900  0.89993700  0.67139900  1
