# generated using pymatgen
data_Cu2Ni3C17
_symmetry_space_group_name_H-M   'P 1'
_cell_length_a   5.38922700
_cell_length_b   10.52835425
_cell_length_c   5.40929839
_cell_angle_alpha   100.42041127
_cell_angle_beta   60.11523389
_cell_angle_gamma   94.72076824
_symmetry_Int_Tables_number   1
_chemical_formula_structural   Cu2Ni3C17
_chemical_formula_sum   'Cu2 Ni3 C17'
_cell_volume   261.71034833
_cell_formula_units_Z   1
loop_
 _symmetry_equiv_pos_site_id
 _symmetry_equiv_pos_as_xyz
  1  'x, y, z'
loop_
 _atom_site_type_symbol
 _atom_site_label
 _atom_site_symmetry_multiplicity
 _atom_site_fract_x
 _atom_site_fract_y
 _atom_site_fract_z
 _atom_site_occupancy
  C  C0  1  0.98903400  0.00010800  0.00469100  1
  Ni  Ni1  1  0.34326700  0.50048700  0.82654900  1
  Ni  Ni2  1  0.32555700  0.23090900  0.41857100  1
  Ni  Ni3  1  0.65772100  0.76845300  0.59496900  1
  C  C4  1  0.66228500  0.49916200  0.17347600  1
  C  C5  1  0.00301800  0.50053600  0.50000800  1
  Cu  Cu6  1  0.65263700  0.22920600  0.74849900  1
  Cu  Cu7  1  0.32975900  0.77032100  0.24835200  1
  C  C8  1  0.04868600  0.31011600  0.05540900  1
  C  C9  1  0.02599400  0.69134300  0.90794000  1
  C  C10  1  0.04018700  0.40395600  0.09709600  1
  C  C11  1  0.02588000  0.59749300  0.87621000  1
  C  C12  1  0.42161100  0.17115200  0.64439400  1
  C  C13  1  0.57316100  0.18135400  0.05086400  1
  C  C14  1  0.56281600  0.81535900  0.35634200  1
  C  C15  1  0.41189900  0.83047800  0.95779200  1
  C  C16  1  0.32964800  0.40305100  0.49819400  1
  C  C17  1  0.63303300  0.39194500  0.80363800  1
  C  C18  1  0.64261700  0.59651100  0.56759700  1
  C  C19  1  0.33619000  0.60790900  0.16581300  1
  C  C20  1  0.97648700  0.18191100  0.49766700  1
  C  C21  1  0.00851100  0.81824100  0.50593000  1
