# generated using pymatgen
data_Cu9(NiC18)2
_symmetry_space_group_name_H-M   'P 1'
_cell_length_a   5.07088489
_cell_length_b   12.08959389
_cell_length_c   19.63681758
_cell_angle_alpha   90.00000000
_cell_angle_beta   90.00000000
_cell_angle_gamma   102.10600613
_symmetry_Int_Tables_number   1
_chemical_formula_structural   Cu9(NiC18)2
_chemical_formula_sum   'Cu18 Ni4 C72'
_cell_volume   1177.06215191
_cell_formula_units_Z   2
loop_
 _symmetry_equiv_pos_site_id
 _symmetry_equiv_pos_as_xyz
  1  'x, y, z'
loop_
 _atom_site_type_symbol
 _atom_site_label
 _atom_site_symmetry_multiplicity
 _atom_site_fract_x
 _atom_site_fract_y
 _atom_site_fract_z
 _atom_site_occupancy
  C  C0  1  0.31218424  0.16592327  0.84807666  1
  C  C1  1  0.68781576  0.83407673  0.15192334  1
  C  C2  1  0.68781576  0.83407673  0.34807666  1
  C  C3  1  0.14626097  0.83407673  0.65192334  1
  C  C4  1  0.31218424  0.16592327  0.65192334  1
  C  C5  1  0.85373903  0.16592327  0.34807666  1
  C  C6  1  0.85373903  0.16592327  0.15192334  1
  C  C7  1  0.14626097  0.83407673  0.84807666  1
  C  C8  1  0.67512778  0.75144389  0.75000000  1
  C  C9  1  0.32487222  0.24855611  0.25000000  1
  C  C10  1  0.92368388  0.24855611  0.75000000  1
  C  C11  1  0.07631612  0.75144389  0.25000000  1
  Ni  Ni12  1  0.59538305  0.19076611  -0.00000000  1
  Ni  Ni13  1  0.40461695  0.80923389  -0.00000000  1
  Ni  Ni14  1  0.40461695  0.80923389  0.50000000  1
  Ni  Ni15  1  0.59538305  0.19076611  0.50000000  1
  Cu  Cu16  1  0.83090053  0.66180106  -0.00000000  1
  Cu  Cu17  1  0.16909947  0.33819894  -0.00000000  1
  Cu  Cu18  1  0.16909947  0.33819894  0.50000000  1
  Cu  Cu19  1  0.83090053  0.66180106  0.50000000  1
  Cu  Cu20  1  0.77001276  0.00000000  0.75000000  1
  Cu  Cu21  1  0.22998724  0.00000000  0.25000000  1
  Cu  Cu22  1  0.71562864  0.00000000  0.89499597  1
  Cu  Cu23  1  0.28437136  0.00000000  0.10500403  1
  Cu  Cu24  1  0.28437136  0.00000000  0.39499597  1
  Cu  Cu25  1  0.71562864  0.00000000  0.60500403  1
  Cu  Cu26  1  0.64052536  0.57296440  0.85698155  1
  Cu  Cu27  1  0.35947464  0.42703560  0.14301845  1
  Cu  Cu28  1  0.35947464  0.42703560  0.35698155  1
  Cu  Cu29  1  0.06756096  0.42703560  0.64301845  1
  Cu  Cu30  1  0.64052536  0.57296440  0.64301845  1
  Cu  Cu31  1  0.93243904  0.57296440  0.35698155  1
  Cu  Cu32  1  0.93243904  0.57296440  0.14301845  1
  Cu  Cu33  1  0.06756096  0.42703560  0.85698155  1
  C  C34  1  0.55898506  0.31305557  0.75000000  1
  C  C35  1  0.44101494  0.68694443  0.25000000  1
  C  C36  1  0.24592949  0.68694443  0.75000000  1
  C  C37  1  0.75407051  0.31305557  0.25000000  1
  C  C38  1  0.59182931  0.23625443  0.75000000  1
  C  C39  1  0.40817069  0.76374557  0.25000000  1
  C  C40  1  0.35557488  0.76374557  0.75000000  1
  C  C41  1  0.64442512  0.23625443  0.25000000  1
  C  C42  1  0.56673447  0.00000000  0.81700354  1
  C  C43  1  0.43326553  0.00000000  0.18299646  1
  C  C44  1  0.43326553  0.00000000  0.31700354  1
  C  C45  1  0.56673447  0.00000000  0.68299646  1
  C  C46  1  0.32310775  0.52926118  0.83574963  1
  C  C47  1  0.67689225  0.47073882  0.16425037  1
  C  C48  1  0.67689225  0.47073882  0.33574963  1
  C  C49  1  0.79384656  0.47073882  0.66425037  1
  C  C50  1  0.32310775  0.52926118  0.66425037  1
  C  C51  1  0.20615344  0.52926118  0.33574963  1
  C  C52  1  0.20615344  0.52926118  0.16425037  1
  C  C53  1  0.79384656  0.47073882  0.83574963  1
  C  C54  1  0.53644386  0.88517999  0.92776152  1
  C  C55  1  0.46355614  0.11482001  0.07223848  1
  C  C56  1  0.46355614  0.11482001  0.42776152  1
  C  C57  1  0.65126387  0.11482001  0.57223848  1
  C  C58  1  0.53644386  0.88517999  0.57223848  1
  C  C59  1  0.34873613  0.88517999  0.42776152  1
  C  C60  1  0.34873613  0.88517999  0.07223848  1
  C  C61  1  0.65126387  0.11482001  0.92776152  1
  C  C62  1  0.88073779  0.88239333  0.75000000  1
  C  C63  1  0.11926221  0.11760667  0.25000000  1
  C  C64  1  0.99834446  0.11760667  0.75000000  1
  C  C65  1  0.00165554  0.88239333  0.25000000  1
  C  C66  1  0.76302188  0.69173673  0.81927809  1
  C  C67  1  0.23697812  0.30826327  0.18072191  1
  C  C68  1  0.23697812  0.30826327  0.31927809  1
  C  C69  1  0.07128516  0.30826327  0.68072191  1
  C  C70  1  0.76302188  0.69173673  0.68072191  1
  C  C71  1  0.92871484  0.69173673  0.31927809  1
  C  C72  1  0.92871484  0.69173673  0.18072191  1
  C  C73  1  0.07128516  0.30826327  0.81927809  1
  C  C74  1  0.35960559  0.26126455  0.96320724  1
  C  C75  1  0.64039441  0.73873545  0.03679276  1
  C  C76  1  0.64039441  0.73873545  0.46320724  1
  C  C77  1  0.09834103  0.73873545  0.53679276  1
  C  C78  1  0.35960559  0.26126455  0.53679276  1
  C  C79  1  0.90165897  0.26126455  0.46320724  1
  C  C80  1  0.90165897  0.26126455  0.03679276  1
  C  C81  1  0.09834103  0.73873545  0.96320724  1
  C  C82  1  0.97026529  0.00000000  0.38598576  1
  C  C83  1  0.02973471  0.00000000  0.61401424  1
  C  C84  1  0.02973471  0.00000000  0.88598576  1
  C  C85  1  0.97026529  0.00000000  0.11401424  1
  C  C86  1  0.65545724  0.58662175  0.94024371  1
  C  C87  1  0.34454276  0.41337825  0.05975629  1
  C  C88  1  0.34454276  0.41337825  0.44024371  1
  C  C89  1  0.06883549  0.41337825  0.55975629  1
  C  C90  1  0.65545724  0.58662175  0.55975629  1
  C  C91  1  0.93116451  0.58662175  0.44024371  1
  C  C92  1  0.93116451  0.58662175  0.05975629  1
  C  C93  1  0.06883549  0.41337825  0.94024371  1
