# generated using pymatgen
data_CuNiC6
_symmetry_space_group_name_H-M   'P 1'
_cell_length_a   6.22604400
_cell_length_b   8.20291700
_cell_length_c   8.36207800
_cell_angle_alpha   90.00000000
_cell_angle_beta   90.00000000
_cell_angle_gamma   90.00000000
_symmetry_Int_Tables_number   1
_chemical_formula_structural   CuNiC6
_chemical_formula_sum   'Cu4 Ni4 C24'
_cell_volume   427.06572438
_cell_formula_units_Z   4
loop_
 _symmetry_equiv_pos_site_id
 _symmetry_equiv_pos_as_xyz
  1  'x, y, z'
loop_
 _atom_site_type_symbol
 _atom_site_label
 _atom_site_symmetry_multiplicity
 _atom_site_fract_x
 _atom_site_fract_y
 _atom_site_fract_z
 _atom_site_occupancy
  Ni  Ni0  1  0.26014800  0.75478800  0.00553900  1
  Ni  Ni1  1  0.23985200  0.24521200  0.50553900  1
  Ni  Ni2  1  0.73985200  0.25478800  0.49446100  1
  Ni  Ni3  1  0.76014800  0.74521200  0.99446100  1
  Cu  Cu4  1  0.08958300  0.85607000  0.68301300  1
  Cu  Cu5  1  0.41041700  0.14393000  0.18301300  1
  Cu  Cu6  1  0.91041700  0.35607000  0.81698700  1
  Cu  Cu7  1  0.58958300  0.64393000  0.31698700  1
  C  C8  1  0.49527400  0.08269300  0.81617200  1
  C  C9  1  0.00472600  0.91730700  0.31617200  1
  C  C10  1  0.50472600  0.58269300  0.68382800  1
  C  C11  1  0.99527400  0.41730700  0.18382800  1
  C  C12  1  0.51188600  0.88849100  0.89626900  1
  C  C13  1  0.98811400  0.11150900  0.39626900  1
  C  C14  1  0.48811400  0.38849100  0.60373100  1
  C  C15  1  0.01188600  0.61150900  0.10373100  1
  C  C16  1  0.45506700  0.21704600  0.96973300  1
  C  C17  1  0.04493300  0.78295400  0.46973300  1
  C  C18  1  0.54493300  0.71704600  0.53026700  1
  C  C19  1  0.95506700  0.28295400  0.03026700  1
  C  C20  1  0.72986800  0.12895300  0.71696600  1
  C  C21  1  0.77013200  0.87104700  0.21696600  1
  C  C22  1  0.27013200  0.62895300  0.78303400  1
  C  C23  1  0.22986800  0.37104700  0.28303400  1
  C  C24  1  0.27346200  0.07562000  0.68826400  1
  C  C25  1  0.22653800  0.92438000  0.18826400  1
  C  C26  1  0.72653800  0.57562000  0.81173600  1
  C  C27  1  0.77346200  0.42438000  0.31173600  1
  C  C28  1  0.00485400  0.85430700  0.90018000  1
  C  C29  1  0.49514600  0.14569300  0.40018000  1
  C  C30  1  0.99514600  0.35430700  0.59982000  1
  C  C31  1  0.50485400  0.64569300  0.09982000  1
