# generated using pymatgen
data_Cu3NiC7
_symmetry_space_group_name_H-M   'P 1'
_cell_length_a   6.43139800
_cell_length_b   12.94857900
_cell_length_c   17.52274200
_cell_angle_alpha   90.00000000
_cell_angle_beta   90.00000000
_cell_angle_gamma   90.00000000
_symmetry_Int_Tables_number   1
_chemical_formula_structural   Cu3NiC7
_chemical_formula_sum   'Cu24 Ni8 C56'
_cell_volume   1459.24953507
_cell_formula_units_Z   8
loop_
 _symmetry_equiv_pos_site_id
 _symmetry_equiv_pos_as_xyz
  1  'x, y, z'
loop_
 _atom_site_type_symbol
 _atom_site_label
 _atom_site_symmetry_multiplicity
 _atom_site_fract_x
 _atom_site_fract_y
 _atom_site_fract_z
 _atom_site_occupancy
  C  C0  1  0.25000000  0.18317000  0.95078500  1
  C  C1  1  0.25000000  0.31683000  0.45078500  1
  C  C2  1  0.75000000  0.81683000  0.04921500  1
  C  C3  1  0.75000000  0.68317000  0.54921500  1
  C  C4  1  0.25000000  0.73145900  0.83089000  1
  C  C5  1  0.25000000  0.76854100  0.33089000  1
  C  C6  1  0.75000000  0.26854100  0.16911000  1
  C  C7  1  0.75000000  0.23145900  0.66911000  1
  Ni  Ni8  1  0.25000000  0.92454600  0.06522600  1
  Ni  Ni9  1  0.25000000  0.57545400  0.56522600  1
  Ni  Ni10  1  0.75000000  0.07545400  0.93477400  1
  Ni  Ni11  1  0.75000000  0.42454600  0.43477400  1
  Ni  Ni12  1  0.25000000  0.36273000  0.83916100  1
  Ni  Ni13  1  0.25000000  0.13727000  0.33916100  1
  Ni  Ni14  1  0.75000000  0.63727000  0.16083900  1
  Ni  Ni15  1  0.75000000  0.86273000  0.66083900  1
  Cu  Cu16  1  0.25000000  0.68709300  0.91308100  1
  Cu  Cu17  1  0.25000000  0.81290700  0.41308100  1
  Cu  Cu18  1  0.75000000  0.31290700  0.08691900  1
  Cu  Cu19  1  0.75000000  0.18709300  0.58691900  1
  Cu  Cu20  1  0.25000000  0.88582600  0.76023900  1
  Cu  Cu21  1  0.25000000  0.61417400  0.26023900  1
  Cu  Cu22  1  0.75000000  0.11417400  0.23976100  1
  Cu  Cu23  1  0.75000000  0.38582600  0.73976100  1
  Cu  Cu24  1  0.03932500  0.67233400  0.78509000  1
  Cu  Cu25  1  0.46067500  0.82766600  0.28509000  1
  Cu  Cu26  1  0.53932500  0.32766600  0.21491000  1
  Cu  Cu27  1  0.96067500  0.17233400  0.71491000  1
  Cu  Cu28  1  0.96067500  0.32766600  0.21491000  1
  Cu  Cu29  1  0.53932500  0.17233400  0.71491000  1
  Cu  Cu30  1  0.46067500  0.67233400  0.78509000  1
  Cu  Cu31  1  0.03932500  0.82766600  0.28509000  1
  Cu  Cu32  1  0.13295700  0.87424300  0.82344600  1
  Cu  Cu33  1  0.36704300  0.62575700  0.32344600  1
  Cu  Cu34  1  0.63295700  0.12575700  0.17655400  1
  Cu  Cu35  1  0.86704300  0.37424300  0.67655400  1
  Cu  Cu36  1  0.86704300  0.12575700  0.17655400  1
  Cu  Cu37  1  0.63295700  0.37424300  0.67655400  1
  Cu  Cu38  1  0.36704300  0.87424300  0.82344600  1
  Cu  Cu39  1  0.13295700  0.62575700  0.32344600  1
  C  C40  1  0.25000000  0.10292700  0.86891200  1
  C  C41  1  0.25000000  0.39707300  0.36891200  1
  C  C42  1  0.75000000  0.89707300  0.13108800  1
  C  C43  1  0.75000000  0.60292700  0.63108800  1
  C  C44  1  0.25000000  0.25792000  0.03578600  1
  C  C45  1  0.25000000  0.24208000  0.53578600  1
  C  C46  1  0.75000000  0.74208000  0.96421400  1
  C  C47  1  0.75000000  0.75792000  0.46421400  1
  C  C48  1  0.25000000  0.99599600  0.50796800  1
  C  C49  1  0.25000000  0.50400400  0.00796800  1
  C  C50  1  0.75000000  0.00400400  0.49203200  1
  C  C51  1  0.75000000  0.49599600  0.99203200  1
  C  C52  1  0.50000000  0.00000000  0.50000000  1
  C  C53  1  0.00000000  0.50000000  0.00000000  1
  C  C54  1  0.00000000  0.00000000  0.50000000  1
  C  C55  1  0.50000000  0.50000000  0.00000000  1
  C  C56  1  0.07130300  0.86335800  0.03085200  1
  C  C57  1  0.42869700  0.63664200  0.53085200  1
  C  C58  1  0.57130300  0.13664200  0.96914800  1
  C  C59  1  0.92869700  0.36335800  0.46914800  1
  C  C60  1  0.92869700  0.13664200  0.96914800  1
  C  C61  1  0.57130300  0.36335800  0.46914800  1
  C  C62  1  0.42869700  0.86335800  0.03085200  1
  C  C63  1  0.07130300  0.63664200  0.53085200  1
  C  C64  1  0.25000000  0.02795300  0.03130500  1
  C  C65  1  0.25000000  0.47204700  0.53130500  1
  C  C66  1  0.75000000  0.97204700  0.96869500  1
  C  C67  1  0.75000000  0.52795300  0.46869500  1
  C  C68  1  0.25000000  0.92221600  0.14702200  1
  C  C69  1  0.25000000  0.57778400  0.64702200  1
  C  C70  1  0.75000000  0.07778400  0.85297800  1
  C  C71  1  0.75000000  0.42221600  0.35297800  1
  C  C72  1  0.43172500  0.31060100  0.87979100  1
  C  C73  1  0.06827500  0.18939900  0.37979100  1
  C  C74  1  0.93172500  0.68939900  0.12020900  1
  C  C75  1  0.56827500  0.81060100  0.62020900  1
  C  C76  1  0.56827500  0.68939900  0.12020900  1
  C  C77  1  0.93172500  0.81060100  0.62020900  1
  C  C78  1  0.06827500  0.31060100  0.87979100  1
  C  C79  1  0.43172500  0.18939900  0.37979100  1
  C  C80  1  0.25000000  0.33831900  0.75764500  1
  C  C81  1  0.25000000  0.16168100  0.25764500  1
  C  C82  1  0.75000000  0.66168100  0.24235500  1
  C  C83  1  0.75000000  0.83831900  0.74235500  1
  C  C84  1  0.25000000  0.47443700  0.85006200  1
  C  C85  1  0.25000000  0.02556300  0.35006200  1
  C  C86  1  0.75000000  0.52556300  0.14993800  1
  C  C87  1  0.75000000  0.97443700  0.64993800  1
