# generated using pymatgen
data_Cu6Ni
_symmetry_space_group_name_H-M   'P 1'
_cell_length_a   9.64709200
_cell_length_b   5.73367500
_cell_length_c   8.35500783
_cell_angle_alpha   69.80332583
_cell_angle_beta   90.00000000
_cell_angle_gamma   90.00000000
_symmetry_Int_Tables_number   1
_chemical_formula_structural   Cu6Ni
_chemical_formula_sum   'Cu24 Ni4'
_cell_volume   433.72721761
_cell_formula_units_Z   4
loop_
 _symmetry_equiv_pos_site_id
 _symmetry_equiv_pos_as_xyz
  1  'x, y, z'
loop_
 _atom_site_type_symbol
 _atom_site_label
 _atom_site_symmetry_multiplicity
 _atom_site_fract_x
 _atom_site_fract_y
 _atom_site_fract_z
 _atom_site_occupancy
  Ni  Ni0  1  0.76089600  0.87679300  0.74919900  1
  Ni  Ni1  1  0.26089600  0.12320700  0.75080100  1
  Ni  Ni2  1  0.23910400  0.12320700  0.25080100  1
  Ni  Ni3  1  0.73910400  0.87679300  0.24919900  1
  Cu  Cu4  1  0.86719200  0.52912500  0.93105900  1
  Cu  Cu5  1  0.36719200  0.47087500  0.56894100  1
  Cu  Cu6  1  0.13280800  0.47087500  0.06894100  1
  Cu  Cu7  1  0.63280800  0.52912500  0.43105900  1
  Cu  Cu8  1  0.13475500  0.77342100  0.43124200  1
  Cu  Cu9  1  0.63475500  0.22657900  0.06875800  1
  Cu  Cu10  1  0.86524500  0.22657900  0.56875800  1
  Cu  Cu11  1  0.36524500  0.77342100  0.93124200  1
  Cu  Cu12  1  0.86652700  0.71371200  0.56382000  1
  Cu  Cu13  1  0.36652700  0.28628800  0.93618000  1
  Cu  Cu14  1  0.13347300  0.28628800  0.43618000  1
  Cu  Cu15  1  0.63347300  0.71371200  0.06382000  1
  Cu  Cu16  1  0.42054000  0.86683600  0.24932700  1
  Cu  Cu17  1  0.92054000  0.13316400  0.25067300  1
  Cu  Cu18  1  0.57946000  0.13316400  0.75067300  1
  Cu  Cu19  1  0.07946000  0.86683600  0.74932700  1
  Cu  Cu20  1  0.58034200  0.61994700  0.74879800  1
  Cu  Cu21  1  0.08034200  0.38005300  0.75120200  1
  Cu  Cu22  1  0.41965800  0.38005300  0.25120200  1
  Cu  Cu23  1  0.91965800  0.61994700  0.24879800  1
  Cu  Cu24  1  0.36448600  0.96002600  0.56434600  1
  Cu  Cu25  1  0.86448600  0.03997400  0.93565400  1
  Cu  Cu26  1  0.63551400  0.03997400  0.43565400  1
  Cu  Cu27  1  0.13551400  0.96002600  0.06434600  1
