# generated using pymatgen
data_CuNiC6
_symmetry_space_group_name_H-M   'P 1'
_cell_length_a   5.02471900
_cell_length_b   8.42134100
_cell_length_c   10.06444900
_cell_angle_alpha   90.00000000
_cell_angle_beta   90.00000000
_cell_angle_gamma   90.00000000
_symmetry_Int_Tables_number   1
_chemical_formula_structural   CuNiC6
_chemical_formula_sum   'Cu2 Ni2 C12'
_cell_volume   425.87587248
_cell_formula_units_Z   2
loop_
 _symmetry_equiv_pos_site_id
 _symmetry_equiv_pos_as_xyz
  1  'x, y, z'
loop_
 _atom_site_type_symbol
 _atom_site_label
 _atom_site_symmetry_multiplicity
 _atom_site_fract_x
 _atom_site_fract_y
 _atom_site_fract_z
 _atom_site_occupancy
  Ni  Ni0  1  0.50000000  0.50000000  0.87641900  1
  Ni  Ni1  1  0.50000000  0.00000000  0.37641900  1
  Cu  Cu2  1  0.50000000  0.50000000  0.36939400  1
  Cu  Cu3  1  0.50000000  0.00000000  0.86939400  1
  C  C4  1  0.50000000  0.24381300  0.12181100  1
  C  C5  1  0.50000000  0.75618700  0.12181100  1
  C  C6  1  0.00000000  0.23810700  0.88018100  1
  C  C7  1  0.00000000  0.76189300  0.88018100  1
  C  C8  1  0.00000000  0.50000000  0.12596500  1
  C  C9  1  0.00000000  0.50000000  0.62424200  1
  C  C10  1  0.50000000  0.74381300  0.62181100  1
  C  C11  1  0.50000000  0.25618700  0.62181100  1
  C  C12  1  0.00000000  0.73810700  0.38018100  1
  C  C13  1  0.00000000  0.26189300  0.38018100  1
  C  C14  1  0.00000000  0.00000000  0.62596500  1
  C  C15  1  0.00000000  0.00000000  0.12424200  1
