# generated using pymatgen
data_Cu2NiC11
_symmetry_space_group_name_H-M   'P 1'
_cell_length_a   5.92035300
_cell_length_b   6.54484095
_cell_length_c   7.73337629
_cell_angle_alpha   104.06153417
_cell_angle_beta   111.62953665
_cell_angle_gamma   104.08921831
_symmetry_Int_Tables_number   1
_chemical_formula_structural   Cu2NiC11
_chemical_formula_sum   'Cu4 Ni2 C22'
_cell_volume   251.10654039
_cell_formula_units_Z   2
loop_
 _symmetry_equiv_pos_site_id
 _symmetry_equiv_pos_as_xyz
  1  'x, y, z'
loop_
 _atom_site_type_symbol
 _atom_site_label
 _atom_site_symmetry_multiplicity
 _atom_site_fract_x
 _atom_site_fract_y
 _atom_site_fract_z
 _atom_site_occupancy
  C  C0  1  0.63469700  0.14291000  0.70955300  1
  C  C1  1  0.79985100  0.28746500  0.43898900  1
  C  C2  1  0.35772500  0.85379800  0.28753400  1
  C  C3  1  0.49660100  0.00079000  0.99369200  1
  C  C4  1  0.06977200  0.56705000  0.85183100  1
  C  C5  1  0.21532200  0.72507000  0.57464800  1
  C  C6  1  0.92566800  0.42703700  0.14253300  1
  C  C7  1  0.14724600  0.14239100  0.71563900  1
  Ni  Ni8  1  0.00042000  0.00177500  0.99796100  1
  Ni  Ni9  1  0.42573200  0.42355300  0.13954200  1
  Cu  Cu10  1  0.28340900  0.28078100  0.43493900  1
  Cu  Cu11  1  0.55340500  0.56113300  0.84900400  1
  Cu  Cu12  1  0.72449000  0.71840900  0.57667100  1
  Cu  Cu13  1  0.85594100  0.86011100  0.29161600  1
  C  C14  1  0.05885100  0.27896300  0.94572000  1
  C  C15  1  0.20277700  0.44477800  0.64807400  1
  C  C16  1  0.75082200  0.97714100  0.48773100  1
  C  C17  1  0.90711100  0.13225400  0.20818700  1
  C  C18  1  0.46493100  0.69288400  0.07597600  1
  C  C19  1  0.63747000  0.86784000  0.79879100  1
  C  C20  1  0.33441300  0.55038300  0.35064000  1
  C  C21  1  0.24462000  0.01006500  0.48904600  1
  C  C22  1  0.36994900  0.14786400  0.19720900  1
  C  C23  1  0.94670400  0.73483900  0.06963300  1
  C  C24  1  0.09002200  0.86196500  0.79654500  1
  C  C25  1  0.67216500  0.43702000  0.63919600  1
  C  C26  1  0.79468300  0.56472000  0.34506400  1
  C  C27  1  0.53520300  0.30701200  0.94403600  1
