# generated using pymatgen
data_Cu8NiC40
_symmetry_space_group_name_H-M   'P 1'
_cell_length_a   9.60042712
_cell_length_b   9.60042712
_cell_length_c   9.60042731
_cell_angle_alpha   94.64739596
_cell_angle_beta   94.64739596
_cell_angle_gamma   94.64739149
_symmetry_Int_Tables_number   1
_chemical_formula_structural   Cu8NiC40
_chemical_formula_sum   'Cu8 Ni1 C40'
_cell_volume   875.62196756
_cell_formula_units_Z   1
loop_
 _symmetry_equiv_pos_site_id
 _symmetry_equiv_pos_as_xyz
  1  'x, y, z'
loop_
 _atom_site_type_symbol
 _atom_site_label
 _atom_site_symmetry_multiplicity
 _atom_site_fract_x
 _atom_site_fract_y
 _atom_site_fract_z
 _atom_site_occupancy
  C  C0  1  0.50000000  0.50000000  0.50000000  1
  C  C1  1  0.50000000  0.50000000  0.00000000  1
  C  C2  1  0.50000000  0.00000000  0.50000000  1
  C  C3  1  0.00000000  0.50000000  0.50000000  1
  C  C4  1  0.38864700  0.36554100  0.73430400  1
  C  C5  1  0.36554100  0.73430400  0.38864700  1
  C  C6  1  0.73430400  0.38864700  0.36554100  1
  C  C7  1  0.61135300  0.63445900  0.26569600  1
  C  C8  1  0.63445900  0.26569600  0.61135300  1
  C  C9  1  0.26569600  0.61135300  0.63445900  1
  C  C10  1  0.46192200  0.22103500  0.32471400  1
  C  C11  1  0.22103500  0.32471400  0.46192200  1
  C  C12  1  0.32471400  0.46192200  0.22103500  1
  C  C13  1  0.53807800  0.77896500  0.67528600  1
  C  C14  1  0.77896500  0.67528600  0.53807800  1
  C  C15  1  0.67528600  0.53807800  0.77896500  1
  C  C16  1  0.55051000  0.92556200  0.22158300  1
  C  C17  1  0.92556200  0.22158300  0.55051000  1
  C  C18  1  0.22158300  0.55051000  0.92556200  1
  C  C19  1  0.44949000  0.07443800  0.77841700  1
  C  C20  1  0.07443800  0.77841700  0.44949000  1
  C  C21  1  0.77841700  0.44949000  0.07443800  1
  C  C22  1  0.40055200  0.21330300  0.03153300  1
  C  C23  1  0.21330300  0.03153300  0.40055200  1
  C  C24  1  0.03153300  0.40055200  0.21330300  1
  C  C25  1  0.59944800  0.78669700  0.96846700  1
  C  C26  1  0.78669700  0.96846700  0.59944800  1
  C  C27  1  0.96846700  0.59944800  0.78669700  1
  C  C28  1  0.12690400  0.26043200  0.94477300  1
  C  C29  1  0.26043200  0.94477300  0.12690400  1
  C  C30  1  0.94477300  0.12690400  0.26043200  1
  C  C31  1  0.87309600  0.73956800  0.05522700  1
  C  C32  1  0.73956800  0.05522700  0.87309600  1
  C  C33  1  0.05522700  0.87309600  0.73956800  1
  C  C34  1  0.32087000  0.82327500  0.87501600  1
  C  C35  1  0.82327500  0.87501600  0.32087000  1
  C  C36  1  0.87501600  0.32087000  0.82327500  1
  C  C37  1  0.67913000  0.17672500  0.12498400  1
  C  C38  1  0.17672500  0.12498400  0.67913000  1
  C  C39  1  0.12498400  0.67913000  0.17672500  1
  Ni  Ni40  1  0.00000000  0.00000000  0.00000000  1
  Cu  Cu41  1  0.20023600  0.20023600  0.20023600  1
  Cu  Cu42  1  0.79976400  0.79976400  0.79976400  1
  Cu  Cu43  1  0.11228700  0.38763500  0.70834100  1
  Cu  Cu44  1  0.38763500  0.70834100  0.11228700  1
  Cu  Cu45  1  0.70834100  0.11228700  0.38763500  1
  Cu  Cu46  1  0.88771300  0.61236500  0.29165900  1
  Cu  Cu47  1  0.61236500  0.29165900  0.88771300  1
  Cu  Cu48  1  0.29165900  0.88771300  0.61236500  1
