# generated using pymatgen
data_CuNi
_symmetry_space_group_name_H-M   'P 1'
_cell_length_a   5.53879989
_cell_length_b   3.59538729
_cell_length_c   16.89860491
_cell_angle_alpha   90.00000000
_cell_angle_beta   90.00000000
_cell_angle_gamma   90.00000000
_symmetry_Int_Tables_number   1
_chemical_formula_structural   CuNi
_chemical_formula_sum   'Cu6 Ni6'
_cell_volume   336.52102727
_cell_formula_units_Z   6
loop_
 _symmetry_equiv_pos_site_id
 _symmetry_equiv_pos_as_xyz
  1  'x, y, z'
loop_
 _atom_site_type_symbol
 _atom_site_label
 _atom_site_symmetry_multiplicity
 _atom_site_fract_x
 _atom_site_fract_y
 _atom_site_fract_z
 _atom_site_occupancy
  Ni  Ni0  1  -0.00000000  0.50000000  0.16502679  1
  Ni  Ni1  1  0.50000000  0.50000000  0.39013948  1
  Ni  Ni2  1  0.50000000  0.00000000  0.22589884  1
  Ni  Ni3  1  -0.00000000  0.00000000  0.66502679  1
  Ni  Ni4  1  0.50000000  -0.00000000  0.89013948  1
  Ni  Ni5  1  0.50000000  0.50000000  0.72589884  1
  Cu  Cu6  1  -0.00000000  0.00000000  0.01430952  1
  Cu  Cu7  1  -0.00000000  0.00000000  0.31081007  1
  Cu  Cu8  1  0.50000000  0.50000000  0.06048229  1
  Cu  Cu9  1  -0.00000000  0.50000000  0.51430952  1
  Cu  Cu10  1  -0.00000000  0.50000000  0.81081007  1
  Cu  Cu11  1  0.50000000  0.00000000  0.56048229  1
