# generated using pymatgen
data_CuNi5C12
_symmetry_space_group_name_H-M   'P 1'
_cell_length_a   5.82066633
_cell_length_b   5.82066633
_cell_length_c   13.97196000
_cell_angle_alpha   90.00000000
_cell_angle_beta   90.00000000
_cell_angle_gamma   120.00000371
_symmetry_Int_Tables_number   1
_chemical_formula_structural   CuNi5C12
_chemical_formula_sum   'Cu2 Ni10 C24'
_cell_volume   409.95232769
_cell_formula_units_Z   2
loop_
 _symmetry_equiv_pos_site_id
 _symmetry_equiv_pos_as_xyz
  1  'x, y, z'
loop_
 _atom_site_type_symbol
 _atom_site_label
 _atom_site_symmetry_multiplicity
 _atom_site_fract_x
 _atom_site_fract_y
 _atom_site_fract_z
 _atom_site_occupancy
  C  C0  1  0.33333300  0.66666700  0.75000000  1
  C  C1  1  0.66666700  0.33333300  0.25000000  1
  Ni  Ni2  1  0.50000000  0.00000000  0.00000000  1
  Ni  Ni3  1  0.00000000  0.50000000  0.00000000  1
  Ni  Ni4  1  0.50000000  0.00000000  0.50000000  1
  Ni  Ni5  1  0.50000000  0.50000000  0.00000000  1
  Ni  Ni6  1  0.00000000  0.50000000  0.50000000  1
  Ni  Ni7  1  0.50000000  0.50000000  0.50000000  1
  Ni  Ni8  1  0.00000000  0.00000000  0.15030200  1
  Ni  Ni9  1  0.00000000  0.00000000  0.84969800  1
  Ni  Ni10  1  0.00000000  0.00000000  0.65030200  1
  Ni  Ni11  1  0.00000000  0.00000000  0.34969800  1
  Cu  Cu12  1  0.33333300  0.66666700  0.25000000  1
  Cu  Cu13  1  0.66666700  0.33333300  0.75000000  1
  C  C14  1  0.33333300  0.66666700  0.07399400  1
  C  C15  1  0.66666700  0.33333300  0.92600600  1
  C  C16  1  0.66666700  0.33333300  0.57399400  1
  C  C17  1  0.33333300  0.66666700  0.42600600  1
  C  C18  1  0.17385600  0.34771300  0.57666700  1
  C  C19  1  0.82614400  0.65228700  0.42333300  1
  C  C20  1  0.65228700  0.82614400  0.57666700  1
  C  C21  1  0.82614400  0.65228700  0.07666700  1
  C  C22  1  0.34771300  0.17385600  0.42333300  1
  C  C23  1  0.17385600  0.34771300  0.92333300  1
  C  C24  1  0.17385600  0.82614400  0.57666700  1
  C  C25  1  0.34771300  0.17385600  0.07666700  1
  C  C26  1  0.82614400  0.17385600  0.42333300  1
  C  C27  1  0.65228700  0.82614400  0.92333300  1
  C  C28  1  0.82614400  0.17385600  0.07666700  1
  C  C29  1  0.17385600  0.82614400  0.92333300  1
  C  C30  1  0.14816400  0.29632800  0.25000000  1
  C  C31  1  0.85183600  0.70367200  0.75000000  1
  C  C32  1  0.70367200  0.85183600  0.25000000  1
  C  C33  1  0.29632800  0.14816400  0.75000000  1
  C  C34  1  0.14816400  0.85183600  0.25000000  1
  C  C35  1  0.85183600  0.14816400  0.75000000  1
