# generated using pymatgen
data_Cu8Ni2C5
_symmetry_space_group_name_H-M   'P 1'
_cell_length_a   7.20464600
_cell_length_b   7.20464600
_cell_length_c   8.04629800
_cell_angle_alpha   90.00000000
_cell_angle_beta   90.00000000
_cell_angle_gamma   90.00000000
_symmetry_Int_Tables_number   1
_chemical_formula_structural   Cu8Ni2C5
_chemical_formula_sum   'Cu16 Ni4 C10'
_cell_volume   417.65857865
_cell_formula_units_Z   2
loop_
 _symmetry_equiv_pos_site_id
 _symmetry_equiv_pos_as_xyz
  1  'x, y, z'
loop_
 _atom_site_type_symbol
 _atom_site_label
 _atom_site_symmetry_multiplicity
 _atom_site_fract_x
 _atom_site_fract_y
 _atom_site_fract_z
 _atom_site_occupancy
  C  C0  1  0.68050600  0.18050600  0.22405000  1
  C  C1  1  0.31949400  0.81949400  0.77595000  1
  C  C2  1  0.31949400  0.81949400  0.22405000  1
  C  C3  1  0.81949400  0.68050600  0.22405000  1
  C  C4  1  0.81949400  0.68050600  0.77595000  1
  C  C5  1  0.68050600  0.18050600  0.77595000  1
  C  C6  1  0.18050600  0.31949400  0.77595000  1
  C  C7  1  0.18050600  0.31949400  0.22405000  1
  C  C8  1  0.00000000  0.00000000  0.50000000  1
  C  C9  1  0.50000000  0.50000000  0.50000000  1
  Ni  Ni10  1  0.11532600  0.61532600  0.50000000  1
  Ni  Ni11  1  0.88467400  0.38467400  0.50000000  1
  Ni  Ni12  1  0.38467400  0.11532600  0.50000000  1
  Ni  Ni13  1  0.61532600  0.88467400  0.50000000  1
  Cu  Cu14  1  0.17257400  0.03920300  0.00000000  1
  Cu  Cu15  1  0.82742600  0.96079700  0.00000000  1
  Cu  Cu16  1  0.96079700  0.17257400  0.00000000  1
  Cu  Cu17  1  0.32742600  0.53920300  0.00000000  1
  Cu  Cu18  1  0.03920300  0.82742600  0.00000000  1
  Cu  Cu19  1  0.67257400  0.46079700  0.00000000  1
  Cu  Cu20  1  0.53920300  0.67257400  0.00000000  1
  Cu  Cu21  1  0.46079700  0.32742600  0.00000000  1
  Cu  Cu22  1  0.08987100  0.58987100  0.00000000  1
  Cu  Cu23  1  0.91012900  0.41012900  0.00000000  1
  Cu  Cu24  1  0.41012900  0.08987100  0.00000000  1
  Cu  Cu25  1  0.58987100  0.91012900  0.00000000  1
  Cu  Cu26  1  0.00000000  0.00000000  0.16344300  1
  Cu  Cu27  1  0.00000000  0.00000000  0.83655700  1
  Cu  Cu28  1  0.50000000  0.50000000  0.83655700  1
  Cu  Cu29  1  0.50000000  0.50000000  0.16344300  1
