# generated using pymatgen
data_Cu4Ni16C11
_symmetry_space_group_name_H-M   'P 1'
_cell_length_a   4.84420177
_cell_length_b   12.99808410
_cell_length_c   5.55400943
_cell_angle_alpha   103.42060039
_cell_angle_beta   90.10989304
_cell_angle_gamma   90.27838743
_symmetry_Int_Tables_number   1
_chemical_formula_structural   Cu4Ni16C11
_chemical_formula_sum   'Cu4 Ni16 C11'
_cell_volume   340.15470890
_cell_formula_units_Z   1
loop_
 _symmetry_equiv_pos_site_id
 _symmetry_equiv_pos_as_xyz
  1  'x, y, z'
loop_
 _atom_site_type_symbol
 _atom_site_label
 _atom_site_symmetry_multiplicity
 _atom_site_fract_x
 _atom_site_fract_y
 _atom_site_fract_z
 _atom_site_occupancy
  C  C0  1  0.49474400  0.70440400  0.40346600  1
  C  C1  1  0.49914300  0.99926700  0.48621100  1
  C  C2  1  0.47693000  0.40521400  0.31223400  1
  C  C3  1  0.47727900  0.20763700  0.88477100  1
  C  C4  1  0.52018400  0.59240700  0.74272300  1
  C  C5  1  0.53362200  0.81507000  0.05362600  1
  C  C6  1  0.97538100  0.38907900  0.80273800  1
  C  C7  1  0.99941000  0.81111300  0.61303300  1
  C  C8  1  0.01713300  0.19636900  0.40783600  1
  C  C9  1  0.97602900  0.58405400  0.23848800  1
  C  C10  1  0.03323800  0.00613100  0.00320000  1
  Ni  Ni11  1  0.80656600  0.25078100  0.70805100  1
  Ni  Ni12  1  0.83953700  0.87423500  0.92480900  1
  Ni  Ni13  1  0.82923200  0.66378000  0.55168200  1
  Ni  Ni14  1  0.83124700  0.06039200  0.31282500  1
  Ni  Ni15  1  0.79525100  0.45266800  0.12451400  1
  Ni  Ni16  1  0.67781500  0.45534100  0.62878000  1
  Ni  Ni17  1  0.66298400  0.66714100  0.06098000  1
  Ni  Ni18  1  0.66590400  0.85179200  0.40829000  1
  Ni  Ni19  1  0.29876500  0.34465100  0.99249000  1
  Ni  Ni20  1  0.33882700  0.74477700  0.75476800  1
  Ni  Ni21  1  0.32180600  0.13715100  0.57258600  1
  Ni  Ni22  1  0.33204800  0.94097500  0.16112800  1
  Ni  Ni23  1  0.32700700  0.55473600  0.39536300  1
  Ni  Ni24  1  0.18728800  0.14403000  0.07899900  1
  Ni  Ni25  1  0.19119900  0.94786400  0.67536000  1
  Ni  Ni26  1  0.18165800  0.33719400  0.48489200  1
  Cu  Cu27  1  0.68909000  0.06174300  0.82058800  1
  Cu  Cu28  1  0.68051000  0.25798000  0.21483300  1
  Cu  Cu29  1  0.16745100  0.54325500  0.89390200  1
  Cu  Cu30  1  0.15883600  0.74356300  0.26302600  1
