# generated using pymatgen
data_CuNiC5
_symmetry_space_group_name_H-M   'P 1'
_cell_length_a   3.17528400
_cell_length_b   9.63013600
_cell_length_c   11.32677600
_cell_angle_alpha   90.00000000
_cell_angle_beta   90.00000000
_cell_angle_gamma   90.00000000
_symmetry_Int_Tables_number   1
_chemical_formula_structural   CuNiC5
_chemical_formula_sum   'Cu4 Ni4 C20'
_cell_volume   346.35487706
_cell_formula_units_Z   4
loop_
 _symmetry_equiv_pos_site_id
 _symmetry_equiv_pos_as_xyz
  1  'x, y, z'
loop_
 _atom_site_type_symbol
 _atom_site_label
 _atom_site_symmetry_multiplicity
 _atom_site_fract_x
 _atom_site_fract_y
 _atom_site_fract_z
 _atom_site_occupancy
  Ni  Ni0  1  0.50000000  0.25433300  0.89676900  1
  Ni  Ni1  1  0.50000000  0.75433300  0.10323100  1
  Ni  Ni2  1  0.00000000  0.74240700  0.60066000  1
  Ni  Ni3  1  0.00000000  0.24240700  0.39934000  1
  Cu  Cu4  1  0.50000000  0.43068300  0.13600300  1
  Cu  Cu5  1  0.50000000  0.93068300  0.86399700  1
  Cu  Cu6  1  0.50000000  0.41986000  0.64343300  1
  Cu  Cu7  1  0.50000000  0.91986000  0.35656700  1
  C  C8  1  0.00000000  0.56193300  0.36332900  1
  C  C9  1  0.00000000  0.06193300  0.63667100  1
  C  C10  1  0.00000000  0.58315800  0.85396600  1
  C  C11  1  0.00000000  0.08315800  0.14603400  1
  C  C12  1  0.50000000  0.20253800  0.59725200  1
  C  C13  1  0.50000000  0.70253800  0.40274800  1
  C  C14  1  0.00000000  0.79088100  0.90648300  1
  C  C15  1  0.00000000  0.29088100  0.09351700  1
  C  C16  1  0.50000000  0.12191900  0.26604500  1
  C  C17  1  0.50000000  0.62191900  0.73395500  1
  C  C18  1  0.00000000  0.88925200  0.23284500  1
  C  C19  1  0.00000000  0.38925200  0.76715500  1
  C  C20  1  0.50000000  0.42153800  0.32734700  1
  C  C21  1  0.50000000  0.92153800  0.67265300  1
  C  C22  1  0.00000000  0.57235800  0.17891000  1
  C  C23  1  0.00000000  0.07235800  0.82109000  1
  C  C24  1  0.50000000  0.02436700  0.03441500  1
  C  C25  1  0.50000000  0.52436700  0.96558500  1
  C  C26  1  0.00000000  0.98477200  0.46534100  1
  C  C27  1  0.00000000  0.48477200  0.53465900  1
