# generated using pymatgen
data_Cu7NiC5
_symmetry_space_group_name_H-M   'P 1'
_cell_length_a   29.40675124
_cell_length_b   29.81689770
_cell_length_c   31.56486780
_cell_angle_alpha   59.50422425
_cell_angle_beta   60.51109501
_cell_angle_gamma   58.93282971
_symmetry_Int_Tables_number   1
_chemical_formula_structural   Cu7NiC5
_chemical_formula_sum   'Cu7 Ni1 C5'
_cell_volume   19406.76676195
_cell_formula_units_Z   1
loop_
 _symmetry_equiv_pos_site_id
 _symmetry_equiv_pos_as_xyz
  1  'x, y, z'
loop_
 _atom_site_type_symbol
 _atom_site_label
 _atom_site_symmetry_multiplicity
 _atom_site_fract_x
 _atom_site_fract_y
 _atom_site_fract_z
 _atom_site_occupancy
  Ni  Ni0  1  0.49998871  0.49990935  0.50007282  1
  Cu  Cu1  1  0.10393720  0.27605485  0.80993471  1
  Cu  Cu2  1  0.43012241  0.51845676  0.02573427  1
  Cu  Cu3  1  0.52223885  0.02572409  0.42634867  1
  Cu  Cu4  1  0.51851200  0.43017087  0.02568655  1
  Cu  Cu5  1  0.34206831  0.94698990  0.94705157  1
  Cu  Cu6  1  0.81001152  0.80994427  0.27600273  1
  Cu  Cu7  1  0.94712469  0.94704766  0.76374928  1
  C  C8  1  0.13340190  0.62214257  0.62223513  1
  C  C9  1  0.62217765  0.13349592  0.62215027  1
  C  C10  1  0.62226286  0.62218106  0.13330116  1
  C  C11  1  0.62220893  0.62222597  0.62218822  1
  C  C12  1  0.98234495  0.98225671  0.98234462  1
