# generated using pymatgen
data_Cu4Ni2C17
_symmetry_space_group_name_H-M   'P 1'
_cell_length_a   3.99312153
_cell_length_b   3.99312148
_cell_length_c   21.47097056
_cell_angle_alpha   95.33558028
_cell_angle_beta   95.33557905
_cell_angle_gamma   89.99999667
_symmetry_Int_Tables_number   1
_chemical_formula_structural   Cu4Ni2C17
_chemical_formula_sum   'Cu4 Ni2 C17'
_cell_volume   339.38180856
_cell_formula_units_Z   1
loop_
 _symmetry_equiv_pos_site_id
 _symmetry_equiv_pos_as_xyz
  1  'x, y, z'
loop_
 _atom_site_type_symbol
 _atom_site_label
 _atom_site_symmetry_multiplicity
 _atom_site_fract_x
 _atom_site_fract_y
 _atom_site_fract_z
 _atom_site_occupancy
  C  C0  1  0.15980200  0.15980200  0.31960300  1
  C  C1  1  0.84019800  0.84019800  0.68039700  1
  C  C2  1  0.07504000  0.07504000  0.15008000  1
  C  C3  1  0.92496000  0.92496000  0.84992000  1
  C  C4  1  0.00000000  0.00000000  0.00000000  1
  Ni  Ni5  1  0.72337700  0.72337700  0.44675200  1
  Ni  Ni6  1  0.27662300  0.27662300  0.55324800  1
  Cu  Cu7  1  0.53985200  0.53985200  0.07970500  1
  Cu  Cu8  1  0.38924400  0.38924400  0.77848800  1
  Cu  Cu9  1  0.61075600  0.61075600  0.22151200  1
  Cu  Cu10  1  0.46014800  0.46014800  0.92029500  1
  C  C11  1  0.39003600  0.89003600  0.78007200  1
  C  C12  1  0.53637200  0.03637200  0.07274600  1
  C  C13  1  0.22625600  0.22625600  0.45251300  1
  C  C14  1  0.96362800  0.46362800  0.92725400  1
  C  C15  1  0.77374400  0.77374400  0.54748700  1
  C  C16  1  0.10996400  0.60996400  0.21992800  1
  C  C17  1  0.60996400  0.10996400  0.21992800  1
  C  C18  1  0.32638600  0.32638600  0.65277300  1
  C  C19  1  0.89003600  0.39003600  0.78007200  1
  C  C20  1  0.03637200  0.53637200  0.07274600  1
  C  C21  1  0.46362800  0.96362800  0.92725400  1
  C  C22  1  0.67361400  0.67361400  0.34722700  1
