# generated using pymatgen
data_Cu12Ni4C5
_symmetry_space_group_name_H-M   'P 1'
_cell_length_a   5.87195217
_cell_length_b   11.72150414
_cell_length_c   11.67641224
_cell_angle_alpha   89.74306947
_cell_angle_beta   90.01533612
_cell_angle_gamma   95.25171028
_symmetry_Int_Tables_number   1
_chemical_formula_structural   Cu12Ni4C5
_chemical_formula_sum   'Cu12 Ni4 C5'
_cell_volume   800.28372023
_cell_formula_units_Z   1
loop_
 _symmetry_equiv_pos_site_id
 _symmetry_equiv_pos_as_xyz
  1  'x, y, z'
loop_
 _atom_site_type_symbol
 _atom_site_label
 _atom_site_symmetry_multiplicity
 _atom_site_fract_x
 _atom_site_fract_y
 _atom_site_fract_z
 _atom_site_occupancy
  C  C0  1  0.41945100  0.01426400  0.24639600  1
  Ni  Ni1  1  0.37211200  0.32930900  0.24671100  1
  Ni  Ni2  1  0.60412600  0.68617700  0.74575100  1
  Ni  Ni3  1  0.92798800  0.18465300  0.74439800  1
  Ni  Ni4  1  0.04380400  0.74808400  0.24439800  1
  Cu  Cu5  1  0.82831700  0.66836400  0.59674000  1
  Cu  Cu6  1  0.91044500  0.04053800  0.24706600  1
  Cu  Cu7  1  0.31002500  0.82704200  0.40182200  1
  Cu  Cu8  1  0.70112700  0.16750800  0.89495400  1
  Cu  Cu9  1  0.17259100  0.36044400  0.39902200  1
  Cu  Cu10  1  0.82656700  0.66648800  0.89535400  1
  Cu  Cu11  1  0.37111900  0.52816500  0.74517200  1
  Cu  Cu12  1  0.69846700  0.16374600  0.59526700  1
  Cu  Cu13  1  0.10973700  0.02970800  0.74673700  1
  Cu  Cu14  1  0.17335100  0.35988300  0.09361500  1
  Cu  Cu15  1  0.31009200  0.83103900  0.08806200  1
  Cu  Cu16  1  0.65561700  0.46175500  0.24592300  1
  C  C17  1  0.49254700  0.79384500  0.74578700  1
  C  C18  1  0.07546100  0.29358900  0.74229000  1
  C  C19  1  0.44603200  0.21068300  0.24750000  1
  C  C20  1  0.06144400  0.62221700  0.24343400  1
