# generated using pymatgen
data_Cu2Ni2C7
_symmetry_space_group_name_H-M   'P 1'
_cell_length_a   10.62309400
_cell_length_b   7.65664700
_cell_length_c   8.61560011
_cell_angle_alpha   73.62886449
_cell_angle_beta   90.00000000
_cell_angle_gamma   90.00000000
_symmetry_Int_Tables_number   1
_chemical_formula_structural   Cu2Ni2C7
_chemical_formula_sum   'Cu8 Ni8 C28'
_cell_volume   672.35755095
_cell_formula_units_Z   4
loop_
 _symmetry_equiv_pos_site_id
 _symmetry_equiv_pos_as_xyz
  1  'x, y, z'
loop_
 _atom_site_type_symbol
 _atom_site_label
 _atom_site_symmetry_multiplicity
 _atom_site_fract_x
 _atom_site_fract_y
 _atom_site_fract_z
 _atom_site_occupancy
  Ni  Ni0  1  0.67978300  0.32813000  0.06470400  1
  Ni  Ni1  1  0.17978300  0.67187000  0.43529600  1
  Ni  Ni2  1  0.32021700  0.67187000  0.93529600  1
  Ni  Ni3  1  0.82021700  0.32813000  0.56470400  1
  Ni  Ni4  1  0.60079400  0.73916000  0.24165400  1
  Ni  Ni5  1  0.10079400  0.26084000  0.25834600  1
  Ni  Ni6  1  0.39920600  0.26084000  0.75834600  1
  Ni  Ni7  1  0.89920600  0.73916000  0.74165400  1
  Cu  Cu8  1  0.63495500  0.93599400  0.80914700  1
  Cu  Cu9  1  0.13495500  0.06400600  0.69085300  1
  Cu  Cu10  1  0.36504500  0.06400600  0.19085300  1
  Cu  Cu11  1  0.86504500  0.93599400  0.30914700  1
  Cu  Cu12  1  0.59786300  0.62995200  0.67449700  1
  Cu  Cu13  1  0.09786300  0.37004800  0.82550300  1
  Cu  Cu14  1  0.40213700  0.37004800  0.32550300  1
  Cu  Cu15  1  0.90213700  0.62995200  0.17449700  1
  C  C16  1  0.60473500  0.81654700  0.97888000  1
  C  C17  1  0.10473500  0.18345300  0.52112000  1
  C  C18  1  0.39526500  0.18345300  0.02112000  1
  C  C19  1  0.89526500  0.81654700  0.47888000  1
  C  C20  1  0.57674700  0.12619500  0.76530800  1
  C  C21  1  0.07674700  0.87380500  0.73469200  1
  C  C22  1  0.42325300  0.87380500  0.23469200  1
  C  C23  1  0.92325300  0.12619500  0.26530800  1
  C  C24  1  0.56875200  0.83403300  0.68660800  1
  C  C25  1  0.06875200  0.16596700  0.81339200  1
  C  C26  1  0.43124800  0.16596700  0.31339200  1
  C  C27  1  0.93124800  0.83403300  0.18660800  1
  C  C28  1  0.72910000  0.57268000  0.74987200  1
  C  C29  1  0.22910000  0.42732000  0.75012800  1
  C  C30  1  0.27090000  0.42732000  0.25012800  1
  C  C31  1  0.77090000  0.57268000  0.24987200  1
  C  C32  1  0.90768400  0.63587200  0.99853100  1
  C  C33  1  0.40768400  0.36412800  0.50146900  1
  C  C34  1  0.09231600  0.36412800  0.00146900  1
  C  C35  1  0.59231600  0.63587200  0.49853100  1
  C  C36  1  0.77601800  0.95501900  0.76627800  1
  C  C37  1  0.27601800  0.04498100  0.73372200  1
  C  C38  1  0.22398200  0.04498100  0.23372200  1
  C  C39  1  0.72398200  0.95501900  0.26627800  1
  C  C40  1  0.99601700  0.49276600  0.72124500  1
  C  C41  1  0.49601700  0.50723400  0.77875500  1
  C  C42  1  0.00398300  0.50723400  0.27875500  1
  C  C43  1  0.50398300  0.49276600  0.22124500  1
