# generated using pymatgen
data_Cu3NiC24
_symmetry_space_group_name_H-M   'P 1'
_cell_length_a   6.02654100
_cell_length_b   6.02654100
_cell_length_c   12.71750000
_cell_angle_alpha   90.00000000
_cell_angle_beta   90.00000000
_cell_angle_gamma   90.00000000
_symmetry_Int_Tables_number   1
_chemical_formula_structural   Cu3NiC24
_chemical_formula_sum   'Cu3 Ni1 C24'
_cell_volume   461.88938053
_cell_formula_units_Z   1
loop_
 _symmetry_equiv_pos_site_id
 _symmetry_equiv_pos_as_xyz
  1  'x, y, z'
loop_
 _atom_site_type_symbol
 _atom_site_label
 _atom_site_symmetry_multiplicity
 _atom_site_fract_x
 _atom_site_fract_y
 _atom_site_fract_z
 _atom_site_occupancy
  C  C0  1  0.50000000  0.00000000  0.85754000  1
  C  C1  1  0.00000000  0.50000000  0.85754000  1
  C  C2  1  0.50000000  0.00000000  0.14246000  1
  C  C3  1  0.00000000  0.50000000  0.14246000  1
  C  C4  1  0.00000000  0.00000000  0.64843600  1
  C  C5  1  0.50000000  0.50000000  0.64498100  1
  C  C6  1  0.00000000  0.00000000  0.35156400  1
  C  C7  1  0.50000000  0.50000000  0.35501900  1
  Ni  Ni8  1  0.00000000  0.00000000  0.00000000  1
  Cu  Cu9  1  0.50000000  0.00000000  0.50000000  1
  Cu  Cu10  1  0.00000000  0.50000000  0.50000000  1
  Cu  Cu11  1  0.50000000  0.50000000  0.00000000  1
  C  C12  1  0.00000000  0.00000000  0.83605400  1
  C  C13  1  0.50000000  0.50000000  0.83119900  1
  C  C14  1  0.00000000  0.00000000  0.16394600  1
  C  C15  1  0.50000000  0.50000000  0.16880100  1
  C  C16  1  0.50000000  0.00000000  0.67138900  1
  C  C17  1  0.00000000  0.50000000  0.67138900  1
  C  C18  1  0.50000000  0.00000000  0.32861100  1
  C  C19  1  0.00000000  0.50000000  0.32861100  1
  C  C20  1  0.24388200  0.75611800  0.00000000  1
  C  C21  1  0.75611800  0.24388200  0.00000000  1
  C  C22  1  0.24388200  0.24388200  0.00000000  1
  C  C23  1  0.75611800  0.75611800  0.00000000  1
  C  C24  1  0.25046000  0.25046000  0.50000000  1
  C  C25  1  0.74954000  0.74954000  0.50000000  1
  C  C26  1  0.25046000  0.74954000  0.50000000  1
  C  C27  1  0.74954000  0.25046000  0.50000000  1
