# generated using pymatgen
data_Cu2Ni4C9
_symmetry_space_group_name_H-M   'P 1'
_cell_length_a   6.87342871
_cell_length_b   6.87342871
_cell_length_c   6.86644101
_cell_angle_alpha   60.03363080
_cell_angle_beta   60.03363080
_cell_angle_gamma   60.08092772
_symmetry_Int_Tables_number   1
_chemical_formula_structural   Cu2Ni4C9
_chemical_formula_sum   'Cu2 Ni4 C9'
_cell_volume   229.64094416
_cell_formula_units_Z   1
loop_
 _symmetry_equiv_pos_site_id
 _symmetry_equiv_pos_as_xyz
  1  'x, y, z'
loop_
 _atom_site_type_symbol
 _atom_site_label
 _atom_site_symmetry_multiplicity
 _atom_site_fract_x
 _atom_site_fract_y
 _atom_site_fract_z
 _atom_site_occupancy
  C  C0  1  0.37360900  0.37360900  0.37639100  1
  Ni  Ni1  1  0.50750100  0.50750100  0.97743200  1
  Ni  Ni2  1  0.50795300  0.97598400  0.50803200  1
  Ni  Ni3  1  0.97598400  0.50795300  0.50803200  1
  Ni  Ni4  1  0.50750100  0.50750100  0.50756700  1
  Cu  Cu5  1  0.12485700  0.12485700  0.12514300  1
  Cu  Cu6  1  0.87538300  0.87538300  0.87461700  1
  C  C7  1  0.26807000  0.26807000  0.26868400  1
  C  C8  1  0.69298100  0.26856400  0.26922700  1
  C  C9  1  0.73340900  0.73340900  0.29917800  1
  C  C10  1  0.73304700  0.29966100  0.73364700  1
  C  C11  1  0.26856400  0.69298100  0.26922700  1
  C  C12  1  0.26807000  0.26807000  0.69517300  1
  C  C13  1  0.29966100  0.73304700  0.73364700  1
  C  C14  1  0.73340900  0.73340900  0.73400600  1
