# generated using pymatgen
data_CuNiC16
_symmetry_space_group_name_H-M   'P 1'
_cell_length_a   7.49244695
_cell_length_b   7.49244695
_cell_length_c   10.12263100
_cell_angle_alpha   67.23747921
_cell_angle_beta   67.23747921
_cell_angle_gamma   70.76875407
_symmetry_Int_Tables_number   1
_chemical_formula_structural   CuNiC16
_chemical_formula_sum   'Cu2 Ni2 C32'
_cell_volume   472.27253436
_cell_formula_units_Z   2
loop_
 _symmetry_equiv_pos_site_id
 _symmetry_equiv_pos_as_xyz
  1  'x, y, z'
loop_
 _atom_site_type_symbol
 _atom_site_label
 _atom_site_symmetry_multiplicity
 _atom_site_fract_x
 _atom_site_fract_y
 _atom_site_fract_z
 _atom_site_occupancy
  Ni  Ni0  1  0.45153300  0.54846700  0.25000000  1
  Ni  Ni1  1  0.54846700  0.45153300  0.75000000  1
  Cu  Cu2  1  0.50000000  0.00000000  0.00000000  1
  Cu  Cu3  1  0.00000000  0.50000000  0.50000000  1
  C  C4  1  0.81193700  0.80660400  0.19656800  1
  C  C5  1  0.18806300  0.19339600  0.80343200  1
  C  C6  1  0.19339600  0.18806300  0.30343200  1
  C  C7  1  0.80660400  0.81193700  0.69656800  1
  C  C8  1  0.76562400  0.21927000  0.47504100  1
  C  C9  1  0.23437600  0.78073000  0.52495900  1
  C  C10  1  0.78073000  0.23437600  0.02495900  1
  C  C11  1  0.21927000  0.76562400  0.97504100  1
  C  C12  1  0.59087900  0.32008700  0.41961700  1
  C  C13  1  0.40912100  0.67991300  0.58038300  1
  C  C14  1  0.67991300  0.40912100  0.08038300  1
  C  C15  1  0.32008700  0.59087900  0.91961700  1
  C  C16  1  0.30716500  0.14987000  0.15685600  1
  C  C17  1  0.69283500  0.85013000  0.84314400  1
  C  C18  1  0.85013000  0.69283500  0.34314400  1
  C  C19  1  0.14987000  0.30716500  0.65685600  1
  C  C20  1  0.30288900  0.80633500  0.07372100  1
  C  C21  1  0.69711100  0.19366500  0.92627900  1
  C  C22  1  0.19366500  0.69711100  0.42627900  1
  C  C23  1  0.80633500  0.30288900  0.57372100  1
  C  C24  1  0.62702000  0.79668000  0.17276100  1
  C  C25  1  0.37298000  0.20332000  0.82723900  1
  C  C26  1  0.20332000  0.37298000  0.32723900  1
  C  C27  1  0.79668000  0.62702000  0.67276100  1
  C  C28  1  0.74487700  0.99293200  0.56036100  1
  C  C29  1  0.25512300  0.00706800  0.43963900  1
  C  C30  1  0.00706800  0.25512300  0.93963900  1
  C  C31  1  0.99293200  0.74487700  0.06036100  1
  C  C32  1  0.80357400  0.03720200  0.16437700  1
  C  C33  1  0.19642600  0.96279800  0.83562300  1
  C  C34  1  0.96279800  0.19642600  0.33562300  1
  C  C35  1  0.03720200  0.80357400  0.66437700  1
