# generated using pymatgen
data_Cu9(NiC2)2
_symmetry_space_group_name_H-M   'P 1'
_cell_length_a   14.18770600
_cell_length_b   4.98616800
_cell_length_c   24.10953098
_cell_angle_alpha   90.00000000
_cell_angle_beta   90.31353274
_cell_angle_gamma   90.00000000
_symmetry_Int_Tables_number   1
_chemical_formula_structural   Cu9(NiC2)2
_chemical_formula_sum   'Cu72 Ni16 C32'
_cell_volume   1705.53779094
_cell_formula_units_Z   8
loop_
 _symmetry_equiv_pos_site_id
 _symmetry_equiv_pos_as_xyz
  1  'x, y, z'
loop_
 _atom_site_type_symbol
 _atom_site_label
 _atom_site_symmetry_multiplicity
 _atom_site_fract_x
 _atom_site_fract_y
 _atom_site_fract_z
 _atom_site_occupancy
  C  C0  1  0.50000000  0.20787300  0.25000000  1
  C  C1  1  0.50000000  0.79212700  0.75000000  1
  C  C2  1  0.38780500  0.74210400  0.54607600  1
  C  C3  1  0.61219500  0.74210400  0.95392400  1
  C  C4  1  0.61219500  0.25789600  0.45392400  1
  C  C5  1  0.38780500  0.25789600  0.04607600  1
  C  C6  1  0.92528200  0.21311600  0.43547200  1
  C  C7  1  0.07471800  0.21311600  0.06452800  1
  C  C8  1  0.07471800  0.78688400  0.56452800  1
  C  C9  1  0.92528200  0.78688400  0.93547200  1
  C  C10  1  0.74475700  0.25640300  0.85097200  1
  C  C11  1  0.25524300  0.25640300  0.64902800  1
  C  C12  1  0.25524300  0.74359700  0.14902800  1
  C  C13  1  0.74475700  0.74359700  0.35097200  1
  C  C14  1  0.00000000  0.14463300  0.25000000  1
  C  C15  1  0.00000000  0.85536700  0.75000000  1
  C  C16  1  0.21338000  0.77152400  0.41931700  1
  C  C17  1  0.78662000  0.77152400  0.08068300  1
  C  C18  1  0.78662000  0.22847600  0.58068300  1
  C  C19  1  0.21338000  0.22847600  0.91931700  1
  C  C20  1  0.28236500  0.72739400  0.30394400  1
  C  C21  1  0.71763500  0.72739400  0.19605600  1
  C  C22  1  0.71763500  0.27260600  0.69605600  1
  C  C23  1  0.28236500  0.27260600  0.80394400  1
  C  C24  1  0.35184300  0.27424500  0.38632700  1
  C  C25  1  0.64815700  0.27424500  0.11367300  1
  C  C26  1  0.64815700  0.72575500  0.61367300  1
  C  C27  1  0.35184300  0.72575500  0.88632700  1
  C  C28  1  0.15242600  0.21785100  0.34478200  1
  C  C29  1  0.84757400  0.21785100  0.15521800  1
  C  C30  1  0.84757400  0.78214900  0.65521800  1
  C  C31  1  0.15242600  0.78214900  0.84478200  1
  Ni  Ni32  1  0.25267100  0.23312500  0.22430200  1
  Ni  Ni33  1  0.74732900  0.23312500  0.27569800  1
  Ni  Ni34  1  0.74732900  0.76687500  0.77569800  1
  Ni  Ni35  1  0.25267100  0.76687500  0.72430200  1
  Ni  Ni36  1  0.22846600  0.25544600  0.49832100  1
  Ni  Ni37  1  0.77153400  0.25544600  0.00167900  1
  Ni  Ni38  1  0.77153400  0.74455400  0.50167900  1
  Ni  Ni39  1  0.22846600  0.74455400  0.99832100  1
  Ni  Ni40  1  0.48508800  0.76442800  0.37639600  1
  Ni  Ni41  1  0.51491200  0.76442800  0.12360400  1
  Ni  Ni42  1  0.51491200  0.23557200  0.62360400  1
  Ni  Ni43  1  0.48508800  0.23557200  0.87639600  1
  Ni  Ni44  1  0.01399300  0.70257200  0.35486700  1
  Ni  Ni45  1  0.98600700  0.70257200  0.14513300  1
  Ni  Ni46  1  0.98600700  0.29742800  0.64513300  1
  Ni  Ni47  1  0.01399300  0.29742800  0.85486700  1
  Cu  Cu48  1  0.25147600  0.26499800  0.16317300  1
  Cu  Cu49  1  0.74852400  0.26499800  0.33682700  1
  Cu  Cu50  1  0.74852400  0.73500200  0.83682700  1
  Cu  Cu51  1  0.25147600  0.73500200  0.66317300  1
  Cu  Cu52  1  0.29467900  0.95955800  0.23613600  1
  Cu  Cu53  1  0.70532100  0.95955800  0.26386400  1
  Cu  Cu54  1  0.70532100  0.04044200  0.76386400  1
  Cu  Cu55  1  0.29467900  0.04044200  0.73613600  1
  Cu  Cu56  1  0.31823300  0.43657900  0.24998500  1
  Cu  Cu57  1  0.68176700  0.43657900  0.25001500  1
  Cu  Cu58  1  0.68176700  0.56342100  0.75001500  1
  Cu  Cu59  1  0.31823300  0.56342100  0.74998500  1
  Cu  Cu60  1  0.15847300  0.25994900  0.24867200  1
  Cu  Cu61  1  0.84152700  0.25994900  0.25132800  1
  Cu  Cu62  1  0.84152700  0.74005100  0.75132800  1
  Cu  Cu63  1  0.15847300  0.74005100  0.74867200  1
  Cu  Cu64  1  0.16209400  0.09559000  0.46197400  1
  Cu  Cu65  1  0.83790600  0.09559000  0.03802600  1
  Cu  Cu66  1  0.83790600  0.90441000  0.53802600  1
  Cu  Cu67  1  0.16209400  0.90441000  0.96197400  1
  Cu  Cu68  1  0.32722600  0.19562600  0.48309500  1
  Cu  Cu69  1  0.67277400  0.19562600  0.01690500  1
  Cu  Cu70  1  0.67277400  0.80437400  0.51690500  1
  Cu  Cu71  1  0.32722600  0.80437400  0.98309500  1
  Cu  Cu72  1  0.21022200  0.19115200  0.55705400  1
  Cu  Cu73  1  0.78977800  0.19115200  0.94294600  1
  Cu  Cu74  1  0.78977800  0.80884800  0.44294600  1
  Cu  Cu75  1  0.21022200  0.80884800  0.05705400  1
  Cu  Cu76  1  0.20798000  0.55120900  0.49021200  1
  Cu  Cu77  1  0.79202000  0.55120900  0.00978800  1
  Cu  Cu78  1  0.79202000  0.44879100  0.50978800  1
  Cu  Cu79  1  0.20798000  0.44879100  0.99021200  1
  Cu  Cu80  1  0.45700600  0.71089300  0.31831000  1
  Cu  Cu81  1  0.54299400  0.71089300  0.18169000  1
  Cu  Cu82  1  0.54299400  0.28910700  0.68169000  1
  Cu  Cu83  1  0.45700600  0.28910700  0.81831000  1
  Cu  Cu84  1  0.03405700  0.72744400  0.41527300  1
  Cu  Cu85  1  0.96594300  0.72744400  0.08472700  1
  Cu  Cu86  1  0.96594300  0.27255600  0.58472700  1
  Cu  Cu87  1  0.03405700  0.27255600  0.91527300  1
  Cu  Cu88  1  0.91631300  0.76915900  0.34105400  1
  Cu  Cu89  1  0.08368700  0.76915900  0.15894600  1
  Cu  Cu90  1  0.08368700  0.23084100  0.65894600  1
  Cu  Cu91  1  0.91631300  0.23084100  0.84105400  1
  Cu  Cu92  1  0.58617200  0.71845000  0.38696500  1
  Cu  Cu93  1  0.41382800  0.71845000  0.11303500  1
  Cu  Cu94  1  0.41382800  0.28155000  0.61303500  1
  Cu  Cu95  1  0.58617200  0.28155000  0.88696500  1
  Cu  Cu96  1  0.42784300  0.59228400  0.41559400  1
  Cu  Cu97  1  0.57215700  0.59228400  0.08440600  1
  Cu  Cu98  1  0.57215700  0.40771600  0.58440600  1
  Cu  Cu99  1  0.42784300  0.40771600  0.91559400  1
  Cu  Cu100  1  0.26485000  0.00161300  0.36025400  1
  Cu  Cu101  1  0.73515000  0.00161300  0.13974600  1
  Cu  Cu102  1  0.73515000  0.99838700  0.63974600  1
  Cu  Cu103  1  0.26485000  0.99838700  0.86025400  1
  Cu  Cu104  1  0.24576300  0.49461900  0.36607000  1
  Cu  Cu105  1  0.75423700  0.49461900  0.13393000  1
  Cu  Cu106  1  0.75423700  0.50538100  0.63393000  1
  Cu  Cu107  1  0.24576300  0.50538100  0.86607000  1
  Cu  Cu108  1  0.46675700  0.05686500  0.39069400  1
  Cu  Cu109  1  0.53324300  0.05686500  0.10930600  1
  Cu  Cu110  1  0.53324300  0.94313500  0.60930600  1
  Cu  Cu111  1  0.46675700  0.94313500  0.89069400  1
  Cu  Cu112  1  0.03242200  0.41410200  0.33757600  1
  Cu  Cu113  1  0.96757800  0.41410200  0.16242400  1
  Cu  Cu114  1  0.96757800  0.58589800  0.66242400  1
  Cu  Cu115  1  0.03242200  0.58589800  0.83757600  1
  Cu  Cu116  1  0.08013900  0.87890200  0.32216000  1
  Cu  Cu117  1  0.91986100  0.87890200  0.17784000  1
  Cu  Cu118  1  0.91986100  0.12109800  0.67784000  1
  Cu  Cu119  1  0.08013900  0.12109800  0.82216000  1
