# generated using pymatgen
data_Cu2NiC17
_symmetry_space_group_name_H-M   'P 1'
_cell_length_a   5.61449856
_cell_length_b   5.62613597
_cell_length_c   9.16082814
_cell_angle_alpha   72.56307147
_cell_angle_beta   73.44040409
_cell_angle_gamma   88.61727249
_symmetry_Int_Tables_number   1
_chemical_formula_structural   Cu2NiC17
_chemical_formula_sum   'Cu2 Ni1 C17'
_cell_volume   264.02901699
_cell_formula_units_Z   1
loop_
 _symmetry_equiv_pos_site_id
 _symmetry_equiv_pos_as_xyz
  1  'x, y, z'
loop_
 _atom_site_type_symbol
 _atom_site_label
 _atom_site_symmetry_multiplicity
 _atom_site_fract_x
 _atom_site_fract_y
 _atom_site_fract_z
 _atom_site_occupancy
  C  C0  1  0.07651500  0.58222800  0.82247100  1
  C  C1  1  0.62965200  0.13174200  0.74142900  1
  C  C2  1  0.42348500  0.91777200  0.17752900  1
  C  C3  1  0.87034800  0.36825800  0.25857100  1
  Ni  Ni4  1  0.25000000  0.75000000  0.50000000  1
  Cu  Cu5  1  0.25000000  0.25000000  0.50000000  1
  Cu  Cu6  1  0.75000000  0.75000000  0.50000000  1
  C  C7  1  0.50842200  0.49053100  0.99977400  1
  C  C8  1  0.99157800  0.00946900  0.00022600  1
  C  C9  1  0.16065100  0.05327900  0.77508400  1
  C  C10  1  0.55468300  0.66310200  0.77175100  1
  C  C11  1  0.33934900  0.44672100  0.22491600  1
  C  C12  1  0.94531700  0.83689800  0.22824900  1
  C  C13  1  0.51668500  0.00527700  0.44398600  1
  C  C14  1  0.98331500  0.49472300  0.55601400  1
  C  C15  1  0.00279600  0.00845400  0.49908200  1
  C  C16  1  0.49720400  0.49154600  0.50091800  1
  C  C17  1  0.75000000  0.25000000  0.00000000  1
  C  C18  1  0.75000000  0.75000000  0.00000000  1
  C  C19  1  0.25000000  0.25000000  0.00000000  1
