# generated using pymatgen
data_Cu2NiC18
_symmetry_space_group_name_H-M   'P 1'
_cell_length_a   5.77926521
_cell_length_b   7.22179217
_cell_length_c   9.18951996
_cell_angle_alpha   108.70655783
_cell_angle_beta   89.86600600
_cell_angle_gamma   113.72685180
_symmetry_Int_Tables_number   1
_chemical_formula_structural   Cu2NiC18
_chemical_formula_sum   'Cu2 Ni1 C18'
_cell_volume   329.00221471
_cell_formula_units_Z   1
loop_
 _symmetry_equiv_pos_site_id
 _symmetry_equiv_pos_as_xyz
  1  'x, y, z'
loop_
 _atom_site_type_symbol
 _atom_site_label
 _atom_site_symmetry_multiplicity
 _atom_site_fract_x
 _atom_site_fract_y
 _atom_site_fract_z
 _atom_site_occupancy
  C  C0  1  0.12512800  0.24765400  0.50322200  1
  C  C1  1  0.87717900  0.75480800  0.50481500  1
  C  C2  1  0.14166800  0.27149500  0.91288000  1
  C  C3  1  0.56534800  0.13565200  0.25578000  1
  C  C4  1  0.41069700  0.82171100  0.79014400  1
  C  C5  1  0.88312200  0.77145400  0.04148000  1
  Ni  Ni6  1  0.64968700  0.29254000  0.02224000  1
  Cu  Cu7  1  0.65754700  0.31116200  0.71517200  1
  Cu  Cu8  1  0.32961600  0.65769300  0.28616600  1
  C  C9  1  0.02313300  0.55276300  0.81667300  1
  C  C10  1  0.20646300  0.88410400  0.28397600  1
  C  C11  1  0.27397300  0.02759800  0.00613800  1
  C  C12  1  0.78687000  0.09509700  0.70449300  1
  C  C13  1  0.67776700  0.88673700  0.28475300  1
  C  C14  1  0.75085500  0.02775100  0.00668800  1
  C  C15  1  0.30897000  0.09276800  0.70079300  1
  C  C16  1  0.99235100  0.45882400  0.16177500  1
  C  C17  1  0.67246000  0.35560300  0.50971500  1
  C  C18  1  0.32153000  0.64520500  0.48480700  1
  C  C19  1  0.47364500  0.46047400  0.16410400  1
  C  C20  1  0.52824000  0.55446200  0.81561400  1
