# generated using pymatgen
data_CuNi14C
_symmetry_space_group_name_H-M   'P 1'
_cell_length_a   6.50920988
_cell_length_b   6.28047928
_cell_length_c   10.31870810
_cell_angle_alpha   90.00000000
_cell_angle_beta   90.00000000
_cell_angle_gamma   118.84425048
_symmetry_Int_Tables_number   1
_chemical_formula_structural   CuNi14C
_chemical_formula_sum   'Cu1 Ni14 C1'
_cell_volume   369.50298264
_cell_formula_units_Z   1
loop_
 _symmetry_equiv_pos_site_id
 _symmetry_equiv_pos_as_xyz
  1  'x, y, z'
loop_
 _atom_site_type_symbol
 _atom_site_label
 _atom_site_symmetry_multiplicity
 _atom_site_fract_x
 _atom_site_fract_y
 _atom_site_fract_z
 _atom_site_occupancy
  C  C0  1  0.15196557  0.32598228  0.12500000  1
  Ni  Ni1  1  0.16530442  0.33265171  0.62500000  1
  Ni  Ni2  1  0.16040172  0.83020036  0.62500000  1
  Ni  Ni3  1  0.64784370  0.31511920  0.12500000  1
  Ni  Ni4  1  0.66509657  0.33653524  0.62500000  1
  Ni  Ni5  1  0.64784370  0.83272350  0.12500000  1
  Ni  Ni6  1  0.66509657  0.82856033  0.62500000  1
  Ni  Ni7  1  0.33752827  0.16480175  0.37890306  1
  Ni  Ni8  1  0.33752827  0.16480175  0.87109694  1
  Ni  Ni9  1  0.33752827  0.67272753  0.37890306  1
  Ni  Ni10  1  0.33752827  0.67272753  0.87109694  1
  Ni  Ni11  1  0.83166219  0.16583160  0.38443290  1
  Ni  Ni12  1  0.83166219  0.16583160  0.86556710  1
  Ni  Ni13  1  0.84750822  0.67375461  0.35917278  1
  Ni  Ni14  1  0.84750822  0.67375461  0.89082722  1
  Cu  Cu15  1  0.18799384  0.84399642  0.12500000  1
