# generated using pymatgen
data_Cu8Ni2C5
_symmetry_space_group_name_H-M   'P 1'
_cell_length_a   7.35492400
_cell_length_b   7.35492400
_cell_length_c   8.36462800
_cell_angle_alpha   90.00000000
_cell_angle_beta   90.00000000
_cell_angle_gamma   90.00000000
_symmetry_Int_Tables_number   1
_chemical_formula_structural   Cu8Ni2C5
_chemical_formula_sum   'Cu16 Ni4 C10'
_cell_volume   452.48377413
_cell_formula_units_Z   2
loop_
 _symmetry_equiv_pos_site_id
 _symmetry_equiv_pos_as_xyz
  1  'x, y, z'
loop_
 _atom_site_type_symbol
 _atom_site_label
 _atom_site_symmetry_multiplicity
 _atom_site_fract_x
 _atom_site_fract_y
 _atom_site_fract_z
 _atom_site_occupancy
  C  C0  1  0.68042100  0.18042100  0.22387200  1
  C  C1  1  0.31957900  0.81957900  0.77612800  1
  C  C2  1  0.31957900  0.81957900  0.22387200  1
  C  C3  1  0.81957900  0.68042100  0.22387200  1
  C  C4  1  0.81957900  0.68042100  0.77612800  1
  C  C5  1  0.68042100  0.18042100  0.77612800  1
  C  C6  1  0.18042100  0.31957900  0.77612800  1
  C  C7  1  0.18042100  0.31957900  0.22387200  1
  C  C8  1  0.00000000  0.00000000  0.50000000  1
  C  C9  1  0.50000000  0.50000000  0.50000000  1
  Ni  Ni10  1  0.11292000  0.61292000  0.50000000  1
  Ni  Ni11  1  0.88708000  0.38708000  0.50000000  1
  Ni  Ni12  1  0.38708000  0.11292000  0.50000000  1
  Ni  Ni13  1  0.61292000  0.88708000  0.50000000  1
  Cu  Cu14  1  0.17149800  0.03910800  0.00000000  1
  Cu  Cu15  1  0.82850200  0.96089200  0.00000000  1
  Cu  Cu16  1  0.96089200  0.17149800  0.00000000  1
  Cu  Cu17  1  0.32850200  0.53910800  0.00000000  1
  Cu  Cu18  1  0.03910800  0.82850200  0.00000000  1
  Cu  Cu19  1  0.67149800  0.46089200  0.00000000  1
  Cu  Cu20  1  0.53910800  0.67149800  0.00000000  1
  Cu  Cu21  1  0.46089200  0.32850200  0.00000000  1
  Cu  Cu22  1  0.09070800  0.59070800  0.00000000  1
  Cu  Cu23  1  0.90929200  0.40929200  0.00000000  1
  Cu  Cu24  1  0.40929200  0.09070800  0.00000000  1
  Cu  Cu25  1  0.59070800  0.90929200  0.00000000  1
  Cu  Cu26  1  0.00000000  0.00000000  0.15563700  1
  Cu  Cu27  1  0.00000000  0.00000000  0.84436300  1
  Cu  Cu28  1  0.50000000  0.50000000  0.84436300  1
  Cu  Cu29  1  0.50000000  0.50000000  0.15563700  1
