# generated using pymatgen
data_CuNiC10
_symmetry_space_group_name_H-M   'P 1'
_cell_length_a   5.21420800
_cell_length_b   8.27916800
_cell_length_c   18.58038100
_cell_angle_alpha   90.00000000
_cell_angle_beta   90.00000000
_cell_angle_gamma   90.00000000
_symmetry_Int_Tables_number   1
_chemical_formula_structural   CuNiC10
_chemical_formula_sum   'Cu4 Ni4 C40'
_cell_volume   802.10211618
_cell_formula_units_Z   4
loop_
 _symmetry_equiv_pos_site_id
 _symmetry_equiv_pos_as_xyz
  1  'x, y, z'
loop_
 _atom_site_type_symbol
 _atom_site_label
 _atom_site_symmetry_multiplicity
 _atom_site_fract_x
 _atom_site_fract_y
 _atom_site_fract_z
 _atom_site_occupancy
  Ni  Ni0  1  0.00000000  0.75000000  0.23006800  1
  Ni  Ni1  1  0.00000000  0.25000000  0.76993200  1
  Ni  Ni2  1  0.50000000  0.25000000  0.26993200  1
  Ni  Ni3  1  0.50000000  0.75000000  0.73006800  1
  Cu  Cu4  1  0.00000000  0.75000000  0.99350300  1
  Cu  Cu5  1  0.00000000  0.25000000  0.00649700  1
  Cu  Cu6  1  0.50000000  0.25000000  0.50649700  1
  Cu  Cu7  1  0.50000000  0.75000000  0.49350300  1
  C  C8  1  0.97684700  0.98379200  0.60144400  1
  C  C9  1  0.02315300  0.01620800  0.39855600  1
  C  C10  1  0.52315300  0.48379200  0.89855600  1
  C  C11  1  0.02315300  0.51620800  0.60144400  1
  C  C12  1  0.47684700  0.51620800  0.10144400  1
  C  C13  1  0.97684700  0.48379200  0.39855600  1
  C  C14  1  0.47684700  0.01620800  0.89855600  1
  C  C15  1  0.52315300  0.98379200  0.10144400  1
  C  C16  1  0.89769900  0.52462000  0.68905600  1
  C  C17  1  0.10230100  0.47538000  0.31094400  1
  C  C18  1  0.60230100  0.02462000  0.81094400  1
  C  C19  1  0.10230100  0.97538000  0.68905600  1
  C  C20  1  0.39769900  0.97538000  0.18905600  1
  C  C21  1  0.89769900  0.02462000  0.31094400  1
  C  C22  1  0.39769900  0.47538000  0.81094400  1
  C  C23  1  0.60230100  0.52462000  0.18905600  1
  C  C24  1  0.72633500  0.65906100  0.90004100  1
  C  C25  1  0.27366500  0.34093900  0.09995900  1
  C  C26  1  0.77366500  0.15906100  0.59995900  1
  C  C27  1  0.27366500  0.84093900  0.90004100  1
  C  C28  1  0.22633500  0.84093900  0.40004100  1
  C  C29  1  0.72633500  0.15906100  0.09995900  1
  C  C30  1  0.22633500  0.34093900  0.59995900  1
  C  C31  1  0.77366500  0.65906100  0.40004100  1
  C  C32  1  0.74655000  0.99702300  0.96428300  1
  C  C33  1  0.25345000  0.00297700  0.03571700  1
  C  C34  1  0.75345000  0.49702300  0.53571700  1
  C  C35  1  0.25345000  0.50297700  0.96428300  1
  C  C36  1  0.24655000  0.50297700  0.46428300  1
  C  C37  1  0.74655000  0.49702300  0.03571700  1
  C  C38  1  0.24655000  0.00297700  0.53571700  1
  C  C39  1  0.75345000  0.99702300  0.46428300  1
  C  C40  1  0.75853500  0.81320300  0.59318300  1
  C  C41  1  0.24146500  0.18679700  0.40681700  1
  C  C42  1  0.74146500  0.31320300  0.90681700  1
  C  C43  1  0.24146500  0.68679700  0.59318300  1
  C  C44  1  0.25853500  0.68679700  0.09318300  1
  C  C45  1  0.75853500  0.31320300  0.40681700  1
  C  C46  1  0.25853500  0.18679700  0.90681700  1
  C  C47  1  0.74146500  0.81320300  0.09318300  1
