# generated using pymatgen
data_CuNiC6
_symmetry_space_group_name_H-M   'P 1'
_cell_length_a   4.90838000
_cell_length_b   6.25939300
_cell_length_c   11.02677300
_cell_angle_alpha   90.00000000
_cell_angle_beta   90.00000000
_cell_angle_gamma   90.00000000
_symmetry_Int_Tables_number   1
_chemical_formula_structural   CuNiC6
_chemical_formula_sum   'Cu2 Ni2 C12'
_cell_volume   338.78083326
_cell_formula_units_Z   2
loop_
 _symmetry_equiv_pos_site_id
 _symmetry_equiv_pos_as_xyz
  1  'x, y, z'
loop_
 _atom_site_type_symbol
 _atom_site_label
 _atom_site_symmetry_multiplicity
 _atom_site_fract_x
 _atom_site_fract_y
 _atom_site_fract_z
 _atom_site_occupancy
  C  C0  1  0.50000000  0.24850500  0.41571000  1
  C  C1  1  0.50000000  0.75149500  0.41571000  1
  C  C2  1  0.00000000  0.77095700  0.08562900  1
  C  C3  1  0.00000000  0.22904300  0.08562900  1
  C  C4  1  0.00000000  0.00000000  0.32379300  1
  C  C5  1  0.00000000  0.50000000  0.33855800  1
  C  C6  1  0.50000000  0.74850500  0.91571000  1
  C  C7  1  0.50000000  0.25149500  0.91571000  1
  C  C8  1  0.00000000  0.27095700  0.58562900  1
  C  C9  1  0.00000000  0.72904300  0.58562900  1
  C  C10  1  0.00000000  0.50000000  0.82379300  1
  C  C11  1  0.00000000  0.00000000  0.83855800  1
  Ni  Ni12  1  0.50000000  0.50000000  0.16680500  1
  Ni  Ni13  1  0.50000000  0.00000000  0.66680500  1
  Cu  Cu14  1  0.50000000  0.00000000  0.16816200  1
  Cu  Cu15  1  0.50000000  0.50000000  0.66816200  1
