# generated using pymatgen
data_Cu2NiC4
_symmetry_space_group_name_H-M   'P 1'
_cell_length_a   6.52311200
_cell_length_b   7.18049627
_cell_length_c   17.13845314
_cell_angle_alpha   89.19364348
_cell_angle_beta   88.82875252
_cell_angle_gamma   63.08076787
_symmetry_Int_Tables_number   1
_chemical_formula_structural   Cu2NiC4
_chemical_formula_sum   'Cu12 Ni6 C24'
_cell_volume   715.60950692
_cell_formula_units_Z   6
loop_
 _symmetry_equiv_pos_site_id
 _symmetry_equiv_pos_as_xyz
  1  'x, y, z'
loop_
 _atom_site_type_symbol
 _atom_site_label
 _atom_site_symmetry_multiplicity
 _atom_site_fract_x
 _atom_site_fract_y
 _atom_site_fract_z
 _atom_site_occupancy
  Ni  Ni0  1  0.60024700  0.21222200  0.08340200  1
  Ni  Ni1  1  0.44154900  0.67346400  0.33988100  1
  Ni  Ni2  1  0.11712800  0.20623700  0.16541700  1
  Ni  Ni3  1  0.72145400  0.24831600  0.65205000  1
  Ni  Ni4  1  0.57143500  0.48486000  0.49649400  1
  Ni  Ni5  1  0.83593100  0.87085000  0.79222200  1
  Cu  Cu6  1  0.12955900  0.73904300  0.17700000  1
  Cu  Cu7  1  0.01616600  0.42899800  0.35786900  1
  Cu  Cu8  1  0.04932700  0.33258900  0.99593300  1
  Cu  Cu9  1  0.63161300  0.72532400  0.17130800  1
  Cu  Cu10  1  0.51923200  0.00634900  0.53410200  1
  Cu  Cu11  1  0.30686200  0.89813500  0.71765000  1
  Cu  Cu12  1  0.04563200  0.99748300  0.46423100  1
  Cu  Cu13  1  0.77907600  0.40550100  0.82649600  1
  Cu  Cu14  1  0.67747000  0.06680800  0.29872000  1
  Cu  Cu15  1  0.34017500  0.32900200  0.82235600  1
  Cu  Cu16  1  0.98225000  0.56444800  0.62692500  1
  Cu  Cu17  1  0.31081700  0.76515300  0.94138200  1
  C  C18  1  0.27134700  0.31218500  0.07754200  1
  C  C19  1  0.99297400  0.41166400  0.24354400  1
  C  C20  1  0.87657300  0.24642100  0.07406200  1
  C  C21  1  0.67297500  0.99557900  0.16188600  1
  C  C22  1  0.71968500  0.43182700  0.39107700  1
  C  C23  1  0.42751100  0.57861900  0.23281600  1
  C  C24  1  0.28391900  0.06228700  0.62163000  1
  C  C25  1  0.62423900  0.80780100  0.28580400  1
  C  C26  1  0.29570100  0.71011000  0.44310700  1
  C  C27  1  0.29285000  0.91019100  0.13948000  1
  C  C28  1  0.18108300  0.12260500  0.38442400  1
  C  C29  1  0.01097200  0.93111000  0.26702600  1
  C  C30  1  0.95715100  0.06930200  0.73142800  1
  C  C31  1  0.79979000  0.86690700  0.59936200  1
  C  C32  1  0.75051700  0.48280300  0.59031100  1
  C  C33  1  0.49130700  0.04236000  0.77086400  1
  C  C34  1  0.58487700  0.28924100  0.89648400  1
  C  C35  1  0.79869200  0.95949500  0.40957100  1
  C  C36  1  0.53245000  0.42131900  0.74859500  1
  C  C37  1  0.52951300  0.26919500  0.55822300  1
  C  C38  1  0.24343000  0.06747300  0.94106000  1
  C  C39  1  0.12347400  0.75972800  0.85398600  1
  C  C40  1  0.86675900  0.60817800  0.73725700  1
  C  C41  1  0.59629300  0.68881900  0.87702100  1
