# generated using pymatgen
data_CuNi6C
_symmetry_space_group_name_H-M   'P 1'
_cell_length_a   5.16824200
_cell_length_b   6.34973000
_cell_length_c   11.00795600
_cell_angle_alpha   90.00000000
_cell_angle_beta   90.00000000
_cell_angle_gamma   90.00000000
_symmetry_Int_Tables_number   1
_chemical_formula_structural   CuNi6C
_chemical_formula_sum   'Cu2 Ni12 C2'
_cell_volume   361.24744561
_cell_formula_units_Z   2
loop_
 _symmetry_equiv_pos_site_id
 _symmetry_equiv_pos_as_xyz
  1  'x, y, z'
loop_
 _atom_site_type_symbol
 _atom_site_label
 _atom_site_symmetry_multiplicity
 _atom_site_fract_x
 _atom_site_fract_y
 _atom_site_fract_z
 _atom_site_occupancy
  Ni  Ni0  1  0.50000000  0.24843300  0.41631500  1
  Ni  Ni1  1  0.50000000  0.75156700  0.41631500  1
  Ni  Ni2  1  0.00000000  0.76443300  0.08245500  1
  Ni  Ni3  1  0.00000000  0.23556700  0.08245500  1
  Ni  Ni4  1  0.00000000  0.00000000  0.32897400  1
  Ni  Ni5  1  0.00000000  0.50000000  0.33881200  1
  Ni  Ni6  1  0.50000000  0.74843300  0.91631500  1
  Ni  Ni7  1  0.50000000  0.25156700  0.91631500  1
  Ni  Ni8  1  0.00000000  0.26443300  0.58245500  1
  Ni  Ni9  1  0.00000000  0.73556700  0.58245500  1
  Ni  Ni10  1  0.00000000  0.50000000  0.82897400  1
  Ni  Ni11  1  0.00000000  0.00000000  0.83881200  1
  Cu  Cu12  1  0.50000000  0.00000000  0.16687100  1
  Cu  Cu13  1  0.50000000  0.50000000  0.66687100  1
  C  C14  1  0.50000000  0.50000000  0.16780100  1
  C  C15  1  0.50000000  0.00000000  0.66780100  1
