# generated using pymatgen
data_Cu13NiC7
_symmetry_space_group_name_H-M   'P 1'
_cell_length_a   6.16683900
_cell_length_b   10.11467107
_cell_length_c   12.80150788
_cell_angle_alpha   96.06300228
_cell_angle_beta   91.25076811
_cell_angle_gamma   104.73204727
_symmetry_Int_Tables_number   1
_chemical_formula_structural   Cu13NiC7
_chemical_formula_sum   'Cu26 Ni2 C14'
_cell_volume   766.94644936
_cell_formula_units_Z   2
loop_
 _symmetry_equiv_pos_site_id
 _symmetry_equiv_pos_as_xyz
  1  'x, y, z'
loop_
 _atom_site_type_symbol
 _atom_site_label
 _atom_site_symmetry_multiplicity
 _atom_site_fract_x
 _atom_site_fract_y
 _atom_site_fract_z
 _atom_site_occupancy
  C  C0  1  0.62902100  0.81058400  0.68094500  1
  C  C1  1  0.37097900  0.18941600  0.31905500  1
  C  C2  1  0.13488700  0.74341700  0.89148100  1
  C  C3  1  0.86511300  0.25658300  0.10851900  1
  C  C4  1  0.88159700  0.28273100  0.78917200  1
  C  C5  1  0.11840300  0.71726900  0.21082800  1
  C  C6  1  0.86358400  0.15108600  0.51852600  1
  C  C7  1  0.13641600  0.84891400  0.48147400  1
  C  C8  1  0.32569700  0.17640100  0.95891200  1
  C  C9  1  0.67430300  0.82359900  0.04108800  1
  C  C10  1  0.20378200  0.02127200  0.74486500  1
  C  C11  1  0.79621800  0.97872800  0.25513500  1
  C  C12  1  0.39926900  0.25092600  0.61743700  1
  C  C13  1  0.60073100  0.74907400  0.38256300  1
  Ni  Ni14  1  0.69431100  0.88223200  0.92168700  1
  Ni  Ni15  1  0.30568900  0.11776800  0.07831300  1
  Cu  Cu16  1  0.57383600  0.24221300  0.95244700  1
  Cu  Cu17  1  0.42616400  0.75778700  0.04755300  1
  Cu  Cu18  1  0.15915400  0.26303900  0.95669800  1
  Cu  Cu19  1  0.84084600  0.73696100  0.04330200  1
  Cu  Cu20  1  0.24533500  0.03924400  0.87550700  1
  Cu  Cu21  1  0.75466500  0.96075600  0.12449300  1
  Cu  Cu22  1  0.23839800  0.87974100  0.71233500  1
  Cu  Cu23  1  0.76160200  0.12025900  0.28766500  1
  Cu  Cu24  1  0.40514500  0.13993100  0.71324800  1
  Cu  Cu25  1  0.59485500  0.86006900  0.28675200  1
  Cu  Cu26  1  0.97684000  0.04133100  0.71678700  1
  Cu  Cu27  1  0.02316000  0.95866900  0.28321300  1
  Cu  Cu28  1  0.23902500  0.33485900  0.65609200  1
  Cu  Cu29  1  0.76097500  0.66514100  0.34390800  1
  Cu  Cu30  1  0.64787500  0.32311900  0.61965800  1
  Cu  Cu31  1  0.35212500  0.67688100  0.38034200  1
  Cu  Cu32  1  0.31220200  0.15190400  0.51719500  1
  Cu  Cu33  1  0.68779800  0.84809600  0.48280500  1
  Cu  Cu34  1  0.59436200  0.51749300  0.86790900  1
  Cu  Cu35  1  0.40563800  0.48250700  0.13209100  1
  Cu  Cu36  1  0.43849900  0.54787600  0.82120100  1
  Cu  Cu37  1  0.56150100  0.45212400  0.17879900  1
  Cu  Cu38  1  0.96339200  0.57890300  0.68146100  1
  Cu  Cu39  1  0.03660800  0.42109700  0.31853900  1
  Cu  Cu40  1  0.08931100  0.57494200  0.60801200  1
  Cu  Cu41  1  0.91068900  0.42505800  0.39198800  1
