# generated using pymatgen
data_CuNiC5
_symmetry_space_group_name_H-M   'P 1'
_cell_length_a   7.00099400
_cell_length_b   6.95595900
_cell_length_c   9.25682285
_cell_angle_alpha   72.97056178
_cell_angle_beta   90.00000000
_cell_angle_gamma   90.00000000
_symmetry_Int_Tables_number   1
_chemical_formula_structural   CuNiC5
_chemical_formula_sum   'Cu2 Ni2 C10'
_cell_volume   431.02921202
_cell_formula_units_Z   2
loop_
 _symmetry_equiv_pos_site_id
 _symmetry_equiv_pos_as_xyz
  1  'x, y, z'
loop_
 _atom_site_type_symbol
 _atom_site_label
 _atom_site_symmetry_multiplicity
 _atom_site_fract_x
 _atom_site_fract_y
 _atom_site_fract_z
 _atom_site_occupancy
  Ni  Ni0  1  0.25000000  0.75376700  0.93749700  1
  Ni  Ni1  1  0.75000000  0.24623300  0.06250300  1
  Cu  Cu2  1  0.25000000  0.73228600  0.45094800  1
  Cu  Cu3  1  0.75000000  0.26771400  0.54905200  1
  C  C4  1  0.25000000  0.29470100  0.31253600  1
  C  C5  1  0.75000000  0.70529900  0.68746400  1
  C  C6  1  0.25000000  0.09654000  0.16267800  1
  C  C7  1  0.75000000  0.87997400  0.44335600  1
  C  C8  1  0.99717200  0.50105800  0.26937900  1
  C  C9  1  0.49717200  0.49894200  0.73062100  1
  C  C10  1  0.00282800  0.49894200  0.73062100  1
  C  C11  1  0.50282800  0.50105800  0.26937900  1
  C  C12  1  0.25000000  0.12002600  0.55664400  1
  C  C13  1  0.75000000  0.90346000  0.83732200  1
