# generated using pymatgen
data_Cu2Ni2C
_symmetry_space_group_name_H-M   'P 1'
_cell_length_a   5.20905400
_cell_length_b   9.20153700
_cell_length_c   9.42545000
_cell_angle_alpha   90.00000000
_cell_angle_beta   90.00000000
_cell_angle_gamma   90.00000000
_symmetry_Int_Tables_number   1
_chemical_formula_structural   Cu2Ni2C
_chemical_formula_sum   'Cu8 Ni8 C4'
_cell_volume   451.77410095
_cell_formula_units_Z   4
loop_
 _symmetry_equiv_pos_site_id
 _symmetry_equiv_pos_as_xyz
  1  'x, y, z'
loop_
 _atom_site_type_symbol
 _atom_site_label
 _atom_site_symmetry_multiplicity
 _atom_site_fract_x
 _atom_site_fract_y
 _atom_site_fract_z
 _atom_site_occupancy
  C  C0  1  0.50000000  0.25085300  0.50298100  1
  C  C1  1  0.00000000  0.74914700  0.00298100  1
  C  C2  1  0.00000000  0.24958800  0.50907400  1
  C  C3  1  0.50000000  0.75041200  0.00907400  1
  Ni  Ni4  1  0.50000000  0.96660400  0.98029800  1
  Ni  Ni5  1  0.50000000  0.53213000  0.99928700  1
  Ni  Ni6  1  0.00000000  0.03339600  0.48029800  1
  Ni  Ni7  1  0.00000000  0.46787000  0.49928700  1
  Ni  Ni8  1  0.50000000  0.74100100  0.79857800  1
  Ni  Ni9  1  0.50000000  0.76016200  0.20643600  1
  Ni  Ni10  1  0.00000000  0.23983800  0.70643600  1
  Ni  Ni11  1  0.00000000  0.25899900  0.29857800  1
  Cu  Cu12  1  0.50000000  0.50200700  0.50894500  1
  Cu  Cu13  1  0.50000000  0.00010700  0.48984300  1
  Cu  Cu14  1  0.00000000  0.49799300  0.00894500  1
  Cu  Cu15  1  0.00000000  0.99989300  0.98984300  1
  Cu  Cu16  1  0.50000000  0.26117800  0.25761800  1
  Cu  Cu17  1  0.50000000  0.24031100  0.74821800  1
  Cu  Cu18  1  0.00000000  0.75968900  0.24821800  1
  Cu  Cu19  1  0.00000000  0.73882200  0.75761800  1
