# generated using pymatgen
data_Cu4Ni6C19
_symmetry_space_group_name_H-M   'P 1'
_cell_length_a   5.34382900
_cell_length_b   5.34429188
_cell_length_c   14.53073000
_cell_angle_alpha   89.99880043
_cell_angle_beta   89.99947683
_cell_angle_gamma   119.99519743
_symmetry_Int_Tables_number   1
_chemical_formula_structural   Cu4Ni6C19
_chemical_formula_sum   'Cu4 Ni6 C19'
_cell_volume   359.40308581
_cell_formula_units_Z   1
loop_
 _symmetry_equiv_pos_site_id
 _symmetry_equiv_pos_as_xyz
  1  'x, y, z'
loop_
 _atom_site_type_symbol
 _atom_site_label
 _atom_site_symmetry_multiplicity
 _atom_site_fract_x
 _atom_site_fract_y
 _atom_site_fract_z
 _atom_site_occupancy
  C  C0  1  0.33356500  0.66687300  0.19731900  1
  Ni  Ni1  1  0.66673900  0.33327200  0.68196200  1
  Ni  Ni2  1  0.66674600  0.33300700  0.99141700  1
  Ni  Ni3  1  0.66679700  0.33301900  0.47759200  1
  Ni  Ni4  1  0.33348500  0.66634900  0.50447800  1
  Ni  Ni5  1  0.33351100  0.66635200  0.98681200  1
  Ni  Ni6  1  0.66682100  0.33343300  0.21332400  1
  Cu  Cu7  1  0.00011600  0.99973100  0.85667400  1
  Cu  Cu8  1  0.00019800  0.00017400  0.14051900  1
  Cu  Cu9  1  0.00002600  0.99982900  0.64391800  1
  Cu  Cu10  1  0.00027100  0.99976200  0.35782500  1
  C  C11  1  0.33724900  0.34431700  0.09283100  1
  C  C12  1  0.69190700  0.69008400  0.92000600  1
  C  C13  1  0.01751500  0.28889200  0.24637400  1
  C  C14  1  0.27208600  0.98323600  0.24646800  1
  C  C15  1  0.00781100  0.66319500  0.09301600  1
  C  C16  1  0.67651100  0.63928200  0.58973200  1
  C  C17  1  0.76120600  0.07135900  0.74257700  1
  C  C18  1  0.99869400  0.30785000  0.92010400  1
  C  C19  1  0.01605000  0.69412600  0.41954800  1
  C  C20  1  0.36025600  0.03644100  0.58960700  1
  C  C21  1  0.31017900  0.23850400  0.74257700  1
  C  C22  1  0.96349000  0.32351900  0.58966300  1
  C  C23  1  0.71130100  0.72829600  0.24640500  1
  C  C24  1  0.30965200  0.00099600  0.92002800  1
  C  C25  1  0.65565800  0.99256000  0.09295400  1
  C  C26  1  0.67880900  0.98385000  0.41957800  1
  C  C27  1  0.30566000  0.32121000  0.41958500  1
  C  C28  1  0.92852400  0.68964600  0.74264900  1
