# generated using pymatgen
data_CuNiC8
_symmetry_space_group_name_H-M   'P 1'
_cell_length_a   8.50426780
_cell_length_b   8.52524266
_cell_length_c   8.54909174
_cell_angle_alpha   90.00000000
_cell_angle_beta   90.00000000
_cell_angle_gamma   90.00000000
_symmetry_Int_Tables_number   1
_chemical_formula_structural   CuNiC8
_chemical_formula_sum   'Cu4 Ni4 C32'
_cell_volume   619.81724407
_cell_formula_units_Z   4
loop_
 _symmetry_equiv_pos_site_id
 _symmetry_equiv_pos_as_xyz
  1  'x, y, z'
loop_
 _atom_site_type_symbol
 _atom_site_label
 _atom_site_symmetry_multiplicity
 _atom_site_fract_x
 _atom_site_fract_y
 _atom_site_fract_z
 _atom_site_occupancy
  Ni  Ni0  1  0.00000000  0.50000000  0.50000000  1
  Ni  Ni1  1  0.50000000  -0.00000000  0.50000000  1
  Ni  Ni2  1  0.50000000  -0.00000000  -0.00000000  1
  Ni  Ni3  1  -0.00000000  0.50000000  -0.00000000  1
  Cu  Cu4  1  0.50000000  0.50000000  -0.00000000  1
  Cu  Cu5  1  0.00000000  -0.00000000  0.50000000  1
  Cu  Cu6  1  -0.00000000  0.00000000  -0.00000000  1
  Cu  Cu7  1  0.50000000  0.50000000  0.50000000  1
  C  C8  1  0.25000000  0.25000000  0.25000000  1
  C  C9  1  0.75000000  0.75000000  0.25000000  1
  C  C10  1  0.75000000  0.25000000  0.75000000  1
  C  C11  1  0.25000000  0.75000000  0.75000000  1
  C  C12  1  0.75000000  0.75000000  0.75000000  1
  C  C13  1  0.25000000  0.25000000  0.75000000  1
  C  C14  1  0.25000000  0.75000000  0.25000000  1
  C  C15  1  0.75000000  0.25000000  0.25000000  1
  C  C16  1  0.98885600  0.19845836  0.31401336  1
  C  C17  1  0.01114400  0.80154164  0.31401336  1
  C  C18  1  0.01114400  0.19845836  0.68598664  1
  C  C19  1  0.98885600  0.80154164  0.68598664  1
  C  C20  1  0.31103161  0.99055030  0.26789134  1
  C  C21  1  0.31103161  0.00944970  0.73210866  1
  C  C22  1  0.68896839  0.00944970  0.26789134  1
  C  C23  1  0.68896839  0.99055030  0.73210866  1
  C  C24  1  0.18736573  0.21209202  0.98980155  1
  C  C25  1  0.81263427  0.21209202  0.01019845  1
  C  C26  1  0.18736573  0.78790798  0.01019845  1
  C  C27  1  0.81263427  0.78790798  0.98980155  1
  C  C28  1  0.51114400  0.30154164  0.18598664  1
  C  C29  1  0.48885600  0.69845836  0.18598664  1
  C  C30  1  0.48885600  0.30154164  0.81401336  1
  C  C31  1  0.51114400  0.69845836  0.81401336  1
  C  C32  1  0.18896839  0.50944970  0.23210866  1
  C  C33  1  0.18896839  0.49055030  0.76789134  1
  C  C34  1  0.81103161  0.49055030  0.23210866  1
  C  C35  1  0.81103161  0.50944970  0.76789134  1
  C  C36  1  0.31263427  0.28790798  0.51019845  1
  C  C37  1  0.68736573  0.28790798  0.48980155  1
  C  C38  1  0.31263427  0.71209202  0.48980155  1
  C  C39  1  0.68736573  0.71209202  0.51019845  1
