# generated using pymatgen
data_CuNi5C12
_symmetry_space_group_name_H-M   'P 1'
_cell_length_a   15.89062800
_cell_length_b   6.56171100
_cell_length_c   11.84333552
_cell_angle_alpha   58.41039889
_cell_angle_beta   90.00000000
_cell_angle_gamma   90.00000000
_symmetry_Int_Tables_number   1
_chemical_formula_structural   CuNi5C12
_chemical_formula_sum   'Cu4 Ni20 C48'
_cell_volume   1051.91598746
_cell_formula_units_Z   4
loop_
 _symmetry_equiv_pos_site_id
 _symmetry_equiv_pos_as_xyz
  1  'x, y, z'
loop_
 _atom_site_type_symbol
 _atom_site_label
 _atom_site_symmetry_multiplicity
 _atom_site_fract_x
 _atom_site_fract_y
 _atom_site_fract_z
 _atom_site_occupancy
  C  C0  1  0.83489800  0.54841300  0.30041300  1
  C  C1  1  0.66510200  0.54841300  0.80041300  1
  C  C2  1  0.16510200  0.45158700  0.69958700  1
  C  C3  1  0.33489800  0.45158700  0.19958700  1
  Ni  Ni4  1  0.04688900  0.43595500  0.36702100  1
  Ni  Ni5  1  0.45311100  0.43595500  0.86702100  1
  Ni  Ni6  1  0.95311100  0.56404500  0.63297900  1
  Ni  Ni7  1  0.54688900  0.56404500  0.13297900  1
  Ni  Ni8  1  0.84286300  0.83366800  0.49736500  1
  Ni  Ni9  1  0.65713700  0.83366800  0.99736500  1
  Ni  Ni10  1  0.15713700  0.16633200  0.50263500  1
  Ni  Ni11  1  0.34286300  0.16633200  0.00263500  1
  Ni  Ni12  1  0.77910800  0.11751200  0.27338900  1
  Ni  Ni13  1  0.72089200  0.11751200  0.77338900  1
  Ni  Ni14  1  0.22089200  0.88248800  0.72661100  1
  Ni  Ni15  1  0.27910800  0.88248800  0.22661100  1
  Ni  Ni16  1  0.71373700  0.01003700  0.12685100  1
  Ni  Ni17  1  0.78626300  0.01003700  0.62685100  1
  Ni  Ni18  1  0.28626300  0.98996300  0.87314900  1
  Ni  Ni19  1  0.21373700  0.98996300  0.37314900  1
  Ni  Ni20  1  0.17904500  0.59489700  0.39987200  1
  Ni  Ni21  1  0.32095500  0.59489700  0.89987200  1
  Ni  Ni22  1  0.82095500  0.40510300  0.60012800  1
  Ni  Ni23  1  0.67904500  0.40510300  0.10012800  1
  Cu  Cu24  1  0.54345700  0.31020000  0.45257900  1
  Cu  Cu25  1  0.95654300  0.31020000  0.95257900  1
  Cu  Cu26  1  0.45654300  0.68980000  0.54742100  1
  Cu  Cu27  1  0.04345700  0.68980000  0.04742100  1
  C  C28  1  0.75271600  0.94344900  0.24785600  1
  C  C29  1  0.74728400  0.94344900  0.74785600  1
  C  C30  1  0.24728400  0.05655100  0.75214400  1
  C  C31  1  0.25271600  0.05655100  0.25214400  1
  C  C32  1  0.75217400  0.35010800  0.19473800  1
  C  C33  1  0.74782600  0.35010800  0.69473800  1
  C  C34  1  0.24782600  0.64989200  0.80526200  1
  C  C35  1  0.25217400  0.64989200  0.30526200  1
  C  C36  1  0.81355000  0.63847700  0.48006700  1
  C  C37  1  0.68645000  0.63847700  0.98006700  1
  C  C38  1  0.18645000  0.36152300  0.51993300  1
  C  C39  1  0.31355000  0.36152300  0.01993300  1
  C  C40  1  0.83181300  0.07099800  0.37402100  1
  C  C41  1  0.66818700  0.07099800  0.87402100  1
  C  C42  1  0.16818700  0.92900200  0.62597900  1
  C  C43  1  0.33181300  0.92900200  0.12597900  1
  C  C44  1  0.71430800  0.83236700  0.10115200  1
  C  C45  1  0.78569200  0.83236700  0.60115200  1
  C  C46  1  0.28569200  0.16763300  0.89884800  1
  C  C47  1  0.21430800  0.16763300  0.39884800  1
  C  C48  1  0.10163600  0.62773000  0.32819000  1
  C  C49  1  0.39836400  0.62773000  0.82819000  1
  C  C50  1  0.89836400  0.37227000  0.67181000  1
  C  C51  1  0.60163600  0.37227000  0.17181000  1
  C  C52  1  0.81542400  0.23857900  0.54793700  1
  C  C53  1  0.68457600  0.23857900  0.04793700  1
  C  C54  1  0.18457600  0.76142100  0.45206300  1
  C  C55  1  0.31542400  0.76142100  0.95206300  1
  C  C56  1  0.07138500  0.20567300  0.45609100  1
  C  C57  1  0.42861500  0.20567300  0.95609100  1
  C  C58  1  0.92861500  0.79432700  0.54390900  1
  C  C59  1  0.57138500  0.79432700  0.04390900  1
  C  C60  1  0.96952100  0.48851100  0.30450500  1
  C  C61  1  0.53047900  0.48851100  0.80450500  1
  C  C62  1  0.03047900  0.51148900  0.69549500  1
  C  C63  1  0.46952100  0.51148900  0.19549500  1
  C  C64  1  0.93675100  0.64952500  0.00034400  1
  C  C65  1  0.56324900  0.64952500  0.50034400  1
  C  C66  1  0.06324900  0.35047500  0.99965600  1
  C  C67  1  0.43675100  0.35047500  0.49965600  1
  C  C68  1  0.90832400  0.06592200  0.10419000  1
  C  C69  1  0.59167600  0.06592200  0.60419000  1
  C  C70  1  0.09167600  0.93407800  0.89581000  1
  C  C71  1  0.40832400  0.93407800  0.39581000  1
