# generated using pymatgen
data_CuNiC14
_symmetry_space_group_name_H-M   'P 1'
_cell_length_a   9.11071300
_cell_length_b   9.11071300
_cell_length_c   13.65067200
_cell_angle_alpha   90.00000000
_cell_angle_beta   90.00000000
_cell_angle_gamma   90.00000000
_symmetry_Int_Tables_number   1
_chemical_formula_structural   CuNiC14
_chemical_formula_sum   'Cu4 Ni4 C56'
_cell_volume   1133.07527660
_cell_formula_units_Z   4
loop_
 _symmetry_equiv_pos_site_id
 _symmetry_equiv_pos_as_xyz
  1  'x, y, z'
loop_
 _atom_site_type_symbol
 _atom_site_label
 _atom_site_symmetry_multiplicity
 _atom_site_fract_x
 _atom_site_fract_y
 _atom_site_fract_z
 _atom_site_occupancy
  Ni  Ni0  1  0.50000000  0.00000000  0.00000000  1
  Ni  Ni1  1  0.00000000  0.50000000  0.00000000  1
  Ni  Ni2  1  0.00000000  0.50000000  0.50000000  1
  Ni  Ni3  1  0.50000000  0.00000000  0.50000000  1
  Cu  Cu4  1  0.50000000  0.00000000  0.25000000  1
  Cu  Cu5  1  0.00000000  0.50000000  0.25000000  1
  Cu  Cu6  1  0.00000000  0.50000000  0.75000000  1
  Cu  Cu7  1  0.50000000  0.00000000  0.75000000  1
  C  C8  1  0.30551000  0.71699700  0.12927700  1
  C  C9  1  0.19449000  0.21699700  0.12927700  1
  C  C10  1  0.80551000  0.78300300  0.12927700  1
  C  C11  1  0.69449000  0.28300300  0.12927700  1
  C  C12  1  0.71699700  0.30551000  0.62927700  1
  C  C13  1  0.78300300  0.80551000  0.62927700  1
  C  C14  1  0.21699700  0.19449000  0.62927700  1
  C  C15  1  0.28300300  0.69449000  0.62927700  1
  C  C16  1  0.19449000  0.78300300  0.37072300  1
  C  C17  1  0.30551000  0.28300300  0.37072300  1
  C  C18  1  0.69449000  0.71699700  0.37072300  1
  C  C19  1  0.80551000  0.21699700  0.37072300  1
  C  C20  1  0.78300300  0.19449000  0.87072300  1
  C  C21  1  0.71699700  0.69449000  0.87072300  1
  C  C22  1  0.28300300  0.30551000  0.87072300  1
  C  C23  1  0.21699700  0.80551000  0.87072300  1
  C  C24  1  0.34308100  0.92046200  0.12266800  1
  C  C25  1  0.15691900  0.42046200  0.12266800  1
  C  C26  1  0.84308100  0.57953800  0.12266800  1
  C  C27  1  0.65691900  0.07953800  0.12266800  1
  C  C28  1  0.92046200  0.34308100  0.62266800  1
  C  C29  1  0.57953800  0.84308100  0.62266800  1
  C  C30  1  0.42046200  0.15691900  0.62266800  1
  C  C31  1  0.07953800  0.65691900  0.62266800  1
  C  C32  1  0.15691900  0.57953800  0.37733200  1
  C  C33  1  0.34308100  0.07953800  0.37733200  1
  C  C34  1  0.65691900  0.92046200  0.37733200  1
  C  C35  1  0.84308100  0.42046200  0.37733200  1
  C  C36  1  0.57953800  0.15691900  0.87733200  1
  C  C37  1  0.92046200  0.65691900  0.87733200  1
  C  C38  1  0.07953800  0.34308100  0.87733200  1
  C  C39  1  0.42046200  0.84308100  0.87733200  1
  C  C40  1  0.12402100  0.72030200  0.19722200  1
  C  C41  1  0.37597900  0.22030200  0.19722200  1
  C  C42  1  0.62402100  0.77969800  0.19722200  1
  C  C43  1  0.87597900  0.27969800  0.19722200  1
  C  C44  1  0.72030200  0.12402100  0.69722200  1
  C  C45  1  0.77969800  0.62402100  0.69722200  1
  C  C46  1  0.22030200  0.37597900  0.69722200  1
  C  C47  1  0.27969800  0.87597900  0.69722200  1
  C  C48  1  0.37597900  0.77969800  0.30277800  1
  C  C49  1  0.12402100  0.27969800  0.30277800  1
  C  C50  1  0.87597900  0.72030200  0.30277800  1
  C  C51  1  0.62402100  0.22030200  0.30277800  1
  C  C52  1  0.77969800  0.37597900  0.80277800  1
  C  C53  1  0.72030200  0.87597900  0.80277800  1
  C  C54  1  0.27969800  0.12402100  0.80277800  1
  C  C55  1  0.22030200  0.62402100  0.80277800  1
  C  C56  1  0.20345600  0.70345600  0.00000000  1
  C  C57  1  0.29654400  0.20345600  0.00000000  1
  C  C58  1  0.70345600  0.79654400  0.00000000  1
  C  C59  1  0.79654400  0.29654400  0.00000000  1
  C  C60  1  0.70345600  0.20345600  0.50000000  1
  C  C61  1  0.79654400  0.70345600  0.50000000  1
  C  C62  1  0.20345600  0.29654400  0.50000000  1
  C  C63  1  0.29654400  0.79654400  0.50000000  1
