# generated using pymatgen
data_Cu2Ni3C20
_symmetry_space_group_name_H-M   'P 1'
_cell_length_a   5.08063600
_cell_length_b   10.82573000
_cell_length_c   18.69309700
_cell_angle_alpha   90.00000000
_cell_angle_beta   90.00000000
_cell_angle_gamma   90.00000000
_symmetry_Int_Tables_number   1
_chemical_formula_structural   Cu2Ni3C20
_chemical_formula_sum   'Cu8 Ni12 C80'
_cell_volume   1028.15012365
_cell_formula_units_Z   4
loop_
 _symmetry_equiv_pos_site_id
 _symmetry_equiv_pos_as_xyz
  1  'x, y, z'
loop_
 _atom_site_type_symbol
 _atom_site_label
 _atom_site_symmetry_multiplicity
 _atom_site_fract_x
 _atom_site_fract_y
 _atom_site_fract_z
 _atom_site_occupancy
  Ni  Ni0  1  0.28375300  0.64437600  0.99791200  1
  Ni  Ni1  1  0.21624700  0.14437600  0.50208800  1
  Ni  Ni2  1  0.71624700  0.35562400  0.49791200  1
  Ni  Ni3  1  0.78375300  0.85562400  0.00208800  1
  Ni  Ni4  1  0.71624700  0.35562400  0.00208800  1
  Ni  Ni5  1  0.78375300  0.85562400  0.49791200  1
  Ni  Ni6  1  0.28375300  0.64437600  0.50208800  1
  Ni  Ni7  1  0.21624700  0.14437600  0.99791200  1
  Ni  Ni8  1  0.91933500  0.73376500  0.25000000  1
  Ni  Ni9  1  0.58066500  0.23376500  0.25000000  1
  Ni  Ni10  1  0.08066500  0.26623500  0.75000000  1
  Ni  Ni11  1  0.41933500  0.76623500  0.75000000  1
  Cu  Cu12  1  0.76997300  0.60298200  0.09490700  1
  Cu  Cu13  1  0.73002700  0.10298200  0.40509300  1
  Cu  Cu14  1  0.23002700  0.39701800  0.59490700  1
  Cu  Cu15  1  0.26997300  0.89701800  0.90509300  1
  Cu  Cu16  1  0.23002700  0.39701800  0.90509300  1
  Cu  Cu17  1  0.26997300  0.89701800  0.59490700  1
  Cu  Cu18  1  0.76997300  0.60298200  0.40509300  1
  Cu  Cu19  1  0.73002700  0.10298200  0.09490700  1
  C  C20  1  0.37326800  0.61050500  0.29061700  1
  C  C21  1  0.12673200  0.11050500  0.20938300  1
  C  C22  1  0.62673200  0.38949500  0.79061700  1
  C  C23  1  0.87326800  0.88949500  0.70938300  1
  C  C24  1  0.62673200  0.38949500  0.70938300  1
  C  C25  1  0.87326800  0.88949500  0.79061700  1
  C  C26  1  0.37326800  0.61050500  0.20938300  1
  C  C27  1  0.12673200  0.11050500  0.29061700  1
  C  C28  1  0.46283100  0.86983600  0.25000000  1
  C  C29  1  0.03716900  0.36983600  0.25000000  1
  C  C30  1  0.53716900  0.13016400  0.75000000  1
  C  C31  1  0.96283100  0.63016400  0.75000000  1
  C  C32  1  0.68429500  0.97054600  0.25000000  1
  C  C33  1  0.81570500  0.47054600  0.25000000  1
  C  C34  1  0.31570500  0.02945400  0.75000000  1
  C  C35  1  0.18429500  0.52945400  0.75000000  1
  C  C36  1  0.04524600  0.88955300  0.14183500  1
  C  C37  1  0.45475400  0.38955300  0.35816500  1
  C  C38  1  0.95475400  0.11044700  0.64183500  1
  C  C39  1  0.54524600  0.61044700  0.85816500  1
  C  C40  1  0.95475400  0.11044700  0.85816500  1
  C  C41  1  0.54524600  0.61044700  0.64183500  1
  C  C42  1  0.04524600  0.88955300  0.35816500  1
  C  C43  1  0.45475400  0.38955300  0.14183500  1
  C  C44  1  0.17306400  0.75820400  0.13441800  1
  C  C45  1  0.32693600  0.25820400  0.36558200  1
  C  C46  1  0.82693600  0.24179600  0.63441800  1
  C  C47  1  0.67306400  0.74179600  0.86558200  1
  C  C48  1  0.82693600  0.24179600  0.86558200  1
  C  C49  1  0.67306400  0.74179600  0.63441800  1
  C  C50  1  0.17306400  0.75820400  0.36558200  1
  C  C51  1  0.32693600  0.25820400  0.13441800  1
  C  C52  1  0.63182100  0.69626500  0.04043700  1
  C  C53  1  0.86817900  0.19626500  0.45956300  1
  C  C54  1  0.36817900  0.30373500  0.54043700  1
  C  C55  1  0.13182100  0.80373500  0.95956300  1
  C  C56  1  0.36817900  0.30373500  0.95956300  1
  C  C57  1  0.13182100  0.80373500  0.54043700  1
  C  C58  1  0.63182100  0.69626500  0.45956300  1
  C  C59  1  0.86817900  0.19626500  0.04043700  1
  C  C60  1  0.34423900  0.52691500  0.92206000  1
  C  C61  1  0.15576100  0.02691500  0.57794000  1
  C  C62  1  0.65576100  0.47308500  0.42206000  1
  C  C63  1  0.84423900  0.97308500  0.07794000  1
  C  C64  1  0.65576100  0.47308500  0.07794000  1
  C  C65  1  0.84423900  0.97308500  0.42206000  1
  C  C66  1  0.34423900  0.52691500  0.57794000  1
  C  C67  1  0.15576100  0.02691500  0.92206000  1
  C  C68  1  0.07066200  0.61251000  0.08208800  1
  C  C69  1  0.42933800  0.11251000  0.41791200  1
  C  C70  1  0.92933800  0.38749000  0.58208800  1
  C  C71  1  0.57066200  0.88749000  0.91791200  1
  C  C72  1  0.92933800  0.38749000  0.91791200  1
  C  C73  1  0.57066200  0.88749000  0.58208800  1
  C  C74  1  0.07066200  0.61251000  0.41791200  1
  C  C75  1  0.42933800  0.11251000  0.08208800  1
  C  C76  1  0.70372700  0.63543500  0.17249200  1
  C  C77  1  0.79627300  0.13543500  0.32750800  1
  C  C78  1  0.29627300  0.36456500  0.67249200  1
  C  C79  1  0.20372700  0.86456500  0.82750800  1
  C  C80  1  0.29627300  0.36456500  0.82750800  1
  C  C81  1  0.20372700  0.86456500  0.67249200  1
  C  C82  1  0.70372700  0.63543500  0.32750800  1
  C  C83  1  0.79627300  0.13543500  0.17249200  1
  C  C84  1  0.24836700  0.60309600  0.25000000  1
  C  C85  1  0.25163300  0.10309600  0.25000000  1
  C  C86  1  0.75163300  0.39690400  0.75000000  1
  C  C87  1  0.74836700  0.89690400  0.75000000  1
  C  C88  1  0.65324000  0.88148000  0.25000000  1
  C  C89  1  0.84676000  0.38148000  0.25000000  1
  C  C90  1  0.34676000  0.11852000  0.75000000  1
  C  C91  1  0.15324000  0.61852000  0.75000000  1
  C  C92  1  0.14797200  0.82667400  0.16859000  1
  C  C93  1  0.35202800  0.32667400  0.33141000  1
  C  C94  1  0.85202800  0.17332600  0.66859000  1
  C  C95  1  0.64797200  0.67332600  0.83141000  1
  C  C96  1  0.85202800  0.17332600  0.83141000  1
  C  C97  1  0.64797200  0.67332600  0.66859000  1
  C  C98  1  0.14797200  0.82667400  0.33141000  1
  C  C99  1  0.35202800  0.32667400  0.16859000  1
