# generated using pymatgen
data_Cu4NiC7
_symmetry_space_group_name_H-M   'P 1'
_cell_length_a   10.07561812
_cell_length_b   10.07561812
_cell_length_c   10.07561812
_cell_angle_alpha   90.00000000
_cell_angle_beta   90.00000000
_cell_angle_gamma   90.00000000
_symmetry_Int_Tables_number   1
_chemical_formula_structural   Cu4NiC7
_chemical_formula_sum   'Cu32 Ni8 C56'
_cell_volume   1022.85741139
_cell_formula_units_Z   8
loop_
 _symmetry_equiv_pos_site_id
 _symmetry_equiv_pos_as_xyz
  1  'x, y, z'
loop_
 _atom_site_type_symbol
 _atom_site_label
 _atom_site_symmetry_multiplicity
 _atom_site_fract_x
 _atom_site_fract_y
 _atom_site_fract_z
 _atom_site_occupancy
  C  C0  1  -0.00000000  0.00000000  -0.00000000  1
  C  C1  1  0.50000000  0.00000000  0.50000000  1
  C  C2  1  -0.00000000  0.50000000  0.50000000  1
  C  C3  1  0.50000000  0.50000000  -0.00000000  1
  C  C4  1  0.50000000  0.50000000  0.50000000  1
  C  C5  1  -0.00000000  0.50000000  -0.00000000  1
  C  C6  1  0.50000000  0.00000000  -0.00000000  1
  C  C7  1  -0.00000000  0.00000000  0.50000000  1
  C  C8  1  0.01893613  0.95074883  0.27065189  1
  C  C9  1  0.98106387  0.04925117  0.72934811  1
  C  C10  1  0.48106387  0.04925117  0.77065189  1
  C  C11  1  0.98106387  0.45074883  0.22934811  1
  C  C12  1  0.27065189  0.01893613  0.95074883  1
  C  C13  1  0.51893613  0.95074883  0.22934811  1
  C  C14  1  0.01893613  0.54925117  0.77065189  1
  C  C15  1  0.72934811  0.98106387  0.04925117  1
  C  C16  1  0.51893613  0.54925117  0.72934811  1
  C  C17  1  0.77065189  0.48106387  0.04925117  1
  C  C18  1  0.48106387  0.45074883  0.27065189  1
  C  C19  1  0.22934811  0.51893613  0.95074883  1
  C  C20  1  0.22934811  0.98106387  0.45074883  1
  C  C21  1  0.77065189  0.01893613  0.54925117  1
  C  C22  1  0.72934811  0.51893613  0.54925117  1
  C  C23  1  0.27065189  0.48106387  0.45074883  1
  C  C24  1  0.95074883  0.27065189  0.01893613  1
  C  C25  1  0.04925117  0.72934811  0.98106387  1
  C  C26  1  0.45074883  0.22934811  0.98106387  1
  C  C27  1  0.54925117  0.77065189  0.01893613  1
  C  C28  1  0.54925117  0.72934811  0.51893613  1
  C  C29  1  0.45074883  0.27065189  0.48106387  1
  C  C30  1  0.04925117  0.77065189  0.48106387  1
  C  C31  1  0.95074883  0.22934811  0.51893613  1
  C  C32  1  0.28095216  0.48707359  0.37606553  1
  C  C33  1  0.71904784  0.51292641  0.62393447  1
  C  C34  1  0.21904784  0.51292641  0.87606553  1
  C  C35  1  0.71904784  0.98707359  0.12393447  1
  C  C36  1  0.37606553  0.28095216  0.48707359  1
  C  C37  1  0.78095216  0.48707359  0.12393447  1
  C  C38  1  0.28095216  0.01292641  0.87606553  1
  C  C39  1  0.62393447  0.71904784  0.51292641  1
  C  C40  1  0.78095216  0.01292641  0.62393447  1
  C  C41  1  0.87606553  0.21904784  0.51292641  1
  C  C42  1  0.21904784  0.98707359  0.37606553  1
  C  C43  1  0.12393447  0.78095216  0.48707359  1
  C  C44  1  0.12393447  0.71904784  0.98707359  1
  C  C45  1  0.87606553  0.28095216  0.01292641  1
  C  C46  1  0.62393447  0.78095216  0.01292641  1
  C  C47  1  0.37606553  0.21904784  0.98707359  1
  C  C48  1  0.48707359  0.37606553  0.28095216  1
  C  C49  1  0.51292641  0.62393447  0.71904784  1
  C  C50  1  0.98707359  0.12393447  0.71904784  1
  C  C51  1  0.01292641  0.87606553  0.28095216  1
  C  C52  1  0.01292641  0.62393447  0.78095216  1
  C  C53  1  0.98707359  0.37606553  0.21904784  1
  C  C54  1  0.51292641  0.87606553  0.21904784  1
  C  C55  1  0.48707359  0.12393447  0.78095216  1
  Ni  Ni56  1  0.18611352  0.18611352  0.18611352  1
  Ni  Ni57  1  0.81388648  0.81388648  0.81388648  1
  Ni  Ni58  1  0.31388648  0.81388648  0.68611352  1
  Ni  Ni59  1  0.81388648  0.68611352  0.31388648  1
  Ni  Ni60  1  0.68611352  0.18611352  0.31388648  1
  Ni  Ni61  1  0.18611352  0.31388648  0.68611352  1
  Ni  Ni62  1  0.68611352  0.31388648  0.81388648  1
  Ni  Ni63  1  0.31388648  0.68611352  0.18611352  1
  Cu  Cu64  1  0.26971492  0.26971492  0.26971492  1
  Cu  Cu65  1  0.73028508  0.73028508  0.73028508  1
  Cu  Cu66  1  0.23028508  0.73028508  0.76971492  1
  Cu  Cu67  1  0.73028508  0.76971492  0.23028508  1
  Cu  Cu68  1  0.76971492  0.26971492  0.23028508  1
  Cu  Cu69  1  0.26971492  0.23028508  0.76971492  1
  Cu  Cu70  1  0.76971492  0.23028508  0.73028508  1
  Cu  Cu71  1  0.23028508  0.76971492  0.26971492  1
  Cu  Cu72  1  0.05962621  0.14561746  0.25472041  1
  Cu  Cu73  1  0.94037379  0.85438254  0.74527959  1
  Cu  Cu74  1  0.44037379  0.85438254  0.75472041  1
  Cu  Cu75  1  0.94037379  0.64561746  0.24527959  1
  Cu  Cu76  1  0.25472041  0.05962621  0.14561746  1
  Cu  Cu77  1  0.55962621  0.14561746  0.24527959  1
  Cu  Cu78  1  0.05962621  0.35438254  0.75472041  1
  Cu  Cu79  1  0.74527959  0.94037379  0.85438254  1
  Cu  Cu80  1  0.55962621  0.35438254  0.74527959  1
  Cu  Cu81  1  0.75472041  0.44037379  0.85438254  1
  Cu  Cu82  1  0.44037379  0.64561746  0.25472041  1
  Cu  Cu83  1  0.24527959  0.55962621  0.14561746  1
  Cu  Cu84  1  0.24527959  0.94037379  0.64561746  1
  Cu  Cu85  1  0.75472041  0.05962621  0.35438254  1
  Cu  Cu86  1  0.74527959  0.55962621  0.35438254  1
  Cu  Cu87  1  0.25472041  0.44037379  0.64561746  1
  Cu  Cu88  1  0.14561746  0.25472041  0.05962621  1
  Cu  Cu89  1  0.85438254  0.74527959  0.94037379  1
  Cu  Cu90  1  0.64561746  0.24527959  0.94037379  1
  Cu  Cu91  1  0.35438254  0.75472041  0.05962621  1
  Cu  Cu92  1  0.35438254  0.74527959  0.55962621  1
  Cu  Cu93  1  0.64561746  0.25472041  0.44037379  1
  Cu  Cu94  1  0.85438254  0.75472041  0.44037379  1
  Cu  Cu95  1  0.14561746  0.24527959  0.55962621  1
