# generated using pymatgen
data_CuNi4C3
_symmetry_space_group_name_H-M   'P 1'
_cell_length_a   9.58473700
_cell_length_b   8.13649700
_cell_length_c   12.48753680
_cell_angle_alpha   74.00566385
_cell_angle_beta   90.00000000
_cell_angle_gamma   90.00000000
_symmetry_Int_Tables_number   1
_chemical_formula_structural   CuNi4C3
_chemical_formula_sum   'Cu12 Ni48 C36'
_cell_volume   936.15636708
_cell_formula_units_Z   12
loop_
 _symmetry_equiv_pos_site_id
 _symmetry_equiv_pos_as_xyz
  1  'x, y, z'
loop_
 _atom_site_type_symbol
 _atom_site_label
 _atom_site_symmetry_multiplicity
 _atom_site_fract_x
 _atom_site_fract_y
 _atom_site_fract_z
 _atom_site_occupancy
  C  C0  1  0.70353100  0.01047500  0.86021400  1
  C  C1  1  0.20353100  0.98952500  0.63978600  1
  C  C2  1  0.29646900  0.98952500  0.13978600  1
  C  C3  1  0.79646900  0.01047500  0.36021400  1
  Ni  Ni4  1  0.55611700  0.28625200  0.81139600  1
  Ni  Ni5  1  0.05611700  0.71374800  0.68860400  1
  Ni  Ni6  1  0.44388300  0.71374800  0.18860400  1
  Ni  Ni7  1  0.94388300  0.28625200  0.31139600  1
  Ni  Ni8  1  0.96473300  0.06072300  0.80008900  1
  Ni  Ni9  1  0.46473300  0.93927700  0.69991100  1
  Ni  Ni10  1  0.03526700  0.93927700  0.19991100  1
  Ni  Ni11  1  0.53526700  0.06072300  0.30008900  1
  Ni  Ni12  1  0.68127900  0.73002700  0.01779600  1
  Ni  Ni13  1  0.18127900  0.26997300  0.48220400  1
  Ni  Ni14  1  0.31872100  0.26997300  0.98220400  1
  Ni  Ni15  1  0.81872100  0.73002700  0.51779600  1
  Ni  Ni16  1  0.65243700  0.50272000  0.65958400  1
  Ni  Ni17  1  0.15243700  0.49728000  0.84041600  1
  Ni  Ni18  1  0.34756300  0.49728000  0.34041600  1
  Ni  Ni19  1  0.84756300  0.50272000  0.15958400  1
  Ni  Ni20  1  0.61772000  0.30940100  0.62139100  1
  Ni  Ni21  1  0.11772000  0.69059900  0.87860900  1
  Ni  Ni22  1  0.38228000  0.69059900  0.37860900  1
  Ni  Ni23  1  0.88228000  0.30940100  0.12139100  1
  Ni  Ni24  1  0.78985000  0.35530000  0.65922400  1
  Ni  Ni25  1  0.28985000  0.64470000  0.84077600  1
  Ni  Ni26  1  0.21015000  0.64470000  0.34077600  1
  Ni  Ni27  1  0.71015000  0.35530000  0.15922400  1
  Ni  Ni28  1  0.69704300  0.48297700  0.95473200  1
  Ni  Ni29  1  0.19704300  0.51702300  0.54526800  1
  Ni  Ni30  1  0.30295700  0.51702300  0.04526800  1
  Ni  Ni31  1  0.80295700  0.48297700  0.45473200  1
  Ni  Ni32  1  0.73112500  0.62144100  0.81945500  1
  Ni  Ni33  1  0.23112500  0.37855900  0.68054500  1
  Ni  Ni34  1  0.26887500  0.37855900  0.18054500  1
  Ni  Ni35  1  0.76887500  0.62144100  0.31945500  1
  Ni  Ni36  1  0.56141300  0.61884000  0.87985200  1
  Ni  Ni37  1  0.06141300  0.38116000  0.62014800  1
  Ni  Ni38  1  0.43858700  0.38116000  0.12014800  1
  Ni  Ni39  1  0.93858700  0.61884000  0.37985200  1
  Ni  Ni40  1  0.08078900  0.21807100  0.89752000  1
  Ni  Ni41  1  0.58078900  0.78192900  0.60248000  1
  Ni  Ni42  1  0.91921100  0.78192900  0.10248000  1
  Ni  Ni43  1  0.41921100  0.21807100  0.39752000  1
  Ni  Ni44  1  0.93309600  0.19951600  0.98673700  1
  Ni  Ni45  1  0.43309600  0.80048400  0.51326300  1
  Ni  Ni46  1  0.06690400  0.80048400  0.01326300  1
  Ni  Ni47  1  0.56690400  0.19951600  0.48673700  1
  Ni  Ni48  1  0.92404900  0.33734700  0.84784100  1
  Ni  Ni49  1  0.42404900  0.66265300  0.65215900  1
  Ni  Ni50  1  0.07595100  0.66265300  0.15215900  1
  Ni  Ni51  1  0.57595100  0.33734700  0.34784100  1
  Cu  Cu52  1  0.67873100  0.36655200  0.67665200  1
  Cu  Cu53  1  0.17873100  0.63344800  0.82334800  1
  Cu  Cu54  1  0.32126900  0.63344800  0.32334800  1
  Cu  Cu55  1  0.82126900  0.36655200  0.17665200  1
  Cu  Cu56  1  0.67425300  0.60893500  0.89731400  1
  Cu  Cu57  1  0.17425300  0.39106500  0.60268600  1
  Cu  Cu58  1  0.32574700  0.39106500  0.10268600  1
  Cu  Cu59  1  0.82574700  0.60893500  0.39731400  1
  Cu  Cu60  1  0.96655000  0.21624000  0.90057900  1
  Cu  Cu61  1  0.46655000  0.78376000  0.59942100  1
  Cu  Cu62  1  0.03345000  0.78376000  0.09942100  1
  Cu  Cu63  1  0.53345000  0.21624000  0.40057900  1
  C  C64  1  0.35914600  0.04995200  0.86737300  1
  C  C65  1  0.85914600  0.95004800  0.63262700  1
  C  C66  1  0.64085400  0.95004800  0.13262700  1
  C  C67  1  0.14085400  0.04995200  0.36737300  1
  C  C68  1  0.38390500  0.23511600  0.85893800  1
  C  C69  1  0.88390500  0.76488400  0.64106200  1
  C  C70  1  0.61609500  0.76488400  0.14106200  1
  C  C71  1  0.11609500  0.23511600  0.35893800  1
  C  C72  1  0.24354600  0.03232000  0.79226700  1
  C  C73  1  0.74354600  0.96768000  0.70773300  1
  C  C74  1  0.75645400  0.96768000  0.20773300  1
  C  C75  1  0.25645400  0.03232000  0.29226700  1
  C  C76  1  0.32304600  0.95634500  0.98326700  1
  C  C77  1  0.82304600  0.04365500  0.51673300  1
  C  C78  1  0.67695400  0.04365500  0.01673300  1
  C  C79  1  0.17695400  0.95634500  0.48326700  1
  C  C80  1  0.48917100  0.97521300  0.83233800  1
  C  C81  1  0.98917100  0.02478700  0.66766200  1
  C  C82  1  0.51082900  0.02478700  0.16766200  1
  C  C83  1  0.01082900  0.97521300  0.33233800  1
  C  C84  1  0.65610600  0.27824100  0.79209400  1
  C  C85  1  0.15610600  0.72175900  0.70790600  1
  C  C86  1  0.34389400  0.72175900  0.20790600  1
  C  C87  1  0.84389400  0.27824100  0.29209400  1
  C  C88  1  0.91399200  0.07275400  0.86661100  1
  C  C89  1  0.41399200  0.92724600  0.63338900  1
  C  C90  1  0.08600800  0.92724600  0.13338900  1
  C  C91  1  0.58600800  0.07275400  0.36661100  1
  C  C92  1  0.72124600  0.74463800  0.94220900  1
  C  C93  1  0.22124600  0.25536200  0.55779100  1
  C  C94  1  0.27875400  0.25536200  0.05779100  1
  C  C95  1  0.77875400  0.74463800  0.44220900  1
