# generated using pymatgen
data_Cu2NiC9
_symmetry_space_group_name_H-M   'P 1'
_cell_length_a   5.80209300
_cell_length_b   4.74141800
_cell_length_c   5.03271067
_cell_angle_alpha   88.51745870
_cell_angle_beta   90.00000000
_cell_angle_gamma   90.00000000
_symmetry_Int_Tables_number   1
_chemical_formula_structural   Cu2NiC9
_chemical_formula_sum   'Cu2 Ni1 C9'
_cell_volume   138.40427080
_cell_formula_units_Z   1
loop_
 _symmetry_equiv_pos_site_id
 _symmetry_equiv_pos_as_xyz
  1  'x, y, z'
loop_
 _atom_site_type_symbol
 _atom_site_label
 _atom_site_symmetry_multiplicity
 _atom_site_fract_x
 _atom_site_fract_y
 _atom_site_fract_z
 _atom_site_occupancy
  Ni  Ni0  1  0.16797500  0.50000000  0.50000000  1
  Cu  Cu1  1  0.81179400  0.50000000  0.00000000  1
  Cu  Cu2  1  0.31650500  0.00000000  0.00000000  1
  C  C3  1  0.69104700  0.00000000  0.50000000  1
  C  C4  1  0.90002600  0.29103200  0.68330800  1
  C  C5  1  0.61210100  0.22556100  0.15740000  1
  C  C6  1  0.61210100  0.77443900  0.84260000  1
  C  C7  1  0.90002600  0.70896800  0.31669200  1
  C  C8  1  0.12222700  0.73529900  0.82068800  1
  C  C9  1  0.37198500  0.75874400  0.32305700  1
  C  C10  1  0.37198500  0.24125600  0.67694300  1
  C  C11  1  0.12222700  0.26470100  0.17931200  1
