# generated using pymatgen
data_Cu5Ni3C17
_symmetry_space_group_name_H-M   'P 1'
_cell_length_a   5.82570651
_cell_length_b   5.74615884
_cell_length_c   9.13095499
_cell_angle_alpha   89.92844809
_cell_angle_beta   91.08307656
_cell_angle_gamma   119.49268480
_symmetry_Int_Tables_number   1
_chemical_formula_structural   Cu5Ni3C17
_chemical_formula_sum   'Cu5 Ni3 C17'
_cell_volume   265.99554379
_cell_formula_units_Z   1
loop_
 _symmetry_equiv_pos_site_id
 _symmetry_equiv_pos_as_xyz
  1  'x, y, z'
loop_
 _atom_site_type_symbol
 _atom_site_label
 _atom_site_symmetry_multiplicity
 _atom_site_fract_x
 _atom_site_fract_y
 _atom_site_fract_z
 _atom_site_occupancy
  C  C0  1  0.03616100  0.02339800  0.99057200  1
  Ni  Ni1  1  0.67122700  0.83478200  0.22242000  1
  Ni  Ni2  1  0.82541800  0.65571100  0.69234000  1
  Ni  Ni3  1  0.82001600  0.16461200  0.69410600  1
  Cu  Cu4  1  0.17811900  0.83303700  0.22912800  1
  Cu  Cu5  1  0.33198500  0.66927300  0.48792900  1
  Cu  Cu6  1  0.17889200  0.34673800  0.23101800  1
  Cu  Cu7  1  0.33674000  0.16922400  0.69739700  1
  Cu  Cu8  1  0.66685000  0.33268900  0.97985000  1
  C  C9  1  0.18181300  0.83449500  0.59996600  1
  C  C10  1  0.04278400  0.52254000  0.34866700  1
  C  C11  1  0.30823200  0.65378800  0.12131100  1
  C  C12  1  0.02245400  0.01151300  0.32014800  1
  C  C13  1  0.00447200  0.00477900  0.78899600  1
  C  C14  1  0.18310400  0.35131700  0.60043100  1
  C  C15  1  0.46093700  0.95183300  0.35324400  1
  C  C16  1  0.46257000  0.51198400  0.35511500  1
  C  C17  1  0.34884600  0.17645000  0.11438600  1
  C  C18  1  0.65027700  0.82878700  0.59299600  1
  C  C19  1  0.50624900  0.45792900  0.84047300  1
  C  C20  1  0.49684200  0.04274200  0.84187900  1
  C  C21  1  0.64450500  0.31543800  0.58924200  1
  C  C22  1  0.84855400  0.67897200  0.09800400  1
  C  C23  1  0.93803700  0.45739500  0.84113700  1
  C  C24  1  0.84449900  0.17077200  0.10058800  1
