# generated using pymatgen
data_Cu12Ni4C197
_symmetry_space_group_name_H-M   'P 1'
_cell_length_a   17.15588898
_cell_length_b   17.15588464
_cell_length_c   17.15588613
_cell_angle_alpha   80.11428983
_cell_angle_beta   80.11421997
_cell_angle_gamma   80.11427277
_symmetry_Int_Tables_number   1
_chemical_formula_structural   Cu12Ni4C197
_chemical_formula_sum   'Cu24 Ni8 C394'
_cell_volume   4847.67023173
_cell_formula_units_Z   2
loop_
 _symmetry_equiv_pos_site_id
 _symmetry_equiv_pos_as_xyz
  1  'x, y, z'
loop_
 _atom_site_type_symbol
 _atom_site_label
 _atom_site_symmetry_multiplicity
 _atom_site_fract_x
 _atom_site_fract_y
 _atom_site_fract_z
 _atom_site_occupancy
  Ni  Ni0  1  0.29192689  0.12806245  0.26772482  1
  Ni  Ni1  1  0.12807606  0.26772444  0.29191189  1
  Ni  Ni2  1  0.26773730  0.29191329  0.12806350  1
  Ni  Ni3  1  0.70807311  0.87193755  0.73227518  1
  Ni  Ni4  1  0.87192394  0.73227556  0.70808811  1
  Ni  Ni5  1  0.73226270  0.70808671  0.87193650  1
  Ni  Ni6  1  0.30920023  0.30918356  0.30918615  1
  Ni  Ni7  1  0.69079977  0.69081644  0.69081385  1
  Cu  Cu8  1  0.45024244  0.98715783  0.27178752  1
  Cu  Cu9  1  0.98716087  0.27178697  0.45024043  1
  Cu  Cu10  1  0.27178772  0.45024126  0.98715946  1
  Cu  Cu11  1  0.54975756  0.01284217  0.72821248  1
  Cu  Cu12  1  0.01283913  0.72821303  0.54975957  1
  Cu  Cu13  1  0.72821228  0.54975874  0.01284054  1
  Cu  Cu14  1  0.29492789  0.95811811  0.39271100  1
  Cu  Cu15  1  0.95811981  0.39271006  0.29492707  1
  Cu  Cu16  1  0.39271191  0.29492765  0.95811708  1
  Cu  Cu17  1  0.70507211  0.04188189  0.60728900  1
  Cu  Cu18  1  0.04188019  0.60728994  0.70507293  1
  Cu  Cu19  1  0.60728809  0.70507235  0.04188292  1
  Cu  Cu20  1  0.29978717  0.95387308  0.20958705  1
  Cu  Cu21  1  0.95387538  0.20958638  0.29978589  1
  Cu  Cu22  1  0.20958814  0.29978632  0.95387419  1
  Cu  Cu23  1  0.70021283  0.04612692  0.79041295  1
  Cu  Cu24  1  0.04612462  0.79041362  0.70021411  1
  Cu  Cu25  1  0.79041186  0.70021368  0.04612581  1
  Cu  Cu26  1  0.41926405  0.45102165  0.29583899  1
  Cu  Cu27  1  0.45102721  0.29583915  0.41926066  1
  Cu  Cu28  1  0.29584398  0.41925831  0.45102037  1
  Cu  Cu29  1  0.58073595  0.54897835  0.70416101  1
  Cu  Cu30  1  0.54897279  0.70416085  0.58073934  1
  Cu  Cu31  1  0.70415602  0.58074169  0.54897963  1
  C  C32  1  0.47920241  0.96526863  0.12690759  1
  C  C33  1  0.96526883  0.12690777  0.47920240  1
  C  C34  1  0.12690830  0.47920224  0.96526860  1
  C  C35  1  0.52079759  0.03473137  0.87309241  1
  C  C36  1  0.03473117  0.87309223  0.52079760  1
  C  C37  1  0.87309170  0.52079776  0.03473140  1
  C  C38  1  0.48439280  0.06578568  0.13702590  1
  C  C39  1  0.06578610  0.13702468  0.48439342  1
  C  C40  1  0.13702583  0.48439302  0.06578599  1
  C  C41  1  0.51560720  0.93421432  0.86297410  1
  C  C42  1  0.93421390  0.86297532  0.51560658  1
  C  C43  1  0.86297417  0.51560698  0.93421401  1
  C  C44  1  0.56261907  0.98789464  0.16210390  1
  C  C45  1  0.98789469  0.16210403  0.56261909  1
  C  C46  1  0.16210410  0.56261909  0.98789480  1
  C  C47  1  0.43738093  0.01210536  0.83789610  1
  C  C48  1  0.01210531  0.83789597  0.43738091  1
  C  C49  1  0.83789590  0.43738091  0.01210520  1
  C  C50  1  0.47613368  0.04827758  0.38677158  1
  C  C51  1  0.04827762  0.38677121  0.47613325  1
  C  C52  1  0.38677109  0.47613357  0.04827734  1
  C  C53  1  0.52386632  0.95172242  0.61322842  1
  C  C54  1  0.95172238  0.61322879  0.52386675  1
  C  C55  1  0.61322891  0.52386643  0.95172266  1
  C  C56  1  0.56074365  0.03533891  0.31211587  1
  C  C57  1  0.03533949  0.31211554  0.56074370  1
  C  C58  1  0.31211563  0.56074431  0.03533938  1
  C  C59  1  0.43925635  0.96466109  0.68788413  1
  C  C60  1  0.96466051  0.68788446  0.43925630  1
  C  C61  1  0.68788437  0.43925569  0.96466062  1
  C  C62  1  0.48337791  0.11664876  0.29558044  1
  C  C63  1  0.11665008  0.29558009  0.48337726  1
  C  C64  1  0.29558008  0.48337782  0.11664953  1
  C  C65  1  0.51662209  0.88335124  0.70441956  1
  C  C66  1  0.88334992  0.70441991  0.51662274  1
  C  C67  1  0.70441992  0.51662218  0.88335047  1
  C  C68  1  0.47472491  0.86544858  0.37673013  1
  C  C69  1  0.86544959  0.37673010  0.47472434  1
  C  C70  1  0.37672991  0.47472477  0.86544894  1
  C  C71  1  0.52527509  0.13455142  0.62326987  1
  C  C72  1  0.13455041  0.62326990  0.52527566  1
  C  C73  1  0.62327009  0.52527523  0.13455106  1
  C  C74  1  0.48291589  0.83579017  0.28111221  1
  C  C75  1  0.83579207  0.28111219  0.48291484  1
  C  C76  1  0.28111222  0.48291549  0.83579079  1
  C  C77  1  0.51708411  0.16420983  0.71888779  1
  C  C78  1  0.16420793  0.71888781  0.51708516  1
  C  C79  1  0.71888778  0.51708451  0.16420921  1
  C  C80  1  0.55953802  0.88090012  0.30472954  1
  C  C81  1  0.88090244  0.30472921  0.55953612  1
  C  C82  1  0.30472927  0.55953734  0.88090080  1
  C  C83  1  0.44046198  0.11909988  0.69527046  1
  C  C84  1  0.11909756  0.69527079  0.44046388  1
  C  C85  1  0.69527073  0.44046266  0.11909920  1
  C  C86  1  0.34667443  0.04238043  0.47293954  1
  C  C87  1  0.04237978  0.47293960  0.34667432  1
  C  C88  1  0.47293922  0.34667479  0.04238012  1
  C  C89  1  0.65332557  0.95761957  0.52706046  1
  C  C90  1  0.95762022  0.52706040  0.65332568  1
  C  C91  1  0.52706078  0.65332521  0.95761988  1
  C  C92  1  0.31705101  0.95331622  0.53087783  1
  C  C93  1  0.95331525  0.53087776  0.31705101  1
  C  C94  1  0.53087754  0.31705119  0.95331592  1
  C  C95  1  0.68294899  0.04668378  0.46912217  1
  C  C96  1  0.04668475  0.46912224  0.68294899  1
  C  C97  1  0.46912246  0.68294881  0.04668408  1
  C  C98  1  0.41105150  0.94945056  0.46855896  1
  C  C99  1  0.94944989  0.46855894  0.41105128  1
  C  C100  1  0.46855886  0.41105193  0.94945054  1
  C  C101  1  0.58894850  0.05054944  0.53144104  1
  C  C102  1  0.05055011  0.53144106  0.58894872  1
  C  C103  1  0.53144114  0.58894807  0.05054946  1
  C  C104  1  0.17488219  0.05960021  0.42293303  1
  C  C105  1  0.05960065  0.42293305  0.17488162  1
  C  C106  1  0.42293326  0.17488219  0.05959947  1
  C  C107  1  0.82511781  0.94039979  0.57706697  1
  C  C108  1  0.94039935  0.57706695  0.82511838  1
  C  C109  1  0.57706674  0.82511781  0.94040053  1
  C  C110  1  0.14697275  0.97702308  0.38908961  1
  C  C111  1  0.97702385  0.38908990  0.14697150  1
  C  C112  1  0.38908959  0.14697258  0.97702319  1
  C  C113  1  0.85302725  0.02297692  0.61091039  1
  C  C114  1  0.02297615  0.61091010  0.85302850  1
  C  C115  1  0.61091041  0.85302742  0.02297681  1
  C  C116  1  0.17110287  0.96716940  0.48741491  1
  C  C117  1  0.96716962  0.48741493  0.17110208  1
  C  C118  1  0.48741481  0.17110217  0.96716916  1
  C  C119  1  0.82889713  0.03283060  0.51258509  1
  C  C120  1  0.03283038  0.51258507  0.82889792  1
  C  C121  1  0.51258519  0.82889783  0.03283084  1
  C  C122  1  0.26990923  0.82490821  0.36461874  1
  C  C123  1  0.82490857  0.36461840  0.26990894  1
  C  C124  1  0.36461884  0.26990912  0.82490834  1
  C  C125  1  0.73009077  0.17509179  0.63538126  1
  C  C126  1  0.17509143  0.63538160  0.73009106  1
  C  C127  1  0.63538116  0.73009088  0.17509166  1
  C  C128  1  0.36322827  0.81377975  0.39979760  1
  C  C129  1  0.81378108  0.39979729  0.36322808  1
  C  C130  1  0.39979767  0.36322825  0.81377988  1
  C  C131  1  0.63677173  0.18622025  0.60020240  1
  C  C132  1  0.18621892  0.60020271  0.63677192  1
  C  C133  1  0.60020233  0.63677175  0.18622012  1
  C  C134  1  0.27257392  0.82619346  0.46682981  1
  C  C135  1  0.82619486  0.46682913  0.27257384  1
  C  C136  1  0.46683031  0.27257368  0.82619256  1
  C  C137  1  0.72742608  0.17380654  0.53317019  1
  C  C138  1  0.17380514  0.53317087  0.72742616  1
  C  C139  1  0.53316969  0.72742632  0.17380744  1
  C  C140  1  0.37378310  0.01958848  0.08266117  1
  C  C141  1  0.01958964  0.08266173  0.37378187  1
  C  C142  1  0.08266201  0.37378229  0.01958959  1
  C  C143  1  0.62621690  0.98041152  0.91733883  1
  C  C144  1  0.98041036  0.91733827  0.62621813  1
  C  C145  1  0.91733799  0.62621771  0.98041041  1
  C  C146  1  0.29299985  0.97522743  0.06625588  1
  C  C147  1  0.97522897  0.06625487  0.29299837  1
  C  C148  1  0.06625693  0.29299862  0.97522811  1
  C  C149  1  0.70700015  0.02477257  0.93374412  1
  C  C150  1  0.02477103  0.93374513  0.70700163  1
  C  C151  1  0.93374307  0.70700138  0.02477189  1
  C  C152  1  0.27370004  0.06894344  0.10196732  1
  C  C153  1  0.06894496  0.10196743  0.27369908  1
  C  C154  1  0.10196823  0.27369965  0.06894463  1
  C  C155  1  0.72629996  0.93105656  0.89803268  1
  C  C156  1  0.93105504  0.89803257  0.72630092  1
  C  C157  1  0.89803177  0.72630035  0.93105537  1
  C  C158  1  0.15183797  0.99720795  0.24065723  1
  C  C159  1  0.99720803  0.24065698  0.15183660  1
  C  C160  1  0.24065740  0.15183733  0.99720765  1
  C  C161  1  0.84816203  0.00279205  0.75934277  1
  C  C162  1  0.00279197  0.75934302  0.84816340  1
  C  C163  1  0.75934260  0.84816267  0.00279235  1
  C  C164  1  0.17605596  0.91684994  0.18375075  1
  C  C165  1  0.91685011  0.18375057  0.17605469  1
  C  C166  1  0.18375095  0.17605535  0.91684988  1
  C  C167  1  0.82394404  0.08315006  0.81624925  1
  C  C168  1  0.08314989  0.81624943  0.82394531  1
  C  C169  1  0.81624905  0.82394465  0.08315012  1
  C  C170  1  0.17833934  0.89765334  0.28829722  1
  C  C171  1  0.89765343  0.28829677  0.17833897  1
  C  C172  1  0.28829741  0.17833837  0.89765308  1
  C  C173  1  0.82166066  0.10234666  0.71170278  1
  C  C174  1  0.10234657  0.71170323  0.82166103  1
  C  C175  1  0.71170259  0.82166163  0.10234692  1
  C  C176  1  0.41977045  0.84847359  0.17916948  1
  C  C177  1  0.84847442  0.17916936  0.41977035  1
  C  C178  1  0.17916956  0.41977021  0.84847415  1
  C  C179  1  0.58022955  0.15152641  0.82083052  1
  C  C180  1  0.15152558  0.82083064  0.58022965  1
  C  C181  1  0.82083044  0.58022979  0.15152585  1
  C  C182  1  0.34549510  0.80524741  0.25101446  1
  C  C183  1  0.80524865  0.25101438  0.34549468  1
  C  C184  1  0.25101438  0.34549496  0.80524803  1
  C  C185  1  0.65450490  0.19475259  0.74898554  1
  C  C186  1  0.19475135  0.74898562  0.65450532  1
  C  C187  1  0.74898562  0.65450504  0.19475197  1
  C  C188  1  0.33140926  0.83109739  0.14938195  1
  C  C189  1  0.83109930  0.14938206  0.33140851  1
  C  C190  1  0.14938228  0.33140890  0.83109880  1
  C  C191  1  0.66859074  0.16890261  0.85061805  1
  C  C192  1  0.16890070  0.85061794  0.66859149  1
  C  C193  1  0.85061772  0.66859110  0.16890120  1
  C  C194  1  0.29645524  0.52846704  0.24296293  1
  C  C195  1  0.52847153  0.24296264  0.29645302  1
  C  C196  1  0.24296337  0.29645315  0.52846856  1
  C  C197  1  0.70354476  0.47153296  0.75703707  1
  C  C198  1  0.47152847  0.75703736  0.70354698  1
  C  C199  1  0.75703663  0.70354685  0.47153144  1
  C  C200  1  0.32228848  0.57571214  0.31767442  1
  C  C201  1  0.57571765  0.31767527  0.32228585  1
  C  C202  1  0.31767541  0.32228629  0.57571414  1
  C  C203  1  0.67771152  0.42428786  0.68232558  1
  C  C204  1  0.42428235  0.68232473  0.67771415  1
  C  C205  1  0.68232459  0.67771371  0.42428586  1
  C  C206  1  0.37882629  0.58295009  0.22065109  1
  C  C207  1  0.58295450  0.22065053  0.37882559  1
  C  C208  1  0.22065220  0.37882673  0.58294908  1
  C  C209  1  0.62117371  0.41704991  0.77934891  1
  C  C210  1  0.41704550  0.77934947  0.62117441  1
  C  C211  1  0.77934780  0.62117327  0.41705092  1
  C  C212  1  0.42820572  0.39108860  0.17043669  1
  C  C213  1  0.39109075  0.17043924  0.42820503  1
  C  C214  1  0.17044026  0.42820432  0.39108839  1
  C  C215  1  0.57179428  0.60891140  0.82956331  1
  C  C216  1  0.60890925  0.82956076  0.57179497  1
  C  C217  1  0.82955974  0.57179568  0.60891161  1
  C  C218  1  0.49239163  0.46444380  0.15935429  1
  C  C219  1  0.46444503  0.15935458  0.49239053  1
  C  C220  1  0.15935803  0.49238839  0.46444382  1
  C  C221  1  0.50760837  0.53555620  0.84064571  1
  C  C222  1  0.53555497  0.84064542  0.50760947  1
  C  C223  1  0.84064197  0.50761161  0.53555618  1
  C  C224  1  0.51989756  0.36660923  0.21020337  1
  C  C225  1  0.36661123  0.21020708  0.51989541  1
  C  C226  1  0.21020656  0.51989525  0.36660950  1
  C  C227  1  0.48010244  0.63339077  0.78979663  1
  C  C228  1  0.63338877  0.78979292  0.48010459  1
  C  C229  1  0.78979344  0.48010475  0.63339050  1
  C  C230  1  0.48021032  0.51665776  0.38840710  1
  C  C231  1  0.51665798  0.38840731  0.48021109  1
  C  C232  1  0.38840843  0.48020952  0.51665654  1
  C  C233  1  0.51978968  0.48334224  0.61159290  1
  C  C234  1  0.48334202  0.61159269  0.51978891  1
  C  C235  1  0.61159157  0.51979048  0.48334346  1
  C  C236  1  0.55257662  0.44371515  0.34349118  1
  C  C237  1  0.44371384  0.34349161  0.55257592  1
  C  C238  1  0.34349233  0.55257426  0.44371327  1
  C  C239  1  0.44742338  0.55628485  0.65650882  1
  C  C240  1  0.55628616  0.65650839  0.44742408  1
  C  C241  1  0.65650767  0.44742574  0.55628673  1
  C  C242  1  0.52203542  0.53658269  0.28659773  1
  C  C243  1  0.53658277  0.28659868  0.52203536  1
  C  C244  1  0.28659845  0.52203267  0.53658005  1
  C  C245  1  0.47796458  0.46341731  0.71340227  1
  C  C246  1  0.46341723  0.71340132  0.47796464  1
  C  C247  1  0.71340155  0.47796733  0.46341995  1
  C  C248  1  0.07449092  0.71165926  0.08390827  1
  C  C249  1  0.71166089  0.08390717  0.07449119  1
  C  C250  1  0.08390841  0.07449082  0.71165954  1
  C  C251  1  0.92550908  0.28834074  0.91609173  1
  C  C252  1  0.28833911  0.91609283  0.92550881  1
  C  C253  1  0.91609159  0.92550918  0.28834046  1
  C  C254  1  0.02901109  0.62862597  0.13283688  1
  C  C255  1  0.62862888  0.13283752  0.02901166  1
  C  C256  1  0.13283708  0.02901073  0.62862614  1
  C  C257  1  0.97098891  0.37137403  0.86716312  1
  C  C258  1  0.37137112  0.86716248  0.97098834  1
  C  C259  1  0.86716292  0.97098927  0.37137386  1
  C  C260  1  0.18834760  0.64357795  0.13857007  1
  C  C261  1  0.64357779  0.13857054  0.18834751  1
  C  C262  1  0.13857015  0.18834782  0.64357801  1
  C  C263  1  0.81165240  0.35642205  0.86142993  1
  C  C264  1  0.35642221  0.86142946  0.81165249  1
  C  C265  1  0.86142985  0.81165218  0.35642199  1
  C  C266  1  0.13280981  0.58132621  0.21098603  1
  C  C267  1  0.58132507  0.21098716  0.13280954  1
  C  C268  1  0.21098622  0.13280966  0.58132627  1
  C  C269  1  0.86719019  0.41867379  0.78901397  1
  C  C270  1  0.41867493  0.78901284  0.86719046  1
  C  C271  1  0.78901378  0.86719034  0.41867373  1
  C  C272  1  0.14336934  0.66026212  0.30509109  1
  C  C273  1  0.66026223  0.30509176  0.14336943  1
  C  C274  1  0.30509087  0.14336930  0.66026208  1
  C  C275  1  0.85663066  0.33973788  0.69490891  1
  C  C276  1  0.33973777  0.69490824  0.85663057  1
  C  C277  1  0.69490913  0.85663070  0.33973792  1
  C  C278  1  0.18656917  0.73067921  0.23140348  1
  C  C279  1  0.73067841  0.23140347  0.18656922  1
  C  C280  1  0.23140328  0.18656908  0.73067917  1
  C  C281  1  0.81343083  0.26932079  0.76859652  1
  C  C282  1  0.26932159  0.76859653  0.81343078  1
  C  C283  1  0.76859672  0.81343092  0.26932083  1
  C  C284  1  0.06634542  0.81770132  0.23340969  1
  C  C285  1  0.81770481  0.23340777  0.06634651  1
  C  C286  1  0.23340949  0.06634536  0.81770132  1
  C  C287  1  0.93365458  0.18229868  0.76659031  1
  C  C288  1  0.18229519  0.76659223  0.93365349  1
  C  C289  1  0.76659051  0.93365464  0.18229868  1
  C  C290  1  0.02507187  0.75356735  0.31508218  1
  C  C291  1  0.75356843  0.31508066  0.02507303  1
  C  C292  1  0.31508204  0.02507157  0.75356707  1
  C  C293  1  0.97492813  0.24643265  0.68491782  1
  C  C294  1  0.24643157  0.68491934  0.97492697  1
  C  C295  1  0.68491796  0.97492843  0.24643293  1
  C  C296  1  0.95576488  0.69861034  0.23626885  1
  C  C297  1  0.69861017  0.23626983  0.95576432  1
  C  C298  1  0.23626856  0.95576443  0.69861056  1
  C  C299  1  0.04423512  0.30138966  0.76373115  1
  C  C300  1  0.30138983  0.76373017  0.04423568  1
  C  C301  1  0.76373144  0.04423557  0.30138944  1
  C  C302  1  0.97100028  0.78370580  0.16519508  1
  C  C303  1  0.78370504  0.16519556  0.97099984  1
  C  C304  1  0.16519491  0.97099993  0.78370599  1
  C  C305  1  0.02899972  0.21629420  0.83480492  1
  C  C306  1  0.21629496  0.83480444  0.02900016  1
  C  C307  1  0.83480509  0.02900007  0.21629401  1
  C  C308  1  0.33470567  0.00587121  0.28609014  1
  C  C309  1  0.00587775  0.28608911  0.33470198  1
  C  C310  1  0.28609197  0.33470313  0.00587409  1
  C  C311  1  0.66529433  0.99412879  0.71390986  1
  C  C312  1  0.99412225  0.71391089  0.66529802  1
  C  C313  1  0.71390803  0.66529687  0.99412591  1
  C  C314  1  0.49735039  0.00307304  0.16391992  1
  C  C315  1  0.00307346  0.16391969  0.49735051  1
  C  C316  1  0.16392017  0.49735038  0.00307336  1
  C  C317  1  0.50264961  0.99692696  0.83608008  1
  C  C318  1  0.99692654  0.83608031  0.50264949  1
  C  C319  1  0.83607983  0.50264962  0.99692664  1
  C  C320  1  0.49544500  0.05376158  0.32215372  1
  C  C321  1  0.05376278  0.32215338  0.49544492  1
  C  C322  1  0.32215334  0.49544560  0.05376216  1
  C  C323  1  0.50455500  0.94623842  0.67784628  1
  C  C324  1  0.94623722  0.67784662  0.50455508  1
  C  C325  1  0.67784666  0.50455440  0.94623784  1
  C  C326  1  0.49416182  0.88205093  0.31271374  1
  C  C327  1  0.88205310  0.31271387  0.49415964  1
  C  C328  1  0.31271358  0.49416125  0.88205202  1
  C  C329  1  0.50583818  0.11794907  0.68728626  1
  C  C330  1  0.11794690  0.68728613  0.50584036  1
  C  C331  1  0.68728642  0.50583875  0.11794798  1
  C  C332  1  0.34854316  0.97820857  0.47277828  1
  C  C333  1  0.97820813  0.47277815  0.34854296  1
  C  C334  1  0.47277799  0.34854349  0.97820811  1
  C  C335  1  0.65145684  0.02179143  0.52722172  1
  C  C336  1  0.02179187  0.52722185  0.65145704  1
  C  C337  1  0.52722201  0.65145651  0.02179189  1
  C  C338  1  0.18641897  0.99448585  0.42483730  1
  C  C339  1  0.99448630  0.42483752  0.18641789  1
  C  C340  1  0.42483737  0.18641863  0.99448545  1
  C  C341  1  0.81358103  0.00551415  0.57516270  1
  C  C342  1  0.00551370  0.57516248  0.81358211  1
  C  C343  1  0.57516263  0.81358137  0.00551455  1
  C  C344  1  0.30181061  0.84525606  0.40565546  1
  C  C345  1  0.84525730  0.40565447  0.30181042  1
  C  C346  1  0.40565616  0.30181048  0.84525543  1
  C  C347  1  0.69818939  0.15474394  0.59434454  1
  C  C348  1  0.15474270  0.59434553  0.69818958  1
  C  C349  1  0.59434384  0.69818952  0.15474457  1
  C  C350  1  0.31189798  0.01062714  0.10553234  1
  C  C351  1  0.01062912  0.10553207  0.31189654  1
  C  C352  1  0.10553356  0.31189707  0.01062881  1
  C  C353  1  0.68810202  0.98937286  0.89446766  1
  C  C354  1  0.98937088  0.89446793  0.68810346  1
  C  C355  1  0.89446644  0.68810293  0.98937119  1
  C  C356  1  0.19117908  0.94049492  0.23415786  1
  C  C357  1  0.94049498  0.23415729  0.19117809  1
  C  C358  1  0.23415811  0.19117839  0.94049480  1
  C  C359  1  0.80882092  0.05950508  0.76584214  1
  C  C360  1  0.05950502  0.76584271  0.80882191  1
  C  C361  1  0.76584189  0.80882161  0.05950520  1
  C  C362  1  0.35523900  0.84991072  0.19782870  1
  C  C363  1  0.84991258  0.19782902  0.35523875  1
  C  C364  1  0.19782833  0.35524028  0.84991200  1
  C  C365  1  0.64476100  0.15008928  0.80217130  1
  C  C366  1  0.15008742  0.80217098  0.64476125  1
  C  C367  1  0.80217167  0.64475972  0.15008800  1
  C  C368  1  0.36960789  0.36959925  0.36959977  1
  C  C369  1  0.63039211  0.63040075  0.63040023  1
  C  C370  1  0.34648256  0.54278749  0.26728769  1
  C  C371  1  0.54279336  0.26728591  0.34648002  1
  C  C372  1  0.26728843  0.34648062  0.54278827  1
  C  C373  1  0.65351744  0.45721251  0.73271231  1
  C  C374  1  0.45720664  0.73271409  0.65351998  1
  C  C375  1  0.73271157  0.65351938  0.45721173  1
  C  C376  1  0.46942632  0.41389175  0.20017098  1
  C  C377  1  0.41389340  0.20017238  0.46942357  1
  C  C378  1  0.20017531  0.46942286  0.41389112  1
  C  C379  1  0.53057368  0.58610825  0.79982902  1
  C  C380  1  0.58610660  0.79982762  0.53057643  1
  C  C381  1  0.79982469  0.53057714  0.58610888  1
  C  C382  1  0.50074685  0.48946429  0.33380016  1
  C  C383  1  0.48946584  0.33380124  0.50074502  1
  C  C384  1  0.33380178  0.50074389  0.48946217  1
  C  C385  1  0.49925315  0.51053571  0.66619984  1
  C  C386  1  0.51053416  0.66619876  0.49925498  1
  C  C387  1  0.66619822  0.49925611  0.51053783  1
  C  C388  1  0.05845809  0.67710012  0.14333495  1
  C  C389  1  0.67709721  0.14333698  0.05845648  1
  C  C390  1  0.14333497  0.05845802  0.67710023  1
  C  C391  1  0.94154191  0.32289988  0.85666505  1
  C  C392  1  0.32290279  0.85666302  0.94154352  1
  C  C393  1  0.85666503  0.94154198  0.32289977  1
  C  C394  1  0.13405687  0.64406057  0.18314711  1
  C  C395  1  0.64406249  0.18314535  0.13405846  1
  C  C396  1  0.18314711  0.13405668  0.64406068  1
  C  C397  1  0.86594313  0.35593943  0.81685289  1
  C  C398  1  0.35593751  0.81685465  0.86594154  1
  C  C399  1  0.81685289  0.86594332  0.35593932  1
  C  C400  1  0.13543154  0.69730743  0.24714224  1
  C  C401  1  0.69730881  0.24714092  0.13543207  1
  C  C402  1  0.24714194  0.13543140  0.69730763  1
  C  C403  1  0.86456846  0.30269257  0.75285776  1
  C  C404  1  0.30269119  0.75285908  0.86456793  1
  C  C405  1  0.75285806  0.86456860  0.30269237  1
  C  C406  1  0.05535858  0.75541890  0.25305398  1
  C  C407  1  0.75541645  0.25305645  0.05535764  1
  C  C408  1  0.25305391  0.05535842  0.75541876  1
  C  C409  1  0.94464142  0.24458110  0.74694602  1
  C  C410  1  0.24458355  0.74694355  0.94464236  1
  C  C411  1  0.74694609  0.94464158  0.24458124  1
  C  C412  1  0.00264676  0.73117682  0.19925951  1
  C  C413  1  0.73118258  0.19925618  0.00264825  1
  C  C414  1  0.19925933  0.00264654  0.73117691  1
  C  C415  1  0.99735324  0.26882318  0.80074049  1
  C  C416  1  0.26881742  0.80074382  0.99735175  1
  C  C417  1  0.80074067  0.99735346  0.26882309  1
  C  C418  1  0.18700127  0.18698977  0.18698880  1
  C  C419  1  0.81299873  0.81301023  0.81301120  1
  C  C420  1  0.22992264  0.20527275  0.37512716  1
  C  C421  1  0.20528952  0.37512594  0.22990636  1
  C  C422  1  0.37514034  0.22990706  0.20527309  1
  C  C423  1  0.77007736  0.79472725  0.62487284  1
  C  C424  1  0.79471048  0.62487406  0.77009364  1
  C  C425  1  0.62485966  0.77009294  0.79472691  1
