# generated using pymatgen
data_Cu2Ni2C3
_symmetry_space_group_name_H-M   'P 1'
_cell_length_a   5.78181434
_cell_length_b   5.78181388
_cell_length_c   5.78181434
_cell_angle_alpha   60.32677673
_cell_angle_beta   60.32677101
_cell_angle_gamma   60.32677673
_symmetry_Int_Tables_number   1
_chemical_formula_structural   Cu2Ni2C3
_chemical_formula_sum   'Cu2 Ni2 C3'
_cell_volume   137.68178509
_cell_formula_units_Z   1
loop_
 _symmetry_equiv_pos_site_id
 _symmetry_equiv_pos_as_xyz
  1  'x, y, z'
loop_
 _atom_site_type_symbol
 _atom_site_label
 _atom_site_symmetry_multiplicity
 _atom_site_fract_x
 _atom_site_fract_y
 _atom_site_fract_z
 _atom_site_occupancy
  C  C0  1  0.50000000  0.00000000  0.00000000  1
  C  C1  1  0.00000000  0.50000000  0.00000000  1
  C  C2  1  0.00000000  0.00000000  0.50000000  1
  Ni  Ni3  1  0.50000000  0.50000000  0.50000000  1
  Ni  Ni4  1  0.00000000  0.00000000  0.00000000  1
  Cu  Cu5  1  0.71828300  0.71828300  0.71828300  1
  Cu  Cu6  1  0.28171700  0.28171700  0.28171700  1
