# generated using pymatgen
data_Cu2Ni2C5
_symmetry_space_group_name_H-M   'P 1'
_cell_length_a   3.70907100
_cell_length_b   6.74709600
_cell_length_c   12.16288000
_cell_angle_alpha   90.00000000
_cell_angle_beta   90.00000000
_cell_angle_gamma   90.00000000
_symmetry_Int_Tables_number   1
_chemical_formula_structural   Cu2Ni2C5
_chemical_formula_sum   'Cu4 Ni4 C10'
_cell_volume   304.38164391
_cell_formula_units_Z   2
loop_
 _symmetry_equiv_pos_site_id
 _symmetry_equiv_pos_as_xyz
  1  'x, y, z'
loop_
 _atom_site_type_symbol
 _atom_site_label
 _atom_site_symmetry_multiplicity
 _atom_site_fract_x
 _atom_site_fract_y
 _atom_site_fract_z
 _atom_site_occupancy
  Ni  Ni0  1  0.50000000  0.67282100  0.31346100  1
  Ni  Ni1  1  0.50000000  0.32717900  0.68653900  1
  Ni  Ni2  1  0.50000000  0.17282100  0.18653900  1
  Ni  Ni3  1  0.50000000  0.82717900  0.81346100  1
  Cu  Cu4  1  0.00000000  0.76871200  0.10496800  1
  Cu  Cu5  1  0.00000000  0.23128800  0.89503200  1
  Cu  Cu6  1  0.00000000  0.73128800  0.60496800  1
  Cu  Cu7  1  0.00000000  0.26871200  0.39503200  1
  C  C8  1  0.00000000  0.00000000  0.00000000  1
  C  C9  1  0.00000000  0.76054100  0.78117500  1
  C  C10  1  0.00000000  0.26054100  0.71882500  1
  C  C11  1  0.00000000  0.73945900  0.28117500  1
  C  C12  1  0.50000000  0.62058700  0.65488600  1
  C  C13  1  0.50000000  0.37941300  0.34511400  1
  C  C14  1  0.00000000  0.23945900  0.21882500  1
  C  C15  1  0.50000000  0.87941300  0.15488600  1
  C  C16  1  0.00000000  0.50000000  0.50000000  1
  C  C17  1  0.50000000  0.12058700  0.84511400  1
