# generated using pymatgen
data_Cu25Ni2C25
_symmetry_space_group_name_H-M   'P 1'
_cell_length_a   17.71495090
_cell_length_b   17.71495090
_cell_length_c   17.71495090
_cell_angle_alpha   90.00000000
_cell_angle_beta   90.00000000
_cell_angle_gamma   90.00000000
_symmetry_Int_Tables_number   1
_chemical_formula_structural   Cu25Ni2C25
_chemical_formula_sum   'Cu100 Ni8 C100'
_cell_volume   5559.29677514
_cell_formula_units_Z   4
loop_
 _symmetry_equiv_pos_site_id
 _symmetry_equiv_pos_as_xyz
  1  'x, y, z'
loop_
 _atom_site_type_symbol
 _atom_site_label
 _atom_site_symmetry_multiplicity
 _atom_site_fract_x
 _atom_site_fract_y
 _atom_site_fract_z
 _atom_site_occupancy
  C  C0  1  0.14997471  0.51207489  0.15934379  1
  C  C1  1  0.85002529  0.01207489  0.34065621  1
  C  C2  1  0.35002529  0.48792511  0.65934379  1
  C  C3  1  0.64997471  0.98792511  0.84065621  1
  C  C4  1  0.15934379  0.14997471  0.51207489  1
  C  C5  1  0.34065621  0.85002529  0.01207489  1
  C  C6  1  0.65934379  0.35002529  0.48792511  1
  C  C7  1  0.84065621  0.64997471  0.98792511  1
  C  C8  1  0.51207489  0.15934379  0.14997471  1
  C  C9  1  0.01207489  0.34065621  0.85002529  1
  C  C10  1  0.48792511  0.65934379  0.35002529  1
  C  C11  1  0.98792511  0.84065621  0.64997471  1
  C  C12  1  0.85002529  0.48792511  0.84065621  1
  C  C13  1  0.14997471  0.98792511  0.65934379  1
  C  C14  1  0.64997471  0.51207489  0.34065621  1
  C  C15  1  0.35002529  0.01207489  0.15934379  1
  C  C16  1  0.84065621  0.85002529  0.48792511  1
  C  C17  1  0.65934379  0.14997471  0.98792511  1
  C  C18  1  0.34065621  0.64997471  0.51207489  1
  C  C19  1  0.15934379  0.35002529  0.01207489  1
  C  C20  1  0.48792511  0.84065621  0.85002529  1
  C  C21  1  0.98792511  0.65934379  0.14997471  1
  C  C22  1  0.51207489  0.34065621  0.64997471  1
  C  C23  1  0.01207489  0.15934379  0.35002529  1
  C  C24  1  -0.00000000  0.00000000  0.50000000  1
  C  C25  1  -0.00000000  0.50000000  -0.00000000  1
  C  C26  1  0.50000000  0.00000000  -0.00000000  1
  C  C27  1  0.50000000  0.50000000  0.50000000  1
  C  C28  1  0.17627523  0.81538098  0.48495340  1
  C  C29  1  0.82372477  0.31538098  0.01504660  1
  C  C30  1  0.32372477  0.18461902  0.98495340  1
  C  C31  1  0.67627523  0.68461902  0.51504660  1
  C  C32  1  0.48495340  0.17627523  0.81538098  1
  C  C33  1  0.01504660  0.82372477  0.31538098  1
  C  C34  1  0.98495340  0.32372477  0.18461902  1
  C  C35  1  0.51504660  0.67627523  0.68461902  1
  C  C36  1  0.81538098  0.48495340  0.17627523  1
  C  C37  1  0.31538098  0.01504660  0.82372477  1
  C  C38  1  0.18461902  0.98495340  0.32372477  1
  C  C39  1  0.68461902  0.51504660  0.67627523  1
  C  C40  1  0.82372477  0.18461902  0.51504660  1
  C  C41  1  0.17627523  0.68461902  0.98495340  1
  C  C42  1  0.67627523  0.81538098  0.01504660  1
  C  C43  1  0.32372477  0.31538098  0.48495340  1
  C  C44  1  0.51504660  0.82372477  0.18461902  1
  C  C45  1  0.98495340  0.17627523  0.68461902  1
  C  C46  1  0.01504660  0.67627523  0.81538098  1
  C  C47  1  0.48495340  0.32372477  0.31538098  1
  C  C48  1  0.18461902  0.51504660  0.82372477  1
  C  C49  1  0.68461902  0.98495340  0.17627523  1
  C  C50  1  0.81538098  0.01504660  0.67627523  1
  C  C51  1  0.31538098  0.48495340  0.32372477  1
  C  C52  1  0.15547979  0.66744564  0.32367282  1
  C  C53  1  0.84452021  0.16744564  0.17632718  1
  C  C54  1  0.34452021  0.33255436  0.82367282  1
  C  C55  1  0.65547979  0.83255436  0.67632718  1
  C  C56  1  0.32367282  0.15547979  0.66744564  1
  C  C57  1  0.17632718  0.84452021  0.16744564  1
  C  C58  1  0.82367282  0.34452021  0.33255436  1
  C  C59  1  0.67632718  0.65547979  0.83255436  1
  C  C60  1  0.66744564  0.32367282  0.15547979  1
  C  C61  1  0.16744564  0.17632718  0.84452021  1
  C  C62  1  0.33255436  0.82367282  0.34452021  1
  C  C63  1  0.83255436  0.67632718  0.65547979  1
  C  C64  1  0.84452021  0.33255436  0.67632718  1
  C  C65  1  0.15547979  0.83255436  0.82367282  1
  C  C66  1  0.65547979  0.66744564  0.17632718  1
  C  C67  1  0.34452021  0.16744564  0.32367282  1
  C  C68  1  0.67632718  0.84452021  0.33255436  1
  C  C69  1  0.82367282  0.15547979  0.83255436  1
  C  C70  1  0.17632718  0.65547979  0.66744564  1
  C  C71  1  0.32367282  0.34452021  0.16744564  1
  C  C72  1  0.33255436  0.67632718  0.84452021  1
  C  C73  1  0.83255436  0.82367282  0.15547979  1
  C  C74  1  0.66744564  0.17632718  0.65547979  1
  C  C75  1  0.16744564  0.32367282  0.34452021  1
  C  C76  1  0.01372077  0.66617198  0.48079135  1
  C  C77  1  0.98627923  0.16617198  0.01920865  1
  C  C78  1  0.48627923  0.33382802  0.98079135  1
  C  C79  1  0.51372077  0.83382802  0.51920865  1
  C  C80  1  0.48079135  0.01372077  0.66617198  1
  C  C81  1  0.01920865  0.98627923  0.16617198  1
  C  C82  1  0.98079135  0.48627923  0.33382802  1
  C  C83  1  0.51920865  0.51372077  0.83382802  1
  C  C84  1  0.66617198  0.48079135  0.01372077  1
  C  C85  1  0.16617198  0.01920865  0.98627923  1
  C  C86  1  0.33382802  0.98079135  0.48627923  1
  C  C87  1  0.83382802  0.51920865  0.51372077  1
  C  C88  1  0.98627923  0.33382802  0.51920865  1
  C  C89  1  0.01372077  0.83382802  0.98079135  1
  C  C90  1  0.51372077  0.66617198  0.01920865  1
  C  C91  1  0.48627923  0.16617198  0.48079135  1
  C  C92  1  0.51920865  0.98627923  0.33382802  1
  C  C93  1  0.98079135  0.01372077  0.83382802  1
  C  C94  1  0.01920865  0.51372077  0.66617198  1
  C  C95  1  0.48079135  0.48627923  0.16617198  1
  C  C96  1  0.33382802  0.51920865  0.98627923  1
  C  C97  1  0.83382802  0.98079135  0.01372077  1
  C  C98  1  0.66617198  0.01920865  0.51372077  1
  C  C99  1  0.16617198  0.48079135  0.48627923  1
  Ni  Ni100  1  0.32336438  0.67663562  0.17663562  1
  Ni  Ni101  1  0.67663562  0.17663562  0.32336438  1
  Ni  Ni102  1  0.17663562  0.32336438  0.67663562  1
  Ni  Ni103  1  0.82336438  0.82336438  0.82336438  1
  Ni  Ni104  1  0.67663562  0.32336438  0.82336438  1
  Ni  Ni105  1  0.32336438  0.82336438  0.67663562  1
  Ni  Ni106  1  0.82336438  0.67663562  0.32336438  1
  Ni  Ni107  1  0.17663562  0.17663562  0.17663562  1
  Cu  Cu108  1  0.14596628  0.50911783  0.29839992  1
  Cu  Cu109  1  0.85403372  0.00911783  0.20160008  1
  Cu  Cu110  1  0.35403372  0.49088217  0.79839992  1
  Cu  Cu111  1  0.64596628  0.99088217  0.70160008  1
  Cu  Cu112  1  0.29839992  0.14596628  0.50911783  1
  Cu  Cu113  1  0.20160008  0.85403372  0.00911783  1
  Cu  Cu114  1  0.79839992  0.35403372  0.49088217  1
  Cu  Cu115  1  0.70160008  0.64596628  0.99088217  1
  Cu  Cu116  1  0.50911783  0.29839992  0.14596628  1
  Cu  Cu117  1  0.00911783  0.20160008  0.85403372  1
  Cu  Cu118  1  0.49088217  0.79839992  0.35403372  1
  Cu  Cu119  1  0.99088217  0.70160008  0.64596628  1
  Cu  Cu120  1  0.85403372  0.49088217  0.70160008  1
  Cu  Cu121  1  0.14596628  0.99088217  0.79839992  1
  Cu  Cu122  1  0.64596628  0.50911783  0.20160008  1
  Cu  Cu123  1  0.35403372  0.00911783  0.29839992  1
  Cu  Cu124  1  0.70160008  0.85403372  0.49088217  1
  Cu  Cu125  1  0.79839992  0.14596628  0.99088217  1
  Cu  Cu126  1  0.20160008  0.64596628  0.50911783  1
  Cu  Cu127  1  0.29839992  0.35403372  0.00911783  1
  Cu  Cu128  1  0.49088217  0.70160008  0.85403372  1
  Cu  Cu129  1  0.99088217  0.79839992  0.14596628  1
  Cu  Cu130  1  0.50911783  0.20160008  0.64596628  1
  Cu  Cu131  1  0.00911783  0.29839992  0.35403372  1
  Cu  Cu132  1  0.00175609  0.50951425  0.14425316  1
  Cu  Cu133  1  0.99824391  0.00951425  0.35574684  1
  Cu  Cu134  1  0.49824391  0.49048575  0.64425316  1
  Cu  Cu135  1  0.50175609  0.99048575  0.85574684  1
  Cu  Cu136  1  0.14425316  0.00175609  0.50951425  1
  Cu  Cu137  1  0.35574684  0.99824391  0.00951425  1
  Cu  Cu138  1  0.64425316  0.49824391  0.49048575  1
  Cu  Cu139  1  0.85574684  0.50175609  0.99048575  1
  Cu  Cu140  1  0.50951425  0.14425316  0.00175609  1
  Cu  Cu141  1  0.00951425  0.35574684  0.99824391  1
  Cu  Cu142  1  0.49048575  0.64425316  0.49824391  1
  Cu  Cu143  1  0.99048575  0.85574684  0.50175609  1
  Cu  Cu144  1  0.99824391  0.49048575  0.85574684  1
  Cu  Cu145  1  0.00175609  0.99048575  0.64425316  1
  Cu  Cu146  1  0.50175609  0.50951425  0.35574684  1
  Cu  Cu147  1  0.49824391  0.00951425  0.14425316  1
  Cu  Cu148  1  0.85574684  0.99824391  0.49048575  1
  Cu  Cu149  1  0.64425316  0.00175609  0.99048575  1
  Cu  Cu150  1  0.35574684  0.50175609  0.50951425  1
  Cu  Cu151  1  0.14425316  0.49824391  0.00951425  1
  Cu  Cu152  1  0.49048575  0.85574684  0.99824391  1
  Cu  Cu153  1  0.99048575  0.64425316  0.00175609  1
  Cu  Cu154  1  0.50951425  0.35574684  0.50175609  1
  Cu  Cu155  1  0.00951425  0.14425316  0.49824391  1
  Cu  Cu156  1  0.29126577  0.52520602  0.15596260  1
  Cu  Cu157  1  0.70873423  0.02520602  0.34403740  1
  Cu  Cu158  1  0.20873423  0.47479398  0.65596260  1
  Cu  Cu159  1  0.79126577  0.97479398  0.84403740  1
  Cu  Cu160  1  0.15596260  0.29126577  0.52520602  1
  Cu  Cu161  1  0.34403740  0.70873423  0.02520602  1
  Cu  Cu162  1  0.65596260  0.20873423  0.47479398  1
  Cu  Cu163  1  0.84403740  0.79126577  0.97479398  1
  Cu  Cu164  1  0.52520602  0.15596260  0.29126577  1
  Cu  Cu165  1  0.02520602  0.34403740  0.70873423  1
  Cu  Cu166  1  0.47479398  0.65596260  0.20873423  1
  Cu  Cu167  1  0.97479398  0.84403740  0.79126577  1
  Cu  Cu168  1  0.70873423  0.47479398  0.84403740  1
  Cu  Cu169  1  0.29126577  0.97479398  0.65596260  1
  Cu  Cu170  1  0.79126577  0.52520602  0.34403740  1
  Cu  Cu171  1  0.20873423  0.02520602  0.15596260  1
  Cu  Cu172  1  0.84403740  0.70873423  0.47479398  1
  Cu  Cu173  1  0.65596260  0.29126577  0.97479398  1
  Cu  Cu174  1  0.34403740  0.79126577  0.52520602  1
  Cu  Cu175  1  0.15596260  0.20873423  0.02520602  1
  Cu  Cu176  1  0.47479398  0.84403740  0.70873423  1
  Cu  Cu177  1  0.97479398  0.65596260  0.29126577  1
  Cu  Cu178  1  0.52520602  0.34403740  0.79126577  1
  Cu  Cu179  1  0.02520602  0.15596260  0.20873423  1
  Cu  Cu180  1  0.34479366  0.64863038  0.36508776  1
  Cu  Cu181  1  0.65520634  0.14863038  0.13491224  1
  Cu  Cu182  1  0.15520634  0.35136962  0.86508776  1
  Cu  Cu183  1  0.84479366  0.85136962  0.63491224  1
  Cu  Cu184  1  0.36508776  0.34479366  0.64863038  1
  Cu  Cu185  1  0.13491224  0.65520634  0.14863038  1
  Cu  Cu186  1  0.86508776  0.15520634  0.35136962  1
  Cu  Cu187  1  0.63491224  0.84479366  0.85136962  1
  Cu  Cu188  1  0.64863038  0.36508776  0.34479366  1
  Cu  Cu189  1  0.14863038  0.13491224  0.65520634  1
  Cu  Cu190  1  0.35136962  0.86508776  0.15520634  1
  Cu  Cu191  1  0.85136962  0.63491224  0.84479366  1
  Cu  Cu192  1  0.65520634  0.35136962  0.63491224  1
  Cu  Cu193  1  0.34479366  0.85136962  0.86508776  1
  Cu  Cu194  1  0.84479366  0.64863038  0.13491224  1
  Cu  Cu195  1  0.15520634  0.14863038  0.36508776  1
  Cu  Cu196  1  0.63491224  0.65520634  0.35136962  1
  Cu  Cu197  1  0.86508776  0.34479366  0.85136962  1
  Cu  Cu198  1  0.13491224  0.84479366  0.64863038  1
  Cu  Cu199  1  0.36508776  0.15520634  0.14863038  1
  Cu  Cu200  1  0.35136962  0.63491224  0.65520634  1
  Cu  Cu201  1  0.85136962  0.86508776  0.34479366  1
  Cu  Cu202  1  0.64863038  0.13491224  0.84479366  1
  Cu  Cu203  1  0.14863038  0.36508776  0.15520634  1
  Cu  Cu204  1  0.50000000  0.50000000  -0.00000000  1
  Cu  Cu205  1  0.50000000  -0.00000000  0.50000000  1
  Cu  Cu206  1  -0.00000000  0.50000000  0.50000000  1
  Cu  Cu207  1  -0.00000000  0.00000000  -0.00000000  1
