# generated using pymatgen
data_Cu11Ni3C5
_symmetry_space_group_name_H-M   'P 1'
_cell_length_a   8.19614539
_cell_length_b   9.18047649
_cell_length_c   10.16421294
_cell_angle_alpha   109.69980843
_cell_angle_beta   99.66407326
_cell_angle_gamma   93.95325338
_symmetry_Int_Tables_number   1
_chemical_formula_structural   Cu11Ni3C5
_chemical_formula_sum   'Cu22 Ni6 C10'
_cell_volume   703.29809673
_cell_formula_units_Z   2
loop_
 _symmetry_equiv_pos_site_id
 _symmetry_equiv_pos_as_xyz
  1  'x, y, z'
loop_
 _atom_site_type_symbol
 _atom_site_label
 _atom_site_symmetry_multiplicity
 _atom_site_fract_x
 _atom_site_fract_y
 _atom_site_fract_z
 _atom_site_occupancy
  C  C0  1  0.65489900  0.76369700  0.25803100  1
  C  C1  1  0.34510100  0.23630300  0.74196900  1
  C  C2  1  0.71996200  0.05623200  0.28746900  1
  C  C3  1  0.28003800  0.94376800  0.71253100  1
  C  C4  1  0.60244400  0.43215900  0.41865600  1
  C  C5  1  0.39755600  0.56784100  0.58134400  1
  C  C6  1  0.73187900  0.36269400  0.09431500  1
  C  C7  1  0.26812100  0.63730600  0.90568500  1
  C  C8  1  0.83673700  0.15400500  0.89003600  1
  C  C9  1  0.16326300  0.84599500  0.10996400  1
  Ni  Ni10  1  0.27651800  0.20424800  0.06828300  1
  Ni  Ni11  1  0.72348200  0.79575200  0.93171700  1
  Ni  Ni12  1  0.90922800  0.36660200  0.68635100  1
  Ni  Ni13  1  0.09077200  0.63339800  0.31364900  1
  Ni  Ni14  1  0.20008600  0.12334200  0.39182400  1
  Ni  Ni15  1  0.79991400  0.87665900  0.60817600  1
  Cu  Cu16  1  0.76723200  0.29126100  0.30070900  1
  Cu  Cu17  1  0.23276800  0.70873900  0.69929100  1
  Cu  Cu18  1  0.58403000  0.52349800  0.21437700  1
  Cu  Cu19  1  0.41597000  0.47650200  0.78562300  1
  Cu  Cu20  1  0.15870700  0.09344100  0.99505800  1
  Cu  Cu21  1  0.84129300  0.90655900  0.00494200  1
  Cu  Cu22  1  0.40342500  0.17519400  0.13837000  1
  Cu  Cu23  1  0.59657500  0.82480600  0.86163000  1
  Cu  Cu24  1  0.26338300  0.33919100  0.06569300  1
  Cu  Cu25  1  0.73661700  0.66080900  0.93430700  1
  Cu  Cu26  1  0.92083600  0.47749600  0.64140200  1
  Cu  Cu27  1  0.07916400  0.52250400  0.35859800  1
  Cu  Cu28  1  0.02244400  0.36320100  0.78823000  1
  Cu  Cu29  1  0.97755600  0.63679900  0.21177000  1
  Cu  Cu30  1  0.78779100  0.25902200  0.63385300  1
  Cu  Cu31  1  0.21220900  0.74097800  0.36614700  1
  Cu  Cu32  1  0.08322300  0.04493400  0.27936600  1
  Cu  Cu33  1  0.91677700  0.95506600  0.72063400  1
  Cu  Cu34  1  0.34516900  0.08916800  0.39928100  1
  Cu  Cu35  1  0.65483100  0.91083200  0.60071900  1
  Cu  Cu36  1  0.15645900  0.23087500  0.48811400  1
  Cu  Cu37  1  0.84354100  0.76912500  0.51188600  1
