# generated using pymatgen
data_CuNiC4
_symmetry_space_group_name_H-M   'P 1'
_cell_length_a   7.02007075
_cell_length_b   7.02007075
_cell_length_c   7.02007075
_cell_angle_alpha   146.57864857
_cell_angle_beta   131.75022421
_cell_angle_gamma   59.96511111
_symmetry_Int_Tables_number   1
_chemical_formula_structural   CuNiC4
_chemical_formula_sum   'Cu1 Ni1 C4'
_cell_volume   140.87093409
_cell_formula_units_Z   1
loop_
 _symmetry_equiv_pos_site_id
 _symmetry_equiv_pos_as_xyz
  1  'x, y, z'
loop_
 _atom_site_type_symbol
 _atom_site_label
 _atom_site_symmetry_multiplicity
 _atom_site_fract_x
 _atom_site_fract_y
 _atom_site_fract_z
 _atom_site_occupancy
  Ni  Ni0  1  0.00087900  0.00087900  0.00000000  1
  Cu  Cu1  1  0.33293900  0.33293900  0.00000000  1
  C  C2  1  0.66876600  0.66876600  0.00000000  1
  C  C3  1  0.48463800  0.98463800  0.50000000  1
  C  C4  1  0.17175600  0.67175600  0.50000000  1
  C  C5  1  0.84102100  0.34102100  0.50000000  1
