# generated using pymatgen
data_Cu14NiC16
_symmetry_space_group_name_H-M   'P 1'
_cell_length_a   4.13727000
_cell_length_b   8.26774100
_cell_length_c   11.71992500
_cell_angle_alpha   90.00000000
_cell_angle_beta   90.00000000
_cell_angle_gamma   90.00000000
_symmetry_Int_Tables_number   1
_chemical_formula_structural   Cu14NiC16
_chemical_formula_sum   'Cu14 Ni1 C16'
_cell_volume   400.89031074
_cell_formula_units_Z   1
loop_
 _symmetry_equiv_pos_site_id
 _symmetry_equiv_pos_as_xyz
  1  'x, y, z'
loop_
 _atom_site_type_symbol
 _atom_site_label
 _atom_site_symmetry_multiplicity
 _atom_site_fract_x
 _atom_site_fract_y
 _atom_site_fract_z
 _atom_site_occupancy
  C  C0  1  0.00000000  0.00000000  0.92743800  1
  Ni  Ni1  1  0.00000000  0.50000000  0.99414100  1
  Cu  Cu2  1  0.00000000  0.00000000  0.46445800  1
  Cu  Cu3  1  0.00000000  0.50000000  0.45515600  1
  Cu  Cu4  1  0.50000000  0.76268100  0.09013100  1
  Cu  Cu5  1  0.50000000  0.23731900  0.09013100  1
  Cu  Cu6  1  0.50000000  0.74200800  0.48226300  1
  Cu  Cu7  1  0.50000000  0.25799200  0.48226300  1
  Cu  Cu8  1  0.50000000  0.00000000  0.65827300  1
  Cu  Cu9  1  0.50000000  0.50000000  0.75015700  1
  Cu  Cu10  1  0.50000000  0.00000000  0.26523300  1
  Cu  Cu11  1  0.50000000  0.50000000  0.28400100  1
  Cu  Cu12  1  0.00000000  0.74786900  0.66625500  1
  Cu  Cu13  1  0.00000000  0.25213100  0.66625500  1
  Cu  Cu14  1  0.00000000  0.75043900  0.26421300  1
  Cu  Cu15  1  0.00000000  0.24956100  0.26421300  1
  C  C16  1  0.00000000  0.50000000  0.81678700  1
  C  C17  1  0.00000000  0.00000000  0.29338900  1
  C  C18  1  0.00000000  0.50000000  0.28279400  1
  C  C19  1  0.50000000  0.73069200  0.67338200  1
  C  C20  1  0.50000000  0.26930800  0.67338200  1
  C  C21  1  0.50000000  0.74680900  0.26614200  1
  C  C22  1  0.50000000  0.25319100  0.26614200  1
  C  C23  1  0.50000000  0.00000000  0.08827000  1
  C  C24  1  0.50000000  0.50000000  0.02586000  1
  C  C25  1  0.50000000  0.00000000  0.48136700  1
  C  C26  1  0.50000000  0.50000000  0.45781800  1
  C  C27  1  0.00000000  0.71429800  0.07528800  1
  C  C28  1  0.00000000  0.28570200  0.07528800  1
  C  C29  1  0.00000000  0.74487100  0.48475700  1
  C  C30  1  0.00000000  0.25512900  0.48475700  1
