# generated using pymatgen
data_Cu5(Ni3C2)2
_symmetry_space_group_name_H-M   'P 1'
_cell_length_a   7.22624802
_cell_length_b   11.84503303
_cell_length_c   12.66836300
_cell_angle_alpha   90.00000000
_cell_angle_beta   90.00000000
_cell_angle_gamma   103.88205593
_symmetry_Int_Tables_number   1
_chemical_formula_structural   Cu5(Ni3C2)2
_chemical_formula_sum   'Cu20 Ni24 C16'
_cell_volume   1052.67832136
_cell_formula_units_Z   4
loop_
 _symmetry_equiv_pos_site_id
 _symmetry_equiv_pos_as_xyz
  1  'x, y, z'
loop_
 _atom_site_type_symbol
 _atom_site_label
 _atom_site_symmetry_multiplicity
 _atom_site_fract_x
 _atom_site_fract_y
 _atom_site_fract_z
 _atom_site_occupancy
  Ni  Ni0  1  0.17077500  0.76091000  0.21487200  1
  Ni  Ni1  1  0.82922500  0.23909000  0.78512800  1
  Ni  Ni2  1  0.32922500  0.73909000  0.71487200  1
  Ni  Ni3  1  0.67077500  0.26091000  0.28512800  1
  Ni  Ni4  1  0.98742000  0.93935200  0.19437300  1
  Ni  Ni5  1  0.01258000  0.06064800  0.80562700  1
  Ni  Ni6  1  0.51258000  0.56064800  0.69437300  1
  Ni  Ni7  1  0.48742000  0.43935200  0.30562700  1
  Ni  Ni8  1  0.93945500  0.85240500  0.55821300  1
  Ni  Ni9  1  0.06054500  0.14759500  0.44178700  1
  Ni  Ni10  1  0.56054500  0.64759500  0.05821300  1
  Ni  Ni11  1  0.43945500  0.35240500  0.94178700  1
  Ni  Ni12  1  0.75058300  0.52587200  0.04205900  1
  Ni  Ni13  1  0.24941700  0.47412800  0.95794100  1
  Ni  Ni14  1  0.74941700  0.97412800  0.54205900  1
  Ni  Ni15  1  0.25058300  0.02587200  0.45794100  1
  Ni  Ni16  1  0.38224400  0.97942500  0.14233900  1
  Ni  Ni17  1  0.61775600  0.02057500  0.85766100  1
  Ni  Ni18  1  0.11775600  0.52057500  0.64233900  1
  Ni  Ni19  1  0.88224400  0.47942500  0.35766100  1
  Ni  Ni20  1  0.85833300  0.72377900  0.91825000  1
  Ni  Ni21  1  0.14166700  0.27622100  0.08175000  1
  Ni  Ni22  1  0.64166700  0.77622100  0.41825000  1
  Ni  Ni23  1  0.35833300  0.22377900  0.58175000  1
  Cu  Cu24  1  0.60687100  0.89545700  0.45978900  1
  Cu  Cu25  1  0.39312900  0.10454300  0.54021100  1
  Cu  Cu26  1  0.89312900  0.60454300  0.95978900  1
  Cu  Cu27  1  0.10687100  0.39545700  0.04021100  1
  Cu  Cu28  1  0.99765400  0.80898300  0.16829700  1
  Cu  Cu29  1  0.00234600  0.19101700  0.83170300  1
  Cu  Cu30  1  0.50234600  0.69101700  0.66829700  1
  Cu  Cu31  1  0.49765400  0.30898300  0.33170300  1
  Cu  Cu32  1  0.82493500  0.75826400  0.47711600  1
  Cu  Cu33  1  0.17506500  0.24173600  0.52288400  1
  Cu  Cu34  1  0.67506500  0.74173600  0.97711600  1
  Cu  Cu35  1  0.32493500  0.25826400  0.02288400  1
  Cu  Cu36  1  0.70041800  0.52600700  0.33898100  1
  Cu  Cu37  1  0.29958200  0.47399300  0.66101900  1
  Cu  Cu38  1  0.79958200  0.97399300  0.83898100  1
  Cu  Cu39  1  0.20041800  0.02600700  0.16101900  1
  Cu  Cu40  1  0.37153400  0.84878600  0.16407200  1
  Cu  Cu41  1  0.62846600  0.15121400  0.83592800  1
  Cu  Cu42  1  0.12846600  0.65121400  0.66407200  1
  Cu  Cu43  1  0.87153400  0.34878600  0.33592800  1
  C  C44  1  0.65018000  0.52880800  0.62572900  1
  C  C45  1  0.34982000  0.47119200  0.37427100  1
  C  C46  1  0.84982000  0.97119200  0.12572900  1
  C  C47  1  0.15018000  0.02880800  0.87427100  1
  C  C48  1  0.96760000  0.96080900  0.30725200  1
  C  C49  1  0.03240000  0.03919100  0.69274800  1
  C  C50  1  0.53240000  0.53919100  0.80725200  1
  C  C51  1  0.46760000  0.46080900  0.19274800  1
  C  C52  1  0.15857900  0.64796600  0.16873200  1
  C  C53  1  0.84142100  0.35203400  0.83126800  1
  C  C54  1  0.34142100  0.85203400  0.66873200  1
  C  C55  1  0.65857900  0.14796600  0.33126800  1
  C  C56  1  0.19594900  0.77241500  0.32814000  1
  C  C57  1  0.80405100  0.22758500  0.67186000  1
  C  C58  1  0.30405100  0.72758500  0.82814000  1
  C  C59  1  0.69594900  0.27241500  0.17186000  1
