# generated using pymatgen
data_Cu4Ni4C13
_symmetry_space_group_name_H-M   'P 1'
_cell_length_a   5.32302268
_cell_length_b   5.47981485
_cell_length_c   8.07765752
_cell_angle_alpha   90.98252163
_cell_angle_beta   87.36059945
_cell_angle_gamma   90.59354607
_symmetry_Int_Tables_number   1
_chemical_formula_structural   Cu4Ni4C13
_chemical_formula_sum   'Cu4 Ni4 C13'
_cell_volume   235.32326963
_cell_formula_units_Z   1
loop_
 _symmetry_equiv_pos_site_id
 _symmetry_equiv_pos_as_xyz
  1  'x, y, z'
loop_
 _atom_site_type_symbol
 _atom_site_label
 _atom_site_symmetry_multiplicity
 _atom_site_fract_x
 _atom_site_fract_y
 _atom_site_fract_z
 _atom_site_occupancy
  C  C0  1  0.35062200  0.39656400  0.05455600  1
  Ni  Ni1  1  0.95266500  0.48666600  0.98051400  1
  Ni  Ni2  1  0.01791800  0.50789000  0.49478700  1
  Ni  Ni3  1  0.49183100  0.97231800  0.00146000  1
  Ni  Ni4  1  0.50722300  0.01364000  0.50010000  1
  Cu  Cu5  1  0.01818100  0.95083200  0.74807400  1
  Cu  Cu6  1  0.49344300  0.45634400  0.71912600  1
  Cu  Cu7  1  0.54886000  0.57861400  0.28694400  1
  Cu  Cu8  1  0.98267000  0.05814200  0.22740700  1
  C  C9  1  0.15785900  0.42567900  0.26444100  1
  C  C10  1  0.20917900  0.21563700  0.58741000  1
  C  C11  1  0.16185700  0.15250900  0.95560700  1
  C  C12  1  0.31925000  0.70960800  0.55735600  1
  C  C13  1  0.30883200  0.66644200  0.91810300  1
  C  C14  1  0.37127200  0.93450400  0.25314900  1
  C  C15  1  0.62316000  0.07085700  0.75313200  1
  C  C16  1  0.66933900  0.28490900  0.08970500  1
  C  C17  1  0.70311400  0.31680400  0.44719000  1
  C  C18  1  0.78267600  0.78904500  0.07326100  1
  C  C19  1  0.81975000  0.81900000  0.42254900  1
  C  C20  1  0.87280000  0.58685400  0.72346300  1
