# generated using pymatgen
data_Cu10NiC7
_symmetry_space_group_name_H-M   'P 1'
_cell_length_a   7.10746135
_cell_length_b   6.95885800
_cell_length_c   9.88643765
_cell_angle_alpha   90.00000000
_cell_angle_beta   106.86334215
_cell_angle_gamma   90.00000000
_symmetry_Int_Tables_number   1
_chemical_formula_structural   Cu10NiC7
_chemical_formula_sum   'Cu20 Ni2 C14'
_cell_volume   467.95486791
_cell_formula_units_Z   2
loop_
 _symmetry_equiv_pos_site_id
 _symmetry_equiv_pos_as_xyz
  1  'x, y, z'
loop_
 _atom_site_type_symbol
 _atom_site_label
 _atom_site_symmetry_multiplicity
 _atom_site_fract_x
 _atom_site_fract_y
 _atom_site_fract_z
 _atom_site_occupancy
  C  C0  1  0.55188000  0.97508400  0.82568600  1
  C  C1  1  0.55188000  0.02491600  0.32568600  1
  C  C2  1  0.40771700  0.97501700  0.02172800  1
  C  C3  1  0.40771700  0.02498300  0.52172800  1
  C  C4  1  0.05896500  0.48356800  0.09781400  1
  C  C5  1  0.05896500  0.51643200  0.59781400  1
  C  C6  1  0.63881400  0.36801500  0.00462500  1
  C  C7  1  0.63881400  0.63198500  0.50462500  1
  C  C8  1  0.82431300  0.63165200  0.81314600  1
  C  C9  1  0.82431300  0.36834800  0.31314600  1
  C  C10  1  0.28092100  0.60560700  0.89533700  1
  C  C11  1  0.28092100  0.39439300  0.39533700  1
  C  C12  1  0.46763900  0.38240400  0.70319100  1
  C  C13  1  0.46763900  0.61759600  0.20319100  1
  Ni  Ni14  1  0.12509000  0.76038000  0.54669000  1
  Ni  Ni15  1  0.12509000  0.23962000  0.04669000  1
  Cu  Cu16  1  0.73434100  0.84906000  0.80531200  1
  Cu  Cu17  1  0.73434100  0.15094000  0.30531200  1
  Cu  Cu18  1  0.56409700  0.13020600  0.97312000  1
  Cu  Cu19  1  0.56409700  0.86979400  0.47312000  1
  Cu  Cu20  1  0.36220800  0.83542800  0.87389300  1
  Cu  Cu21  1  0.36220800  0.16457200  0.37389300  1
  Cu  Cu22  1  0.18513600  0.09671800  0.01419500  1
  Cu  Cu23  1  0.18513600  0.90328100  0.51419500  1
  Cu  Cu24  1  0.25305000  0.46475000  0.74386900  1
  Cu  Cu25  1  0.25305000  0.53525000  0.24386900  1
  Cu  Cu26  1  0.46025300  0.13383700  0.68129400  1
  Cu  Cu27  1  0.46025300  0.86616300  0.18129400  1
  Cu  Cu28  1  0.84967500  0.42866700  0.14109800  1
  Cu  Cu29  1  0.84967500  0.57133300  0.64109800  1
  Cu  Cu30  1  0.05669300  0.60124700  0.94215700  1
  Cu  Cu31  1  0.05669300  0.39875300  0.44215700  1
  Cu  Cu32  1  0.66861200  0.44555500  0.84352800  1
  Cu  Cu33  1  0.66861200  0.55444500  0.34352800  1
  Cu  Cu34  1  0.45289600  0.50424300  0.04261800  1
  Cu  Cu35  1  0.45289600  0.49575700  0.54261800  1
