# generated using pymatgen
data_CuNiC14
_symmetry_space_group_name_H-M   'P 1'
_cell_length_a   5.12069581
_cell_length_b   6.50527929
_cell_length_c   11.39021600
_cell_angle_alpha   90.00047769
_cell_angle_beta   89.99863787
_cell_angle_gamma   107.90028447
_symmetry_Int_Tables_number   1
_chemical_formula_structural   CuNiC14
_chemical_formula_sum   'Cu2 Ni2 C28'
_cell_volume   361.05891053
_cell_formula_units_Z   2
loop_
 _symmetry_equiv_pos_site_id
 _symmetry_equiv_pos_as_xyz
  1  'x, y, z'
loop_
 _atom_site_type_symbol
 _atom_site_label
 _atom_site_symmetry_multiplicity
 _atom_site_fract_x
 _atom_site_fract_y
 _atom_site_fract_z
 _atom_site_occupancy
  C  C0  1  0.35310300  0.33837700  0.39543200  1
  C  C1  1  0.64690300  0.66165800  0.89540700  1
  C  C2  1  0.64784000  0.66143800  0.60438700  1
  C  C3  1  0.35191400  0.33852300  0.10436100  1
  Ni  Ni4  1  0.25218500  0.93699600  0.74992000  1
  Ni  Ni5  1  0.74786200  0.06303200  0.24990700  1
  Cu  Cu6  1  0.06435400  0.48540300  0.75012500  1
  Cu  Cu7  1  0.93559900  0.51459000  0.25014800  1
  C  C8  1  0.79640800  0.21447800  0.56400500  1
  C  C9  1  0.20360800  0.78551500  0.06400800  1
  C  C10  1  0.20362300  0.78560200  0.43597400  1
  C  C11  1  0.79638700  0.21442500  0.93595500  1
  C  C12  1  0.87818800  0.61740700  0.75005700  1
  C  C13  1  0.12172800  0.38256500  0.25007000  1
  C  C14  1  0.35413100  0.63641200  0.75018700  1
  C  C15  1  0.64583400  0.36358800  0.25021000  1
  C  C16  1  0.03772500  0.34489400  0.64466200  1
  C  C17  1  0.96229400  0.65511400  0.14468100  1
  C  C18  1  0.96199400  0.65533100  0.35542400  1
  C  C19  1  0.03803300  0.34466100  0.85539400  1
  C  C20  1  0.64380700  0.99606400  0.62437800  1
  C  C21  1  0.35623300  0.00395900  0.12435200  1
  C  C22  1  0.35578800  0.00391500  0.37546300  1
  C  C23  1  0.64427000  0.99607800  0.87546700  1
  C  C24  1  0.93194800  0.17942600  0.44841300  1
  C  C25  1  0.06811300  0.82053000  0.94840800  1
  C  C26  1  0.06783500  0.82070900  0.55158700  1
  C  C27  1  0.93222400  0.17931400  0.05156200  1
  C  C28  1  0.59324900  0.34671100  0.54631800  1
  C  C29  1  0.40678900  0.65327400  0.04633500  1
  C  C30  1  0.40653000  0.65333400  0.45370700  1
  C  C31  1  0.59350000  0.34667900  0.95369600  1
