# generated using pymatgen
data_CuNi4C
_symmetry_space_group_name_H-M   'P 1'
_cell_length_a   5.02660557
_cell_length_b   5.02660557
_cell_length_c   4.11761200
_cell_angle_alpha   90.00000000
_cell_angle_beta   90.00000000
_cell_angle_gamma   119.99999441
_symmetry_Int_Tables_number   1
_chemical_formula_structural   CuNi4C
_chemical_formula_sum   'Cu1 Ni4 C1'
_cell_volume   90.10018739
_cell_formula_units_Z   1
loop_
 _symmetry_equiv_pos_site_id
 _symmetry_equiv_pos_as_xyz
  1  'x, y, z'
loop_
 _atom_site_type_symbol
 _atom_site_label
 _atom_site_symmetry_multiplicity
 _atom_site_fract_x
 _atom_site_fract_y
 _atom_site_fract_z
 _atom_site_occupancy
  C  C0  1  0.66666700  0.33333300  0.00000000  1
  Ni  Ni1  1  0.66383400  0.83191700  0.50000000  1
  Ni  Ni2  1  0.16808300  0.83191700  0.50000000  1
  Ni  Ni3  1  0.16808300  0.33616600  0.50000000  1
  Ni  Ni4  1  0.33333300  0.66666700  0.00000000  1
  Cu  Cu5  1  0.00000000  0.00000000  0.00000000  1
