# generated using pymatgen
data_Cu(NiC2)2
_symmetry_space_group_name_H-M   'P 1'
_cell_length_a   6.15080134
_cell_length_b   6.15080134
_cell_length_c   6.15080098
_cell_angle_alpha   57.91968268
_cell_angle_beta   57.91968268
_cell_angle_gamma   57.91967517
_symmetry_Int_Tables_number   1
_chemical_formula_structural   Cu(NiC2)2
_chemical_formula_sum   'Cu2 Ni4 C8'
_cell_volume   156.68783436
_cell_formula_units_Z   2
loop_
 _symmetry_equiv_pos_site_id
 _symmetry_equiv_pos_as_xyz
  1  'x, y, z'
loop_
 _atom_site_type_symbol
 _atom_site_label
 _atom_site_symmetry_multiplicity
 _atom_site_fract_x
 _atom_site_fract_y
 _atom_site_fract_z
 _atom_site_occupancy
  Ni  Ni0  1  0.24648800  0.24648800  0.24648800  1
  Ni  Ni1  1  0.61578000  0.13949100  0.61578000  1
  Ni  Ni2  1  0.61578000  0.61578000  0.13949100  1
  Ni  Ni3  1  0.13949100  0.61578000  0.61578000  1
  Cu  Cu4  1  0.99520000  0.99520000  0.99520000  1
  Cu  Cu5  1  0.63136000  0.63136000  0.63136000  1
  C  C6  1  0.86193400  0.37896000  0.37896000  1
  C  C7  1  0.37896000  0.37896000  0.86193400  1
  C  C8  1  0.37896000  0.86193400  0.37896000  1
  C  C9  1  0.36838500  0.36838500  0.36838500  1
  C  C10  1  0.86425200  0.86425200  0.86425200  1
  C  C11  1  0.87596800  0.40148000  0.87596800  1
  C  C12  1  0.87596800  0.87596800  0.40148000  1
  C  C13  1  0.40148000  0.87596800  0.87596800  1
