# generated using pymatgen
data_Cu3Ni2C9
_symmetry_space_group_name_H-M   'P 1'
_cell_length_a   7.24131855
_cell_length_b   7.33493001
_cell_length_c   7.24141300
_cell_angle_alpha   60.42131504
_cell_angle_beta   59.99830968
_cell_angle_gamma   60.42136685
_symmetry_Int_Tables_number   1
_chemical_formula_structural   Cu3Ni2C9
_chemical_formula_sum   'Cu3 Ni2 C9'
_cell_volume   273.68626406
_cell_formula_units_Z   1
loop_
 _symmetry_equiv_pos_site_id
 _symmetry_equiv_pos_as_xyz
  1  'x, y, z'
loop_
 _atom_site_type_symbol
 _atom_site_label
 _atom_site_symmetry_multiplicity
 _atom_site_fract_x
 _atom_site_fract_y
 _atom_site_fract_z
 _atom_site_occupancy
  Ni  Ni0  1  0.87382700  0.87851700  0.87383200  1
  Ni  Ni1  1  0.12617600  0.12148400  0.12616700  1
  Cu  Cu2  1  0.50000100  0.50001000  0.49998800  1
  Cu  Cu3  1  0.50000100  0.49999400  0.00000000  1
  Cu  Cu4  1  0.99999900  0.49999300  0.50001000  1
  C  C5  1  0.50000000  0.99999900  0.50000400  1
  C  C6  1  0.74176500  0.73043500  0.74177300  1
  C  C7  1  0.25821600  0.26957800  0.71398900  1
  C  C8  1  0.26197900  0.71406800  0.26198100  1
  C  C9  1  0.71398900  0.26958000  0.25821100  1
  C  C10  1  0.73801700  0.28593200  0.73801200  1
  C  C11  1  0.28601200  0.73041800  0.74178700  1
  C  C12  1  0.25823400  0.26956000  0.25823600  1
  C  C13  1  0.74178800  0.73042700  0.28601200  1
