# generated using pymatgen
data_CuNi3C10
_symmetry_space_group_name_H-M   'P 1'
_cell_length_a   5.94782940
_cell_length_b   5.94782940
_cell_length_c   5.94782970
_cell_angle_alpha   59.98379137
_cell_angle_beta   59.98379137
_cell_angle_gamma   59.98378961
_symmetry_Int_Tables_number   1
_chemical_formula_structural   CuNi3C10
_chemical_formula_sum   'Cu1 Ni3 C10'
_cell_volume   148.73078939
_cell_formula_units_Z   1
loop_
 _symmetry_equiv_pos_site_id
 _symmetry_equiv_pos_as_xyz
  1  'x, y, z'
loop_
 _atom_site_type_symbol
 _atom_site_label
 _atom_site_symmetry_multiplicity
 _atom_site_fract_x
 _atom_site_fract_y
 _atom_site_fract_z
 _atom_site_occupancy
  Ni  Ni0  1  0.00000000  0.50000000  0.50000000  1
  Ni  Ni1  1  0.50000000  0.50000000  0.00000000  1
  Ni  Ni2  1  0.50000000  0.00000000  0.50000000  1
  C  C3  1  0.12323100  0.12323100  0.12323100  1
  C  C4  1  0.87676900  0.87676900  0.87676900  1
  Cu  Cu5  1  0.50000000  0.50000000  0.50000000  1
  C  C6  1  0.25818200  0.25818200  0.25818200  1
  C  C7  1  0.71282500  0.25426700  0.25426700  1
  C  C8  1  0.25426700  0.25426700  0.71282500  1
  C  C9  1  0.25426700  0.71282500  0.25426700  1
  C  C10  1  0.74181800  0.74181800  0.74181800  1
  C  C11  1  0.28717500  0.74573300  0.74573300  1
  C  C12  1  0.74573300  0.74573300  0.28717500  1
  C  C13  1  0.74573300  0.28717500  0.74573300  1
