# generated using pymatgen
data_Cu6Ni4C3
_symmetry_space_group_name_H-M   'P 1'
_cell_length_a   10.01445200
_cell_length_b   6.75767100
_cell_length_c   9.75487527
_cell_angle_alpha   55.31019944
_cell_angle_beta   90.00000000
_cell_angle_gamma   90.00000000
_symmetry_Int_Tables_number   1
_chemical_formula_structural   Cu6Ni4C3
_chemical_formula_sum   'Cu12 Ni8 C6'
_cell_volume   542.80943694
_cell_formula_units_Z   2
loop_
 _symmetry_equiv_pos_site_id
 _symmetry_equiv_pos_as_xyz
  1  'x, y, z'
loop_
 _atom_site_type_symbol
 _atom_site_label
 _atom_site_symmetry_multiplicity
 _atom_site_fract_x
 _atom_site_fract_y
 _atom_site_fract_z
 _atom_site_occupancy
  C  C0  1  0.50000000  0.00000000  0.50000000  1
  C  C1  1  0.00000000  0.00000000  0.00000000  1
  C  C2  1  0.45070200  0.22614700  0.78651500  1
  C  C3  1  0.95070200  0.77385300  0.71348500  1
  C  C4  1  0.54929800  0.77385300  0.21348500  1
  C  C5  1  0.04929800  0.22614700  0.28651500  1
  Ni  Ni6  1  0.10236300  0.21337800  0.81752000  1
  Ni  Ni7  1  0.60236300  0.78662200  0.68248000  1
  Ni  Ni8  1  0.89763700  0.78662200  0.18248000  1
  Ni  Ni9  1  0.39763700  0.21337800  0.31752000  1
  Ni  Ni10  1  0.86279100  0.21498400  0.94252100  1
  Ni  Ni11  1  0.36279100  0.78501600  0.55747900  1
  Ni  Ni12  1  0.13720900  0.78501600  0.05747900  1
  Ni  Ni13  1  0.63720900  0.21498400  0.44252100  1
  Cu  Cu14  1  0.87986000  0.90585900  0.76534500  1
  Cu  Cu15  1  0.37986000  0.09414100  0.73465500  1
  Cu  Cu16  1  0.12014000  0.09414100  0.23465500  1
  Cu  Cu17  1  0.62014000  0.90585900  0.26534500  1
  Cu  Cu18  1  0.57620200  0.33779600  0.71075500  1
  Cu  Cu19  1  0.07620200  0.66220400  0.78924500  1
  Cu  Cu20  1  0.42379800  0.66220400  0.28924500  1
  Cu  Cu21  1  0.92379800  0.33779600  0.21075500  1
  Cu  Cu22  1  0.39758300  0.23709900  0.91906500  1
  Cu  Cu23  1  0.89758300  0.76290100  0.58093500  1
  Cu  Cu24  1  0.60241700  0.76290100  0.08093500  1
  Cu  Cu25  1  0.10241700  0.23709900  0.41906500  1
