# generated using pymatgen
data_Cu8(NiC5)3
_symmetry_space_group_name_H-M   'P 1'
_cell_length_a   6.89675890
_cell_length_b   6.89675890
_cell_length_c   16.84752183
_cell_angle_alpha   82.80304763
_cell_angle_beta   82.80304763
_cell_angle_gamma   54.98149648
_symmetry_Int_Tables_number   1
_chemical_formula_structural   Cu8(NiC5)3
_chemical_formula_sum   'Cu16 Ni6 C30'
_cell_volume   649.70708074
_cell_formula_units_Z   2
loop_
 _symmetry_equiv_pos_site_id
 _symmetry_equiv_pos_as_xyz
  1  'x, y, z'
loop_
 _atom_site_type_symbol
 _atom_site_label
 _atom_site_symmetry_multiplicity
 _atom_site_fract_x
 _atom_site_fract_y
 _atom_site_fract_z
 _atom_site_occupancy
  C  C0  1  0.10044800  0.37911100  0.64644300  1
  C  C1  1  0.37911100  0.10044800  0.14644300  1
  C  C2  1  0.03108800  0.61621700  0.59808600  1
  C  C3  1  0.61621700  0.03108800  0.09808600  1
  C  C4  1  0.98629100  0.50528000  0.47815800  1
  C  C5  1  0.50528000  0.98629100  0.97815800  1
  C  C6  1  0.57015900  0.71403600  0.43963400  1
  C  C7  1  0.71403600  0.57015900  0.93963400  1
  C  C8  1  0.38985700  0.02068600  0.00097100  1
  C  C9  1  0.02068600  0.38985700  0.50097100  1
  C  C10  1  0.29393900  0.57300700  0.36204800  1
  C  C11  1  0.57300700  0.29393900  0.86204800  1
  C  C12  1  0.74950800  0.95875700  0.32400900  1
  C  C13  1  0.95875700  0.74950800  0.82400900  1
  C  C14  1  0.24389600  0.15396700  0.37812000  1
  C  C15  1  0.15396700  0.24389600  0.87812000  1
  C  C16  1  0.54311600  0.24444900  0.74279900  1
  C  C17  1  0.24444900  0.54311600  0.24279900  1
  C  C18  1  0.77022300  0.17469100  0.67038400  1
  C  C19  1  0.17469100  0.77022300  0.17038400  1
  C  C20  1  0.61804000  0.04070000  0.67423900  1
  C  C21  1  0.04070000  0.61804000  0.17423900  1
  C  C22  1  0.47428300  0.32721700  0.64767200  1
  C  C23  1  0.32721700  0.47428300  0.14767200  1
  C  C24  1  0.61365700  0.92382200  0.54928200  1
  C  C25  1  0.92382200  0.61365700  0.04928200  1
  C  C26  1  0.54891400  0.17689100  0.42751200  1
  C  C27  1  0.17689100  0.54891400  0.92751200  1
  C  C28  1  0.29864700  0.86956200  0.68749800  1
  C  C29  1  0.86956200  0.29864700  0.18749800  1
  Ni  Ni30  1  0.93277200  0.34424600  0.31155300  1
  Ni  Ni31  1  0.34424600  0.93277200  0.81155300  1
  Ni  Ni32  1  0.41827000  0.02182600  0.38922700  1
  Ni  Ni33  1  0.02182600  0.41827000  0.88922700  1
  Ni  Ni34  1  0.60747100  0.19463000  0.68339200  1
  Ni  Ni35  1  0.19463000  0.60747100  0.18339200  1
  Cu  Cu36  1  0.71948300  0.92644600  0.50290400  1
  Cu  Cu37  1  0.92644600  0.71948300  0.00290500  1
  Cu  Cu38  1  0.77255000  0.52860700  0.33643400  1
  Cu  Cu39  1  0.52860700  0.77255000  0.83643400  1
  Cu  Cu40  1  0.80117700  0.02818000  0.35698600  1
  Cu  Cu41  1  0.02818000  0.80117700  0.85698600  1
  Cu  Cu42  1  0.35341700  0.42619800  0.33713700  1
  Cu  Cu43  1  0.42619800  0.35341700  0.83713700  1
  Cu  Cu44  1  0.40987900  0.85934300  0.44558700  1
  Cu  Cu45  1  0.85934300  0.40987900  0.94558700  1
  Cu  Cu46  1  0.14543200  0.49433600  0.63492500  1
  Cu  Cu47  1  0.49433600  0.14543200  0.13492500  1
  Cu  Cu48  1  0.54443300  0.85388200  0.64517700  1
  Cu  Cu49  1  0.85388200  0.54443300  0.14517700  1
  Cu  Cu50  1  0.05492300  0.14322100  0.66425400  1
  Cu  Cu51  1  0.14322100  0.05492300  0.16425400  1
