# generated using pymatgen
data_Cu2(Ni2C7)3
_symmetry_space_group_name_H-M   'P 1'
_cell_length_a   7.79122300
_cell_length_b   7.80857479
_cell_length_c   8.36413791
_cell_angle_alpha   117.63328113
_cell_angle_beta   102.82009726
_cell_angle_gamma   96.00305948
_symmetry_Int_Tables_number   1
_chemical_formula_structural   Cu2(Ni2C7)3
_chemical_formula_sum   'Cu2 Ni6 C21'
_cell_volume   426.70929853
_cell_formula_units_Z   1
loop_
 _symmetry_equiv_pos_site_id
 _symmetry_equiv_pos_as_xyz
  1  'x, y, z'
loop_
 _atom_site_type_symbol
 _atom_site_label
 _atom_site_symmetry_multiplicity
 _atom_site_fract_x
 _atom_site_fract_y
 _atom_site_fract_z
 _atom_site_occupancy
  C  C0  1  0.32774000  0.18231800  0.46903600  1
  C  C1  1  0.67226000  0.81768200  0.53096400  1
  C  C2  1  0.00000000  0.50000000  0.00000000  1
  Ni  Ni3  1  0.01183900  0.94593300  0.27594900  1
  Ni  Ni4  1  0.98816100  0.05406700  0.72405100  1
  Ni  Ni5  1  0.25879600  0.69027900  0.64927900  1
  Ni  Ni6  1  0.74120400  0.30972100  0.35072100  1
  Ni  Ni7  1  0.73471600  0.32853200  0.68650800  1
  Ni  Ni8  1  0.26528400  0.67146800  0.31349200  1
  Cu  Cu9  1  0.39637500  0.15214500  0.03200100  1
  Cu  Cu10  1  0.60362500  0.84785500  0.96799900  1
  C  C11  1  0.06789900  0.81561000  0.50608700  1
  C  C12  1  0.93210100  0.18439000  0.49391300  1
  C  C13  1  0.24463100  0.51419300  0.25731000  1
  C  C14  1  0.75536900  0.48580700  0.74269000  1
  C  C15  1  0.80807200  0.96230700  0.20511400  1
  C  C16  1  0.19192800  0.03769300  0.79488600  1
  C  C17  1  0.22916800  0.54464500  0.83107900  1
  C  C18  1  0.77083200  0.45535500  0.16892100  1
  C  C19  1  0.58987500  0.17126900  0.35009600  1
  C  C20  1  0.41012500  0.82873100  0.64990400  1
  C  C21  1  0.28251500  0.57421400  0.53738200  1
  C  C22  1  0.71748500  0.42578600  0.46261800  1
  C  C23  1  0.41719900  0.80932400  0.27904300  1
  C  C24  1  0.58280100  0.19067600  0.72095700  1
  C  C25  1  0.11984700  0.12414200  0.22361500  1
  C  C26  1  0.88015300  0.87585800  0.77638500  1
  C  C27  1  0.07414300  0.79821600  0.21437100  1
  C  C28  1  0.92585700  0.20178400  0.78562900  1
