# generated using pymatgen
data_Cu8Ni2C35
_symmetry_space_group_name_H-M   'P 1'
_cell_length_a   5.24258400
_cell_length_b   13.31309400
_cell_length_c   18.57476813
_cell_angle_alpha   47.55676255
_cell_angle_beta   90.00000000
_cell_angle_gamma   90.00000000
_symmetry_Int_Tables_number   1
_chemical_formula_structural   Cu8Ni2C35
_chemical_formula_sum   'Cu16 Ni4 C70'
_cell_volume   956.69288424
_cell_formula_units_Z   2
loop_
 _symmetry_equiv_pos_site_id
 _symmetry_equiv_pos_as_xyz
  1  'x, y, z'
loop_
 _atom_site_type_symbol
 _atom_site_label
 _atom_site_symmetry_multiplicity
 _atom_site_fract_x
 _atom_site_fract_y
 _atom_site_fract_z
 _atom_site_occupancy
  C  C0  1  0.50000000  0.00000000  0.50000000  1
  C  C1  1  0.00000000  0.00000000  0.00000000  1
  C  C2  1  0.32687000  0.05746500  0.33808200  1
  C  C3  1  0.17313000  0.05746500  0.83808200  1
  C  C4  1  0.67313000  0.94253500  0.66191800  1
  C  C5  1  0.82687000  0.94253500  0.16191800  1
  C  C6  1  0.08373900  0.00787700  0.40811800  1
  C  C7  1  0.41626100  0.00787700  0.90811800  1
  C  C8  1  0.91626100  0.99212300  0.59188200  1
  C  C9  1  0.58373900  0.99212300  0.09188200  1
  C  C10  1  0.48348400  0.15858500  0.16642600  1
  C  C11  1  0.01651600  0.15858500  0.66642600  1
  C  C12  1  0.51651600  0.84141500  0.83357400  1
  C  C13  1  0.98348400  0.84141500  0.33357400  1
  C  C14  1  0.64731900  0.02752900  0.24738600  1
  C  C15  1  0.85268100  0.02752900  0.74738600  1
  C  C16  1  0.35268100  0.97247100  0.75261400  1
  C  C17  1  0.14731900  0.97247100  0.25261400  1
  C  C18  1  0.12920200  0.41555700  0.66481300  1
  C  C19  1  0.37079800  0.41555700  0.16481300  1
  C  C20  1  0.87079800  0.58444300  0.33518700  1
  C  C21  1  0.62920200  0.58444300  0.83518700  1
  C  C22  1  0.33894600  0.33640700  0.76579700  1
  C  C23  1  0.16105400  0.33640700  0.26579700  1
  C  C24  1  0.66105400  0.66359300  0.23420300  1
  C  C25  1  0.83894600  0.66359300  0.73420300  1
  C  C26  1  0.22615000  0.50685600  0.69977600  1
  C  C27  1  0.27385000  0.50685600  0.19977600  1
  C  C28  1  0.77385000  0.49314400  0.30022400  1
  C  C29  1  0.72615000  0.49314400  0.80022400  1
  C  C30  1  0.70937500  0.30968700  0.69240700  1
  C  C31  1  0.79062500  0.30968700  0.19240700  1
  C  C32  1  0.29062500  0.69031300  0.30759300  1
  C  C33  1  0.20937500  0.69031300  0.80759300  1
  C  C34  1  0.47348200  0.35386700  0.60641800  1
  C  C35  1  0.02651800  0.35386700  0.10641800  1
  C  C36  1  0.52651800  0.64613300  0.39358200  1
  C  C37  1  0.97348200  0.64613300  0.89358200  1
  C  C38  1  0.76629500  0.44842900  0.56442600  1
  C  C39  1  0.73370500  0.44842900  0.06442600  1
  C  C40  1  0.23370500  0.55157100  0.43557400  1
  C  C41  1  0.26629500  0.55157100  0.93557400  1
  C  C42  1  0.51262400  0.72529400  0.57002700  1
  C  C43  1  0.98737600  0.72529400  0.07002700  1
  C  C44  1  0.48737600  0.27470600  0.42997300  1
  C  C45  1  0.01262400  0.27470600  0.92997300  1
  C  C46  1  0.58491000  0.61393400  0.57734300  1
  C  C47  1  0.91509000  0.61393400  0.07734300  1
  C  C48  1  0.41509000  0.38606600  0.42265700  1
  C  C49  1  0.08491000  0.38606600  0.92265700  1
  C  C50  1  0.78604500  0.69919200  0.50203800  1
  C  C51  1  0.71395500  0.69919200  0.00203800  1
  C  C52  1  0.21395500  0.30080800  0.49796200  1
  C  C53  1  0.28604500  0.30080800  0.99796200  1
  C  C54  1  0.71087400  0.80959900  0.49897100  1
  C  C55  1  0.78912600  0.80959900  0.99897100  1
  C  C56  1  0.28912600  0.19040100  0.50102900  1
  C  C57  1  0.21087400  0.19040100  0.00102900  1
  C  C58  1  0.28601300  0.43378700  0.69397900  1
  C  C59  1  0.21398700  0.43378700  0.19397900  1
  C  C60  1  0.71398700  0.56621300  0.30602100  1
  C  C61  1  0.78601300  0.56621300  0.80602100  1
  C  C62  1  0.62190100  0.39535800  0.62188100  1
  C  C63  1  0.87809900  0.39535800  0.12188100  1
  C  C64  1  0.37809900  0.60464200  0.37811900  1
  C  C65  1  0.12190100  0.60464200  0.87811900  1
  C  C66  1  0.30340700  0.76966300  0.61217600  1
  C  C67  1  0.19659300  0.76966300  0.11217600  1
  C  C68  1  0.69659300  0.23033700  0.38782400  1
  C  C69  1  0.80340700  0.23033700  0.88782400  1
  Ni  Ni70  1  0.50403600  0.48828900  0.62843200  1
  Ni  Ni71  1  0.99596400  0.48828900  0.12843200  1
  Ni  Ni72  1  0.49596400  0.51171100  0.37156800  1
  Ni  Ni73  1  0.00403600  0.51171100  0.87156800  1
  Cu  Cu74  1  0.93725500  0.68303500  0.45874700  1
  Cu  Cu75  1  0.56274500  0.68303500  0.95874700  1
  Cu  Cu76  1  0.06274500  0.31696500  0.54125300  1
  Cu  Cu77  1  0.43725500  0.31696500  0.04125300  1
  Cu  Cu78  1  0.76948900  0.93156000  0.45503000  1
  Cu  Cu79  1  0.73051100  0.93156000  0.95503000  1
  Cu  Cu80  1  0.23051100  0.06844000  0.54497000  1
  Cu  Cu81  1  0.26948900  0.06844000  0.04497000  1
  Cu  Cu82  1  0.24722100  0.05880900  0.38564000  1
  Cu  Cu83  1  0.25277900  0.05880900  0.88564000  1
  Cu  Cu84  1  0.75277900  0.94119100  0.61436000  1
  Cu  Cu85  1  0.74722100  0.94119100  0.11436000  1
  Cu  Cu86  1  0.47899600  0.06971800  0.23502900  1
  Cu  Cu87  1  0.02100400  0.06971800  0.73502900  1
  Cu  Cu88  1  0.52100400  0.93028200  0.76497100  1
  Cu  Cu89  1  0.97899600  0.93028200  0.26497100  1
