# generated using pymatgen
data_CuNi149
_symmetry_space_group_name_H-M   'P 1'
_cell_length_a   15.90448776
_cell_length_b   15.90449586
_cell_length_c   15.58381769
_cell_angle_alpha   90.00000000
_cell_angle_beta   90.00000000
_cell_angle_gamma   120.00037663
_symmetry_Int_Tables_number   1
_chemical_formula_structural   CuNi149
_chemical_formula_sum   'Cu1 Ni149'
_cell_volume   3413.83428734
_cell_formula_units_Z   1
loop_
 _symmetry_equiv_pos_site_id
 _symmetry_equiv_pos_as_xyz
  1  'x, y, z'
loop_
 _atom_site_type_symbol
 _atom_site_label
 _atom_site_symmetry_multiplicity
 _atom_site_fract_x
 _atom_site_fract_y
 _atom_site_fract_z
 _atom_site_occupancy
  Ni  Ni0  1  0.60168048  0.00020148  0.00000000  1
  Ni  Ni1  1  0.39852221  0.00019769  0.00000000  1
  Ni  Ni2  1  0.00040636  0.19641983  0.00000000  1
  Ni  Ni3  1  0.19601018  0.19641745  0.00000000  1
  Ni  Ni4  1  0.59977792  0.19955914  0.00000000  1
  Ni  Ni5  1  0.40009012  0.20004388  0.00000000  1
  Ni  Ni6  1  0.79995576  0.20004224  0.00000000  1
  Ni  Ni7  1  0.99980024  0.39832030  0.00000000  1
  Ni  Ni8  1  0.39852003  0.39831999  0.00000000  1
  Ni  Ni9  1  0.19988151  0.39976313  0.00000000  1
  Ni  Ni10  1  0.80044143  0.40022159  0.00000000  1
  Ni  Ni11  1  0.59978058  0.40022202  0.00000000  1
  Ni  Ni12  1  0.19988162  0.59994172  0.00000000  1
  Ni  Ni13  1  0.40005973  0.59994077  0.00000000  1
  Ni  Ni14  1  0.79995643  0.59991073  0.00000000  1
  Ni  Ni15  1  0.60167768  0.60147615  0.00000000  1
  Ni  Ni16  1  0.99979959  0.60147842  0.00000000  1
  Ni  Ni17  1  0.40005906  0.80012062  0.00000000  1
  Ni  Ni18  1  0.60023543  0.80011664  0.00000000  1
  Ni  Ni19  1  0.19988131  0.80011722  0.00000000  1
  Ni  Ni20  1  0.00040783  0.80398599  0.00000000  1
  Ni  Ni21  1  0.80358235  0.80398814  0.00000000  1
  Ni  Ni22  1  0.19600909  0.99958738  0.00000000  1
  Ni  Ni23  1  0.80357722  0.99959104  0.00000000  1
  Ni  Ni24  1  0.06537437  0.13074783  0.16294452  1
  Ni  Ni25  1  0.06537365  0.93462425  0.16294442  1
  Ni  Ni26  1  0.86925062  0.93462347  0.16294309  1
  Ni  Ni27  1  0.26647705  0.13323726  0.16590522  1
  Ni  Ni28  1  0.86676105  0.13324001  0.16590300  1
  Ni  Ni29  1  0.86676128  0.73352121  0.16590511  1
  Ni  Ni30  1  0.06665005  0.53332358  0.16648570  1
  Ni  Ni31  1  0.46667703  0.53332551  0.16648854  1
  Ni  Ni32  1  0.46667441  0.93334936  0.16648799  1
  Ni  Ni33  1  0.66666705  0.33333368  0.16631207  1
  Ni  Ni34  1  0.26621612  0.33330315  0.16654716  1
  Ni  Ni35  1  0.06708372  0.33330329  0.16654540  1
  Ni  Ni36  1  0.06708445  0.73378087  0.16654483  1
  Ni  Ni37  1  0.66669536  0.73377937  0.16654458  1
  Ni  Ni38  1  0.66669664  0.93291636  0.16654345  1
  Ni  Ni39  1  0.26622084  0.93291743  0.16654409  1
  Ni  Ni40  1  0.66697495  0.13326839  0.16665753  1
  Ni  Ni41  1  0.46629210  0.13326980  0.16665730  1
  Ni  Ni42  1  0.46629348  0.33302476  0.16665843  1
  Ni  Ni43  1  0.86673124  0.33302377  0.16665687  1
  Ni  Ni44  1  0.66697454  0.53370627  0.16666013  1
  Ni  Ni45  1  0.86673392  0.53370857  0.16665754  1
  Ni  Ni46  1  0.26672693  0.53345116  0.16674288  1
  Ni  Ni47  1  0.46655145  0.73327477  0.16674108  1
  Ni  Ni48  1  0.26672673  0.73327496  0.16674119  1
  Ni  Ni49  1  0.19937261  0.19963783  0.33201423  1
  Ni  Ni50  1  0.00026460  0.19963627  0.33201458  1
  Ni  Ni51  1  0.80036574  0.80062830  0.33201294  1
  Ni  Ni52  1  0.00026038  0.80062701  0.33201408  1
  Ni  Ni53  1  0.80036619  0.99973711  0.33201208  1
  Ni  Ni54  1  0.19936957  0.99973557  0.33201288  1
  Ni  Ni55  1  0.60018410  0.99998560  0.33310820  1
  Ni  Ni56  1  0.39979932  0.99998342  0.33310582  1
  Ni  Ni57  1  0.00001535  0.39981556  0.33310736  1
  Ni  Ni58  1  0.39979839  0.39981498  0.33310755  1
  Ni  Ni59  1  0.60018518  0.60020169  0.33310540  1
  Ni  Ni60  1  0.00001602  0.60020181  0.33310582  1
  Ni  Ni61  1  0.59991647  0.19983199  0.33313511  1
  Ni  Ni62  1  0.59991773  0.40008374  0.33313594  1
  Ni  Ni63  1  0.80016848  0.40008570  0.33313435  1
  Ni  Ni64  1  -0.00000038  -0.00000139  0.33341419  1
  Ni  Ni65  1  0.39986138  0.19993104  0.33338628  1
  Ni  Ni66  1  0.80006888  0.19992903  0.33338350  1
  Ni  Ni67  1  0.80006721  0.60013935  0.33338238  1
  Ni  Ni68  1  0.20012723  0.40025527  0.33360198  1
  Ni  Ni69  1  0.59974661  0.79987387  0.33360247  1
  Ni  Ni70  1  0.20012692  0.79987266  0.33360138  1
  Ni  Ni71  1  0.19989678  0.59994794  0.33347942  1
  Ni  Ni72  1  0.40005008  0.59995079  0.33348086  1
  Ni  Ni73  1  0.40005134  0.80010270  0.33347872  1
  Ni  Ni74  1  0.86687130  0.13312811  0.50000000  1
  Ni  Ni75  1  0.26625645  0.13312745  0.50000000  1
  Ni  Ni76  1  0.06661349  0.13322415  0.50000000  1
  Ni  Ni77  1  0.66707464  0.13386867  0.50000000  1
  Ni  Ni78  1  0.46679748  0.13387119  0.50000000  1
  Ni  Ni79  1  0.06640553  0.33283342  0.50000000  1
  Ni  Ni80  1  0.26642864  0.33283303  0.50000000  1
  Ni  Ni81  1  0.86613177  0.33292650  0.50000000  1
  Ni  Ni82  1  0.46679681  0.33292812  0.50000000  1
  Ni  Ni83  1  0.66666658  0.33333221  0.50000000  1
  Ni  Ni84  1  0.46706388  0.53293752  0.50000000  1
  Ni  Ni85  1  0.06587386  0.53293508  0.50000000  1
  Ni  Ni86  1  0.26647289  0.53294161  0.50000000  1
  Ni  Ni87  1  0.66707429  0.53320458  0.50000000  1
  Ni  Ni88  1  0.86613434  0.53320648  0.50000000  1
  Ni  Ni89  1  0.46705686  0.73352930  0.50000000  1
  Ni  Ni90  1  0.26646876  0.73352739  0.50000000  1
  Ni  Ni91  1  0.06640515  0.73357107  0.50000000  1
  Ni  Ni92  1  0.66716829  0.73357335  0.50000000  1
  Ni  Ni93  1  0.86687364  0.73374470  0.50000000  1
  Ni  Ni94  1  0.86677969  0.93339019  0.50000000  1
  Ni  Ni95  1  0.06661562  0.93338682  0.50000000  1
  Ni  Ni96  1  0.66716717  0.93359515  0.50000000  1
  Ni  Ni97  1  0.26642945  0.93359780  0.50000000  1
  Ni  Ni98  1  0.46706517  0.93412709  0.50000000  1
  Ni  Ni99  1  0.19989678  0.59994794  0.66652058  1
  Ni  Ni100  1  0.40005008  0.59995079  0.66651914  1
  Ni  Ni101  1  0.40005134  0.80010270  0.66652128  1
  Ni  Ni102  1  0.20012723  0.40025527  0.66639802  1
  Ni  Ni103  1  0.59974661  0.79987387  0.66639753  1
  Ni  Ni104  1  0.20012692  0.79987266  0.66639862  1
  Ni  Ni105  1  0.39986138  0.19993104  0.66661372  1
  Ni  Ni106  1  0.80006888  0.19992903  0.66661650  1
  Ni  Ni107  1  0.80006721  0.60013935  0.66661762  1
  Ni  Ni108  1  -0.00000038  -0.00000139  0.66658581  1
  Ni  Ni109  1  0.59991647  0.19983199  0.66686489  1
  Ni  Ni110  1  0.59991773  0.40008374  0.66686406  1
  Ni  Ni111  1  0.80016848  0.40008570  0.66686565  1
  Ni  Ni112  1  0.60018410  0.99998560  0.66689180  1
  Ni  Ni113  1  0.39979932  0.99998342  0.66689418  1
  Ni  Ni114  1  0.00001535  0.39981556  0.66689264  1
  Ni  Ni115  1  0.39979839  0.39981498  0.66689245  1
  Ni  Ni116  1  0.60018518  0.60020169  0.66689460  1
  Ni  Ni117  1  0.00001602  0.60020181  0.66689418  1
  Ni  Ni118  1  0.19937261  0.19963783  0.66798577  1
  Ni  Ni119  1  0.00026460  0.19963627  0.66798542  1
  Ni  Ni120  1  0.80036574  0.80062830  0.66798706  1
  Ni  Ni121  1  0.00026038  0.80062701  0.66798592  1
  Ni  Ni122  1  0.80036619  0.99973711  0.66798792  1
  Ni  Ni123  1  0.19936957  0.99973557  0.66798712  1
  Ni  Ni124  1  0.26672693  0.53345116  0.83325712  1
  Ni  Ni125  1  0.46655145  0.73327477  0.83325892  1
  Ni  Ni126  1  0.26672673  0.73327496  0.83325881  1
  Ni  Ni127  1  0.66697495  0.13326839  0.83334247  1
  Ni  Ni128  1  0.46629210  0.13326980  0.83334270  1
  Ni  Ni129  1  0.46629348  0.33302476  0.83334157  1
  Ni  Ni130  1  0.86673124  0.33302377  0.83334313  1
  Ni  Ni131  1  0.66697454  0.53370627  0.83333987  1
  Ni  Ni132  1  0.86673392  0.53370857  0.83334246  1
  Ni  Ni133  1  0.26621612  0.33330315  0.83345284  1
  Ni  Ni134  1  0.06708372  0.33330329  0.83345460  1
  Ni  Ni135  1  0.06708445  0.73378087  0.83345517  1
  Ni  Ni136  1  0.66669536  0.73377937  0.83345542  1
  Ni  Ni137  1  0.66669664  0.93291636  0.83345655  1
  Ni  Ni138  1  0.26622084  0.93291743  0.83345591  1
  Ni  Ni139  1  0.66666705  0.33333368  0.83368793  1
  Ni  Ni140  1  0.06665005  0.53332358  0.83351430  1
  Ni  Ni141  1  0.46667703  0.53332551  0.83351146  1
  Ni  Ni142  1  0.46667441  0.93334936  0.83351201  1
  Ni  Ni143  1  0.26647705  0.13323726  0.83409478  1
  Ni  Ni144  1  0.86676105  0.13324001  0.83409700  1
  Ni  Ni145  1  0.86676128  0.73352121  0.83409489  1
  Ni  Ni146  1  0.06537437  0.13074783  0.83705548  1
  Ni  Ni147  1  0.06537365  0.93462425  0.83705558  1
  Ni  Ni148  1  0.86925062  0.93462347  0.83705691  1
  Cu  Cu149  1  0.00000065  0.00000163  0.00000000  1
