# generated using pymatgen
data_Cu3Ni4C
_symmetry_space_group_name_H-M   'P 1'
_cell_length_a   5.78902700
_cell_length_b   5.78902700
_cell_length_c   7.36641000
_cell_angle_alpha   90.00000000
_cell_angle_beta   90.00000000
_cell_angle_gamma   90.00000000
_symmetry_Int_Tables_number   1
_chemical_formula_structural   Cu3Ni4C
_chemical_formula_sum   'Cu6 Ni8 C2'
_cell_volume   246.86927261
_cell_formula_units_Z   2
loop_
 _symmetry_equiv_pos_site_id
 _symmetry_equiv_pos_as_xyz
  1  'x, y, z'
loop_
 _atom_site_type_symbol
 _atom_site_label
 _atom_site_symmetry_multiplicity
 _atom_site_fract_x
 _atom_site_fract_y
 _atom_site_fract_z
 _atom_site_occupancy
  C  C0  1  0.00000000  0.50000000  0.98048700  1
  C  C1  1  0.50000000  0.00000000  0.01951300  1
  Ni  Ni2  1  0.76745200  0.73254800  0.32684200  1
  Ni  Ni3  1  0.23254800  0.73254800  0.32684200  1
  Ni  Ni4  1  0.76745200  0.26745200  0.32684200  1
  Ni  Ni5  1  0.23254800  0.26745200  0.32684200  1
  Ni  Ni6  1  0.73254800  0.76745200  0.67315800  1
  Ni  Ni7  1  0.26745200  0.76745200  0.67315800  1
  Ni  Ni8  1  0.73254800  0.23254800  0.67315800  1
  Ni  Ni9  1  0.26745200  0.23254800  0.67315800  1
  Cu  Cu10  1  0.00000000  0.00000000  0.15373900  1
  Cu  Cu11  1  0.50000000  0.50000000  0.15373900  1
  Cu  Cu12  1  0.50000000  0.50000000  0.84626100  1
  Cu  Cu13  1  0.00000000  0.00000000  0.84626100  1
  Cu  Cu14  1  0.00000000  0.50000000  0.52442300  1
  Cu  Cu15  1  0.50000000  0.00000000  0.47557700  1
