# generated using pymatgen
data_Cu4NiC
_symmetry_space_group_name_H-M   'P 1'
_cell_length_a   9.23854588
_cell_length_b   9.23854588
_cell_length_c   9.23854627
_cell_angle_alpha   31.59421867
_cell_angle_beta   31.59421867
_cell_angle_gamma   31.59421786
_symmetry_Int_Tables_number   1
_chemical_formula_structural   Cu4NiC
_chemical_formula_sum   'Cu8 Ni2 C2'
_cell_volume   192.17028582
_cell_formula_units_Z   2
loop_
 _symmetry_equiv_pos_site_id
 _symmetry_equiv_pos_as_xyz
  1  'x, y, z'
loop_
 _atom_site_type_symbol
 _atom_site_label
 _atom_site_symmetry_multiplicity
 _atom_site_fract_x
 _atom_site_fract_y
 _atom_site_fract_z
 _atom_site_occupancy
  C  C0  1  0.00000000  0.00000000  0.00000000  1
  C  C1  1  0.50000000  0.50000000  0.50000000  1
  Ni  Ni2  1  0.25937600  0.25937600  0.25937600  1
  Ni  Ni3  1  0.74062400  0.74062400  0.74062400  1
  Cu  Cu4  1  0.73263400  0.43415800  0.99739500  1
  Cu  Cu5  1  0.43415800  0.99739500  0.73263400  1
  Cu  Cu6  1  0.26736600  0.00260500  0.56584200  1
  Cu  Cu7  1  0.99739500  0.73263400  0.43415800  1
  Cu  Cu8  1  0.56584200  0.26736600  0.00260500  1
  Cu  Cu9  1  0.00260500  0.56584200  0.26736600  1
  Cu  Cu10  1  0.20364400  0.20364400  0.20364400  1
  Cu  Cu11  1  0.79635600  0.79635600  0.79635600  1
