# generated using pymatgen
data_Cu3NiC22
_symmetry_space_group_name_H-M   'P 1'
_cell_length_a   15.20295503
_cell_length_b   15.20295503
_cell_length_c   15.20295503
_cell_angle_alpha   90.00000000
_cell_angle_beta   90.00000000
_cell_angle_gamma   90.00000000
_symmetry_Int_Tables_number   1
_chemical_formula_structural   Cu3NiC22
_chemical_formula_sum   'Cu24 Ni8 C176'
_cell_volume   3513.85658861
_cell_formula_units_Z   8
loop_
 _symmetry_equiv_pos_site_id
 _symmetry_equiv_pos_as_xyz
  1  'x, y, z'
loop_
 _atom_site_type_symbol
 _atom_site_label
 _atom_site_symmetry_multiplicity
 _atom_site_fract_x
 _atom_site_fract_y
 _atom_site_fract_z
 _atom_site_occupancy
  C  C0  1  0.25180448  0.75180448  0.74819552  1
  C  C1  1  0.74819552  0.25180448  0.75180448  1
  C  C2  1  0.24819552  0.24819552  0.24819552  1
  C  C3  1  0.75180448  0.74819552  0.25180448  1
  C  C4  1  0.74819552  0.24819552  0.25180448  1
  C  C5  1  0.25180448  0.74819552  0.24819552  1
  C  C6  1  0.75180448  0.75180448  0.75180448  1
  C  C7  1  0.24819552  0.25180448  0.74819552  1
  Ni  Ni8  1  0.50000000  0.50000000  -0.00000000  1
  Ni  Ni9  1  0.50000000  0.00000000  0.50000000  1
  Ni  Ni10  1  -0.00000000  0.50000000  0.50000000  1
  Ni  Ni11  1  -0.00000000  0.00000000  -0.00000000  1
  Ni  Ni12  1  0.50000000  0.50000000  0.50000000  1
  Ni  Ni13  1  0.50000000  0.00000000  -0.00000000  1
  Ni  Ni14  1  -0.00000000  0.50000000  -0.00000000  1
  Ni  Ni15  1  -0.00000000  0.00000000  0.50000000  1
  Cu  Cu16  1  0.34138631  0.50274630  0.84049511  1
  Cu  Cu17  1  0.65861369  0.00274630  0.65950489  1
  Cu  Cu18  1  0.15861369  0.49725370  0.34049511  1
  Cu  Cu19  1  0.84138631  0.99725370  0.15950489  1
  Cu  Cu20  1  0.84049511  0.34138631  0.50274630  1
  Cu  Cu21  1  0.65950489  0.65861369  0.00274630  1
  Cu  Cu22  1  0.34049511  0.15861369  0.49725370  1
  Cu  Cu23  1  0.15950489  0.84138631  0.99725370  1
  Cu  Cu24  1  0.50274630  0.84049511  0.34138631  1
  Cu  Cu25  1  0.00274630  0.65950489  0.65861369  1
  Cu  Cu26  1  0.49725370  0.34049511  0.15861369  1
  Cu  Cu27  1  0.99725370  0.15950489  0.84138631  1
  Cu  Cu28  1  0.65861369  0.49725370  0.15950489  1
  Cu  Cu29  1  0.34138631  0.99725370  0.34049511  1
  Cu  Cu30  1  0.84138631  0.50274630  0.65950489  1
  Cu  Cu31  1  0.15861369  0.00274630  0.84049511  1
  Cu  Cu32  1  0.15950489  0.65861369  0.49725370  1
  Cu  Cu33  1  0.34049511  0.34138631  0.99725370  1
  Cu  Cu34  1  0.65950489  0.84138631  0.50274630  1
  Cu  Cu35  1  0.84049511  0.15861369  0.00274630  1
  Cu  Cu36  1  0.49725370  0.15950489  0.65861369  1
  Cu  Cu37  1  0.99725370  0.34049511  0.34138631  1
  Cu  Cu38  1  0.50274630  0.65950489  0.84138631  1
  Cu  Cu39  1  0.00274630  0.84049511  0.15861369  1
  C  C40  1  0.51137576  0.34463191  0.83145339  1
  C  C41  1  0.48862424  0.84463191  0.66854661  1
  C  C42  1  0.98862424  0.65536809  0.33145339  1
  C  C43  1  0.01137576  0.15536809  0.16854661  1
  C  C44  1  0.83145339  0.51137576  0.34463191  1
  C  C45  1  0.66854661  0.48862424  0.84463191  1
  C  C46  1  0.33145339  0.98862424  0.65536809  1
  C  C47  1  0.16854661  0.01137576  0.15536809  1
  C  C48  1  0.34463191  0.83145339  0.51137576  1
  C  C49  1  0.84463191  0.66854661  0.48862424  1
  C  C50  1  0.65536809  0.33145339  0.98862424  1
  C  C51  1  0.15536809  0.16854661  0.01137576  1
  C  C52  1  0.48862424  0.65536809  0.16854661  1
  C  C53  1  0.51137576  0.15536809  0.33145339  1
  C  C54  1  0.01137576  0.34463191  0.66854661  1
  C  C55  1  0.98862424  0.84463191  0.83145339  1
  C  C56  1  0.16854661  0.48862424  0.65536809  1
  C  C57  1  0.33145339  0.51137576  0.15536809  1
  C  C58  1  0.66854661  0.01137576  0.34463191  1
  C  C59  1  0.83145339  0.98862424  0.84463191  1
  C  C60  1  0.65536809  0.16854661  0.48862424  1
  C  C61  1  0.15536809  0.33145339  0.51137576  1
  C  C62  1  0.34463191  0.66854661  0.01137576  1
  C  C63  1  0.84463191  0.83145339  0.98862424  1
  C  C64  1  0.45458909  0.41829848  0.91262558  1
  C  C65  1  0.54541091  0.91829848  0.58737442  1
  C  C66  1  0.04541091  0.58170152  0.41262558  1
  C  C67  1  0.95458909  0.08170152  0.08737442  1
  C  C68  1  0.91262558  0.45458909  0.41829848  1
  C  C69  1  0.58737442  0.54541091  0.91829848  1
  C  C70  1  0.41262558  0.04541091  0.58170152  1
  C  C71  1  0.08737442  0.95458909  0.08170152  1
  C  C72  1  0.41829848  0.91262558  0.45458909  1
  C  C73  1  0.91829848  0.58737442  0.54541091  1
  C  C74  1  0.58170152  0.41262558  0.04541091  1
  C  C75  1  0.08170152  0.08737442  0.95458909  1
  C  C76  1  0.54541091  0.58170152  0.08737442  1
  C  C77  1  0.45458909  0.08170152  0.41262558  1
  C  C78  1  0.95458909  0.41829848  0.58737442  1
  C  C79  1  0.04541091  0.91829848  0.91262558  1
  C  C80  1  0.08737442  0.54541091  0.58170152  1
  C  C81  1  0.41262558  0.45458909  0.08170152  1
  C  C82  1  0.58737442  0.95458909  0.41829848  1
  C  C83  1  0.91262558  0.04541091  0.91829848  1
  C  C84  1  0.58170152  0.08737442  0.54541091  1
  C  C85  1  0.08170152  0.41262558  0.45458909  1
  C  C86  1  0.41829848  0.58737442  0.95458909  1
  C  C87  1  0.91829848  0.91262558  0.04541091  1
  C  C88  1  0.26492125  0.58593380  0.82390690  1
  C  C89  1  0.73507875  0.08593380  0.67609310  1
  C  C90  1  0.23507875  0.41406620  0.32390690  1
  C  C91  1  0.76492125  0.91406620  0.17609310  1
  C  C92  1  0.82390690  0.26492125  0.58593380  1
  C  C93  1  0.67609310  0.73507875  0.08593380  1
  C  C94  1  0.32390690  0.23507875  0.41406620  1
  C  C95  1  0.17609310  0.76492125  0.91406620  1
  C  C96  1  0.58593380  0.82390690  0.26492125  1
  C  C97  1  0.08593380  0.67609310  0.73507875  1
  C  C98  1  0.41406620  0.32390690  0.23507875  1
  C  C99  1  0.91406620  0.17609310  0.76492125  1
  C  C100  1  0.73507875  0.41406620  0.17609310  1
  C  C101  1  0.26492125  0.91406620  0.32390690  1
  C  C102  1  0.76492125  0.58593380  0.67609310  1
  C  C103  1  0.23507875  0.08593380  0.82390690  1
  C  C104  1  0.17609310  0.73507875  0.41406620  1
  C  C105  1  0.32390690  0.26492125  0.91406620  1
  C  C106  1  0.67609310  0.76492125  0.58593380  1
  C  C107  1  0.82390690  0.23507875  0.08593380  1
  C  C108  1  0.41406620  0.17609310  0.73507875  1
  C  C109  1  0.91406620  0.32390690  0.26492125  1
  C  C110  1  0.58593380  0.67609310  0.76492125  1
  C  C111  1  0.08593380  0.82390690  0.23507875  1
  C  C112  1  0.29054399  0.44565746  0.94265048  1
  C  C113  1  0.70945601  0.94565746  0.55734952  1
  C  C114  1  0.20945601  0.55434254  0.44265048  1
  C  C115  1  0.79054399  0.05434254  0.05734952  1
  C  C116  1  0.94265048  0.29054399  0.44565746  1
  C  C117  1  0.55734952  0.70945601  0.94565746  1
  C  C118  1  0.44265048  0.20945601  0.55434254  1
  C  C119  1  0.05734952  0.79054399  0.05434254  1
  C  C120  1  0.44565746  0.94265048  0.29054399  1
  C  C121  1  0.94565746  0.55734952  0.70945601  1
  C  C122  1  0.55434254  0.44265048  0.20945601  1
  C  C123  1  0.05434254  0.05734952  0.79054399  1
  C  C124  1  0.70945601  0.55434254  0.05734952  1
  C  C125  1  0.29054399  0.05434254  0.44265048  1
  C  C126  1  0.79054399  0.44565746  0.55734952  1
  C  C127  1  0.20945601  0.94565746  0.94265048  1
  C  C128  1  0.05734952  0.70945601  0.55434254  1
  C  C129  1  0.44265048  0.29054399  0.05434254  1
  C  C130  1  0.55734952  0.79054399  0.44565746  1
  C  C131  1  0.94265048  0.20945601  0.94565746  1
  C  C132  1  0.55434254  0.05734952  0.70945601  1
  C  C133  1  0.05434254  0.44265048  0.29054399  1
  C  C134  1  0.44565746  0.55734952  0.79054399  1
  C  C135  1  0.94565746  0.94265048  0.20945601  1
  C  C136  1  0.31945342  0.42361021  0.75985430  1
  C  C137  1  0.68054658  0.92361021  0.74014570  1
  C  C138  1  0.18054658  0.57638979  0.25985430  1
  C  C139  1  0.81945342  0.07638979  0.24014570  1
  C  C140  1  0.75985430  0.31945342  0.42361021  1
  C  C141  1  0.74014570  0.68054658  0.92361021  1
  C  C142  1  0.25985430  0.18054658  0.57638979  1
  C  C143  1  0.24014570  0.81945342  0.07638979  1
  C  C144  1  0.42361021  0.75985430  0.31945342  1
  C  C145  1  0.92361021  0.74014570  0.68054658  1
  C  C146  1  0.57638979  0.25985430  0.18054658  1
  C  C147  1  0.07638979  0.24014570  0.81945342  1
  C  C148  1  0.68054658  0.57638979  0.24014570  1
  C  C149  1  0.31945342  0.07638979  0.25985430  1
  C  C150  1  0.81945342  0.42361021  0.74014570  1
  C  C151  1  0.18054658  0.92361021  0.75985430  1
  C  C152  1  0.24014570  0.68054658  0.57638979  1
  C  C153  1  0.25985430  0.31945342  0.07638979  1
  C  C154  1  0.74014570  0.81945342  0.42361021  1
  C  C155  1  0.75985430  0.18054658  0.92361021  1
  C  C156  1  0.57638979  0.24014570  0.68054658  1
  C  C157  1  0.07638979  0.25985430  0.31945342  1
  C  C158  1  0.42361021  0.74014570  0.81945342  1
  C  C159  1  0.92361021  0.75985430  0.18054658  1
  C  C160  1  0.58100019  0.28514485  0.90739913  1
  C  C161  1  0.41899981  0.78514485  0.59260087  1
  C  C162  1  0.91899981  0.71485515  0.40739913  1
  C  C163  1  0.08100019  0.21485515  0.09260087  1
  C  C164  1  0.90739913  0.58100019  0.28514485  1
  C  C165  1  0.59260087  0.41899981  0.78514485  1
  C  C166  1  0.40739913  0.91899981  0.71485515  1
  C  C167  1  0.09260087  0.08100019  0.21485515  1
  C  C168  1  0.28514485  0.90739913  0.58100019  1
  C  C169  1  0.78514485  0.59260087  0.41899981  1
  C  C170  1  0.71485515  0.40739913  0.91899981  1
  C  C171  1  0.21485515  0.09260087  0.08100019  1
  C  C172  1  0.41899981  0.71485515  0.09260087  1
  C  C173  1  0.58100019  0.21485515  0.40739913  1
  C  C174  1  0.08100019  0.28514485  0.59260087  1
  C  C175  1  0.91899981  0.78514485  0.90739913  1
  C  C176  1  0.09260087  0.41899981  0.71485515  1
  C  C177  1  0.40739913  0.58100019  0.21485515  1
  C  C178  1  0.59260087  0.08100019  0.28514485  1
  C  C179  1  0.90739913  0.91899981  0.78514485  1
  C  C180  1  0.71485515  0.09260087  0.41899981  1
  C  C181  1  0.21485515  0.40739913  0.58100019  1
  C  C182  1  0.28514485  0.59260087  0.08100019  1
  C  C183  1  0.78514485  0.90739913  0.91899981  1
  C  C184  1  0.42150440  0.55474515  0.43286327  1
  C  C185  1  0.57849560  0.05474515  0.06713673  1
  C  C186  1  0.07849560  0.44525485  0.93286327  1
  C  C187  1  0.92150440  0.94525485  0.56713673  1
  C  C188  1  0.43286327  0.42150440  0.55474515  1
  C  C189  1  0.06713673  0.57849560  0.05474515  1
  C  C190  1  0.93286327  0.07849560  0.44525485  1
  C  C191  1  0.56713673  0.92150440  0.94525485  1
  C  C192  1  0.55474515  0.43286327  0.42150440  1
  C  C193  1  0.05474515  0.06713673  0.57849560  1
  C  C194  1  0.44525485  0.93286327  0.07849560  1
  C  C195  1  0.94525485  0.56713673  0.92150440  1
  C  C196  1  0.57849560  0.44525485  0.56713673  1
  C  C197  1  0.42150440  0.94525485  0.93286327  1
  C  C198  1  0.92150440  0.55474515  0.06713673  1
  C  C199  1  0.07849560  0.05474515  0.43286327  1
  C  C200  1  0.56713673  0.57849560  0.44525485  1
  C  C201  1  0.93286327  0.42150440  0.94525485  1
  C  C202  1  0.06713673  0.92150440  0.55474515  1
  C  C203  1  0.43286327  0.07849560  0.05474515  1
  C  C204  1  0.44525485  0.56713673  0.57849560  1
  C  C205  1  0.94525485  0.93286327  0.42150440  1
  C  C206  1  0.55474515  0.06713673  0.92150440  1
  C  C207  1  0.05474515  0.43286327  0.07849560  1
