# generated using pymatgen
data_Cu3NiC
_symmetry_space_group_name_H-M   'P 1'
_cell_length_a   6.62751511
_cell_length_b   6.62751511
_cell_length_c   8.08480719
_cell_angle_alpha   65.80304895
_cell_angle_beta   65.80304895
_cell_angle_gamma   60.00000891
_symmetry_Int_Tables_number   1
_chemical_formula_structural   Cu3NiC
_chemical_formula_sum   'Cu6 Ni2 C2'
_cell_volume   270.91542118
_cell_formula_units_Z   2
loop_
 _symmetry_equiv_pos_site_id
 _symmetry_equiv_pos_as_xyz
  1  'x, y, z'
loop_
 _atom_site_type_symbol
 _atom_site_label
 _atom_site_symmetry_multiplicity
 _atom_site_fract_x
 _atom_site_fract_y
 _atom_site_fract_z
 _atom_site_occupancy
  C  C0  1  0.16859100  0.16859100  0.49422700  1
  C  C1  1  0.83140900  0.83140900  0.50577300  1
  Ni  Ni2  1  0.44647700  0.44647700  0.66056900  1
  Ni  Ni3  1  0.55352300  0.55352300  0.33943100  1
  Cu  Cu4  1  0.73839700  0.41072800  0.75229300  1
  Cu  Cu5  1  0.09858200  0.73839700  0.75229300  1
  Cu  Cu6  1  0.41072800  0.09858200  0.75229300  1
  Cu  Cu7  1  0.26160300  0.58927200  0.24770700  1
  Cu  Cu8  1  0.90141800  0.26160300  0.24770700  1
  Cu  Cu9  1  0.58927200  0.90141800  0.24770700  1
