# generated using pymatgen
data_Cu6NiC
_symmetry_space_group_name_H-M   'P 1'
_cell_length_a   16.54023951
_cell_length_b   16.54023951
_cell_length_c   16.54023866
_cell_angle_alpha   17.52394200
_cell_angle_beta   17.52394200
_cell_angle_gamma   17.52394358
_symmetry_Int_Tables_number   1
_chemical_formula_structural   Cu6NiC
_chemical_formula_sum   'Cu18 Ni3 C3'
_cell_volume   358.06489870
_cell_formula_units_Z   3
loop_
 _symmetry_equiv_pos_site_id
 _symmetry_equiv_pos_as_xyz
  1  'x, y, z'
loop_
 _atom_site_type_symbol
 _atom_site_label
 _atom_site_symmetry_multiplicity
 _atom_site_fract_x
 _atom_site_fract_y
 _atom_site_fract_z
 _atom_site_occupancy
  Ni  Ni0  1  0.57158100  0.57158100  0.57158100  1
  Ni  Ni1  1  0.00061800  0.00061800  0.00061800  1
  Ni  Ni2  1  0.49778600  0.49778600  0.49778600  1
  C  C3  1  0.42747100  0.42747100  0.42747100  1
  C  C4  1  0.93018000  0.93018000  0.93018000  1
  C  C5  1  0.07223400  0.07223400  0.07223400  1
  Cu  Cu6  1  0.95751000  0.95751000  0.45524200  1
  Cu  Cu7  1  0.45880500  0.45880500  0.95766000  1
  Cu  Cu8  1  0.45524200  0.95751000  0.95751000  1
  Cu  Cu9  1  0.95766000  0.45880500  0.45880500  1
  Cu  Cu10  1  0.95751000  0.45524200  0.95751000  1
  Cu  Cu11  1  0.45880500  0.95766000  0.45880500  1
  Cu  Cu12  1  0.54226700  0.54226700  0.04446800  1
  Cu  Cu13  1  0.04118300  0.04118300  0.54287100  1
  Cu  Cu14  1  0.04446800  0.54226700  0.54226700  1
  Cu  Cu15  1  0.54287100  0.04118300  0.04118300  1
  Cu  Cu16  1  0.54226700  0.04446800  0.54226700  1
  Cu  Cu17  1  0.04118300  0.54287100  0.04118300  1
  Cu  Cu18  1  0.33397200  0.33397200  0.33397200  1
  Cu  Cu19  1  0.83311200  0.83311200  0.83311200  1
  Cu  Cu20  1  0.16579400  0.16579400  0.16579400  1
  Cu  Cu21  1  0.66677900  0.66677900  0.66677900  1
  Cu  Cu22  1  0.74992700  0.74992700  0.74992700  1
  Cu  Cu23  1  0.25077500  0.25077500  0.25077500  1
