# generated using pymatgen
data_CuNiC8
_symmetry_space_group_name_H-M   'P 1'
_cell_length_a   7.60038597
_cell_length_b   7.60038597
_cell_length_c   15.37822554
_cell_angle_alpha   88.28378064
_cell_angle_beta   88.28378064
_cell_angle_gamma   42.64289387
_symmetry_Int_Tables_number   1
_chemical_formula_structural   CuNiC8
_chemical_formula_sum   'Cu4 Ni4 C32'
_cell_volume   601.47193572
_cell_formula_units_Z   4
loop_
 _symmetry_equiv_pos_site_id
 _symmetry_equiv_pos_as_xyz
  1  'x, y, z'
loop_
 _atom_site_type_symbol
 _atom_site_label
 _atom_site_symmetry_multiplicity
 _atom_site_fract_x
 _atom_site_fract_y
 _atom_site_fract_z
 _atom_site_occupancy
  C  C0  1  0.64788900  0.73144300  0.87569100  1
  C  C1  1  0.35211100  0.26855700  0.12430900  1
  C  C2  1  0.26855700  0.35211100  0.62430900  1
  C  C3  1  0.73144300  0.64788900  0.37569100  1
  Ni  Ni4  1  0.38496900  0.37067500  0.87517600  1
  Ni  Ni5  1  0.61503100  0.62932500  0.12482400  1
  Ni  Ni6  1  0.62932500  0.61503100  0.62482400  1
  Ni  Ni7  1  0.37067500  0.38496900  0.37517600  1
  Cu  Cu8  1  0.00000000  0.00000000  0.50000000  1
  Cu  Cu9  1  0.00000000  0.00000000  0.00000000  1
  Cu  Cu10  1  0.95452500  0.04547500  0.75000000  1
  Cu  Cu11  1  0.04547500  0.95452500  0.25000000  1
  C  C12  1  0.42352300  0.74733000  0.51657800  1
  C  C13  1  0.57647700  0.25267000  0.48342200  1
  C  C14  1  0.25267000  0.57647700  0.98342200  1
  C  C15  1  0.74733000  0.42352300  0.01657800  1
  C  C16  1  0.68564400  0.81686400  0.59067700  1
  C  C17  1  0.31435600  0.18313600  0.40932300  1
  C  C18  1  0.18313600  0.31435600  0.90932300  1
  C  C19  1  0.81686400  0.68564400  0.09067700  1
  C  C20  1  0.54620000  0.12163100  0.77693400  1
  C  C21  1  0.45380000  0.87836900  0.22306600  1
  C  C22  1  0.87836900  0.45380000  0.72306600  1
  C  C23  1  0.12163100  0.54620000  0.27693400  1
  C  C24  1  0.60305400  0.38316300  0.65726200  1
  C  C25  1  0.39694600  0.61683700  0.34273800  1
  C  C26  1  0.61683700  0.39694600  0.84273800  1
  C  C27  1  0.38316300  0.60305400  0.15726200  1
  C  C28  1  0.34554900  0.89872400  0.70248000  1
  C  C29  1  0.65445100  0.10127600  0.29752000  1
  C  C30  1  0.10127600  0.65445100  0.79752000  1
  C  C31  1  0.89872400  0.34554900  0.20248000  1
  C  C32  1  0.66374800  0.06480700  0.95206300  1
  C  C33  1  0.33625200  0.93519300  0.04793700  1
  C  C34  1  0.93519300  0.33625200  0.54793700  1
  C  C35  1  0.06480700  0.66374800  0.45206300  1
  C  C36  1  0.84245600  0.03409700  0.12883200  1
  C  C37  1  0.15754400  0.96590300  0.87116800  1
  C  C38  1  0.96590300  0.15754400  0.37116800  1
  C  C39  1  0.03409700  0.84245600  0.62883200  1
