# generated using pymatgen
data_CuNi3C16
_symmetry_space_group_name_H-M   'P 1'
_cell_length_a   6.45165900
_cell_length_b   7.70648100
_cell_length_c   10.56781048
_cell_angle_alpha   80.35869382
_cell_angle_beta   90.00000000
_cell_angle_gamma   90.00000000
_symmetry_Int_Tables_number   1
_chemical_formula_structural   CuNi3C16
_chemical_formula_sum   'Cu2 Ni6 C32'
_cell_volume   518.00580949
_cell_formula_units_Z   2
loop_
 _symmetry_equiv_pos_site_id
 _symmetry_equiv_pos_as_xyz
  1  'x, y, z'
loop_
 _atom_site_type_symbol
 _atom_site_label
 _atom_site_symmetry_multiplicity
 _atom_site_fract_x
 _atom_site_fract_y
 _atom_site_fract_z
 _atom_site_occupancy
  C  C0  1  0.25000000  0.15268000  0.69736200  1
  C  C1  1  0.75000000  0.84732000  0.30263800  1
  C  C2  1  0.00000000  0.50000000  0.50000000  1
  C  C3  1  0.50000000  0.50000000  0.50000000  1
  C  C4  1  0.75000000  0.28797300  0.05753900  1
  C  C5  1  0.25000000  0.71202700  0.94246100  1
  Ni  Ni6  1  0.25000000  0.81223800  0.61686700  1
  Ni  Ni7  1  0.75000000  0.18776200  0.38313300  1
  Ni  Ni8  1  0.75000000  0.24750700  0.73759000  1
  Ni  Ni9  1  0.25000000  0.75249300  0.26241000  1
  Ni  Ni10  1  0.25000000  0.28297000  0.97954400  1
  Ni  Ni11  1  0.75000000  0.71703000  0.02045600  1
  Cu  Cu12  1  0.25000000  0.16357400  0.29924700  1
  Cu  Cu13  1  0.75000000  0.83642600  0.70075300  1
  C  C14  1  0.05792100  0.24693800  0.07048100  1
  C  C15  1  0.55792100  0.75306200  0.92951900  1
  C  C16  1  0.94207900  0.75306200  0.92951900  1
  C  C17  1  0.44207900  0.24693800  0.07048100  1
  C  C18  1  0.05399300  0.71003400  0.58793800  1
  C  C19  1  0.55399300  0.28996600  0.41206200  1
  C  C20  1  0.94600700  0.28996600  0.41206200  1
  C  C21  1  0.44600700  0.71003400  0.58793800  1
  C  C22  1  0.75000000  0.29560000  0.87255100  1
  C  C23  1  0.25000000  0.70440000  0.12744900  1
  C  C24  1  0.93878400  0.13381200  0.71190200  1
  C  C25  1  0.43878400  0.86618800  0.28809800  1
  C  C26  1  0.06121600  0.86618800  0.28809800  1
  C  C27  1  0.56121600  0.13381200  0.71190200  1
  C  C28  1  0.25000000  0.47700700  0.91036400  1
  C  C29  1  0.75000000  0.52299300  0.08963600  1
  C  C30  1  0.25000000  0.37890100  0.58777900  1
  C  C31  1  0.75000000  0.62109900  0.41222100  1
  C  C32  1  0.75000000  0.42223600  0.63531800  1
  C  C33  1  0.25000000  0.57776400  0.36468200  1
  C  C34  1  0.25000000  0.84196400  0.75985200  1
  C  C35  1  0.75000000  0.15803600  0.24014800  1
  C  C36  1  0.25000000  0.00568300  0.54593900  1
  C  C37  1  0.75000000  0.99431700  0.45406100  1
  C  C38  1  0.25000000  0.15825400  0.88171000  1
  C  C39  1  0.75000000  0.84174600  0.11829000  1
