# generated using pymatgen
data_Cu6NiC18
_symmetry_space_group_name_H-M   'P 1'
_cell_length_a   9.11069723
_cell_length_b   10.65507294
_cell_length_c   3.98537704
_cell_angle_alpha   79.20548132
_cell_angle_beta   89.99816094
_cell_angle_gamma   88.66237015
_symmetry_Int_Tables_number   1
_chemical_formula_structural   Cu6NiC18
_chemical_formula_sum   'Cu6 Ni1 C18'
_cell_volume   379.92798241
_cell_formula_units_Z   1
loop_
 _symmetry_equiv_pos_site_id
 _symmetry_equiv_pos_as_xyz
  1  'x, y, z'
loop_
 _atom_site_type_symbol
 _atom_site_label
 _atom_site_symmetry_multiplicity
 _atom_site_fract_x
 _atom_site_fract_y
 _atom_site_fract_z
 _atom_site_occupancy
  C  C0  1  0.24949600  0.95989600  0.01743500  1
  C  C1  1  0.75352000  0.02373800  0.98650400  1
  Ni  Ni2  1  0.93171500  0.44393100  0.77621900  1
  Cu  Cu3  1  0.05010900  0.25919800  0.36877500  1
  Cu  Cu4  1  0.26719000  0.47423000  0.76101200  1
  Cu  Cu5  1  0.43798000  0.25938800  0.36853500  1
  Cu  Cu6  1  0.56771100  0.73789400  0.62892600  1
  Cu  Cu7  1  0.72402000  0.52824400  0.23387300  1
  Cu  Cu8  1  0.94156100  0.73685400  0.62955900  1
  C  C9  1  0.75452500  0.57941200  0.70829300  1
  C  C10  1  0.89268300  0.40164000  0.29729200  1
  C  C11  1  0.08018000  0.86266500  0.56620600  1
  C  C12  1  0.08790200  0.29938800  0.84863900  1
  C  C13  1  0.08700100  0.57767700  0.70926000  1
  C  C14  1  0.25359300  0.42364600  0.28633600  1
  C  C15  1  0.25633700  0.15679900  0.41981300  1
  C  C16  1  0.40499100  0.59776200  0.69906000  1
  C  C17  1  0.40348900  0.29713500  0.84962400  1
  C  C18  1  0.43133800  0.87190400  0.56138500  1
  C  C19  1  0.57832300  0.13187200  0.43244800  1
  C  C20  1  0.58975800  0.71474700  0.14050000  1
  C  C21  1  0.57085800  0.41283800  0.29156400  1
  C  C22  1  0.75175400  0.84797900  0.57407500  1
  C  C23  1  0.91611700  0.71603400  0.13993100  1
  C  C24  1  0.93540100  0.11814800  0.43976800  1
