# generated using pymatgen
data_Cu3Ni6C5
_symmetry_space_group_name_H-M   'P 1'
_cell_length_a   7.19537704
_cell_length_b   7.19537704
_cell_length_c   8.39377954
_cell_angle_alpha   83.75649101
_cell_angle_beta   83.75649101
_cell_angle_gamma   51.86327248
_symmetry_Int_Tables_number   1
_chemical_formula_structural   Cu3Ni6C5
_chemical_formula_sum   'Cu6 Ni12 C10'
_cell_volume   339.30174671
_cell_formula_units_Z   2
loop_
 _symmetry_equiv_pos_site_id
 _symmetry_equiv_pos_as_xyz
  1  'x, y, z'
loop_
 _atom_site_type_symbol
 _atom_site_label
 _atom_site_symmetry_multiplicity
 _atom_site_fract_x
 _atom_site_fract_y
 _atom_site_fract_z
 _atom_site_occupancy
  C  C0  1  0.28635000  0.06999000  0.82055200  1
  C  C1  1  0.71365000  0.93001000  0.17944800  1
  C  C2  1  0.93001000  0.71365000  0.67944800  1
  C  C3  1  0.06999000  0.28635000  0.32055200  1
  C  C4  1  0.60099600  0.39900400  0.75000000  1
  C  C5  1  0.39900400  0.60099600  0.25000000  1
  C  C6  1  0.41054500  0.22764100  0.52188400  1
  C  C7  1  0.58945500  0.77235900  0.47811600  1
  C  C8  1  0.77235900  0.58945500  0.97811600  1
  C  C9  1  0.22764100  0.41054500  0.02188400  1
  Ni  Ni10  1  0.55077100  0.74853300  0.64173700  1
  Ni  Ni11  1  0.44922900  0.25146700  0.35826300  1
  Ni  Ni12  1  0.25146700  0.44922900  0.85826300  1
  Ni  Ni13  1  0.74853300  0.55077100  0.14173700  1
  Ni  Ni14  1  0.70471400  0.81488600  0.92526000  1
  Ni  Ni15  1  0.29528600  0.18511400  0.07474000  1
  Ni  Ni16  1  0.18511400  0.29528600  0.57474000  1
  Ni  Ni17  1  0.81488600  0.70471400  0.42526000  1
  Ni  Ni18  1  0.57951400  0.11929200  0.63449900  1
  Ni  Ni19  1  0.42048600  0.88070800  0.36550100  1
  Ni  Ni20  1  0.88070800  0.42048600  0.86550100  1
  Ni  Ni21  1  0.11929200  0.57951400  0.13449900  1
  Cu  Cu22  1  0.97595100  0.02404900  0.75000000  1
  Cu  Cu23  1  0.02404900  0.97595100  0.25000000  1
  Cu  Cu24  1  0.27045000  0.62637000  0.54295500  1
  Cu  Cu25  1  0.72955000  0.37363000  0.45704500  1
  Cu  Cu26  1  0.37363000  0.72955000  0.95704500  1
  Cu  Cu27  1  0.62637000  0.27045000  0.04295500  1
