# generated using pymatgen
data_Cu2NiC16
_symmetry_space_group_name_H-M   'P 1'
_cell_length_a   8.93112200
_cell_length_b   7.20246100
_cell_length_c   8.86078170
_cell_angle_alpha   84.77414786
_cell_angle_beta   90.00000000
_cell_angle_gamma   90.00000000
_symmetry_Int_Tables_number   1
_chemical_formula_structural   Cu2NiC16
_chemical_formula_sum   'Cu4 Ni2 C32'
_cell_volume   567.60998286
_cell_formula_units_Z   2
loop_
 _symmetry_equiv_pos_site_id
 _symmetry_equiv_pos_as_xyz
  1  'x, y, z'
loop_
 _atom_site_type_symbol
 _atom_site_label
 _atom_site_symmetry_multiplicity
 _atom_site_fract_x
 _atom_site_fract_y
 _atom_site_fract_z
 _atom_site_occupancy
  C  C0  1  0.25000000  0.91798300  0.50593700  1
  C  C1  1  0.75000000  0.08201700  0.49406300  1
  C  C2  1  0.75000000  0.91346100  0.00751400  1
  C  C3  1  0.25000000  0.08653900  0.99248600  1
  Ni  Ni4  1  0.75000000  0.51691400  0.83162600  1
  Ni  Ni5  1  0.25000000  0.48308600  0.16837400  1
  Cu  Cu6  1  0.49822900  0.00673800  0.74985300  1
  Cu  Cu7  1  0.99822900  0.99326200  0.25014700  1
  Cu  Cu8  1  0.50177100  0.99326200  0.25014700  1
  Cu  Cu9  1  0.00177100  0.00673800  0.74985300  1
  C  C10  1  0.59670100  0.87687200  0.85685500  1
  C  C11  1  0.09670100  0.12312800  0.14314500  1
  C  C12  1  0.40329900  0.12312800  0.14314500  1
  C  C13  1  0.90329900  0.87687200  0.85685500  1
  C  C14  1  0.39959800  0.87752200  0.66058800  1
  C  C15  1  0.89959800  0.12247800  0.33941200  1
  C  C16  1  0.60040200  0.12247800  0.33941200  1
  C  C17  1  0.10040200  0.87752200  0.66058800  1
  C  C18  1  0.39973000  0.13602400  0.83860000  1
  C  C19  1  0.89973000  0.86397600  0.16140000  1
  C  C20  1  0.60027000  0.86397600  0.16140000  1
  C  C21  1  0.10027000  0.13602400  0.83860000  1
  C  C22  1  0.59668700  0.13544600  0.64009400  1
  C  C23  1  0.09668700  0.86455400  0.35990600  1
  C  C24  1  0.40331300  0.86455400  0.35990600  1
  C  C25  1  0.90331300  0.13544600  0.64009400  1
  C  C26  1  0.25000000  0.14098800  0.47650400  1
  C  C27  1  0.75000000  0.85901200  0.52349600  1
  C  C28  1  0.75000000  0.13852800  0.98914800  1
  C  C29  1  0.25000000  0.86147200  0.01085200  1
  C  C30  1  0.25000000  0.59618200  0.50473900  1
  C  C31  1  0.75000000  0.40381800  0.49526100  1
  C  C32  1  0.75000000  0.60106900  0.00664400  1
  C  C33  1  0.25000000  0.39893100  0.99335600  1
  C  C34  1  0.90734400  0.48500800  0.72949300  1
  C  C35  1  0.40734400  0.51499200  0.27050700  1
  C  C36  1  0.09265600  0.51499200  0.27050700  1
  C  C37  1  0.59265600  0.48500800  0.72949300  1
