# generated using pymatgen
data_CuNiC5
_symmetry_space_group_name_H-M   'P 1'
_cell_length_a   6.56193249
_cell_length_b   6.56193249
_cell_length_c   5.47460800
_cell_angle_alpha   90.00000000
_cell_angle_beta   90.00000000
_cell_angle_gamma   132.62080957
_symmetry_Int_Tables_number   1
_chemical_formula_structural   CuNiC5
_chemical_formula_sum   'Cu2 Ni2 C10'
_cell_volume   173.46287767
_cell_formula_units_Z   2
loop_
 _symmetry_equiv_pos_site_id
 _symmetry_equiv_pos_as_xyz
  1  'x, y, z'
loop_
 _atom_site_type_symbol
 _atom_site_label
 _atom_site_symmetry_multiplicity
 _atom_site_fract_x
 _atom_site_fract_y
 _atom_site_fract_z
 _atom_site_occupancy
  Ni  Ni0  1  0.89396500  0.10603500  0.51400600  1
  Ni  Ni1  1  0.10603500  0.89396500  0.01400600  1
  Cu  Cu2  1  0.61169400  0.38830700  0.48050700  1
  Cu  Cu3  1  0.38830700  0.61169300  0.98050700  1
  C  C4  1  0.24875300  0.75124700  0.49941100  1
  C  C5  1  0.75124700  0.24875300  0.99941100  1
  C  C6  1  0.98421100  0.51468300  0.74899900  1
  C  C7  1  0.01578900  0.48531700  0.24899900  1
  C  C8  1  0.51468300  0.98421100  0.24899900  1
  C  C9  1  0.48531700  0.01578900  0.74899900  1
  C  C10  1  0.08119500  0.91880500  0.45424500  1
  C  C11  1  0.42474900  0.57525100  0.55383200  1
  C  C12  1  0.91880500  0.08119500  0.95424500  1
  C  C13  1  0.57525100  0.42474900  0.05383200  1
