# generated using pymatgen
data_Cu(NiC2)3
_symmetry_space_group_name_H-M   'P 1'
_cell_length_a   3.85776000
_cell_length_b   10.77597200
_cell_length_c   11.11365114
_cell_angle_alpha   71.42517509
_cell_angle_beta   90.00000000
_cell_angle_gamma   90.00000000
_symmetry_Int_Tables_number   1
_chemical_formula_structural   Cu(NiC2)3
_chemical_formula_sum   'Cu2 Ni6 C12'
_cell_volume   437.94020965
_cell_formula_units_Z   2
loop_
 _symmetry_equiv_pos_site_id
 _symmetry_equiv_pos_as_xyz
  1  'x, y, z'
loop_
 _atom_site_type_symbol
 _atom_site_label
 _atom_site_symmetry_multiplicity
 _atom_site_fract_x
 _atom_site_fract_y
 _atom_site_fract_z
 _atom_site_occupancy
  Ni  Ni0  1  0.25000000  0.81635500  0.00622200  1
  Ni  Ni1  1  0.75000000  0.18364500  0.99377800  1
  Ni  Ni2  1  0.25000000  0.45274500  0.19618000  1
  Ni  Ni3  1  0.75000000  0.54725500  0.80382000  1
  Ni  Ni4  1  0.25000000  0.06144700  0.33389600  1
  Ni  Ni5  1  0.75000000  0.93855300  0.66610400  1
  Cu  Cu6  1  0.25000000  0.34487300  0.58347200  1
  Cu  Cu7  1  0.75000000  0.65512700  0.41652800  1
  C  C8  1  0.25000000  0.11260300  0.55961700  1
  C  C9  1  0.75000000  0.88739700  0.44038300  1
  C  C10  1  0.25000000  0.75643200  0.77417000  1
  C  C11  1  0.75000000  0.24356800  0.22583000  1
  C  C12  1  0.25000000  0.02002300  0.11348400  1
  C  C13  1  0.75000000  0.97997700  0.88651600  1
  C  C14  1  0.25000000  0.69055600  0.25955900  1
  C  C15  1  0.75000000  0.30944400  0.74044100  1
  C  C16  1  0.25000000  0.38927200  0.96094100  1
  C  C17  1  0.75000000  0.61072800  0.03905900  1
  C  C18  1  0.25000000  0.57956100  0.59226500  1
  C  C19  1  0.75000000  0.42043900  0.40773500  1
