# generated using pymatgen
data_Cu(NiC3)2
_symmetry_space_group_name_H-M   'P 1'
_cell_length_a   7.06120700
_cell_length_b   10.93920600
_cell_length_c   13.18971400
_cell_angle_alpha   90.00000000
_cell_angle_beta   90.00000000
_cell_angle_gamma   90.00000000
_symmetry_Int_Tables_number   1
_chemical_formula_structural   Cu(NiC3)2
_chemical_formula_sum   'Cu4 Ni8 C24'
_cell_volume   1018.82624159
_cell_formula_units_Z   4
loop_
 _symmetry_equiv_pos_site_id
 _symmetry_equiv_pos_as_xyz
  1  'x, y, z'
loop_
 _atom_site_type_symbol
 _atom_site_label
 _atom_site_symmetry_multiplicity
 _atom_site_fract_x
 _atom_site_fract_y
 _atom_site_fract_z
 _atom_site_occupancy
  C  C0  1  0.93948900  0.02015600  0.72342500  1
  C  C1  1  0.56051100  0.97984400  0.22342500  1
  C  C2  1  0.43948900  0.47984400  0.27657500  1
  C  C3  1  0.06051100  0.52015600  0.77657500  1
  C  C4  1  0.93115100  0.26919100  0.74454100  1
  C  C5  1  0.56884900  0.73080900  0.24454100  1
  C  C6  1  0.43115100  0.23080900  0.25545900  1
  C  C7  1  0.06884900  0.76919100  0.75545900  1
  C  C8  1  0.72256600  0.45743100  0.70331900  1
  C  C9  1  0.77743400  0.54256900  0.20331900  1
  C  C10  1  0.22256600  0.04256900  0.29668100  1
  C  C11  1  0.27743400  0.95743100  0.79668100  1
  C  C12  1  0.73287500  0.12704500  0.85981600  1
  C  C13  1  0.76712500  0.87295500  0.35981600  1
  C  C14  1  0.23287500  0.37295500  0.14018400  1
  C  C15  1  0.26712500  0.62704500  0.64018400  1
  C  C16  1  0.73900900  0.17211200  0.15943300  1
  C  C17  1  0.76099100  0.82788800  0.65943300  1
  C  C18  1  0.23900900  0.32788800  0.84056700  1
  C  C19  1  0.26099100  0.67211200  0.34056700  1
  C  C20  1  0.00875000  0.16295100  0.56929100  1
  C  C21  1  0.49125000  0.83704900  0.06929100  1
  C  C22  1  0.50875000  0.33704900  0.43070900  1
  C  C23  1  0.99125000  0.66295100  0.93070900  1
  Ni  Ni24  1  0.96199800  0.29463600  0.34496400  1
  Ni  Ni25  1  0.53800200  0.70536400  0.84496400  1
  Ni  Ni26  1  0.46199800  0.20536400  0.65503600  1
  Ni  Ni27  1  0.03800200  0.79463600  0.15503600  1
  Ni  Ni28  1  0.24326200  0.02936100  0.99158100  1
  Ni  Ni29  1  0.25673800  0.97063900  0.49158100  1
  Ni  Ni30  1  0.74326200  0.47063900  0.00841900  1
  Ni  Ni31  1  0.75673800  0.52936100  0.50841900  1
  Cu  Cu32  1  0.40926400  0.97336600  0.52190800  1
  Cu  Cu33  1  0.09073600  0.02663400  0.02190800  1
  Cu  Cu34  1  0.90926400  0.52663400  0.47809200  1
  Cu  Cu35  1  0.59073600  0.47336600  0.97809200  1
