# generated using pymatgen
data_CuNiC8
_symmetry_space_group_name_H-M   'P 1'
_cell_length_a   5.41585033
_cell_length_b   7.89245141
_cell_length_c   5.46790004
_cell_angle_alpha   89.99950018
_cell_angle_beta   89.98550174
_cell_angle_gamma   89.96303242
_symmetry_Int_Tables_number   1
_chemical_formula_structural   CuNiC8
_chemical_formula_sum   'Cu2 Ni2 C16'
_cell_volume   233.72169803
_cell_formula_units_Z   2
loop_
 _symmetry_equiv_pos_site_id
 _symmetry_equiv_pos_as_xyz
  1  'x, y, z'
loop_
 _atom_site_type_symbol
 _atom_site_label
 _atom_site_symmetry_multiplicity
 _atom_site_fract_x
 _atom_site_fract_y
 _atom_site_fract_z
 _atom_site_occupancy
  Ni  Ni0  1  0.01528100  0.25000600  0.49697000  1
  Ni  Ni1  1  0.51521400  0.25001000  0.00296800  1
  Cu  Cu2  1  0.97784000  0.75000900  0.49773000  1
  Cu  Cu3  1  0.47774200  0.74997100  0.00232300  1
  C  C4  1  0.99969800  0.50461900  0.00108600  1
  C  C5  1  0.49969000  0.50469500  0.49876800  1
  C  C6  1  0.49980700  0.99536800  0.49890300  1
  C  C7  1  0.99971600  0.99527100  0.00121300  1
  C  C8  1  0.99740800  0.24999300  0.95495100  1
  C  C9  1  0.49729200  0.24998600  0.54497800  1
  C  C10  1  0.00949100  0.74993800  0.06378800  1
  C  C11  1  0.50963300  0.75007100  0.43627100  1
  C  C12  1  0.76944300  0.01951900  0.28583900  1
  C  C13  1  0.26961100  0.48074600  0.21404100  1
  C  C14  1  0.76957600  0.48056800  0.28584400  1
  C  C15  1  0.26938000  0.01957000  0.21418700  1
  C  C16  1  0.23063200  0.53412800  0.71313300  1
  C  C17  1  0.73093100  0.96576100  0.78685200  1
  C  C18  1  0.23091100  0.96573300  0.71327500  1
  C  C19  1  0.73070500  0.53403700  0.78687700  1
