# generated using pymatgen
data_Cu4NiC14
_symmetry_space_group_name_H-M   'P 1'
_cell_length_a   4.98386200
_cell_length_b   7.19407863
_cell_length_c   7.96327990
_cell_angle_alpha   113.99763921
_cell_angle_beta   87.05121009
_cell_angle_gamma   102.37933051
_symmetry_Int_Tables_number   1
_chemical_formula_structural   Cu4NiC14
_chemical_formula_sum   'Cu4 Ni1 C14'
_cell_volume   254.56918182
_cell_formula_units_Z   1
loop_
 _symmetry_equiv_pos_site_id
 _symmetry_equiv_pos_as_xyz
  1  'x, y, z'
loop_
 _atom_site_type_symbol
 _atom_site_label
 _atom_site_symmetry_multiplicity
 _atom_site_fract_x
 _atom_site_fract_y
 _atom_site_fract_z
 _atom_site_occupancy
  C  C0  1  0.96047500  0.77047700  0.54823000  1
  C  C1  1  0.03952500  0.22952300  0.45177000  1
  Ni  Ni2  1  0.00000000  0.00000000  0.00000000  1
  Cu  Cu3  1  0.42055200  0.62022400  0.79214600  1
  Cu  Cu4  1  0.57944800  0.37977600  0.20785400  1
  Cu  Cu5  1  0.54335700  0.16437200  0.77645700  1
  Cu  Cu6  1  0.45664300  0.83562800  0.22354300  1
  C  C7  1  0.74613600  0.77729400  0.80118300  1
  C  C8  1  0.25386400  0.22270600  0.19881700  1
  C  C9  1  0.73609200  0.29371700  0.99106900  1
  C  C10  1  0.26390800  0.70628300  0.00893100  1
  C  C11  1  0.78914600  0.42823100  0.39598500  1
  C  C12  1  0.21085400  0.57176900  0.60401500  1
  C  C13  1  0.75199500  0.00984100  0.20663100  1
  C  C14  1  0.24800500  0.99015900  0.79336900  1
  C  C15  1  0.41886700  0.34548900  0.71475100  1
  C  C16  1  0.58113300  0.65451100  0.28524900  1
  C  C17  1  0.77824600  0.06421700  0.60834400  1
  C  C18  1  0.22175400  0.93578300  0.39165600  1
