# generated using pymatgen
data_CuNiC47
_symmetry_space_group_name_H-M   'P 1'
_cell_length_a   10.27392665
_cell_length_b   10.27393570
_cell_length_c   14.56471465
_cell_angle_alpha   90.00576002
_cell_angle_beta   90.00571827
_cell_angle_gamma   59.99535405
_symmetry_Int_Tables_number   1
_chemical_formula_structural   CuNiC47
_chemical_formula_sum   'Cu2 Ni2 C94'
_cell_volume   1331.32957537
_cell_formula_units_Z   2
loop_
 _symmetry_equiv_pos_site_id
 _symmetry_equiv_pos_as_xyz
  1  'x, y, z'
loop_
 _atom_site_type_symbol
 _atom_site_label
 _atom_site_symmetry_multiplicity
 _atom_site_fract_x
 _atom_site_fract_y
 _atom_site_fract_z
 _atom_site_occupancy
  Ni  Ni0  1  0.00009363  0.99990807  0.25000046  1
  Ni  Ni1  1  0.00002331  0.99997924  0.75000053  1
  Cu  Cu2  1  0.33339702  0.33326685  0.49999661  1
  Cu  Cu3  1  0.66673322  0.66665905  0.00000064  1
  C  C4  1  0.33334452  0.33375093  0.24609231  1
  C  C5  1  0.33332572  0.33332991  0.75366621  1
  C  C6  1  0.66667402  0.66667976  0.74632386  1
  C  C7  1  0.66625360  0.66666082  0.25390560  1
  C  C8  1  0.50034347  0.00002473  0.24997360  1
  C  C9  1  0.99998368  0.49964920  0.25002811  1
  C  C10  1  0.50024744  0.49975822  0.24999916  1
  C  C11  1  0.49966875  0.00000377  0.74998817  1
  C  C12  1  0.00000120  0.50032314  0.75001259  1
  C  C13  1  0.50031219  0.49969327  0.75000181  1
  C  C14  1  0.35447924  0.88567911  0.39191725  1
  C  C15  1  0.88554524  0.75983780  0.39188745  1
  C  C16  1  0.76009946  0.35362224  0.39205803  1
  C  C17  1  0.35376812  0.88641461  0.60790454  1
  C  C18  1  0.88644650  0.75981219  0.60790927  1
  C  C19  1  0.75979855  0.35375926  0.60794287  1
  C  C20  1  0.24018666  0.11355724  0.89209119  1
  C  C21  1  0.64624210  0.24020534  0.89205693  1
  C  C22  1  0.11358808  0.64623044  0.89209516  1
  C  C23  1  0.24016039  0.11445833  0.10811238  1
  C  C24  1  0.64638056  0.23990454  0.10794225  1
  C  C25  1  0.11432289  0.64552149  0.10808297  1
  C  C26  1  0.64828512  0.11284245  0.60872646  1
  C  C27  1  0.11284510  0.23885067  0.60871856  1
  C  C28  1  0.23890213  0.64827201  0.60870920  1
  C  C29  1  0.64770505  0.11346443  0.39126170  1
  C  C30  1  0.11367110  0.23869849  0.39125015  1
  C  C31  1  0.23852321  0.64840945  0.39129835  1
  C  C32  1  0.76130201  0.88633384  0.10875198  1
  C  C33  1  0.35159167  0.76148060  0.10870152  1
  C  C34  1  0.88653579  0.35230028  0.10873734  1
  C  C35  1  0.76115020  0.88715902  0.89128028  1
  C  C36  1  0.35172870  0.76110105  0.89129115  1
  C  C37  1  0.88715677  0.35172016  0.89127473  1
  C  C38  1  0.49390390  0.84568740  0.32589401  1
  C  C39  1  0.84554213  0.66041189  0.32583596  1
  C  C40  1  0.66115360  0.49474404  0.32640193  1
  C  C41  1  0.49497164  0.84405163  0.67365732  1
  C  C42  1  0.84409429  0.66096890  0.67363452  1
  C  C43  1  0.66091705  0.49500260  0.67360956  1
  C  C44  1  0.33902930  0.15591499  0.82636870  1
  C  C45  1  0.50500454  0.33909073  0.82638784  1
  C  C46  1  0.15595612  0.50502710  0.82634084  1
  C  C47  1  0.33958553  0.15446813  0.17416066  1
  C  C48  1  0.50526396  0.33885549  0.17360077  1
  C  C49  1  0.15432007  0.50609635  0.17410721  1
  C  C50  1  0.50216899  0.15749570  0.67076198  1
  C  C51  1  0.15748672  0.34034091  0.67074876  1
  C  C52  1  0.34040202  0.50212373  0.67069837  1
  C  C53  1  0.50318287  0.15574256  0.32886574  1
  C  C54  1  0.15569943  0.34115965  0.32889595  1
  C  C55  1  0.34022810  0.50226694  0.32932836  1
  C  C56  1  0.65883406  0.84431186  0.17110460  1
  C  C57  1  0.49773499  0.65978199  0.17067284  1
  C  C58  1  0.84426150  0.49682009  0.17113470  1
  C  C59  1  0.65965441  0.84252133  0.82925187  1
  C  C60  1  0.49787724  0.65960870  0.82930041  1
  C  C61  1  0.84250684  0.49783434  0.82923840  1
  C  C62  1  0.40076672  0.87062362  0.50012511  1
  C  C63  1  0.87063189  0.72873806  0.50010737  1
  C  C64  1  0.72860965  0.40062495  0.50007230  1
  C  C65  1  0.27126247  0.12936747  -0.00010728  1
  C  C66  1  0.59937435  0.27138986  -0.00007178  1
  C  C67  1  0.12937474  0.59923386  -0.00012474  1
  C  C68  1  0.59399829  0.13624642  0.50011088  1
  C  C69  1  0.13618035  0.26968476  0.50011637  1
  C  C70  1  0.26978642  0.59416985  0.50005046  1
  C  C71  1  0.73031699  0.86382818  -0.00011556  1
  C  C72  1  0.40583333  0.73021634  -0.00005017  1
  C  C73  1  0.86374908  0.40601087  0.99988937  1
  C  C74  1  0.27606315  0.78276236  0.37099816  1
  C  C75  1  0.78187639  0.94104088  0.37067842  1
  C  C76  1  0.94109537  0.27715552  0.37061233  1
  C  C77  1  0.27642187  0.78269638  0.62915763  1
  C  C78  1  0.78273694  0.94088993  0.62921030  1
  C  C79  1  0.94088684  0.27641736  0.62913962  1
  C  C80  1  0.05910944  0.21726635  0.87078999  1
  C  C81  1  0.72358298  0.05911727  0.87086015  1
  C  C82  1  0.21730517  0.72357948  0.87084312  1
  C  C83  1  0.05895825  0.21812653  0.12932205  1
  C  C84  1  0.72284539  0.05890888  0.12938896  1
  C  C85  1  0.21723941  0.72393861  0.12900176  1
  C  C86  1  0.72442168  0.21690255  0.62944006  1
  C  C87  1  0.21688115  0.05865883  0.62951311  1
  C  C88  1  0.05870362  0.72440025  0.62946710  1
  C  C89  1  0.72463952  0.21684973  0.37066300  1
  C  C90  1  0.21770931  0.05857336  0.37043877  1
  C  C91  1  0.05844492  0.72372092  0.37039769  1
  C  C92  1  0.94142673  0.78229097  0.12956214  1
  C  C93  1  0.27627849  0.94155888  0.12960355  1
  C  C94  1  0.78315344  0.27536276  0.12933699  1
  C  C95  1  0.94134186  0.78311876  0.87048725  1
  C  C96  1  0.27559781  0.94130048  0.87053283  1
  C  C97  1  0.78310029  0.27557967  0.87056006  1
