# generated using pymatgen
data_Cu13NiC10
_symmetry_space_group_name_H-M   'P 1'
_cell_length_a   8.62188450
_cell_length_b   8.62188450
_cell_length_c   8.62188450
_cell_angle_alpha   60.00000000
_cell_angle_beta   60.00000000
_cell_angle_gamma   60.00000000
_symmetry_Int_Tables_number   1
_chemical_formula_structural   Cu13NiC10
_chemical_formula_sum   'Cu26 Ni2 C20'
_cell_volume   453.20177794
_cell_formula_units_Z   2
loop_
 _symmetry_equiv_pos_site_id
 _symmetry_equiv_pos_as_xyz
  1  'x, y, z'
loop_
 _atom_site_type_symbol
 _atom_site_label
 _atom_site_symmetry_multiplicity
 _atom_site_fract_x
 _atom_site_fract_y
 _atom_site_fract_z
 _atom_site_occupancy
  C  C0  1  0.50000000  0.00000000  0.00000000  1
  C  C1  1  0.00000000  0.50000000  0.50000000  1
  C  C2  1  0.00000000  0.50000000  0.00000000  1
  C  C3  1  0.50000000  0.00000000  0.50000000  1
  C  C4  1  0.00000000  0.00000000  0.50000000  1
  C  C5  1  0.50000000  0.50000000  0.00000000  1
  C  C6  1  0.08043800  0.08043800  0.08043800  1
  C  C7  1  0.08043800  0.08043800  0.75868500  1
  C  C8  1  0.08043800  0.75868500  0.08043800  1
  C  C9  1  0.58043800  0.58043800  0.58043800  1
  C  C10  1  0.75868500  0.08043800  0.08043800  1
  C  C11  1  0.58043800  0.58043800  0.25868500  1
  C  C12  1  0.25868500  0.58043800  0.58043800  1
  C  C13  1  0.58043800  0.25868500  0.58043800  1
  C  C14  1  0.75000000  0.25000000  0.25000000  1
  C  C15  1  0.25000000  0.75000000  0.75000000  1
  C  C16  1  0.25000000  0.75000000  0.25000000  1
  C  C17  1  0.75000000  0.25000000  0.75000000  1
  C  C18  1  0.25000000  0.25000000  0.75000000  1
  C  C19  1  0.75000000  0.75000000  0.25000000  1
  Ni  Ni20  1  0.25000000  0.25000000  0.25000000  1
  Ni  Ni21  1  0.75000000  0.75000000  0.75000000  1
  Cu  Cu22  1  0.25788500  0.10387800  0.93712700  1
  Cu  Cu23  1  0.10387800  0.25788500  0.70111000  1
  Cu  Cu24  1  0.93712700  0.70111000  0.25788500  1
  Cu  Cu25  1  0.93712700  0.25788500  0.10387800  1
  Cu  Cu26  1  0.60387800  0.75788500  0.43712700  1
  Cu  Cu27  1  0.70111000  0.93712700  0.10387800  1
  Cu  Cu28  1  0.70111000  0.10387800  0.25788500  1
  Cu  Cu29  1  0.75788500  0.60387800  0.20111000  1
  Cu  Cu30  1  0.25788500  0.93712700  0.70111000  1
  Cu  Cu31  1  0.20111000  0.43712700  0.75788500  1
  Cu  Cu32  1  0.10387800  0.70111000  0.93712700  1
  Cu  Cu33  1  0.43712700  0.20111000  0.60387800  1
  Cu  Cu34  1  0.10387800  0.93712700  0.25788500  1
  Cu  Cu35  1  0.75788500  0.43712700  0.60387800  1
  Cu  Cu36  1  0.70111000  0.25788500  0.93712700  1
  Cu  Cu37  1  0.43712700  0.75788500  0.20111000  1
  Cu  Cu38  1  0.93712700  0.10387800  0.70111000  1
  Cu  Cu39  1  0.20111000  0.60387800  0.43712700  1
  Cu  Cu40  1  0.25788500  0.70111000  0.10387800  1
  Cu  Cu41  1  0.60387800  0.20111000  0.75788500  1
  Cu  Cu42  1  0.43712700  0.60387800  0.75788500  1
  Cu  Cu43  1  0.20111000  0.75788500  0.60387800  1
  Cu  Cu44  1  0.60387800  0.43712700  0.20111000  1
  Cu  Cu45  1  0.75788500  0.20111000  0.43712700  1
  Cu  Cu46  1  0.00000000  0.00000000  0.00000000  1
  Cu  Cu47  1  0.50000000  0.50000000  0.50000000  1
