# generated using pymatgen
data_Cu2Ni4C15
_symmetry_space_group_name_H-M   'P 1'
_cell_length_a   5.74558727
_cell_length_b   6.07534654
_cell_length_c   8.61838663
_cell_angle_alpha   85.68204157
_cell_angle_beta   90.98731386
_cell_angle_gamma   89.82175991
_symmetry_Int_Tables_number   1
_chemical_formula_structural   Cu2Ni4C15
_chemical_formula_sum   'Cu2 Ni4 C15'
_cell_volume   299.93577248
_cell_formula_units_Z   1
loop_
 _symmetry_equiv_pos_site_id
 _symmetry_equiv_pos_as_xyz
  1  'x, y, z'
loop_
 _atom_site_type_symbol
 _atom_site_label
 _atom_site_symmetry_multiplicity
 _atom_site_fract_x
 _atom_site_fract_y
 _atom_site_fract_z
 _atom_site_occupancy
  Ni  Ni0  1  0.00321400  0.63210100  0.83106700  1
  Ni  Ni1  1  0.49762000  0.08106500  0.78213900  1
  Ni  Ni2  1  0.48244200  0.01119700  0.23843700  1
  Ni  Ni3  1  0.01702200  0.45676800  0.24079800  1
  Cu  Cu4  1  0.50168200  0.52529100  0.01632100  1
  Cu  Cu5  1  0.99950300  0.91923500  0.47660800  1
  C  C6  1  0.02660600  0.32123200  0.61577000  1
  C  C7  1  0.99178700  0.03524500  0.00130800  1
  C  C8  1  0.50399300  0.45127500  0.48872900  1
  C  C9  1  0.78484300  0.30359500  0.94830700  1
  C  C10  1  0.82548600  0.60141400  0.55332700  1
  C  C11  1  0.21639300  0.77250600  0.04654000  1
  C  C12  1  0.23530100  0.23652500  0.44593800  1
  C  C13  1  0.71920100  0.82686700  0.97560800  1
  C  C14  1  0.71150200  0.17973800  0.53187300  1
  C  C15  1  0.25237200  0.24671200  0.03210100  1
  C  C16  1  0.30944000  0.71348400  0.42719700  1
  C  C17  1  0.34771300  0.46038600  0.70848300  1
  C  C18  1  0.06042700  0.02616800  0.75097700  1
  C  C19  1  0.58936400  0.45512500  0.25917300  1
  C  C20  1  0.92409000  0.01490400  0.23086400  1
