# generated using pymatgen
data_Cu7NiC4
_symmetry_space_group_name_H-M   'P 1'
_cell_length_a   9.98627200
_cell_length_b   9.98627179
_cell_length_c   6.49785200
_cell_angle_alpha   90.00000000
_cell_angle_beta   90.00000000
_cell_angle_gamma   120.00000069
_symmetry_Int_Tables_number   1
_chemical_formula_structural   Cu7NiC4
_chemical_formula_sum   'Cu14 Ni2 C8'
_cell_volume   561.18650223
_cell_formula_units_Z   2
loop_
 _symmetry_equiv_pos_site_id
 _symmetry_equiv_pos_as_xyz
  1  'x, y, z'
loop_
 _atom_site_type_symbol
 _atom_site_label
 _atom_site_symmetry_multiplicity
 _atom_site_fract_x
 _atom_site_fract_y
 _atom_site_fract_z
 _atom_site_occupancy
  C  C0  1  0.15958400  0.37413100  0.82179300  1
  C  C1  1  0.21454800  0.84041600  0.82179300  1
  C  C2  1  0.62586900  0.78545200  0.82179300  1
  C  C3  1  0.84041600  0.62586900  0.32179300  1
  C  C4  1  0.78545200  0.15958400  0.32179300  1
  C  C5  1  0.37413100  0.21454800  0.32179300  1
  Ni  Ni6  1  0.66666700  0.33333300  0.89639900  1
  Ni  Ni7  1  0.33333300  0.66666700  0.39639900  1
  C  C8  1  0.00000000  0.00000000  0.49684700  1
  C  C9  1  0.00000000  0.00000000  0.99684700  1
  Cu  Cu10  1  0.43825500  0.52003100  0.55533300  1
  Cu  Cu11  1  0.08177600  0.56174500  0.55533300  1
  Cu  Cu12  1  0.47996900  0.91822400  0.55533300  1
  Cu  Cu13  1  0.56174500  0.47996900  0.05533300  1
  Cu  Cu14  1  0.91822400  0.43825500  0.05533300  1
  Cu  Cu15  1  0.52003100  0.08177600  0.05533300  1
  Cu  Cu16  1  0.66666700  0.33333300  0.52615200  1
  Cu  Cu17  1  0.33333300  0.66666700  0.02615200  1
  Cu  Cu18  1  0.86929000  0.10411300  0.73115100  1
  Cu  Cu19  1  0.23482200  0.13071000  0.73115100  1
  Cu  Cu20  1  0.89588700  0.76517800  0.73115100  1
  Cu  Cu21  1  0.13071000  0.89588700  0.23115100  1
  Cu  Cu22  1  0.76517800  0.86929000  0.23115100  1
  Cu  Cu23  1  0.10411300  0.23482200  0.23115100  1
