# generated using pymatgen
data_CuNiC5
_symmetry_space_group_name_H-M   'P 1'
_cell_length_a   8.26870600
_cell_length_b   8.80176500
_cell_length_c   17.79117739
_cell_angle_alpha   60.60554745
_cell_angle_beta   90.00000000
_cell_angle_gamma   90.00000000
_symmetry_Int_Tables_number   1
_chemical_formula_structural   CuNiC5
_chemical_formula_sum   'Cu12 Ni12 C60'
_cell_volume   1128.13338562
_cell_formula_units_Z   12
loop_
 _symmetry_equiv_pos_site_id
 _symmetry_equiv_pos_as_xyz
  1  'x, y, z'
loop_
 _atom_site_type_symbol
 _atom_site_label
 _atom_site_symmetry_multiplicity
 _atom_site_fract_x
 _atom_site_fract_y
 _atom_site_fract_z
 _atom_site_occupancy
  C  C0  1  0.46891000  0.20688700  0.06511200  1
  C  C1  1  0.96891000  0.79311300  0.43488800  1
  C  C2  1  0.53109000  0.79311300  0.93488800  1
  C  C3  1  0.03109000  0.20688700  0.56511200  1
  C  C4  1  0.53160500  0.85560900  0.40806200  1
  C  C5  1  0.03160500  0.14439100  0.09193800  1
  C  C6  1  0.46839500  0.14439100  0.59193800  1
  C  C7  1  0.96839500  0.85560900  0.90806200  1
  C  C8  1  0.54271500  0.49385400  0.24752500  1
  C  C9  1  0.04271500  0.50614600  0.25247500  1
  C  C10  1  0.45728500  0.50614600  0.75247500  1
  C  C11  1  0.95728500  0.49385400  0.74752500  1
  Ni  Ni12  1  0.21930100  0.82025900  0.26505600  1
  Ni  Ni13  1  0.71930100  0.17974100  0.23494400  1
  Ni  Ni14  1  0.78069900  0.17974100  0.73494400  1
  Ni  Ni15  1  0.28069900  0.82025900  0.76505600  1
  Ni  Ni16  1  0.71342600  0.46973900  0.42121100  1
  Ni  Ni17  1  0.21342600  0.53026100  0.07878900  1
  Ni  Ni18  1  0.28657400  0.53026100  0.57878900  1
  Ni  Ni19  1  0.78657400  0.46973900  0.92121100  1
  Ni  Ni20  1  0.21804500  0.15451400  0.40739100  1
  Ni  Ni21  1  0.71804500  0.84548600  0.09260900  1
  Ni  Ni22  1  0.78195500  0.84548600  0.59260900  1
  Ni  Ni23  1  0.28195500  0.15451400  0.90739100  1
  Cu  Cu24  1  0.82671600  0.80974900  0.26656900  1
  Cu  Cu25  1  0.32671600  0.19025100  0.23343100  1
  Cu  Cu26  1  0.17328400  0.19025100  0.73343100  1
  Cu  Cu27  1  0.67328400  0.80974900  0.76656900  1
  Cu  Cu28  1  0.32510300  0.47606000  0.42146700  1
  Cu  Cu29  1  0.82510300  0.52394000  0.07853300  1
  Cu  Cu30  1  0.67489700  0.52394000  0.57853300  1
  Cu  Cu31  1  0.17489700  0.47606000  0.92146700  1
  Cu  Cu32  1  0.82641200  0.15001500  0.40832600  1
  Cu  Cu33  1  0.32641200  0.84998500  0.09167400  1
  Cu  Cu34  1  0.17358800  0.84998500  0.59167400  1
  Cu  Cu35  1  0.67358800  0.15001500  0.90832600  1
  C  C36  1  0.34744300  0.09270600  0.33317700  1
  C  C37  1  0.84744300  0.90729400  0.16682300  1
  C  C38  1  0.65255700  0.90729400  0.66682300  1
  C  C39  1  0.15255700  0.09270600  0.83317700  1
  C  C40  1  0.23786400  0.07457600  0.20261500  1
  C  C41  1  0.73786400  0.92542400  0.29738500  1
  C  C42  1  0.76213600  0.92542400  0.79738500  1
  C  C43  1  0.26213600  0.07457600  0.70261500  1
  C  C44  1  0.22964400  0.36201300  0.20386600  1
  C  C45  1  0.72964400  0.63798700  0.29613400  1
  C  C46  1  0.77035600  0.63798700  0.79613400  1
  C  C47  1  0.27035600  0.36201300  0.70386600  1
  C  C48  1  0.49542100  0.24015900  0.18908200  1
  C  C49  1  0.99542100  0.75984100  0.31091800  1
  C  C50  1  0.50457900  0.75984100  0.81091800  1
  C  C51  1  0.00457900  0.24015900  0.68908200  1
  C  C52  1  0.23142200  0.40846400  0.36775800  1
  C  C53  1  0.73142200  0.59153600  0.13224200  1
  C  C54  1  0.76857800  0.59153600  0.63224200  1
  C  C55  1  0.26857800  0.40846400  0.86775800  1
  C  C56  1  0.23098500  0.74328200  0.17723100  1
  C  C57  1  0.22672100  0.42977500  0.50495800  1
  C  C58  1  0.77327900  0.57022500  0.49504200  1
  C  C59  1  0.27327900  0.42977500  0.00495800  1
  C  C60  1  0.35195900  0.67652700  0.36688000  1
  C  C61  1  0.85195900  0.32347300  0.13312000  1
  C  C62  1  0.64804100  0.32347300  0.63312000  1
  C  C63  1  0.14804100  0.67652700  0.86688000  1
  C  C64  1  0.49066900  0.38069400  0.44830600  1
  C  C65  1  0.99066900  0.61930600  0.05169400  1
  C  C66  1  0.50933100  0.61930600  0.55169400  1
  C  C67  1  0.00933100  0.38069400  0.94830600  1
  C  C68  1  0.34785700  0.73793400  0.04662000  1
  C  C69  1  0.84785700  0.26206600  0.45338000  1
  C  C70  1  0.65214300  0.26206600  0.95338000  1
  C  C71  1  0.15214300  0.73793400  0.54662000  1
  C  C72  1  0.99470400  0.10061900  0.38777000  1
  C  C73  1  0.49470400  0.89938100  0.11223000  1
  C  C74  1  0.00529600  0.89938100  0.61223000  1
  C  C75  1  0.50529600  0.10061900  0.88777000  1
  C  C76  1  0.26711900  0.02235500  0.53191100  1
  C  C77  1  0.76711900  0.97764500  0.96808900  1
  C  C78  1  0.73288100  0.97764500  0.46808900  1
  C  C79  1  0.23288100  0.02235500  0.03191100  1
  C  C80  1  0.26901500  0.74328200  0.67723100  1
  C  C81  1  0.76901500  0.25671800  0.82276900  1
  C  C82  1  0.73098500  0.25671800  0.32276900  1
  C  C83  1  0.72672100  0.57022500  0.99504200  1
