# generated using pymatgen
data_Cu4Ni3C13
_symmetry_space_group_name_H-M   'P 1'
_cell_length_a   6.75532551
_cell_length_b   6.75532551
_cell_length_c   6.75532551
_cell_angle_alpha   109.47122063
_cell_angle_beta   109.47122063
_cell_angle_gamma   109.47122063
_symmetry_Int_Tables_number   1
_chemical_formula_structural   Cu4Ni3C13
_chemical_formula_sum   'Cu4 Ni3 C13'
_cell_volume   237.31049795
_cell_formula_units_Z   1
loop_
 _symmetry_equiv_pos_site_id
 _symmetry_equiv_pos_as_xyz
  1  'x, y, z'
loop_
 _atom_site_type_symbol
 _atom_site_label
 _atom_site_symmetry_multiplicity
 _atom_site_fract_x
 _atom_site_fract_y
 _atom_site_fract_z
 _atom_site_occupancy
  C  C0  1  0.00000000  0.00000000  0.00000000  1
  Ni  Ni1  1  0.00000000  0.50000000  0.50000000  1
  Ni  Ni2  1  0.50000000  0.50000000  0.00000000  1
  Ni  Ni3  1  0.50000000  0.00000000  0.50000000  1
  Cu  Cu4  1  0.50000000  0.50000000  0.50000000  1
  Cu  Cu5  1  0.50000000  0.00000000  0.00000000  1
  Cu  Cu6  1  0.00000000  0.50000000  0.00000000  1
  Cu  Cu7  1  0.00000000  0.00000000  0.50000000  1
  C  C8  1  0.30935900  0.13798600  0.82862700  1
  C  C9  1  0.69064100  0.86201400  0.17137300  1
  C  C10  1  0.69064100  0.51926800  0.82862700  1
  C  C11  1  0.48073200  0.17137300  0.30935900  1
  C  C12  1  0.17137300  0.30935900  0.48073200  1
  C  C13  1  0.82862700  0.30935900  0.13798600  1
  C  C14  1  0.86201400  0.17137300  0.69064100  1
  C  C15  1  0.82862700  0.69064100  0.51926800  1
  C  C16  1  0.30935900  0.48073200  0.17137300  1
  C  C17  1  0.51926800  0.82862700  0.69064100  1
  C  C18  1  0.17137300  0.69064100  0.86201400  1
  C  C19  1  0.13798600  0.82862700  0.30935900  1
