# generated using pymatgen
data_CuNi3C2
_symmetry_space_group_name_H-M   'P 1'
_cell_length_a   5.33329975
_cell_length_b   5.33329975
_cell_length_c   8.34995200
_cell_angle_alpha   90.00000000
_cell_angle_beta   90.00000000
_cell_angle_gamma   119.99999693
_symmetry_Int_Tables_number   1
_chemical_formula_structural   CuNi3C2
_chemical_formula_sum   'Cu2 Ni6 C4'
_cell_volume   205.68688964
_cell_formula_units_Z   2
loop_
 _symmetry_equiv_pos_site_id
 _symmetry_equiv_pos_as_xyz
  1  'x, y, z'
loop_
 _atom_site_type_symbol
 _atom_site_label
 _atom_site_symmetry_multiplicity
 _atom_site_fract_x
 _atom_site_fract_y
 _atom_site_fract_z
 _atom_site_occupancy
  C  C0  1  0.33333300  0.66666700  0.93185200  1
  C  C1  1  0.66666700  0.33333300  0.06814800  1
  C  C2  1  0.66666700  0.33333300  0.43185200  1
  C  C3  1  0.33333300  0.66666700  0.56814800  1
  Ni  Ni4  1  0.82996700  0.17003300  0.75000000  1
  Ni  Ni5  1  0.82996700  0.65993400  0.75000000  1
  Ni  Ni6  1  0.34006600  0.17003300  0.75000000  1
  Ni  Ni7  1  0.17003300  0.82996700  0.25000000  1
  Ni  Ni8  1  0.17003300  0.34006600  0.25000000  1
  Ni  Ni9  1  0.65993400  0.82996700  0.25000000  1
  Cu  Cu10  1  0.00000000  0.00000000  0.00000000  1
  Cu  Cu11  1  0.00000000  0.00000000  0.50000000  1
