# generated using pymatgen
data_Cu20(Ni2C5)3
_symmetry_space_group_name_H-M   'P 1'
_cell_length_a   8.38793198
_cell_length_b   8.44871241
_cell_length_c   9.23298821
_cell_angle_alpha   84.41093741
_cell_angle_beta   84.76298970
_cell_angle_gamma   89.45672618
_symmetry_Int_Tables_number   1
_chemical_formula_structural   Cu20(Ni2C5)3
_chemical_formula_sum   'Cu20 Ni6 C15'
_cell_volume   648.48716181
_cell_formula_units_Z   1
loop_
 _symmetry_equiv_pos_site_id
 _symmetry_equiv_pos_as_xyz
  1  'x, y, z'
loop_
 _atom_site_type_symbol
 _atom_site_label
 _atom_site_symmetry_multiplicity
 _atom_site_fract_x
 _atom_site_fract_y
 _atom_site_fract_z
 _atom_site_occupancy
  C  C0  1  0.80465500  0.40599700  0.92661700  1
  C  C1  1  0.19534500  0.59400300  0.07338300  1
  C  C2  1  0.93476600  0.13905600  0.63907800  1
  C  C3  1  0.06523400  0.86094400  0.36092200  1
  C  C4  1  0.54201800  0.34279500  0.63909200  1
  C  C5  1  0.45798200  0.65720500  0.36090800  1
  C  C6  1  0.25879400  0.27229700  0.36801900  1
  C  C7  1  0.74120600  0.72770300  0.63198100  1
  C  C8  1  0.40348600  0.19793300  0.00802800  1
  C  C9  1  0.59651400  0.80206700  0.99197200  1
  C  C10  1  0.13240600  0.53144100  0.64291100  1
  C  C11  1  0.86759400  0.46855900  0.35708900  1
  C  C12  1  0.00000000  0.00000000  0.00000000  1
  C  C13  1  0.67070100  0.06659700  0.34972400  1
  C  C14  1  0.32929900  0.93340300  0.65027600  1
  Ni  Ni15  1  0.18823200  0.22971200  0.79289700  1
  Ni  Ni16  1  0.81176800  0.77028800  0.20710300  1
  Ni  Ni17  1  0.44793100  0.60799600  0.79196600  1
  Ni  Ni18  1  0.55206900  0.39200400  0.20803400  1
  Ni  Ni19  1  0.99643200  0.20164500  0.21378700  1
  Ni  Ni20  1  0.00356800  0.79835500  0.78621300  1
  Cu  Cu21  1  0.16673200  0.56320400  0.35305200  1
  Cu  Cu22  1  0.83326800  0.43679600  0.64694800  1
  Cu  Cu23  1  0.11532300  0.29512400  0.92705900  1
  Cu  Cu24  1  0.88467700  0.70487600  0.07294100  1
  Cu  Cu25  1  0.56611100  0.35996000  0.36525400  1
  Cu  Cu26  1  0.43388900  0.64004000  0.63474600  1
  Cu  Cu27  1  0.30624100  0.89481100  0.10152900  1
  Cu  Cu28  1  0.69375900  0.10518900  0.89847100  1
  Cu  Cu29  1  0.07408200  0.28476200  0.07727600  1
  Cu  Cu30  1  0.92591800  0.71523800  0.92272400  1
  Cu  Cu31  1  0.35270700  0.94202000  0.22934100  1
  Cu  Cu32  1  0.64729300  0.05798000  0.77065900  1
  Cu  Cu33  1  0.96258500  0.16814900  0.37135900  1
  Cu  Cu34  1  0.03741500  0.83185100  0.62864100  1
  Cu  Cu35  1  0.49436200  0.51325300  0.92475800  1
  Cu  Cu36  1  0.50563800  0.48674700  0.07524200  1
  Cu  Cu37  1  0.23799700  0.23575400  0.63572200  1
  Cu  Cu38  1  0.76200300  0.76424600  0.36427800  1
  Cu  Cu39  1  0.36720800  0.96482100  0.36914700  1
  Cu  Cu40  1  0.63279200  0.03517900  0.63085300  1
