# generated using pymatgen
data_Cu(NiC2)2
_symmetry_space_group_name_H-M   'P 1'
_cell_length_a   2.98393400
_cell_length_b   9.80194000
_cell_length_c   9.97800100
_cell_angle_alpha   90.00000000
_cell_angle_beta   90.00000000
_cell_angle_gamma   90.00000000
_symmetry_Int_Tables_number   1
_chemical_formula_structural   Cu(NiC2)2
_chemical_formula_sum   'Cu4 Ni8 C16'
_cell_volume   291.83998604
_cell_formula_units_Z   4
loop_
 _symmetry_equiv_pos_site_id
 _symmetry_equiv_pos_as_xyz
  1  'x, y, z'
loop_
 _atom_site_type_symbol
 _atom_site_label
 _atom_site_symmetry_multiplicity
 _atom_site_fract_x
 _atom_site_fract_y
 _atom_site_fract_z
 _atom_site_occupancy
  Ni  Ni0  1  0.72700500  0.61821300  0.92791000  1
  Ni  Ni1  1  0.72700500  0.88178700  0.42791000  1
  Ni  Ni2  1  0.27299500  0.38178700  0.42791000  1
  Ni  Ni3  1  0.72700500  0.88178700  0.07209000  1
  Ni  Ni4  1  0.27299500  0.38178700  0.07209000  1
  Ni  Ni5  1  0.72700500  0.61821300  0.57209000  1
  Ni  Ni6  1  0.27299500  0.11821300  0.57209000  1
  Ni  Ni7  1  0.27299500  0.11821300  0.92791000  1
  Cu  Cu8  1  0.17383900  0.86026800  0.75000000  1
  Cu  Cu9  1  0.17383900  0.63973200  0.25000000  1
  Cu  Cu10  1  0.82616100  0.36026800  0.75000000  1
  Cu  Cu11  1  0.82616100  0.13973200  0.25000000  1
  C  C12  1  0.24346400  0.48050600  0.61203100  1
  C  C13  1  0.75653600  0.51949400  0.38796900  1
  C  C14  1  0.19991200  0.75000000  0.50000000  1
  C  C15  1  0.75653600  0.98050600  0.61203100  1
  C  C16  1  0.75653600  0.98050600  0.88796900  1
  C  C17  1  0.67618900  0.78519700  0.25000000  1
  C  C18  1  0.24346400  0.01949400  0.38796900  1
  C  C19  1  0.32381100  0.28519700  0.25000000  1
  C  C20  1  0.19991200  0.75000000  0.00000000  1
  C  C21  1  0.80008800  0.25000000  0.50000000  1
  C  C22  1  0.24346400  0.48050600  0.88796900  1
  C  C23  1  0.32381100  0.21480300  0.75000000  1
  C  C24  1  0.67618900  0.71480300  0.75000000  1
  C  C25  1  0.80008800  0.25000000  0.00000000  1
  C  C26  1  0.24346400  0.01949400  0.11203100  1
  C  C27  1  0.75653600  0.51949400  0.11203100  1
