# generated using pymatgen
data_Cu2Ni5C3
_symmetry_space_group_name_H-M   'P 1'
_cell_length_a   8.00177837
_cell_length_b   8.00177837
_cell_length_c   12.14590600
_cell_angle_alpha   90.00000000
_cell_angle_beta   90.00000000
_cell_angle_gamma   113.90850002
_symmetry_Int_Tables_number   1
_chemical_formula_structural   Cu2Ni5C3
_chemical_formula_sum   'Cu4 Ni10 C6'
_cell_volume   710.95357746
_cell_formula_units_Z   2
loop_
 _symmetry_equiv_pos_site_id
 _symmetry_equiv_pos_as_xyz
  1  'x, y, z'
loop_
 _atom_site_type_symbol
 _atom_site_label
 _atom_site_symmetry_multiplicity
 _atom_site_fract_x
 _atom_site_fract_y
 _atom_site_fract_z
 _atom_site_occupancy
  C  C0  1  0.46664500  0.91154700  0.26014100  1
  C  C1  1  0.08845300  0.53335500  0.76014100  1
  C  C2  1  0.53335500  0.08845300  0.76014100  1
  C  C3  1  0.91154700  0.46664500  0.26014100  1
  C  C4  1  0.97074500  0.97074500  0.53133100  1
  C  C5  1  0.02925500  0.02925500  0.03133100  1
  Ni  Ni6  1  0.27540800  0.27540800  0.48296600  1
  Ni  Ni7  1  0.67321800  0.67321800  0.59191900  1
  Ni  Ni8  1  0.32678200  0.32678200  0.09191900  1
  Ni  Ni9  1  0.72459200  0.72459200  0.98296600  1
  Ni  Ni10  1  0.15560700  0.76037400  0.50724200  1
  Ni  Ni11  1  0.23962600  0.84439300  0.00724200  1
  Ni  Ni12  1  0.76037400  0.15560700  0.50724200  1
  Ni  Ni13  1  0.84439300  0.23962600  0.00724200  1
  Ni  Ni14  1  0.94476200  0.94476200  0.26587900  1
  Ni  Ni15  1  0.05523800  0.05523800  0.76587900  1
  Cu  Cu16  1  0.46576000  0.25124100  0.18331900  1
  Cu  Cu17  1  0.74875900  0.53424000  0.68331900  1
  Cu  Cu18  1  0.53424000  0.74875900  0.68331900  1
  Cu  Cu19  1  0.25124100  0.46576000  0.18331900  1
