# generated using pymatgen
data_Cu4Ni6C11
_symmetry_space_group_name_H-M   'P 1'
_cell_length_a   11.47125375
_cell_length_b   11.47125375
_cell_length_c   11.47125375
_cell_angle_alpha   119.84410175
_cell_angle_beta   119.84410175
_cell_angle_gamma   90.27023645
_symmetry_Int_Tables_number   1
_chemical_formula_structural   Cu4Ni6C11
_chemical_formula_sum   'Cu8 Ni12 C22'
_cell_volume   1069.87884047
_cell_formula_units_Z   2
loop_
 _symmetry_equiv_pos_site_id
 _symmetry_equiv_pos_as_xyz
  1  'x, y, z'
loop_
 _atom_site_type_symbol
 _atom_site_label
 _atom_site_symmetry_multiplicity
 _atom_site_fract_x
 _atom_site_fract_y
 _atom_site_fract_z
 _atom_site_occupancy
  C  C0  1  0.68422500  0.93414200  0.24991700  1
  C  C1  1  0.68422500  0.43430800  0.75008300  1
  C  C2  1  0.93414200  0.68422500  0.24991700  1
  C  C3  1  0.43430800  0.68422500  0.75008300  1
  C  C4  1  0.31577500  0.06585800  0.75008300  1
  C  C5  1  0.31577500  0.56569200  0.24991700  1
  C  C6  1  0.06585800  0.31577500  0.75008300  1
  C  C7  1  0.56569200  0.31577500  0.24991700  1
  C  C8  1  0.89879200  0.24639900  0.34760700  1
  C  C9  1  0.89879200  0.55118400  0.65239300  1
  C  C10  1  0.24639900  0.89879200  0.34760700  1
  C  C11  1  0.55118400  0.89879200  0.65239300  1
  C  C12  1  0.10120800  0.75360100  0.65239300  1
  C  C13  1  0.10120800  0.44881600  0.34760700  1
  C  C14  1  0.75360100  0.10120800  0.65239300  1
  C  C15  1  0.44881600  0.10120800  0.34760700  1
  C  C16  1  0.33236300  0.33236300  0.66472500  1
  C  C17  1  0.66763700  0.66763700  0.33527500  1
  C  C18  1  0.33236300  0.66763700  0.00000000  1
  C  C19  1  0.66763700  0.33236300  0.00000000  1
  C  C20  1  0.83136000  0.83136000  0.00000000  1
  C  C21  1  0.16864000  0.16864000  0.00000000  1
  Ni  Ni22  1  0.03449900  0.03449900  0.41122400  1
  Ni  Ni23  1  0.62327600  0.62327600  0.58877600  1
  Ni  Ni24  1  0.03449900  0.62327600  0.00000000  1
  Ni  Ni25  1  0.62327600  0.03449900  0.00000000  1
  Ni  Ni26  1  0.96550100  0.96550100  0.58877600  1
  Ni  Ni27  1  0.37672400  0.37672400  0.41122400  1
  Ni  Ni28  1  0.96550100  0.37672400  0.00000000  1
  Ni  Ni29  1  0.37672400  0.96550100  0.00000000  1
  Ni  Ni30  1  0.12918500  0.12918500  0.25837100  1
  Ni  Ni31  1  0.87081500  0.87081500  0.74162900  1
  Ni  Ni32  1  0.12918500  0.87081500  0.00000000  1
  Ni  Ni33  1  0.87081500  0.12918500  0.00000000  1
  Cu  Cu34  1  0.15310500  0.50000000  0.65310500  1
  Cu  Cu35  1  0.84689500  0.50000000  0.34689500  1
  Cu  Cu36  1  0.50000000  0.84689500  0.34689500  1
  Cu  Cu37  1  0.50000000  0.15310500  0.65310500  1
  Cu  Cu38  1  0.61553400  0.61553400  0.00000000  1
  Cu  Cu39  1  0.38446600  0.38446600  0.00000000  1
  Cu  Cu40  1  0.75000000  0.25000000  0.50000000  1
  Cu  Cu41  1  0.25000000  0.75000000  0.50000000  1
