# generated using pymatgen
data_CuNiC
_symmetry_space_group_name_H-M   'P 1'
_cell_length_a   4.24937000
_cell_length_b   8.25192002
_cell_length_c   8.25192102
_cell_angle_alpha   60.00871788
_cell_angle_beta   90.00000000
_cell_angle_gamma   90.00000000
_symmetry_Int_Tables_number   1
_chemical_formula_structural   CuNiC
_chemical_formula_sum   'Cu3 Ni3 C3'
_cell_volume   250.61288546
_cell_formula_units_Z   3
loop_
 _symmetry_equiv_pos_site_id
 _symmetry_equiv_pos_as_xyz
  1  'x, y, z'
loop_
 _atom_site_type_symbol
 _atom_site_label
 _atom_site_symmetry_multiplicity
 _atom_site_fract_x
 _atom_site_fract_y
 _atom_site_fract_z
 _atom_site_occupancy
  Ni  Ni0  1  0.00000000  0.23299400  0.76700600  1
  Ni  Ni1  1  0.00000000  0.76703900  0.99982500  1
  Ni  Ni2  1  0.00000000  0.00017500  0.23296100  1
  Cu  Cu3  1  0.50000000  0.60754900  0.39245000  1
  Cu  Cu4  1  0.50000000  0.39226300  0.00006200  1
  Cu  Cu5  1  0.50000000  0.99993800  0.60773700  1
  C  C6  1  0.50000000  0.00005000  0.99995000  1
  C  C7  1  0.00000000  0.33325600  0.33336400  1
  C  C8  1  0.00000000  0.66663600  0.66674400  1
