# generated using pymatgen
data_Cu3Ni3C14
_symmetry_space_group_name_H-M   'P 1'
_cell_length_a   7.51486100
_cell_length_b   8.07629100
_cell_length_c   16.08834132
_cell_angle_alpha   59.83208014
_cell_angle_beta   90.00000000
_cell_angle_gamma   90.00000000
_symmetry_Int_Tables_number   1
_chemical_formula_structural   Cu3Ni3C14
_chemical_formula_sum   'Cu12 Ni12 C56'
_cell_volume   844.18468080
_cell_formula_units_Z   4
loop_
 _symmetry_equiv_pos_site_id
 _symmetry_equiv_pos_as_xyz
  1  'x, y, z'
loop_
 _atom_site_type_symbol
 _atom_site_label
 _atom_site_symmetry_multiplicity
 _atom_site_fract_x
 _atom_site_fract_y
 _atom_site_fract_z
 _atom_site_occupancy
  C  C0  1  0.04731200  0.66255800  0.58864900  1
  C  C1  1  0.45268800  0.66255800  0.08864900  1
  C  C2  1  0.95268800  0.33744200  0.41135100  1
  C  C3  1  0.54731200  0.33744200  0.91135100  1
  C  C4  1  0.93826800  0.32326300  0.92642500  1
  C  C5  1  0.43826800  0.67673700  0.57357500  1
  C  C6  1  0.06173200  0.67673700  0.07357500  1
  C  C7  1  0.56173200  0.32326300  0.42642500  1
  Ni  Ni8  1  0.65464900  0.66055700  0.26557700  1
  Ni  Ni9  1  0.84046400  0.02439300  0.90328700  1
  Ni  Ni10  1  0.34046400  0.97560700  0.59671300  1
  Ni  Ni11  1  0.15953600  0.97560700  0.09671300  1
  Ni  Ni12  1  0.65953600  0.02439300  0.40328700  1
  Ni  Ni13  1  0.34585500  0.69615200  0.91462900  1
  Ni  Ni14  1  0.84585500  0.30384800  0.58537100  1
  Ni  Ni15  1  0.65414500  0.30384800  0.08537100  1
  Ni  Ni16  1  0.15414500  0.69615200  0.41462900  1
  Ni  Ni17  1  0.84535100  0.66055700  0.76557700  1
  Ni  Ni18  1  0.34535100  0.33944300  0.73442300  1
  Ni  Ni19  1  0.15464900  0.33944300  0.23442300  1
  Cu  Cu20  1  0.27089300  0.66169800  0.26671500  1
  Cu  Cu21  1  0.77089300  0.33830200  0.23328500  1
  Cu  Cu22  1  0.72910700  0.33830200  0.73328500  1
  Cu  Cu23  1  0.22910700  0.66169800  0.76671500  1
  Cu  Cu24  1  0.76719000  0.69316000  0.41936800  1
  Cu  Cu25  1  0.26719000  0.30684000  0.08063200  1
  Cu  Cu26  1  0.23281000  0.30684000  0.58063200  1
  Cu  Cu27  1  0.73281000  0.69316000  0.91936800  1
  Cu  Cu28  1  0.26731800  0.03823400  0.40120900  1
  Cu  Cu29  1  0.76731800  0.96176600  0.09879100  1
  Cu  Cu30  1  0.73268200  0.96176600  0.59879100  1
  Cu  Cu31  1  0.23268200  0.03823400  0.90120900  1
  C  C32  1  0.37521100  0.21129800  0.53804200  1
  C  C33  1  0.46256400  0.57172500  0.32315600  1
  C  C34  1  0.96256400  0.42827500  0.17684400  1
  C  C35  1  0.53743600  0.42827500  0.67684400  1
  C  C36  1  0.03743600  0.57172500  0.82315600  1
  C  C37  1  0.96342800  0.71655900  0.46074900  1
  C  C38  1  0.46342800  0.28344100  0.03925100  1
  C  C39  1  0.03657200  0.28344100  0.53925100  1
  C  C40  1  0.53657200  0.71655900  0.96074900  1
  C  C41  1  0.46732900  0.13744200  0.39097800  1
  C  C42  1  0.96732900  0.86255800  0.10902200  1
  C  C43  1  0.53267100  0.86255800  0.60902200  1
  C  C44  1  0.37156800  0.22362000  0.85246500  1
  C  C45  1  0.87156800  0.77638000  0.64753500  1
  C  C46  1  0.62843200  0.77638000  0.14753500  1
  C  C47  1  0.12843200  0.22362000  0.35246500  1
  C  C48  1  0.87521100  0.78870200  0.96195800  1
  C  C49  1  0.03267100  0.13744200  0.89097800  1
  C  C50  1  0.12478900  0.21129800  0.03804200  1
  C  C51  1  0.62478900  0.78870200  0.46195800  1
  C  C52  1  0.73499900  0.09172300  0.97820000  1
  C  C53  1  0.87665500  0.42095200  0.64505800  1
  C  C54  1  0.62334500  0.42095200  0.14505800  1
  C  C55  1  0.12334500  0.57904800  0.35494200  1
  C  C56  1  0.76794300  0.11571300  0.30939900  1
  C  C57  1  0.26794300  0.88428700  0.19060100  1
  C  C58  1  0.23205700  0.88428700  0.69060100  1
  C  C59  1  0.73205700  0.11571300  0.80939900  1
  C  C60  1  0.76095100  0.76270700  0.30810200  1
  C  C61  1  0.26095100  0.23729300  0.19189800  1
  C  C62  1  0.23904900  0.23729300  0.69189800  1
  C  C63  1  0.73904900  0.76270700  0.80810200  1
  C  C64  1  0.26091200  0.88389600  0.36782900  1
  C  C65  1  0.76091200  0.11610400  0.13217100  1
  C  C66  1  0.73908800  0.11610400  0.63217100  1
  C  C67  1  0.23908800  0.88389600  0.86782900  1
  C  C68  1  0.75190200  0.44038700  0.30412800  1
  C  C69  1  0.25190200  0.55961300  0.19587200  1
  C  C70  1  0.24809800  0.55961300  0.69587200  1
  C  C71  1  0.74809800  0.44038700  0.80412800  1
  C  C72  1  0.73652100  0.45260300  0.47563100  1
  C  C73  1  0.23652100  0.54739700  0.02436900  1
  C  C74  1  0.26347900  0.54739700  0.52436900  1
  C  C75  1  0.76347900  0.45260300  0.97563100  1
  C  C76  1  0.76500100  0.09172300  0.47820000  1
  C  C77  1  0.26500100  0.90827700  0.02180000  1
  C  C78  1  0.23499900  0.90827700  0.52180000  1
  C  C79  1  0.37665500  0.57904800  0.85494200  1
