# generated using pymatgen
data_Cu(NiC7)3
_symmetry_space_group_name_H-M   'P 1'
_cell_length_a   11.37084197
_cell_length_b   11.37084197
_cell_length_c   6.17815500
_cell_angle_alpha   90.00000000
_cell_angle_beta   90.00000000
_cell_angle_gamma   119.99999983
_symmetry_Int_Tables_number   1
_chemical_formula_structural   Cu(NiC7)3
_chemical_formula_sum   'Cu2 Ni6 C42'
_cell_volume   691.79063730
_cell_formula_units_Z   2
loop_
 _symmetry_equiv_pos_site_id
 _symmetry_equiv_pos_as_xyz
  1  'x, y, z'
loop_
 _atom_site_type_symbol
 _atom_site_label
 _atom_site_symmetry_multiplicity
 _atom_site_fract_x
 _atom_site_fract_y
 _atom_site_fract_z
 _atom_site_occupancy
  Ni  Ni0  1  0.84254500  0.73940200  0.75000000  1
  Ni  Ni1  1  0.89685700  0.15745500  0.75000000  1
  Ni  Ni2  1  0.26059800  0.10314300  0.75000000  1
  Ni  Ni3  1  0.15745500  0.26059800  0.25000000  1
  Ni  Ni4  1  0.10314300  0.84254500  0.25000000  1
  Ni  Ni5  1  0.73940200  0.89685700  0.25000000  1
  Cu  Cu6  1  0.33333300  0.66666700  0.25000000  1
  Cu  Cu7  1  0.66666700  0.33333300  0.75000000  1
  C  C8  1  0.50000000  0.50000000  0.50000000  1
  C  C9  1  0.00000000  0.50000000  0.50000000  1
  C  C10  1  0.50000000  0.00000000  0.50000000  1
  C  C11  1  0.50000000  0.50000000  0.00000000  1
  C  C12  1  0.00000000  0.50000000  0.00000000  1
  C  C13  1  0.50000000  0.00000000  0.00000000  1
  C  C14  1  0.21451100  0.39839500  0.75000000  1
  C  C15  1  0.18388400  0.78548900  0.75000000  1
  C  C16  1  0.60160500  0.81611600  0.75000000  1
  C  C17  1  0.78548900  0.60160500  0.25000000  1
  C  C18  1  0.81611600  0.21451100  0.25000000  1
  C  C19  1  0.39839500  0.18388400  0.25000000  1
  C  C20  1  0.52352800  0.61069700  0.25000000  1
  C  C21  1  0.08716900  0.47647200  0.25000000  1
  C  C22  1  0.38930300  0.91283100  0.25000000  1
  C  C23  1  0.47647200  0.38930300  0.75000000  1
  C  C24  1  0.91283100  0.52352800  0.75000000  1
  C  C25  1  0.61069700  0.08716900  0.75000000  1
  C  C26  1  0.30934300  0.47810600  0.51951900  1
  C  C27  1  0.16876300  0.69065700  0.51951900  1
  C  C28  1  0.52189400  0.83123700  0.51951900  1
  C  C29  1  0.69065700  0.52189400  0.01951900  1
  C  C30  1  0.83123700  0.30934300  0.01951900  1
  C  C31  1  0.47810600  0.16876300  0.01951900  1
  C  C32  1  0.69065700  0.52189400  0.48048100  1
  C  C33  1  0.83123700  0.30934300  0.48048100  1
  C  C34  1  0.47810600  0.16876300  0.48048100  1
  C  C35  1  0.30934300  0.47810600  0.98048100  1
  C  C36  1  0.16876300  0.69065700  0.98048100  1
  C  C37  1  0.52189400  0.83123700  0.98048100  1
  C  C38  1  0.07795100  0.42424600  0.75000000  1
  C  C39  1  0.34629500  0.92204900  0.75000000  1
  C  C40  1  0.57575400  0.65370500  0.75000000  1
  C  C41  1  0.92204900  0.57575400  0.25000000  1
  C  C42  1  0.65370500  0.07795100  0.25000000  1
  C  C43  1  0.42424600  0.34629500  0.25000000  1
  C  C44  1  0.14857600  0.22774600  0.75000000  1
  C  C45  1  0.07917000  0.85142400  0.75000000  1
  C  C46  1  0.77225400  0.92083000  0.75000000  1
  C  C47  1  0.85142400  0.77225400  0.25000000  1
  C  C48  1  0.92083000  0.14857600  0.25000000  1
  C  C49  1  0.22774600  0.07917000  0.25000000  1
