# generated using pymatgen
data_Cu3NiC10
_symmetry_space_group_name_H-M   'P 1'
_cell_length_a   6.05189774
_cell_length_b   6.05189774
_cell_length_c   6.05189778
_cell_angle_alpha   59.56466542
_cell_angle_beta   59.56466542
_cell_angle_gamma   59.56466334
_symmetry_Int_Tables_number   1
_chemical_formula_structural   Cu3NiC10
_chemical_formula_sum   'Cu3 Ni1 C10'
_cell_volume   155.18159544
_cell_formula_units_Z   1
loop_
 _symmetry_equiv_pos_site_id
 _symmetry_equiv_pos_as_xyz
  1  'x, y, z'
loop_
 _atom_site_type_symbol
 _atom_site_label
 _atom_site_symmetry_multiplicity
 _atom_site_fract_x
 _atom_site_fract_y
 _atom_site_fract_z
 _atom_site_occupancy
  C  C0  1  0.87525200  0.87525200  0.87525200  1
  C  C1  1  0.12474800  0.12474800  0.12474800  1
  Ni  Ni2  1  0.50000000  0.50000000  0.50000000  1
  Cu  Cu3  1  0.50000000  0.50000000  0.00000000  1
  Cu  Cu4  1  0.50000000  0.00000000  0.50000000  1
  Cu  Cu5  1  0.00000000  0.50000000  0.50000000  1
  C  C6  1  0.73734000  0.28012100  0.73734000  1
  C  C7  1  0.73734000  0.73734000  0.28012100  1
  C  C8  1  0.26696400  0.26696400  0.26696400  1
  C  C9  1  0.28012100  0.73734000  0.73734000  1
  C  C10  1  0.71987900  0.26266000  0.26266000  1
  C  C11  1  0.73303600  0.73303600  0.73303600  1
  C  C12  1  0.26266000  0.26266000  0.71987900  1
  C  C13  1  0.26266000  0.71987900  0.26266000  1
