# generated using pymatgen
data_CuNiC12
_symmetry_space_group_name_H-M   'P 1'
_cell_length_a   6.41811700
_cell_length_b   7.71022700
_cell_length_c   14.35121300
_cell_angle_alpha   90.00000000
_cell_angle_beta   90.00000000
_cell_angle_gamma   90.00000000
_symmetry_Int_Tables_number   1
_chemical_formula_structural   CuNiC12
_chemical_formula_sum   'Cu4 Ni4 C48'
_cell_volume   710.17176987
_cell_formula_units_Z   4
loop_
 _symmetry_equiv_pos_site_id
 _symmetry_equiv_pos_as_xyz
  1  'x, y, z'
loop_
 _atom_site_type_symbol
 _atom_site_label
 _atom_site_symmetry_multiplicity
 _atom_site_fract_x
 _atom_site_fract_y
 _atom_site_fract_z
 _atom_site_occupancy
  C  C0  1  0.75000000  0.46698900  0.30855600  1
  C  C1  1  0.75000000  0.03301100  0.80855600  1
  C  C2  1  0.25000000  0.53301100  0.69144400  1
  C  C3  1  0.25000000  0.96698900  0.19144400  1
  Ni  Ni4  1  0.50000000  0.50000000  0.50000000  1
  Ni  Ni5  1  0.50000000  0.00000000  0.00000000  1
  Ni  Ni6  1  0.00000000  0.00000000  0.00000000  1
  Ni  Ni7  1  0.00000000  0.50000000  0.50000000  1
  Cu  Cu8  1  0.75000000  0.85550300  0.38304700  1
  Cu  Cu9  1  0.25000000  0.14449700  0.61695300  1
  Cu  Cu10  1  0.25000000  0.35550300  0.11695300  1
  Cu  Cu11  1  0.75000000  0.64449700  0.88304700  1
  C  C12  1  0.25000000  0.85329600  0.42868600  1
  C  C13  1  0.75000000  0.14670400  0.57131400  1
  C  C14  1  0.75000000  0.35329600  0.07131400  1
  C  C15  1  0.25000000  0.64670400  0.92868600  1
  C  C16  1  0.75000000  0.87693000  0.19016600  1
  C  C17  1  0.25000000  0.12307000  0.80983400  1
  C  C18  1  0.25000000  0.37693000  0.30983400  1
  C  C19  1  0.75000000  0.62307000  0.69016600  1
  C  C20  1  0.04474200  0.10937300  0.86659400  1
  C  C21  1  0.54474200  0.89062700  0.13340600  1
  C  C22  1  0.95525800  0.60937300  0.63340600  1
  C  C23  1  0.45525800  0.39062700  0.36659400  1
  C  C24  1  0.95525800  0.89062700  0.13340600  1
  C  C25  1  0.45525800  0.10937300  0.86659400  1
  C  C26  1  0.04474200  0.39062700  0.36659400  1
  C  C27  1  0.54474200  0.60937300  0.63340600  1
  C  C28  1  0.25000000  0.82409000  0.97643400  1
  C  C29  1  0.75000000  0.17591000  0.02356600  1
  C  C30  1  0.75000000  0.32409000  0.52356600  1
  C  C31  1  0.25000000  0.67591000  0.47643400  1
  C  C32  1  0.75000000  0.61514900  0.43345600  1
  C  C33  1  0.25000000  0.38485100  0.56654400  1
  C  C34  1  0.25000000  0.11514900  0.06654400  1
  C  C35  1  0.75000000  0.88485100  0.93345600  1
  C  C36  1  0.75000000  0.70381500  0.24805800  1
  C  C37  1  0.25000000  0.29618500  0.75194200  1
  C  C38  1  0.25000000  0.20381500  0.25194200  1
  C  C39  1  0.75000000  0.79618500  0.74805800  1
  C  C40  1  0.43499900  0.62494100  0.86016800  1
  C  C41  1  0.93499900  0.37505900  0.13983200  1
  C  C42  1  0.56500100  0.12494100  0.63983200  1
  C  C43  1  0.06500100  0.87505900  0.36016800  1
  C  C44  1  0.56500100  0.37505900  0.13983200  1
  C  C45  1  0.06500100  0.62494100  0.86016800  1
  C  C46  1  0.43499900  0.87505900  0.36016800  1
  C  C47  1  0.93499900  0.12494100  0.63983200  1
  C  C48  1  0.75000000  0.47892100  0.76794700  1
  C  C49  1  0.25000000  0.52107900  0.23205300  1
  C  C50  1  0.25000000  0.97892100  0.73205300  1
  C  C51  1  0.75000000  0.02107900  0.26794700  1
  C  C52  1  0.75000000  0.50272300  0.00048800  1
  C  C53  1  0.25000000  0.49727700  0.99951200  1
  C  C54  1  0.25000000  0.00272300  0.49951200  1
  C  C55  1  0.75000000  0.99727700  0.50048800  1
