# generated using pymatgen
data_Cu(NiC)2
_symmetry_space_group_name_H-M   'P 1'
_cell_length_a   5.08953000
_cell_length_b   14.00431500
_cell_length_c   16.46794300
_cell_angle_alpha   90.00000000
_cell_angle_beta   90.00000000
_cell_angle_gamma   90.00000000
_symmetry_Int_Tables_number   1
_chemical_formula_structural   Cu(NiC)2
_chemical_formula_sum   'Cu8 Ni16 C16'
_cell_volume   1173.75891691
_cell_formula_units_Z   8
loop_
 _symmetry_equiv_pos_site_id
 _symmetry_equiv_pos_as_xyz
  1  'x, y, z'
loop_
 _atom_site_type_symbol
 _atom_site_label
 _atom_site_symmetry_multiplicity
 _atom_site_fract_x
 _atom_site_fract_y
 _atom_site_fract_z
 _atom_site_occupancy
  C  C0  1  0.25000000  0.18415000  0.09752500  1
  C  C1  1  0.25000000  0.31585000  0.59752500  1
  C  C2  1  0.75000000  0.81585000  0.90247500  1
  C  C3  1  0.75000000  0.68415000  0.40247500  1
  C  C4  1  0.25000000  0.47597700  0.18650900  1
  C  C5  1  0.25000000  0.02402300  0.68650900  1
  C  C6  1  0.75000000  0.52402300  0.81349100  1
  C  C7  1  0.75000000  0.97597700  0.31349100  1
  Ni  Ni8  1  0.47249100  0.29832900  0.04562800  1
  Ni  Ni9  1  0.02750900  0.20167100  0.54562800  1
  Ni  Ni10  1  0.97249100  0.70167100  0.95437200  1
  Ni  Ni11  1  0.52750900  0.79832900  0.45437200  1
  Ni  Ni12  1  0.52750900  0.70167100  0.95437200  1
  Ni  Ni13  1  0.97249100  0.79832900  0.45437200  1
  Ni  Ni14  1  0.02750900  0.29832900  0.04562800  1
  Ni  Ni15  1  0.47249100  0.20167100  0.54562800  1
  Ni  Ni16  1  0.51974700  0.16039600  0.15711000  1
  Ni  Ni17  1  0.98025300  0.33960400  0.65711000  1
  Ni  Ni18  1  0.01974700  0.83960400  0.84289000  1
  Ni  Ni19  1  0.48025300  0.66039600  0.34289000  1
  Ni  Ni20  1  0.48025300  0.83960400  0.84289000  1
  Ni  Ni21  1  0.01974700  0.66039600  0.34289000  1
  Ni  Ni22  1  0.98025300  0.16039600  0.15711000  1
  Ni  Ni23  1  0.51974700  0.33960400  0.65711000  1
  Cu  Cu24  1  0.25000000  0.08157000  0.99189700  1
  Cu  Cu25  1  0.25000000  0.41843000  0.49189700  1
  Cu  Cu26  1  0.75000000  0.91843000  0.00810300  1
  Cu  Cu27  1  0.75000000  0.58157000  0.50810300  1
  Cu  Cu28  1  0.75000000  0.33554700  0.02956000  1
  Cu  Cu29  1  0.75000000  0.16445300  0.52956000  1
  Cu  Cu30  1  0.25000000  0.66445300  0.97044000  1
  Cu  Cu31  1  0.25000000  0.83554700  0.47044000  1
  C  C32  1  0.25000000  0.45361200  0.27230600  1
  C  C33  1  0.25000000  0.04638800  0.77230600  1
  C  C34  1  0.75000000  0.54638800  0.72769400  1
  C  C35  1  0.75000000  0.95361200  0.22769400  1
  C  C36  1  0.25000000  0.57469800  0.16031300  1
  C  C37  1  0.25000000  0.92530200  0.66031300  1
  C  C38  1  0.75000000  0.42530200  0.83968700  1
  C  C39  1  0.75000000  0.07469800  0.33968700  1
