# generated using pymatgen
data_CuNiC29
_symmetry_space_group_name_H-M   'P 1'
_cell_length_a   4.21256800
_cell_length_b   8.37666900
_cell_length_c   10.41061500
_cell_angle_alpha   90.00000000
_cell_angle_beta   90.00000000
_cell_angle_gamma   90.00000000
_symmetry_Int_Tables_number   1
_chemical_formula_structural   CuNiC29
_chemical_formula_sum   'Cu1 Ni1 C29'
_cell_volume   367.36236743
_cell_formula_units_Z   1
loop_
 _symmetry_equiv_pos_site_id
 _symmetry_equiv_pos_as_xyz
  1  'x, y, z'
loop_
 _atom_site_type_symbol
 _atom_site_label
 _atom_site_symmetry_multiplicity
 _atom_site_fract_x
 _atom_site_fract_y
 _atom_site_fract_z
 _atom_site_occupancy
  Ni  Ni0  1  0.00000000  0.50000000  0.44639400  1
  Cu  Cu1  1  0.00000000  0.00000000  0.02017200  1
  C  C2  1  0.00000000  0.50000000  0.98182300  1
  C  C3  1  0.00000000  0.00000000  0.48124900  1
  C  C4  1  0.50000000  0.75978400  0.98503100  1
  C  C5  1  0.50000000  0.24021600  0.98503100  1
  C  C6  1  0.50000000  0.75474300  0.56998000  1
  C  C7  1  0.50000000  0.24525700  0.56998000  1
  C  C8  1  0.50000000  0.00000000  0.78344200  1
  C  C9  1  0.50000000  0.50000000  0.76851000  1
  C  C10  1  0.50000000  0.00000000  0.27311100  1
  C  C11  1  0.50000000  0.50000000  0.17541100  1
  C  C12  1  0.00000000  0.72854900  0.76884900  1
  C  C13  1  0.00000000  0.27145100  0.76884900  1
  C  C14  1  0.00000000  0.75100000  0.18643900  1
  C  C15  1  0.00000000  0.24900000  0.18643900  1
  C  C16  1  0.00000000  0.50000000  0.78732200  1
  C  C17  1  0.00000000  0.00000000  0.26016500  1
  C  C18  1  0.00000000  0.50000000  0.18658900  1
  C  C19  1  0.50000000  0.76612500  0.76972300  1
  C  C20  1  0.50000000  0.23387500  0.76972300  1
  C  C21  1  0.50000000  0.75123300  0.19850100  1
  C  C22  1  0.50000000  0.24876700  0.19850100  1
  C  C23  1  0.50000000  0.00000000  0.96570100  1
  C  C24  1  0.50000000  0.50000000  0.97926600  1
  C  C25  1  0.50000000  0.00000000  0.47391500  1
  C  C26  1  0.50000000  0.50000000  0.57745900  1
  C  C27  1  0.00000000  0.74419800  0.98216100  1
  C  C28  1  0.00000000  0.25580200  0.98216100  1
  C  C29  1  0.00000000  0.79833900  0.58405400  1
  C  C30  1  0.00000000  0.20166100  0.58405400  1
