# generated using pymatgen
data_Cu3(Ni3C4)4
_symmetry_space_group_name_H-M   'P 1'
_cell_length_a   11.72945840
_cell_length_b   11.72945840
_cell_length_c   11.72945822
_cell_angle_alpha   110.79495642
_cell_angle_beta   110.79495642
_cell_angle_gamma   110.79496271
_symmetry_Int_Tables_number   1
_chemical_formula_structural   Cu3(Ni3C4)4
_chemical_formula_sum   'Cu6 Ni24 C32'
_cell_volume   1177.45165145
_cell_formula_units_Z   2
loop_
 _symmetry_equiv_pos_site_id
 _symmetry_equiv_pos_as_xyz
  1  'x, y, z'
loop_
 _atom_site_type_symbol
 _atom_site_label
 _atom_site_symmetry_multiplicity
 _atom_site_fract_x
 _atom_site_fract_y
 _atom_site_fract_z
 _atom_site_occupancy
  C  C0  1  0.00000000  0.00000000  0.00000000  1
  C  C1  1  0.50000000  0.50000000  0.50000000  1
  C  C2  1  0.02944600  0.83785700  0.76527300  1
  C  C3  1  0.76527300  0.02944600  0.83785700  1
  C  C4  1  0.83785700  0.76527300  0.02944600  1
  C  C5  1  0.97055400  0.16214300  0.23472700  1
  C  C6  1  0.23472700  0.97055400  0.16214300  1
  C  C7  1  0.16214300  0.23472700  0.97055400  1
  C  C8  1  0.51917100  0.32919800  0.26435900  1
  C  C9  1  0.26435900  0.51917100  0.32919800  1
  C  C10  1  0.32919800  0.26435900  0.51917100  1
  C  C11  1  0.48082900  0.67080200  0.73564100  1
  C  C12  1  0.73564100  0.48082900  0.67080200  1
  C  C13  1  0.67080200  0.73564100  0.48082900  1
  Ni  Ni14  1  0.06354900  0.77426600  0.67444500  1
  Ni  Ni15  1  0.67444500  0.06354900  0.77426600  1
  Ni  Ni16  1  0.77426600  0.67444500  0.06354900  1
  Ni  Ni17  1  0.93645100  0.22573400  0.32555500  1
  Ni  Ni18  1  0.32555500  0.93645100  0.22573400  1
  Ni  Ni19  1  0.22573400  0.32555500  0.93645100  1
  Ni  Ni20  1  0.05044900  0.89454000  0.68744600  1
  Ni  Ni21  1  0.68744600  0.05044900  0.89454000  1
  Ni  Ni22  1  0.89454000  0.68744600  0.05044900  1
  Ni  Ni23  1  0.94955100  0.10546000  0.31255400  1
  Ni  Ni24  1  0.31255400  0.94955100  0.10546000  1
  Ni  Ni25  1  0.10546000  0.31255400  0.94955100  1
  Ni  Ni26  1  0.54353500  0.26062700  0.16571800  1
  Ni  Ni27  1  0.16571800  0.54353500  0.26062700  1
  Ni  Ni28  1  0.26062700  0.16571800  0.54353500  1
  Ni  Ni29  1  0.45646500  0.73937300  0.83428200  1
  Ni  Ni30  1  0.83428200  0.45646500  0.73937300  1
  Ni  Ni31  1  0.73937300  0.83428200  0.45646500  1
  Ni  Ni32  1  0.53167800  0.38167000  0.18131100  1
  Ni  Ni33  1  0.18131100  0.53167800  0.38167000  1
  Ni  Ni34  1  0.38167000  0.18131100  0.53167800  1
  Ni  Ni35  1  0.46832200  0.61833000  0.81868900  1
  Ni  Ni36  1  0.81868900  0.46832200  0.61833000  1
  Ni  Ni37  1  0.61833000  0.81868900  0.46832200  1
  Cu  Cu38  1  0.83158800  0.16521200  0.55748000  1
  Cu  Cu39  1  0.55748000  0.83158800  0.16521200  1
  Cu  Cu40  1  0.16521200  0.55748000  0.83158800  1
  Cu  Cu41  1  0.16841200  0.83478800  0.44252000  1
  Cu  Cu42  1  0.44252000  0.16841200  0.83478800  1
  Cu  Cu43  1  0.83478800  0.44252000  0.16841200  1
  C  C44  1  0.99829800  0.83789700  0.85670300  1
  C  C45  1  0.85670300  0.99829800  0.83789700  1
  C  C46  1  0.83789700  0.85670300  0.99829800  1
  C  C47  1  0.00170200  0.16210300  0.14329700  1
  C  C48  1  0.14329700  0.00170200  0.16210300  1
  C  C49  1  0.16210300  0.14329700  0.00170200  1
  C  C50  1  0.49674200  0.33364600  0.36162900  1
  C  C51  1  0.36162900  0.49674200  0.33364600  1
  C  C52  1  0.33364600  0.36162900  0.49674200  1
  C  C53  1  0.50325800  0.66635400  0.63837100  1
  C  C54  1  0.63837100  0.50325800  0.66635400  1
  C  C55  1  0.66635400  0.63837100  0.50325800  1
  C  C56  1  0.91416000  0.58104900  0.32534200  1
  C  C57  1  0.32534200  0.91416000  0.58104900  1
  C  C58  1  0.58104900  0.32534200  0.91416000  1
  C  C59  1  0.08584000  0.41895100  0.67465800  1
  C  C60  1  0.67465800  0.08584000  0.41895100  1
  C  C61  1  0.41895100  0.67465800  0.08584000  1
