# generated using pymatgen
data_Cu15Ni2C7
_symmetry_space_group_name_H-M   'P 1'
_cell_length_a   7.61156124
_cell_length_b   7.61156124
_cell_length_c   15.36366658
_cell_angle_alpha   77.93559731
_cell_angle_beta   77.93559731
_cell_angle_gamma   58.18767186
_symmetry_Int_Tables_number   1
_chemical_formula_structural   Cu15Ni2C7
_chemical_formula_sum   'Cu30 Ni4 C14'
_cell_volume   734.43851853
_cell_formula_units_Z   2
loop_
 _symmetry_equiv_pos_site_id
 _symmetry_equiv_pos_as_xyz
  1  'x, y, z'
loop_
 _atom_site_type_symbol
 _atom_site_label
 _atom_site_symmetry_multiplicity
 _atom_site_fract_x
 _atom_site_fract_y
 _atom_site_fract_z
 _atom_site_occupancy
  C  C0  1  0.85814900  0.05509200  0.85205000  1
  C  C1  1  0.14185100  0.94490800  0.14795000  1
  C  C2  1  0.94490800  0.14185100  0.64795000  1
  C  C3  1  0.05509200  0.85814900  0.35205000  1
  C  C4  1  0.76063100  0.87244400  0.62521800  1
  C  C5  1  0.23936900  0.12755600  0.37478200  1
  C  C6  1  0.12755600  0.23936900  0.87478200  1
  C  C7  1  0.87244400  0.76063100  0.12521800  1
  C  C8  1  0.28579600  0.23227500  0.66329600  1
  C  C9  1  0.71420400  0.76772500  0.33670400  1
  C  C10  1  0.76772500  0.71420400  0.83670400  1
  C  C11  1  0.23227500  0.28579600  0.16329600  1
  C  C12  1  0.50000000  0.00000000  0.00000000  1
  C  C13  1  0.00000000  0.50000000  0.50000000  1
  Ni  Ni14  1  0.42281300  0.66466500  0.57575800  1
  Ni  Ni15  1  0.57718700  0.33533500  0.42424200  1
  Ni  Ni16  1  0.33533500  0.57718700  0.92424200  1
  Ni  Ni17  1  0.66466500  0.42281300  0.07575800  1
  Cu  Cu18  1  0.71664000  0.73232900  0.72627400  1
  Cu  Cu19  1  0.28336000  0.26767100  0.27372600  1
  Cu  Cu20  1  0.26767100  0.28336000  0.77372600  1
  Cu  Cu21  1  0.73232900  0.71664000  0.22627400  1
  Cu  Cu22  1  0.77824500  0.22175500  0.75000000  1
  Cu  Cu23  1  0.22175500  0.77824500  0.25000000  1
  Cu  Cu24  1  0.52781300  0.87525300  0.89942200  1
  Cu  Cu25  1  0.47218700  0.12474700  0.10057800  1
  Cu  Cu26  1  0.12474700  0.47218700  0.60057800  1
  Cu  Cu27  1  0.87525300  0.52781300  0.39942200  1
  Cu  Cu28  1  0.20318600  0.05097700  0.66740700  1
  Cu  Cu29  1  0.79681400  0.94902300  0.33259300  1
  Cu  Cu30  1  0.94902300  0.79681400  0.83259300  1
  Cu  Cu31  1  0.05097700  0.20318600  0.16740700  1
  Cu  Cu32  1  0.54669500  0.13290900  0.61625200  1
  Cu  Cu33  1  0.45330500  0.86709100  0.38374800  1
  Cu  Cu34  1  0.86709100  0.45330500  0.88374800  1
  Cu  Cu35  1  0.13290900  0.54669500  0.11625200  1
  Cu  Cu36  1  0.76225000  0.77843600  0.03086600  1
  Cu  Cu37  1  0.23775000  0.22156400  0.96913400  1
  Cu  Cu38  1  0.22156400  0.23775000  0.46913400  1
  Cu  Cu39  1  0.77843600  0.76225000  0.53086600  1
  Cu  Cu40  1  0.63322800  0.15085100  0.93319800  1
  Cu  Cu41  1  0.36677200  0.84914900  0.06680200  1
  Cu  Cu42  1  0.84914900  0.36677200  0.56680200  1
  Cu  Cu43  1  0.15085100  0.63322800  0.43319800  1
  Cu  Cu44  1  0.91909700  0.97056000  0.11536600  1
  Cu  Cu45  1  0.08090300  0.02944000  0.88463400  1
  Cu  Cu46  1  0.02944000  0.08090300  0.38463400  1
  Cu  Cu47  1  0.97056000  0.91909700  0.61536600  1
