# generated using pymatgen
data_Cu6NiC
_symmetry_space_group_name_H-M   'P 1'
_cell_length_a   8.37734606
_cell_length_b   8.37734606
_cell_length_c   8.37734606
_cell_angle_alpha   109.47122063
_cell_angle_beta   109.47122063
_cell_angle_gamma   109.47122063
_symmetry_Int_Tables_number   1
_chemical_formula_structural   Cu6NiC
_chemical_formula_sum   'Cu24 Ni4 C4'
_cell_volume   452.58220788
_cell_formula_units_Z   4
loop_
 _symmetry_equiv_pos_site_id
 _symmetry_equiv_pos_as_xyz
  1  'x, y, z'
loop_
 _atom_site_type_symbol
 _atom_site_label
 _atom_site_symmetry_multiplicity
 _atom_site_fract_x
 _atom_site_fract_y
 _atom_site_fract_z
 _atom_site_occupancy
  C  C0  1  0.50000000  0.00000000  0.00000000  1
  C  C1  1  0.00000000  0.50000000  0.00000000  1
  C  C2  1  0.00000000  0.00000000  0.50000000  1
  C  C3  1  0.50000000  0.50000000  0.50000000  1
  Ni  Ni4  1  0.50000000  0.00000000  0.50000000  1
  Ni  Ni5  1  0.50000000  0.50000000  0.00000000  1
  Ni  Ni6  1  0.00000000  0.50000000  0.50000000  1
  Ni  Ni7  1  0.00000000  0.00000000  0.00000000  1
  Cu  Cu8  1  0.70585600  0.01489600  0.94020500  1
  Cu  Cu9  1  0.92530900  0.48510400  0.19096000  1
  Cu  Cu10  1  0.79414400  0.73434900  0.30904000  1
  Cu  Cu11  1  0.57469100  0.76565100  0.55979500  1
  Cu  Cu12  1  0.01489600  0.94020500  0.70585600  1
  Cu  Cu13  1  0.48510400  0.19096000  0.92530900  1
  Cu  Cu14  1  0.73434900  0.30904000  0.79414400  1
  Cu  Cu15  1  0.76565100  0.55979500  0.57469100  1
  Cu  Cu16  1  0.94020500  0.70585600  0.01489600  1
  Cu  Cu17  1  0.19096000  0.92530900  0.48510400  1
  Cu  Cu18  1  0.30904000  0.79414400  0.73434900  1
  Cu  Cu19  1  0.55979500  0.57469100  0.76565100  1
  Cu  Cu20  1  0.29414400  0.98510400  0.05979500  1
  Cu  Cu21  1  0.07469100  0.51489600  0.80904000  1
  Cu  Cu22  1  0.20585600  0.26565100  0.69096000  1
  Cu  Cu23  1  0.42530900  0.23434900  0.44020500  1
  Cu  Cu24  1  0.98510400  0.05979500  0.29414400  1
  Cu  Cu25  1  0.51489600  0.80904000  0.07469100  1
  Cu  Cu26  1  0.26565100  0.69096000  0.20585600  1
  Cu  Cu27  1  0.23434900  0.44020500  0.42530900  1
  Cu  Cu28  1  0.05979500  0.29414400  0.98510400  1
  Cu  Cu29  1  0.80904000  0.07469100  0.51489600  1
  Cu  Cu30  1  0.69096000  0.20585600  0.26565100  1
  Cu  Cu31  1  0.44020500  0.42530900  0.23434900  1
