# generated using pymatgen
data_CuNiC16
_symmetry_space_group_name_H-M   'P 1'
_cell_length_a   8.53409906
_cell_length_b   8.53409906
_cell_length_c   8.53409879
_cell_angle_alpha   60.48602556
_cell_angle_beta   60.48602556
_cell_angle_gamma   60.48602600
_symmetry_Int_Tables_number   1
_chemical_formula_structural   CuNiC16
_chemical_formula_sum   'Cu2 Ni2 C32'
_cell_volume   444.32709330
_cell_formula_units_Z   2
loop_
 _symmetry_equiv_pos_site_id
 _symmetry_equiv_pos_as_xyz
  1  'x, y, z'
loop_
 _atom_site_type_symbol
 _atom_site_label
 _atom_site_symmetry_multiplicity
 _atom_site_fract_x
 _atom_site_fract_y
 _atom_site_fract_z
 _atom_site_occupancy
  Ni  Ni0  1  0.00151500  0.00151500  0.00151500  1
  Ni  Ni1  1  0.50151500  0.50151500  0.50151500  1
  C  C2  1  0.85566700  0.85566700  0.85566700  1
  C  C3  1  0.35566700  0.35566700  0.35566700  1
  Cu  Cu4  1  0.64224300  0.64224300  0.64224300  1
  Cu  Cu5  1  0.14224300  0.14224300  0.14224300  1
  C  C6  1  0.95493500  0.54307400  0.24948700  1
  C  C7  1  0.54307400  0.24948700  0.95493500  1
  C  C8  1  0.24948700  0.95493500  0.54307400  1
  C  C9  1  0.74948700  0.04307400  0.45493500  1
  C  C10  1  0.45493500  0.74948700  0.04307400  1
  C  C11  1  0.04307400  0.45493500  0.74948700  1
  C  C12  1  0.88701200  0.49380700  0.68620000  1
  C  C13  1  0.68620000  0.88701200  0.49380700  1
  C  C14  1  0.94566200  0.74118700  0.08711600  1
  C  C15  1  0.49380700  0.68620000  0.88701200  1
  C  C16  1  0.99380700  0.38701200  0.18620000  1
  C  C17  1  0.75894900  0.56094100  0.41104000  1
  C  C18  1  0.74118700  0.08711600  0.94566200  1
  C  C19  1  0.56094100  0.41104000  0.75894900  1
  C  C20  1  0.81327500  0.99784200  0.62005100  1
  C  C21  1  0.41104000  0.75894900  0.56094100  1
  C  C22  1  0.91104000  0.06094100  0.25894900  1
  C  C23  1  0.62005100  0.81327500  0.99784200  1
  C  C24  1  0.38701200  0.18620000  0.99380700  1
  C  C25  1  0.08711600  0.94566200  0.74118700  1
  C  C26  1  0.58711600  0.24118700  0.44566200  1
  C  C27  1  0.18620000  0.99380700  0.38701200  1
  C  C28  1  0.44566200  0.58711600  0.24118700  1
  C  C29  1  0.25894900  0.91104000  0.06094100  1
  C  C30  1  0.24118700  0.44566200  0.58711600  1
  C  C31  1  0.99784200  0.62005100  0.81327500  1
  C  C32  1  0.49784200  0.31327500  0.12005100  1
  C  C33  1  0.06094100  0.25894900  0.91104000  1
  C  C34  1  0.31327500  0.12005100  0.49784200  1
  C  C35  1  0.12005200  0.49784200  0.31327500  1
