# generated using pymatgen
data_Cu3(NiC10)2
_symmetry_space_group_name_H-M   'P 1'
_cell_length_a   10.19603409
_cell_length_b   10.19603409
_cell_length_c   10.00032927
_cell_angle_alpha   84.03982035
_cell_angle_beta   84.03982035
_cell_angle_gamma   141.96630031
_symmetry_Int_Tables_number   1
_chemical_formula_structural   Cu3(NiC10)2
_chemical_formula_sum   'Cu6 Ni4 C40'
_cell_volume   607.14508072
_cell_formula_units_Z   2
loop_
 _symmetry_equiv_pos_site_id
 _symmetry_equiv_pos_as_xyz
  1  'x, y, z'
loop_
 _atom_site_type_symbol
 _atom_site_label
 _atom_site_symmetry_multiplicity
 _atom_site_fract_x
 _atom_site_fract_y
 _atom_site_fract_z
 _atom_site_occupancy
  C  C0  1  0.57192300  0.36655100  0.55390100  1
  C  C1  1  0.36655100  0.57192300  0.05390100  1
  Ni  Ni2  1  0.24808900  0.31827500  0.42589400  1
  Ni  Ni3  1  0.31827500  0.24808900  0.92589400  1
  Ni  Ni4  1  0.97406000  0.39952300  0.59771500  1
  Ni  Ni5  1  0.39952300  0.97406000  0.09771500  1
  Cu  Cu6  1  0.72971500  0.97802900  0.50421400  1
  Cu  Cu7  1  0.97802900  0.72971500  0.00421400  1
  Cu  Cu8  1  0.46782000  0.30869800  0.19327300  1
  Cu  Cu9  1  0.30869800  0.46782000  0.69327300  1
  Cu  Cu10  1  0.73316800  0.39481000  0.82609100  1
  Cu  Cu11  1  0.39481000  0.73316800  0.32609100  1
  C  C12  1  0.88953400  0.86650400  0.44667400  1
  C  C13  1  0.86650400  0.88953400  0.94667400  1
  C  C14  1  0.97659400  0.80676900  0.37245600  1
  C  C15  1  0.80676900  0.97659400  0.87245600  1
  C  C16  1  0.18545600  0.85763000  0.71189700  1
  C  C17  1  0.85763000  0.18545600  0.21189700  1
  C  C18  1  0.33782300  0.92567700  0.57467700  1
  C  C19  1  0.92567700  0.33782300  0.07467700  1
  C  C20  1  0.83646100  0.50233500  0.26994600  1
  C  C21  1  0.50233500  0.83646200  0.76994600  1
  C  C22  1  0.95510900  0.51814600  0.36999800  1
  C  C23  1  0.51814600  0.95510900  0.86999800  1
  C  C24  1  0.95655700  0.07283500  0.45636900  1
  C  C25  1  0.07283500  0.95655700  0.95636900  1
  C  C26  1  0.76812400  0.14500500  0.56138500  1
  C  C27  1  0.14500500  0.76812400  0.06138500  1
  C  C28  1  0.38990100  0.29423500  0.35133600  1
  C  C29  1  0.29423500  0.38990100  0.85133600  1
  C  C30  1  0.84525800  0.43920000  0.66943200  1
  C  C31  1  0.43920000  0.84525800  0.16943200  1
  C  C32  1  0.34793800  0.54090000  0.30784500  1
  C  C33  1  0.54090000  0.34793800  0.80784500  1
  C  C34  1  0.09923700  0.39587200  0.70144400  1
  C  C35  1  0.39587200  0.09923700  0.20144400  1
  C  C36  1  0.32377800  0.36577000  0.58479400  1
  C  C37  1  0.36577000  0.32377800  0.08479400  1
  C  C38  1  0.18465900  0.62683900  0.44066500  1
  C  C39  1  0.62683900  0.18465900  0.94066500  1
  C  C40  1  0.54279700  0.74289400  0.63372500  1
  C  C41  1  0.74289400  0.54279700  0.13372500  1
  C  C42  1  0.63038100  0.92935300  0.36859000  1
  C  C43  1  0.92935300  0.63038100  0.86859000  1
  C  C44  1  0.85052000  0.74146800  0.44189000  1
  C  C45  1  0.74146800  0.85052000  0.94189000  1
  C  C46  1  0.32449300  0.98706200  0.63310700  1
  C  C47  1  0.98706200  0.32449300  0.13310700  1
  C  C48  1  0.81408700  0.44833600  0.36828000  1
  C  C49  1  0.44833600  0.81408700  0.86828000  1
