# generated using pymatgen
data_Cu8(Ni2C5)3
_symmetry_space_group_name_H-M   'P 1'
_cell_length_a   7.55159212
_cell_length_b   7.55159212
_cell_length_c   7.55159212
_cell_angle_alpha   60.00000000
_cell_angle_beta   60.00000000
_cell_angle_gamma   60.00000000
_symmetry_Int_Tables_number   1
_chemical_formula_structural   Cu8(Ni2C5)3
_chemical_formula_sum   'Cu8 Ni6 C15'
_cell_volume   304.50931112
_cell_formula_units_Z   1
loop_
 _symmetry_equiv_pos_site_id
 _symmetry_equiv_pos_as_xyz
  1  'x, y, z'
loop_
 _atom_site_type_symbol
 _atom_site_label
 _atom_site_symmetry_multiplicity
 _atom_site_fract_x
 _atom_site_fract_y
 _atom_site_fract_z
 _atom_site_occupancy
  Ni  Ni0  1  0.70395100  0.29604900  0.29604900  1
  Ni  Ni1  1  0.29604900  0.70395100  0.70395100  1
  Ni  Ni2  1  0.29604900  0.70395100  0.29604900  1
  Ni  Ni3  1  0.70395100  0.29604900  0.70395100  1
  Ni  Ni4  1  0.29604900  0.29604900  0.70395100  1
  Ni  Ni5  1  0.70395100  0.70395100  0.29604900  1
  C  C6  1  0.32688600  0.32688600  0.32688600  1
  C  C7  1  0.67311400  0.67311400  0.67311400  1
  C  C8  1  0.32688600  0.32688600  0.01934100  1
  C  C9  1  0.32688600  0.01934100  0.32688600  1
  C  C10  1  0.67311400  0.67311400  0.98065900  1
  C  C11  1  0.67311400  0.98065900  0.67311400  1
  C  C12  1  0.01934100  0.32688600  0.32688600  1
  C  C13  1  0.98065900  0.67311400  0.67311400  1
  C  C14  1  0.50000000  0.00000000  0.00000000  1
  C  C15  1  0.00000000  0.50000000  0.50000000  1
  C  C16  1  0.00000000  0.50000000  0.00000000  1
  C  C17  1  0.50000000  0.00000000  0.50000000  1
  C  C18  1  0.00000000  0.00000000  0.50000000  1
  C  C19  1  0.50000000  0.50000000  0.00000000  1
  C  C20  1  0.00000000  0.00000000  0.00000000  1
  Cu  Cu21  1  0.12269400  0.12269400  0.12269400  1
  Cu  Cu22  1  0.87730600  0.87730700  0.87730600  1
  Cu  Cu23  1  0.12269400  0.12269400  0.63191900  1
  Cu  Cu24  1  0.12269400  0.63191900  0.12269300  1
  Cu  Cu25  1  0.87730600  0.87730700  0.36808100  1
  Cu  Cu26  1  0.87730600  0.36808100  0.87730600  1
  Cu  Cu27  1  0.63191900  0.12269400  0.12269400  1
  Cu  Cu28  1  0.36808100  0.87730600  0.87730600  1
