# generated using pymatgen
data_Cu11(NiC)2
_symmetry_space_group_name_H-M   'P 1'
_cell_length_a   4.74270600
_cell_length_b   10.78222000
_cell_length_c   18.58790900
_cell_angle_alpha   90.00000000
_cell_angle_beta   90.00000000
_cell_angle_gamma   90.00000000
_symmetry_Int_Tables_number   1
_chemical_formula_structural   Cu11(NiC)2
_chemical_formula_sum   'Cu44 Ni8 C8'
_cell_volume   950.52803421
_cell_formula_units_Z   4
loop_
 _symmetry_equiv_pos_site_id
 _symmetry_equiv_pos_as_xyz
  1  'x, y, z'
loop_
 _atom_site_type_symbol
 _atom_site_label
 _atom_site_symmetry_multiplicity
 _atom_site_fract_x
 _atom_site_fract_y
 _atom_site_fract_z
 _atom_site_occupancy
  C  C0  1  0.01713300  0.18776000  0.15331000  1
  C  C1  1  0.98286700  0.68776000  0.84669000  1
  C  C2  1  0.51713300  0.68776000  0.34669000  1
  C  C3  1  0.48286700  0.18776000  0.65331000  1
  C  C4  1  0.02992700  0.43597900  0.09750400  1
  C  C5  1  0.97007300  0.93597900  0.90249600  1
  C  C6  1  0.52992700  0.93597900  0.40249600  1
  C  C7  1  0.47007300  0.43597900  0.59750400  1
  Ni  Ni8  1  0.18551400  0.36983700  0.30094000  1
  Ni  Ni9  1  0.81448600  0.86983700  0.69906000  1
  Ni  Ni10  1  0.68551400  0.86983700  0.19906000  1
  Ni  Ni11  1  0.31448600  0.36983700  0.80094000  1
  Ni  Ni12  1  0.28662000  0.25268700  0.45235300  1
  Ni  Ni13  1  0.71338000  0.75268700  0.54764700  1
  Ni  Ni14  1  0.78662000  0.75268700  0.04764700  1
  Ni  Ni15  1  0.21338000  0.25268700  0.95235300  1
  Cu  Cu16  1  0.81491500  0.38627700  0.29480400  1
  Cu  Cu17  1  0.18508500  0.88627700  0.70519600  1
  Cu  Cu18  1  0.31491500  0.88627700  0.20519600  1
  Cu  Cu19  1  0.68508500  0.38627700  0.79480400  1
  Cu  Cu20  1  0.65951300  0.24896700  0.45373000  1
  Cu  Cu21  1  0.34048700  0.74896700  0.54627000  1
  Cu  Cu22  1  0.15951300  0.74896700  0.04627000  1
  Cu  Cu23  1  0.84048700  0.24896700  0.95373000  1
  Cu  Cu24  1  0.23116100  0.20793900  0.34632800  1
  Cu  Cu25  1  0.76883900  0.70793900  0.65367200  1
  Cu  Cu26  1  0.73116100  0.70793900  0.15367200  1
  Cu  Cu27  1  0.26883900  0.20793900  0.84632800  1
  Cu  Cu28  1  0.21926600  0.41377900  0.40735400  1
  Cu  Cu29  1  0.78073400  0.91377900  0.59264600  1
  Cu  Cu30  1  0.71926600  0.91377900  0.09264600  1
  Cu  Cu31  1  0.28073400  0.41377900  0.90735400  1
  Cu  Cu32  1  0.23007800  0.23797000  0.20555700  1
  Cu  Cu33  1  0.76992200  0.73797000  0.79444300  1
  Cu  Cu34  1  0.73007800  0.73797000  0.29444300  1
  Cu  Cu35  1  0.26992200  0.23797000  0.70555700  1
  Cu  Cu36  1  0.79264800  0.11845600  0.18709900  1
  Cu  Cu37  1  0.20735200  0.61845600  0.81290100  1
  Cu  Cu38  1  0.29264800  0.61845600  0.31290100  1
  Cu  Cu39  1  0.70735200  0.11845600  0.68709900  1
  Cu  Cu40  1  0.15559300  0.13377800  0.09177200  1
  Cu  Cu41  1  0.84440700  0.63377800  0.90822800  1
  Cu  Cu42  1  0.65559300  0.63377800  0.40822800  1
  Cu  Cu43  1  0.34440700  0.13377800  0.59177200  1
  Cu  Cu44  1  0.84602000  0.31345200  0.12433600  1
  Cu  Cu45  1  0.15398000  0.81345200  0.87566400  1
  Cu  Cu46  1  0.34602000  0.81345200  0.37566400  1
  Cu  Cu47  1  0.65398000  0.31345200  0.62433600  1
  Cu  Cu48  1  0.15982100  0.48992300  0.16017700  1
  Cu  Cu49  1  0.84017900  0.98992300  0.83982300  1
  Cu  Cu50  1  0.65982100  0.98992300  0.33982300  1
  Cu  Cu51  1  0.34017900  0.48992300  0.66017700  1
  Cu  Cu52  1  0.81572200  0.50772200  0.06056000  1
  Cu  Cu53  1  0.18427800  0.00772200  0.93944000  1
  Cu  Cu54  1  0.31572200  0.00772200  0.43944000  1
  Cu  Cu55  1  0.68427800  0.50772200  0.56056000  1
  Cu  Cu56  1  0.25040800  0.38361400  0.04801300  1
  Cu  Cu57  1  0.74959200  0.88361400  0.95198700  1
  Cu  Cu58  1  0.75040800  0.88361400  0.45198700  1
  Cu  Cu59  1  0.24959200  0.38361400  0.54801300  1
