# generated using pymatgen
data_Cu4NiC23
_symmetry_space_group_name_H-M   'P 1'
_cell_length_a   6.08992000
_cell_length_b   4.75603600
_cell_length_c   10.41345826
_cell_angle_alpha   89.62063366
_cell_angle_beta   90.00000000
_cell_angle_gamma   90.00000000
_symmetry_Int_Tables_number   1
_chemical_formula_structural   Cu4NiC23
_chemical_formula_sum   'Cu4 Ni1 C23'
_cell_volume   301.60753119
_cell_formula_units_Z   1
loop_
 _symmetry_equiv_pos_site_id
 _symmetry_equiv_pos_as_xyz
  1  'x, y, z'
loop_
 _atom_site_type_symbol
 _atom_site_label
 _atom_site_symmetry_multiplicity
 _atom_site_fract_x
 _atom_site_fract_y
 _atom_site_fract_z
 _atom_site_occupancy
  C  C0  1  0.24339700  0.00204500  0.00416100  1
  C  C1  1  0.75660300  0.00204500  0.00416100  1
  C  C2  1  0.75360200  0.50035300  0.49763200  1
  C  C3  1  0.24639800  0.50035300  0.49763200  1
  C  C4  1  0.00000000  0.48497000  0.77716400  1
  C  C5  1  0.50000000  0.51654000  0.22201100  1
  C  C6  1  0.50000000  0.98268400  0.72509900  1
  Ni  Ni7  1  0.00000000  0.04082100  0.28583200  1
  Cu  Cu8  1  0.50000000  0.08741600  0.40411900  1
  Cu  Cu9  1  0.50000000  0.41378400  0.90887400  1
  Cu  Cu10  1  0.00000000  0.57812700  0.09401000  1
  Cu  Cu11  1  0.00000000  0.91605400  0.59172800  1
  C  C12  1  0.50000000  0.20408300  0.54263100  1
  C  C13  1  0.30148400  0.23062400  0.33176600  1
  C  C14  1  0.69851600  0.23062400  0.33176600  1
  C  C15  1  0.00000000  0.23835100  0.59681800  1
  C  C16  1  0.00000000  0.25522600  0.09451200  1
  C  C17  1  0.29758600  0.27681900  0.83917000  1
  C  C18  1  0.70241400  0.27681900  0.83917000  1
  C  C19  1  0.50000000  0.29116500  0.04798000  1
  C  C20  1  0.00000000  0.71124500  0.95690900  1
  C  C21  1  0.79109500  0.70302500  0.16237800  1
  C  C22  1  0.20890500  0.70302500  0.16237800  1
  C  C23  1  0.50000000  0.73552200  0.90475900  1
  C  C24  1  0.50000000  0.76491800  0.39875600  1
  C  C25  1  0.79704700  0.77818800  0.66240800  1
  C  C26  1  0.20295300  0.77818800  0.66240800  1
  C  C27  1  0.00000000  0.79699100  0.45377100  1
