# generated using pymatgen
data_Cu3NiC4
_symmetry_space_group_name_H-M   'P 1'
_cell_length_a   3.90035800
_cell_length_b   6.36929100
_cell_length_c   6.75869809
_cell_angle_alpha   89.99052233
_cell_angle_beta   90.00000000
_cell_angle_gamma   90.00000000
_symmetry_Int_Tables_number   1
_chemical_formula_structural   Cu3NiC4
_chemical_formula_sum   'Cu3 Ni1 C4'
_cell_volume   167.90305716
_cell_formula_units_Z   1
loop_
 _symmetry_equiv_pos_site_id
 _symmetry_equiv_pos_as_xyz
  1  'x, y, z'
loop_
 _atom_site_type_symbol
 _atom_site_label
 _atom_site_symmetry_multiplicity
 _atom_site_fract_x
 _atom_site_fract_y
 _atom_site_fract_z
 _atom_site_occupancy
  Ni  Ni0  1  0.00000000  0.50107000  0.33296400  1
  Cu  Cu1  1  0.50000000  0.49976800  0.83352900  1
  Cu  Cu2  1  0.50000000  0.99909400  0.16470200  1
  Cu  Cu3  1  0.00000000  0.99931300  0.66875100  1
  C  C4  1  0.00000000  0.11411800  0.33385700  1
  C  C5  1  0.50000000  0.12591500  0.83297600  1
  C  C6  1  0.50000000  0.62979700  0.15777200  1
  C  C7  1  0.00000000  0.62692500  0.67544900  1
