# generated using pymatgen
data_Cu14(NiC2)3
_symmetry_space_group_name_H-M   'P 1'
_cell_length_a   10.15915225
_cell_length_b   10.15915225
_cell_length_c   5.76318500
_cell_angle_alpha   90.00000000
_cell_angle_beta   90.00000000
_cell_angle_gamma   120.00000162
_symmetry_Int_Tables_number   1
_chemical_formula_structural   Cu14(NiC2)3
_chemical_formula_sum   'Cu14 Ni3 C6'
_cell_volume   515.11965727
_cell_formula_units_Z   1
loop_
 _symmetry_equiv_pos_site_id
 _symmetry_equiv_pos_as_xyz
  1  'x, y, z'
loop_
 _atom_site_type_symbol
 _atom_site_label
 _atom_site_symmetry_multiplicity
 _atom_site_fract_x
 _atom_site_fract_y
 _atom_site_fract_z
 _atom_site_occupancy
  C  C0  1  0.30882700  0.10213000  0.75488400  1
  C  C1  1  0.79330300  0.69117300  0.75488400  1
  C  C2  1  0.89787000  0.20669700  0.75488400  1
  C  C3  1  0.02519900  0.56478200  0.24944600  1
  C  C4  1  0.53958300  0.97480100  0.24944600  1
  C  C5  1  0.43521800  0.46041700  0.24944600  1
  Ni  Ni6  1  0.00000000  0.00000000  0.17203300  1
  Ni  Ni7  1  0.33333300  0.66666700  0.66844000  1
  Ni  Ni8  1  0.66666700  0.33333300  0.51525900  1
  Cu  Cu9  1  0.14907000  0.22959700  0.01199600  1
  Cu  Cu10  1  0.08052700  0.85093000  0.01199600  1
  Cu  Cu11  1  0.77040300  0.91947300  0.01199600  1
  Cu  Cu12  1  0.18440700  0.43717900  0.50949300  1
  Cu  Cu13  1  0.25277100  0.81559300  0.50949300  1
  Cu  Cu14  1  0.56282100  0.74722900  0.50949300  1
  Cu  Cu15  1  0.00000000  0.00000000  0.55279100  1
  Cu  Cu16  1  0.33333300  0.66666700  0.05010300  1
  Cu  Cu17  1  0.40964900  0.16931600  0.27427300  1
  Cu  Cu18  1  0.75966700  0.59035100  0.27427300  1
  Cu  Cu19  1  0.83068400  0.24033300  0.27427300  1
  Cu  Cu20  1  0.92431900  0.50004200  0.76604600  1
  Cu  Cu21  1  0.57572200  0.07568100  0.76604600  1
  Cu  Cu22  1  0.49995800  0.42427800  0.76604600  1
