# generated using pymatgen
data_Cu2Ni8C21
_symmetry_space_group_name_H-M   'P 1'
_cell_length_a   16.40223200
_cell_length_b   8.03307100
_cell_length_c   10.25722700
_cell_angle_alpha   90.00000000
_cell_angle_beta   90.00000000
_cell_angle_gamma   90.00000000
_symmetry_Int_Tables_number   1
_chemical_formula_structural   Cu2Ni8C21
_chemical_formula_sum   'Cu8 Ni32 C84'
_cell_volume   1351.49524734
_cell_formula_units_Z   4
loop_
 _symmetry_equiv_pos_site_id
 _symmetry_equiv_pos_as_xyz
  1  'x, y, z'
loop_
 _atom_site_type_symbol
 _atom_site_label
 _atom_site_symmetry_multiplicity
 _atom_site_fract_x
 _atom_site_fract_y
 _atom_site_fract_z
 _atom_site_occupancy
  C  C0  1  0.50000000  0.83810500  0.25000000  1
  C  C1  1  0.00000000  0.66189500  0.75000000  1
  C  C2  1  0.50000000  0.16189500  0.75000000  1
  C  C3  1  0.00000000  0.33810500  0.25000000  1
  C  C4  1  0.42312500  0.51850900  0.37955100  1
  C  C5  1  0.07687500  0.98149100  0.87955100  1
  C  C6  1  0.92312500  0.98149100  0.62044900  1
  C  C7  1  0.57687500  0.51850900  0.12044900  1
  C  C8  1  0.57687500  0.48149100  0.62044900  1
  C  C9  1  0.92312500  0.01850900  0.12044900  1
  C  C10  1  0.07687500  0.01850900  0.37955100  1
  C  C11  1  0.42312500  0.48149100  0.87955100  1
  C  C12  1  0.36401300  0.30134200  0.44832100  1
  C  C13  1  0.13598700  0.19865800  0.94832100  1
  C  C14  1  0.86401300  0.19865800  0.55167900  1
  C  C15  1  0.63598700  0.30134200  0.05167900  1
  C  C16  1  0.63598700  0.69865800  0.55167900  1
  C  C17  1  0.86401300  0.80134200  0.05167900  1
  C  C18  1  0.13598700  0.80134200  0.44832100  1
  C  C19  1  0.36401300  0.69865800  0.94832100  1
  C  C20  1  0.26026200  0.28369200  0.39645100  1
  C  C21  1  0.23973800  0.21630800  0.89645100  1
  C  C22  1  0.76026200  0.21630800  0.60354900  1
  C  C23  1  0.73973800  0.28369200  0.10354900  1
  C  C24  1  0.73973800  0.71630800  0.60354900  1
  C  C25  1  0.76026200  0.78369200  0.10354900  1
  C  C26  1  0.23973800  0.78369200  0.39645100  1
  C  C27  1  0.26026200  0.71630800  0.89645100  1
  C  C28  1  0.33716000  0.15689100  0.32179800  1
  C  C29  1  0.16284000  0.34310900  0.82179800  1
  C  C30  1  0.83716000  0.34310900  0.67820200  1
  C  C31  1  0.66284000  0.15689100  0.17820200  1
  C  C32  1  0.66284000  0.84310900  0.67820200  1
  C  C33  1  0.83716000  0.65689100  0.17820200  1
  C  C34  1  0.16284000  0.65689100  0.32179800  1
  C  C35  1  0.33716000  0.84310900  0.82179800  1
  C  C36  1  0.31497100  0.27955300  0.09068900  1
  C  C37  1  0.18502900  0.22044700  0.59068900  1
  C  C38  1  0.81497100  0.22044700  0.90931100  1
  C  C39  1  0.68502900  0.27955300  0.40931100  1
  C  C40  1  0.68502900  0.72044700  0.90931100  1
  C  C41  1  0.81497100  0.77955300  0.40931100  1
  C  C42  1  0.18502900  0.77955300  0.09068900  1
  C  C43  1  0.31497100  0.72044700  0.59068900  1
  C  C44  1  0.22689700  0.36349800  0.17094700  1
  C  C45  1  0.27310300  0.13650200  0.67094700  1
  C  C46  1  0.72689700  0.13650200  0.82905300  1
  C  C47  1  0.77310300  0.36349800  0.32905300  1
  C  C48  1  0.77310300  0.63650200  0.82905300  1
  C  C49  1  0.72689700  0.86349800  0.32905300  1
  C  C50  1  0.27310300  0.86349800  0.17094700  1
  C  C51  1  0.22689700  0.63650200  0.67094700  1
  C  C52  1  0.29545700  0.49959500  0.08635700  1
  C  C53  1  0.20454300  0.00040500  0.58635700  1
  C  C54  1  0.79545700  0.00040500  0.91364300  1
  C  C55  1  0.70454300  0.49959500  0.41364300  1
  C  C56  1  0.70454300  0.50040500  0.91364300  1
  C  C57  1  0.79545700  0.99959500  0.41364300  1
  C  C58  1  0.20454300  0.99959500  0.08635700  1
  C  C59  1  0.29545700  0.50040500  0.58635700  1
  Ni  Ni60  1  0.45999700  0.95282700  0.51894500  1
  Ni  Ni61  1  0.04000300  0.54717300  0.01894500  1
  Ni  Ni62  1  0.95999700  0.54717300  0.48105500  1
  Ni  Ni63  1  0.54000300  0.95282700  0.98105500  1
  Ni  Ni64  1  0.54000300  0.04717300  0.48105500  1
  Ni  Ni65  1  0.95999700  0.45282700  0.98105500  1
  Ni  Ni66  1  0.04000300  0.45282700  0.51894500  1
  Ni  Ni67  1  0.45999700  0.04717300  0.01894500  1
  Ni  Ni68  1  0.39320600  0.52548500  0.28323600  1
  Ni  Ni69  1  0.10679400  0.97451500  0.78323600  1
  Ni  Ni70  1  0.89320600  0.97451500  0.71676400  1
  Ni  Ni71  1  0.60679400  0.52548500  0.21676400  1
  Ni  Ni72  1  0.60679400  0.47451500  0.71676400  1
  Ni  Ni73  1  0.89320600  0.02548500  0.21676400  1
  Ni  Ni74  1  0.10679400  0.02548500  0.28323600  1
  Ni  Ni75  1  0.39320600  0.47451500  0.78323600  1
  Ni  Ni76  1  0.32413800  0.27970500  0.36413500  1
  Ni  Ni77  1  0.17586200  0.22029500  0.86413500  1
  Ni  Ni78  1  0.82413800  0.22029500  0.63586500  1
  Ni  Ni79  1  0.67586200  0.27970500  0.13586500  1
  Ni  Ni80  1  0.67586200  0.72029500  0.63586500  1
  Ni  Ni81  1  0.82413800  0.77970500  0.13586500  1
  Ni  Ni82  1  0.17586200  0.77970500  0.36413500  1
  Ni  Ni83  1  0.32413800  0.72029500  0.86413500  1
  Ni  Ni84  1  0.29095800  0.38673200  0.14557500  1
  Ni  Ni85  1  0.20904200  0.11326800  0.64557500  1
  Ni  Ni86  1  0.79095800  0.11326800  0.85442500  1
  Ni  Ni87  1  0.70904200  0.38673200  0.35442500  1
  Ni  Ni88  1  0.70904200  0.61326800  0.85442500  1
  Ni  Ni89  1  0.79095800  0.88673200  0.35442500  1
  Ni  Ni90  1  0.20904200  0.88673200  0.14557500  1
  Ni  Ni91  1  0.29095800  0.61326800  0.64557500  1
  Cu  Cu92  1  0.33754300  0.40689400  0.26542000  1
  Cu  Cu93  1  0.16245700  0.09310600  0.76542000  1
  Cu  Cu94  1  0.83754300  0.09310600  0.73458000  1
  Cu  Cu95  1  0.66245700  0.40689400  0.23458000  1
  Cu  Cu96  1  0.66245700  0.59310600  0.73458000  1
  Cu  Cu97  1  0.83754300  0.90689400  0.23458000  1
  Cu  Cu98  1  0.16245700  0.90689400  0.26542000  1
  Cu  Cu99  1  0.33754300  0.59310600  0.76542000  1
  C  C100  1  0.43078400  0.85403600  0.43438000  1
  C  C101  1  0.06921600  0.64596400  0.93438000  1
  C  C102  1  0.93078400  0.64596400  0.56562000  1
  C  C103  1  0.56921600  0.85403600  0.06562000  1
  C  C104  1  0.56921600  0.14596400  0.56562000  1
  C  C105  1  0.93078400  0.35403600  0.06562000  1
  C  C106  1  0.06921600  0.35403600  0.43438000  1
  C  C107  1  0.43078400  0.14596400  0.93438000  1
  C  C108  1  0.43031800  0.98224800  0.63072200  1
  C  C109  1  0.06968200  0.51775200  0.13072200  1
  C  C110  1  0.93031800  0.51775200  0.36927800  1
  C  C111  1  0.56968200  0.98224800  0.86927800  1
  C  C112  1  0.56968200  0.01775200  0.36927800  1
  C  C113  1  0.93031800  0.48224800  0.86927800  1
  C  C114  1  0.06968200  0.48224800  0.63072200  1
  C  C115  1  0.43031800  0.01775200  0.13072200  1
  C  C116  1  0.41119700  0.63645200  0.20105900  1
  C  C117  1  0.08880300  0.86354800  0.70105900  1
  C  C118  1  0.91119700  0.86354800  0.79894100  1
  C  C119  1  0.58880300  0.63645200  0.29894100  1
  C  C120  1  0.58880300  0.36354800  0.79894100  1
  C  C121  1  0.91119700  0.13645200  0.29894100  1
  C  C122  1  0.08880300  0.13645200  0.20105900  1
  C  C123  1  0.41119700  0.36354800  0.70105900  1
