# generated using pymatgen
data_CuNiC15
_symmetry_space_group_name_H-M   'P 1'
_cell_length_a   7.66022200
_cell_length_b   8.00558734
_cell_length_c   9.27896809
_cell_angle_alpha   68.62672305
_cell_angle_beta   73.58394218
_cell_angle_gamma   84.85680740
_symmetry_Int_Tables_number   1
_chemical_formula_structural   CuNiC15
_chemical_formula_sum   'Cu2 Ni2 C30'
_cell_volume   508.23632645
_cell_formula_units_Z   2
loop_
 _symmetry_equiv_pos_site_id
 _symmetry_equiv_pos_as_xyz
  1  'x, y, z'
loop_
 _atom_site_type_symbol
 _atom_site_label
 _atom_site_symmetry_multiplicity
 _atom_site_fract_x
 _atom_site_fract_y
 _atom_site_fract_z
 _atom_site_occupancy
  C  C0  1  0.63070600  0.89858200  0.74891400  1
  C  C1  1  0.36929400  0.10141800  0.25108600  1
  C  C2  1  0.71741400  0.26429300  0.47412200  1
  C  C3  1  0.28258600  0.73570700  0.52587800  1
  C  C4  1  0.59390000  0.68272400  0.12999200  1
  C  C5  1  0.40610000  0.31727600  0.87000800  1
  Ni  Ni6  1  0.96627400  0.67479200  0.22483900  1
  Ni  Ni7  1  0.03372600  0.32520800  0.77516100  1
  Cu  Cu8  1  0.78012000  0.51510200  0.25403200  1
  Cu  Cu9  1  0.21988000  0.48489800  0.74596800  1
  C  C10  1  0.61242200  0.63511300  0.24430100  1
  C  C11  1  0.38757800  0.36488700  0.75569900  1
  C  C12  1  0.74895000  0.40639100  0.43030400  1
  C  C13  1  0.25105000  0.59360900  0.56969600  1
  C  C14  1  0.83131800  0.42740900  0.14054300  1
  C  C15  1  0.16868200  0.57259100  0.85945700  1
  C  C16  1  0.92319500  0.74109000  0.34339400  1
  C  C17  1  0.07680500  0.25891000  0.65660600  1
  C  C18  1  0.98248800  0.80611300  0.08218900  1
  C  C19  1  0.01751200  0.19388700  0.91781100  1
  C  C20  1  0.11927200  0.58000000  0.22685900  1
  C  C21  1  0.88072800  0.42000000  0.77314100  1
  C  C22  1  0.58283600  0.71724200  0.96520800  1
  C  C23  1  0.41716400  0.28275800  0.03479200  1
  C  C24  1  0.38134900  0.96013900  0.78458700  1
  C  C25  1  0.61865100  0.03986100  0.21541300  1
  C  C26  1  0.87940500  0.83385500  0.70488200  1
  C  C27  1  0.12059500  0.16614500  0.29511800  1
  C  C28  1  0.58039100  0.73155500  0.66273100  1
  C  C29  1  0.41960900  0.26844500  0.33726900  1
  C  C30  1  0.68267400  0.07218300  0.82797600  1
  C  C31  1  0.31732600  0.92781700  0.17202400  1
  C  C32  1  0.68424000  0.09027700  0.53314200  1
  C  C33  1  0.31576000  0.90972300  0.46685800  1
