# generated using pymatgen
data_Cu2NiC20
_symmetry_space_group_name_H-M   'P 1'
_cell_length_a   5.33965100
_cell_length_b   7.03405632
_cell_length_c   9.81615607
_cell_angle_alpha   96.38312739
_cell_angle_beta   101.48578967
_cell_angle_gamma   109.56145656
_symmetry_Int_Tables_number   1
_chemical_formula_structural   Cu2NiC20
_chemical_formula_sum   'Cu2 Ni1 C20'
_cell_volume   334.07816768
_cell_formula_units_Z   1
loop_
 _symmetry_equiv_pos_site_id
 _symmetry_equiv_pos_as_xyz
  1  'x, y, z'
loop_
 _atom_site_type_symbol
 _atom_site_label
 _atom_site_symmetry_multiplicity
 _atom_site_fract_x
 _atom_site_fract_y
 _atom_site_fract_z
 _atom_site_occupancy
  Ni  Ni0  1  0.00000000  0.00000000  0.00000000  1
  Cu  Cu1  1  0.50000000  0.00000000  0.50000000  1
  Cu  Cu2  1  0.50000000  0.50000000  0.50000000  1
  C  C3  1  0.00493900  0.90706900  0.67971100  1
  C  C4  1  0.99506100  0.09293100  0.32028900  1
  C  C5  1  0.80350300  0.02579000  0.66928300  1
  C  C6  1  0.19649700  0.97421000  0.33071700  1
  C  C7  1  0.85719400  0.68156200  0.59603500  1
  C  C8  1  0.14280600  0.31843800  0.40396500  1
  C  C9  1  0.10363700  0.90001800  0.83901500  1
  C  C10  1  0.89636300  0.09998200  0.16098500  1
  C  C11  1  0.74873800  0.98120500  0.37528100  1
  C  C12  1  0.25126200  0.01879500  0.62471900  1
  C  C13  1  0.62484700  0.29093400  0.51015500  1
  C  C14  1  0.37515300  0.70906600  0.48984500  1
  C  C15  1  0.60101500  0.53296400  0.27199800  1
  C  C16  1  0.39898500  0.46703600  0.72800200  1
  C  C17  1  0.16683500  0.27528500  0.98150300  1
  C  C18  1  0.83316500  0.72471500  0.01849700  1
  C  C19  1  0.26350500  0.92342800  0.11343800  1
  C  C20  1  0.73649500  0.07657200  0.88656200  1
  C  C21  1  0.17156700  0.45875000  0.74172400  1
  C  C22  1  0.82843300  0.54125000  0.25827600  1
