# generated using pymatgen
data_Cu5NiC2
_symmetry_space_group_name_H-M   'P 1'
_cell_length_a   12.53226900
_cell_length_b   7.58490900
_cell_length_c   7.82848200
_cell_angle_alpha   78.71393312
_cell_angle_beta   90.00000000
_cell_angle_gamma   90.00000000
_symmetry_Int_Tables_number   1
_chemical_formula_structural   Cu5NiC2
_chemical_formula_sum   'Cu20 Ni4 C8'
_cell_volume   729.75505313
_cell_formula_units_Z   4
loop_
 _symmetry_equiv_pos_site_id
 _symmetry_equiv_pos_as_xyz
  1  'x, y, z'
loop_
 _atom_site_type_symbol
 _atom_site_label
 _atom_site_symmetry_multiplicity
 _atom_site_fract_x
 _atom_site_fract_y
 _atom_site_fract_z
 _atom_site_occupancy
  C  C0  1  0.83530300  0.84014700  0.63267500  1
  C  C1  1  0.16469700  0.15985300  0.36732500  1
  C  C2  1  0.33530300  0.15985300  0.86732500  1
  C  C3  1  0.66469700  0.84014700  0.13267500  1
  C  C4  1  0.40605400  0.76031000  0.54195400  1
  C  C5  1  0.59394600  0.23969000  0.45804600  1
  C  C6  1  0.90605400  0.23969000  0.95804600  1
  C  C7  1  0.09394600  0.76031000  0.04195400  1
  Ni  Ni8  1  0.11656800  0.66530100  0.59310700  1
  Ni  Ni9  1  0.88343200  0.33469900  0.40689300  1
  Ni  Ni10  1  0.61656800  0.33469900  0.90689300  1
  Ni  Ni11  1  0.38343200  0.66530100  0.09310700  1
  Cu  Cu12  1  0.47167700  0.82664000  0.88520900  1
  Cu  Cu13  1  0.52832300  0.17336000  0.11479100  1
  Cu  Cu14  1  0.97167700  0.17336000  0.61479100  1
  Cu  Cu15  1  0.02832300  0.82664000  0.38520900  1
  Cu  Cu16  1  0.20421900  0.86797100  0.69431500  1
  Cu  Cu17  1  0.79578100  0.13202900  0.30568500  1
  Cu  Cu18  1  0.70421900  0.13202900  0.80568500  1
  Cu  Cu19  1  0.29578100  0.86797100  0.19431500  1
  Cu  Cu20  1  0.22921800  0.47153200  0.54775900  1
  Cu  Cu21  1  0.77078200  0.52846800  0.45224100  1
  Cu  Cu22  1  0.72921800  0.52846800  0.95224100  1
  Cu  Cu23  1  0.27078200  0.47153200  0.04775900  1
  Cu  Cu24  1  0.87861800  0.86375200  0.99867900  1
  Cu  Cu25  1  0.12138200  0.13624800  0.00132100  1
  Cu  Cu26  1  0.37861800  0.13624800  0.50132100  1
  Cu  Cu27  1  0.62138200  0.86375200  0.49867900  1
  Cu  Cu28  1  0.49564200  0.42125300  0.71942500  1
  Cu  Cu29  1  0.50435800  0.57874700  0.28057500  1
  Cu  Cu30  1  0.99564200  0.57874700  0.78057500  1
  Cu  Cu31  1  0.00435800  0.42125300  0.21942500  1
