# generated using pymatgen
data_CuNi3C11
_symmetry_space_group_name_H-M   'P 1'
_cell_length_a   6.07022235
_cell_length_b   10.42518866
_cell_length_c   6.04953541
_cell_angle_alpha   72.91643176
_cell_angle_beta   120.01822092
_cell_angle_gamma   105.85777679
_symmetry_Int_Tables_number   1
_chemical_formula_structural   CuNi3C11
_chemical_formula_sum   'Cu2 Ni6 C22'
_cell_volume   313.14703960
_cell_formula_units_Z   2
loop_
 _symmetry_equiv_pos_site_id
 _symmetry_equiv_pos_as_xyz
  1  'x, y, z'
loop_
 _atom_site_type_symbol
 _atom_site_label
 _atom_site_symmetry_multiplicity
 _atom_site_fract_x
 _atom_site_fract_y
 _atom_site_fract_z
 _atom_site_occupancy
  C  C0  1  0.00000200  0.99995300  0.50001200  1
  C  C1  1  0.49995200  0.50004100  0.99996700  1
  C  C2  1  0.74462300  0.75486900  0.74419300  1
  C  C3  1  0.25538700  0.24511200  0.25580200  1
  C  C4  1  0.49995000  0.00000300  0.50002200  1
  C  C5  1  0.00005800  0.49999000  0.99997300  1
  Ni  Ni6  1  0.25260200  0.74989900  0.25267800  1
  Ni  Ni7  1  0.74740800  0.25010800  0.74733200  1
  Ni  Ni8  1  0.99997000  0.50001400  0.50003600  1
  Ni  Ni9  1  0.49996400  0.00000800  0.99988400  1
  Ni  Ni10  1  0.75016400  0.74933100  0.24705300  1
  Ni  Ni11  1  0.24980900  0.25069100  0.75296400  1
  Cu  Cu12  1  0.49997900  0.49996300  0.50003300  1
  Cu  Cu13  1  0.00004100  0.00002900  0.99996700  1
  C  C14  1  0.38044800  0.12814800  0.66482600  1
  C  C15  1  0.88719900  0.62619000  0.17250400  1
  C  C16  1  0.61967200  0.87179500  0.33512900  1
  C  C17  1  0.11273300  0.37386300  0.82756500  1
  C  C18  1  0.64963700  0.88394800  0.88667100  1
  C  C19  1  0.14046200  0.39101900  0.39288000  1
  C  C20  1  0.35047500  0.11602800  0.11326700  1
  C  C21  1  0.85942200  0.60899800  0.60719100  1
  C  C22  1  0.39298300  0.62285400  0.15268300  1
  C  C23  1  0.89184200  0.12230600  0.65233600  1
  C  C24  1  0.60685700  0.37710100  0.84732000  1
  C  C25  1  0.10831900  0.87772500  0.34766800  1
  C  C26  1  0.12670900  0.88279000  0.89230900  1
  C  C27  1  0.60980500  0.37901500  0.38593200  1
  C  C28  1  0.87339600  0.11724800  0.10763400  1
  C  C29  1  0.39013800  0.62096500  0.61418100  1
