# generated using pymatgen
data_Cu5Ni2C25
_symmetry_space_group_name_H-M   'P 1'
_cell_length_a   6.43837300
_cell_length_b   6.47963473
_cell_length_c   7.85498350
_cell_angle_alpha   77.36538024
_cell_angle_beta   65.89405500
_cell_angle_gamma   71.63235633
_symmetry_Int_Tables_number   1
_chemical_formula_structural   Cu5Ni2C25
_chemical_formula_sum   'Cu5 Ni2 C25'
_cell_volume   282.34260296
_cell_formula_units_Z   1
loop_
 _symmetry_equiv_pos_site_id
 _symmetry_equiv_pos_as_xyz
  1  'x, y, z'
loop_
 _atom_site_type_symbol
 _atom_site_label
 _atom_site_symmetry_multiplicity
 _atom_site_fract_x
 _atom_site_fract_y
 _atom_site_fract_z
 _atom_site_occupancy
  C  C0  1  0.31877900  0.69012100  0.55878100  1
  C  C1  1  0.80724600  0.17885300  0.06023200  1
  C  C2  1  0.43580600  0.56834100  0.18251200  1
  C  C3  1  0.93032600  0.06127600  0.69990800  1
  C  C4  1  0.56419400  0.43165900  0.81748800  1
  C  C5  1  0.06967400  0.93872400  0.30009200  1
  C  C6  1  0.68122100  0.30987900  0.44121900  1
  C  C7  1  0.19275400  0.82114700  0.93976800  1
  C  C8  1  0.50000000  0.00000000  0.00000000  1
  Ni  Ni9  1  0.86811200  0.62965200  0.87810700  1
  Ni  Ni10  1  0.13188800  0.37034800  0.12189300  1
  Cu  Cu11  1  0.37743700  0.12617400  0.36799400  1
  Cu  Cu12  1  0.00000000  0.50000000  0.50000000  1
  Cu  Cu13  1  0.62256300  0.87382600  0.63200600  1
  Cu  Cu14  1  0.25128100  0.24019700  0.75783700  1
  Cu  Cu15  1  0.74871900  0.75980300  0.24216300  1
  C  C16  1  0.20429200  0.50920500  0.86005300  1
  C  C17  1  0.70292600  0.02175500  0.34367500  1
  C  C18  1  0.32262200  0.39816600  0.46685100  1
  C  C19  1  0.84838900  0.88832800  0.96259300  1
  C  C20  1  0.44818000  0.28705600  0.09636500  1
  C  C21  1  0.95292400  0.76380600  0.61739100  1
  C  C22  1  0.58024500  0.14884300  0.70584400  1
  C  C23  1  0.07604900  0.64923200  0.21934400  1
  C  C24  1  0.41975500  0.85115700  0.29415600  1
  C  C25  1  0.92395100  0.35076800  0.78065600  1
  C  C26  1  0.55182000  0.71294400  0.90363500  1
  C  C27  1  0.04707600  0.23619400  0.38260900  1
  C  C28  1  0.67737800  0.60183400  0.53314900  1
  C  C29  1  0.15161100  0.11167200  0.03740700  1
  C  C30  1  0.79570800  0.49079500  0.13994700  1
  C  C31  1  0.29707400  0.97824500  0.65632500  1
