# generated using pymatgen
data_Cu5Ni2C
_symmetry_space_group_name_H-M   'P 1'
_cell_length_a   9.16381712
_cell_length_b   8.07003900
_cell_length_c   14.90474625
_cell_angle_alpha   90.00000000
_cell_angle_beta   107.25323816
_cell_angle_gamma   90.00000000
_symmetry_Int_Tables_number   1
_chemical_formula_structural   Cu5Ni2C
_chemical_formula_sum   'Cu40 Ni16 C8'
_cell_volume   1052.64383969
_cell_formula_units_Z   8
loop_
 _symmetry_equiv_pos_site_id
 _symmetry_equiv_pos_as_xyz
  1  'x, y, z'
loop_
 _atom_site_type_symbol
 _atom_site_label
 _atom_site_symmetry_multiplicity
 _atom_site_fract_x
 _atom_site_fract_y
 _atom_site_fract_z
 _atom_site_occupancy
  C  C0  1  0.41550600  0.69826100  0.28444000  1
  C  C1  1  0.08449400  0.69826100  0.71556000  1
  C  C2  1  0.58449400  0.30173900  0.71556000  1
  C  C3  1  0.91550600  0.30173900  0.28444000  1
  C  C4  1  0.76245000  0.76468100  0.28595300  1
  C  C5  1  0.73755000  0.76468100  0.71404700  1
  C  C6  1  0.23755000  0.23531900  0.71404700  1
  C  C7  1  0.26245000  0.23531900  0.28595300  1
  Ni  Ni8  1  0.66042900  0.76928800  0.48299700  1
  Ni  Ni9  1  0.83957100  0.76928800  0.51700300  1
  Ni  Ni10  1  0.33957100  0.23071200  0.51700300  1
  Ni  Ni11  1  0.16042900  0.23071200  0.48299700  1
  Ni  Ni12  1  0.61169800  0.17038700  0.27546100  1
  Ni  Ni13  1  0.88830200  0.17038700  0.72453900  1
  Ni  Ni14  1  0.38830200  0.82961300  0.72453900  1
  Ni  Ni15  1  0.11169800  0.82961300  0.27546100  1
  Ni  Ni16  1  0.60807500  0.36270600  0.28445900  1
  Ni  Ni17  1  0.89192500  0.36270600  0.71554100  1
  Ni  Ni18  1  0.39192500  0.63729400  0.71554100  1
  Ni  Ni19  1  0.10807500  0.63729400  0.28445900  1
  Ni  Ni20  1  0.75000000  0.59758000  0.00000000  1
  Ni  Ni21  1  0.25000000  0.40242000  0.00000000  1
  Ni  Ni22  1  0.75000000  0.95329900  0.00000000  1
  Ni  Ni23  1  0.25000000  0.04670100  0.00000000  1
  Cu  Cu24  1  0.59848200  0.76157400  0.39498200  1
  Cu  Cu25  1  0.90151800  0.76157400  0.60501800  1
  Cu  Cu26  1  0.40151800  0.23842600  0.60501800  1
  Cu  Cu27  1  0.09848200  0.23842600  0.39498200  1
  Cu  Cu28  1  0.59199300  0.77428900  0.54507800  1
  Cu  Cu29  1  0.90800700  0.77428900  0.45492200  1
  Cu  Cu30  1  0.40800700  0.22571100  0.45492200  1
  Cu  Cu31  1  0.09199300  0.22571100  0.54507800  1
  Cu  Cu32  1  0.73783100  0.10069000  0.28210600  1
  Cu  Cu33  1  0.76216900  0.10069000  0.71789400  1
  Cu  Cu34  1  0.26216900  0.89931000  0.71789400  1
  Cu  Cu35  1  0.23783100  0.89931000  0.28210600  1
  Cu  Cu36  1  0.48388500  0.09897800  0.26394400  1
  Cu  Cu37  1  0.01611500  0.09897800  0.73605600  1
  Cu  Cu38  1  0.51611500  0.90102200  0.73605600  1
  Cu  Cu39  1  0.98388500  0.90102200  0.26394400  1
  Cu  Cu40  1  0.48166700  0.42439300  0.28597500  1
  Cu  Cu41  1  0.01833300  0.42439300  0.71402500  1
  Cu  Cu42  1  0.51833300  0.57560700  0.71402500  1
  Cu  Cu43  1  0.98166700  0.57560700  0.28597500  1
  Cu  Cu44  1  0.73004000  0.44161500  0.29134600  1
  Cu  Cu45  1  0.76996000  0.44161500  0.70865400  1
  Cu  Cu46  1  0.26996000  0.55838500  0.70865400  1
  Cu  Cu47  1  0.23004000  0.55838500  0.29134600  1
  Cu  Cu48  1  0.77904600  0.59780900  0.08223100  1
  Cu  Cu49  1  0.72095400  0.59780900  0.91776900  1
  Cu  Cu50  1  0.22095400  0.40219100  0.91776900  1
  Cu  Cu51  1  0.27904600  0.40219100  0.08223100  1
  Cu  Cu52  1  0.72848800  0.95262100  0.07389300  1
  Cu  Cu53  1  0.77151200  0.95262100  0.92610700  1
  Cu  Cu54  1  0.27151200  0.04737900  0.92610700  1
  Cu  Cu55  1  0.22848800  0.04737900  0.07389300  1
  Cu  Cu56  1  0.56620500  0.74431500  0.20309100  1
  Cu  Cu57  1  0.93379500  0.74431500  0.79690900  1
  Cu  Cu58  1  0.43379500  0.25568500  0.79690900  1
  Cu  Cu59  1  0.06620500  0.25568500  0.20309100  1
  Cu  Cu60  1  0.68186800  0.27583900  0.99857700  1
  Cu  Cu61  1  0.81813200  0.27583900  0.00142300  1
  Cu  Cu62  1  0.31813200  0.72416100  0.00142300  1
  Cu  Cu63  1  0.18186800  0.72416100  0.99857700  1
