# generated using pymatgen
data_Cu3NiC14
_symmetry_space_group_name_H-M   'P 1'
_cell_length_a   11.06817327
_cell_length_b   11.85698871
_cell_length_c   17.83707282
_cell_angle_alpha   109.40952514
_cell_angle_beta   108.02257322
_cell_angle_gamma   89.92206666
_symmetry_Int_Tables_number   1
_chemical_formula_structural   Cu3NiC14
_chemical_formula_sum   'Cu24 Ni8 C112'
_cell_volume   2086.01225092
_cell_formula_units_Z   8
loop_
 _symmetry_equiv_pos_site_id
 _symmetry_equiv_pos_as_xyz
  1  'x, y, z'
loop_
 _atom_site_type_symbol
 _atom_site_label
 _atom_site_symmetry_multiplicity
 _atom_site_fract_x
 _atom_site_fract_y
 _atom_site_fract_z
 _atom_site_occupancy
  C  C0  1  0.30352840  0.06399821  0.11324782  1
  C  C1  1  0.30295897  0.06353589  0.60831997  1
  C  C2  1  0.30229832  0.56579112  0.60981176  1
  C  C3  1  0.80485469  0.06470467  0.61211561  1
  C  C4  1  0.80498352  0.56402304  0.11185958  1
  C  C5  1  0.80213674  0.56505785  0.60920764  1
  C  C6  1  0.19254910  0.43472581  0.38843226  1
  C  C7  1  0.19084052  0.43483783  0.89225838  1
  C  C8  1  0.19179915  0.93389223  0.38596552  1
  C  C9  1  0.19176648  0.93792001  0.88993463  1
  C  C10  1  0.69254336  0.43460485  0.38737617  1
  C  C11  1  0.69334535  0.93609060  0.38954789  1
  C  C12  1  0.69204647  0.93440137  0.88926287  1
  C  C13  1  0.05203033  0.29639805  0.11038396  1
  C  C14  1  0.05184159  0.29383075  0.60967492  1
  C  C15  1  0.05241122  0.79704411  0.61019101  1
  C  C16  1  0.55537181  0.29586718  0.11213761  1
  C  C17  1  0.55256858  0.29548355  0.61101291  1
  C  C18  1  0.55043795  0.79744180  0.11135616  1
  C  C19  1  0.55467567  0.79422818  0.61049015  1
  C  C20  1  0.44324577  0.20229716  0.38748550  1
  C  C21  1  0.44588282  0.20665019  0.89123210  1
  C  C22  1  0.44364413  0.70490432  0.38828266  1
  C  C23  1  0.44174042  0.70500431  0.89025340  1
  C  C24  1  0.94316980  0.20404470  0.38768901  1
  C  C25  1  0.94030020  0.20286942  0.88818767  1
  C  C26  1  0.94353304  0.70194519  0.38688006  1
  C  C27  1  0.94191393  0.70594000  0.89210736  1
  C  C28  1  0.30162772  0.56766203  0.10895598  1
  C  C29  1  0.80224977  0.06527259  0.10797042  1
  C  C30  1  0.69083348  0.43417263  0.89273334  1
  C  C31  1  0.05462822  0.79536860  0.11156668  1
  Ni  Ni32  1  0.10923997  0.59725846  0.75068022  1
  Ni  Ni33  1  0.61097558  0.09883115  0.75045725  1
  Ni  Ni34  1  0.61077389  0.59676180  0.75194747  1
  Ni  Ni35  1  0.35861256  0.40571276  0.24823173  1
  Ni  Ni36  1  0.36107337  0.40223437  0.75090633  1
  Ni  Ni37  1  0.35889024  0.90379611  0.75031677  1
  Ni  Ni38  1  0.85796054  0.40298897  0.75179521  1
  Ni  Ni39  1  0.86061692  0.90375641  0.24709508  1
  Cu  Cu40  1  0.00569630  0.99989197  0.00227271  1
  Cu  Cu41  1  0.00462590  0.99812667  0.49821760  1
  Cu  Cu42  1  0.00518925  0.50112468  0.00150657  1
  Cu  Cu43  1  0.00470522  0.50001198  0.49982951  1
  Cu  Cu44  1  0.50597636  0.00011916  0.00116786  1
  Cu  Cu45  1  0.50488002  0.00037131  0.49937913  1
  Cu  Cu46  1  0.50566448  0.50071628  0.00062354  1
  Cu  Cu47  1  0.50454592  0.49868841  0.49884204  1
  Cu  Cu48  1  0.25687581  0.25163200  0.00291932  1
  Cu  Cu49  1  0.25466562  0.24953821  0.49917709  1
  Cu  Cu50  1  0.25426443  0.75144745  0.00056928  1
  Cu  Cu51  1  0.25520730  0.74937920  0.49899933  1
  Cu  Cu52  1  0.75564577  0.24990760  0.00054291  1
  Cu  Cu53  1  0.75457341  0.24973640  0.49982130  1
  Cu  Cu54  1  0.75686196  0.74987060  0.00214789  1
  Cu  Cu55  1  0.75435589  0.74975090  0.49864307  1
  Cu  Cu56  1  0.10825520  0.10100031  0.24776053  1
  Cu  Cu57  1  0.11266045  0.10419061  0.75083606  1
  Cu  Cu58  1  0.11358636  0.60313088  0.24809372  1
  Cu  Cu59  1  0.61451956  0.10111016  0.24930697  1
  Cu  Cu60  1  0.60941644  0.60274947  0.24821935  1
  Cu  Cu61  1  0.35899906  0.89565329  0.24852332  1
  Cu  Cu62  1  0.86179027  0.39584518  0.24883600  1
  Cu  Cu63  1  0.86301573  0.89689565  0.75073607  1
  C  C64  1  0.11569530  0.11628044  0.47751891  1
  C  C65  1  0.11378701  0.12031978  0.97818028  1
  C  C66  1  0.11545089  0.61590202  0.47589540  1
  C  C67  1  0.11551382  0.62169457  0.98191542  1
  C  C68  1  0.61474031  0.11686352  0.47579991  1
  C  C69  1  0.61674809  0.11827588  0.97947417  1
  C  C70  1  0.61552119  0.61671660  0.47737817  1
  C  C71  1  0.61481795  0.61634157  0.97526200  1
  C  C72  1  0.14312963  0.39004215  0.02779304  1
  C  C73  1  0.13583569  0.38153579  0.52091627  1
  C  C74  1  0.13599804  0.88321215  0.02589064  1
  C  C75  1  0.13803593  0.88209046  0.52265295  1
  C  C76  1  0.63655365  0.38283926  0.02078442  1
  C  C77  1  0.63800901  0.38334544  0.52399987  1
  C  C78  1  0.64199325  0.88703210  0.02723094  1
  C  C79  1  0.63662326  0.88212920  0.51996485  1
  C  C80  1  0.36513554  0.10986045  0.47677701  1
  C  C81  1  0.36544160  0.10933071  0.97668530  1
  C  C82  1  0.36491996  0.60885601  0.47517078  1
  C  C83  1  0.36456550  0.60951939  0.98046167  1
  C  C84  1  0.86569046  0.11035813  0.47613880  1
  C  C85  1  0.86496422  0.10786751  0.98188027  1
  C  C86  1  0.86601275  0.61077033  0.47850425  1
  C  C87  1  0.86047119  0.60344311  0.97264403  1
  C  C88  1  0.38720306  0.39288714  0.02576438  1
  C  C89  1  0.38601089  0.38900150  0.52101275  1
  C  C90  1  0.38734057  0.88926596  0.02332291  1
  C  C91  1  0.38747885  0.88814437  0.52085893  1
  C  C92  1  0.88665832  0.38861063  0.02197927  1
  C  C93  1  0.88709091  0.38841763  0.52196141  1
  C  C94  1  0.89164351  0.89012638  0.03024023  1
  C  C95  1  0.88658709  0.88910394  0.52043639  1
  C  C96  1  0.09435553  0.11749011  0.14005543  1
  C  C97  1  0.09100338  0.11349398  0.63951495  1
  C  C98  1  0.10084494  0.61806219  0.13988981  1
  C  C99  1  0.09465979  0.61704153  0.63945924  1
  C  C100  1  0.60281392  0.11446920  0.14047541  1
  C  C101  1  0.59537005  0.11619542  0.63857729  1
  C  C102  1  0.59403291  0.61649946  0.13943659  1
  C  C103  1  0.59580221  0.61527594  0.64026450  1
  C  C104  1  0.45472585  0.38276691  0.35883498  1
  C  C105  1  0.46440212  0.38401461  0.86097545  1
  C  C106  1  0.44841636  0.88544933  0.35938572  1
  C  C107  1  0.45668736  0.88335352  0.86119428  1
  C  C108  1  0.95113398  0.38534513  0.36009993  1
  C  C109  1  0.96023565  0.38283023  0.86171286  1
  C  C110  1  0.95593600  0.88268572  0.35848306  1
  C  C111  1  0.95295923  0.88709343  0.86195350  1
  C  C112  1  0.34876395  0.26974970  0.14051263  1
  C  C113  1  0.34477337  0.27254491  0.63903247  1
  C  C114  1  0.34292637  0.77341675  0.13938274  1
  C  C115  1  0.34615443  0.77321391  0.63920562  1
  C  C116  1  0.84071115  0.27261751  0.13934783  1
  C  C117  1  0.84445198  0.27311094  0.64020319  1
  C  C118  1  0.85746937  0.76833254  0.14023407  1
  C  C119  1  0.84075818  0.77645788  0.63951526  1
  C  C120  1  0.19821403  0.22203401  0.35857919  1
  C  C121  1  0.20524815  0.22566081  0.86079646  1
  C  C122  1  0.20199018  0.72505824  0.35909162  1
  C  C123  1  0.20564919  0.72821991  0.86150539  1
  C  C124  1  0.70167752  0.22505763  0.35940847  1
  C  C125  1  0.70727936  0.22872454  0.86186109  1
  C  C126  1  0.70001666  0.72370809  0.35918075  1
  C  C127  1  0.70705164  0.72951383  0.86197983  1
  C  C128  1  0.42129499  0.06636529  0.24996055  1
  C  C129  1  0.41878510  0.07359745  0.75024302  1
  C  C130  1  0.41293453  0.57404983  0.24442435  1
  C  C131  1  0.41693140  0.57273238  0.74995486  1
  C  C132  1  0.91231811  0.07364980  0.24446712  1
  C  C133  1  0.91913890  0.06863078  0.75067179  1
  C  C134  1  0.92138766  0.56658830  0.24952127  1
  C  C135  1  0.91632278  0.57285901  0.75075275  1
  C  C136  1  0.16708733  0.42948763  0.24961457  1
  C  C137  1  0.16829804  0.42695385  0.75096324  1
  C  C138  1  0.16299104  0.92693009  0.24498121  1
  C  C139  1  0.16726090  0.93016656  0.75036634  1
  C  C140  1  0.66862003  0.43227353  0.24975340  1
  C  C141  1  0.66696630  0.42679615  0.75590331  1
  C  C142  1  0.66882991  0.92807936  0.24959492  1
  C  C143  1  0.66877340  0.92893133  0.74984985  1
