# generated using pymatgen
data_Cu(Ni2C3)2
_symmetry_space_group_name_H-M   'P 1'
_cell_length_a   6.53747304
_cell_length_b   7.77503122
_cell_length_c   8.97575200
_cell_angle_alpha   90.00000000
_cell_angle_beta   90.00000000
_cell_angle_gamma   99.31314063
_symmetry_Int_Tables_number   1
_chemical_formula_structural   Cu(Ni2C3)2
_chemical_formula_sum   'Cu4 Ni16 C24'
_cell_volume   450.21528510
_cell_formula_units_Z   4
loop_
 _symmetry_equiv_pos_site_id
 _symmetry_equiv_pos_as_xyz
  1  'x, y, z'
loop_
 _atom_site_type_symbol
 _atom_site_label
 _atom_site_symmetry_multiplicity
 _atom_site_fract_x
 _atom_site_fract_y
 _atom_site_fract_z
 _atom_site_occupancy
  C  C0  1  0.84498000  0.01295500  0.13854200  1
  C  C1  1  0.34498000  0.51295500  0.36145800  1
  C  C2  1  0.15502000  0.98704500  0.86145800  1
  C  C3  1  0.65502000  0.48704500  0.63854200  1
  Ni  Ni4  1  0.06677200  0.14337900  0.36183400  1
  Ni  Ni5  1  0.56677200  0.64337900  0.13816600  1
  Ni  Ni6  1  0.93322800  0.85662100  0.63816600  1
  Ni  Ni7  1  0.43322800  0.35662100  0.86183400  1
  Ni  Ni8  1  0.83163900  0.12877000  0.42361500  1
  Ni  Ni9  1  0.33163900  0.62877000  0.07638500  1
  Ni  Ni10  1  0.16836100  0.87123000  0.57638500  1
  Ni  Ni11  1  0.66836100  0.37123000  0.92361500  1
  Ni  Ni12  1  0.98559200  0.29601000  0.98698100  1
  Ni  Ni13  1  0.48559200  0.79601000  0.51301900  1
  Ni  Ni14  1  0.01440800  0.70399000  0.01301900  1
  Ni  Ni15  1  0.51440800  0.20399000  0.48698100  1
  Ni  Ni16  1  0.93131000  0.37069500  0.14592700  1
  Ni  Ni17  1  0.43131000  0.87069500  0.35407300  1
  Ni  Ni18  1  0.06869000  0.62930500  0.85407300  1
  Ni  Ni19  1  0.56869000  0.12930500  0.64592700  1
  Cu  Cu20  1  0.60262400  0.83658800  0.84457100  1
  Cu  Cu21  1  0.10262400  0.33658800  0.65542900  1
  Cu  Cu22  1  0.39737600  0.16341200  0.15542900  1
  Cu  Cu23  1  0.89737600  0.66341200  0.34457100  1
  C  C24  1  0.67818100  0.76432400  0.67259000  1
  C  C25  1  0.17818100  0.26432400  0.82741000  1
  C  C26  1  0.32181900  0.23567600  0.32741000  1
  C  C27  1  0.82181900  0.73567600  0.17259100  1
  C  C28  1  0.46456400  0.99879400  0.79525400  1
  C  C29  1  0.96456400  0.49879400  0.70474600  1
  C  C30  1  0.53543600  0.00120600  0.20474600  1
  C  C31  1  0.03543600  0.50120600  0.29525400  1
  C  C32  1  0.83063300  0.95943100  0.91040500  1
  C  C33  1  0.33063300  0.45943100  0.58959500  1
  C  C34  1  0.16936700  0.04056900  0.08959500  1
  C  C35  1  0.66936700  0.54056900  0.41040500  1
  C  C36  1  0.92211500  0.07975800  0.35302900  1
  C  C37  1  0.42211500  0.57975800  0.14697100  1
  C  C38  1  0.07788500  0.92024200  0.64697100  1
  C  C39  1  0.57788500  0.42024200  0.85302900  1
  C  C40  1  0.87546600  0.28822400  0.06382300  1
  C  C41  1  0.37546600  0.78822400  0.43617700  1
  C  C42  1  0.12453400  0.71177600  0.93617700  1
  C  C43  1  0.62453400  0.21177600  0.56382300  1
