# generated using pymatgen
data_Cu6NiC10
_symmetry_space_group_name_H-M   'P 1'
_cell_length_a   11.28034900
_cell_length_b   14.16826000
_cell_length_c   6.02821100
_cell_angle_alpha   90.00000000
_cell_angle_beta   90.00000000
_cell_angle_gamma   90.00000000
_symmetry_Int_Tables_number   1
_chemical_formula_structural   Cu6NiC10
_chemical_formula_sum   'Cu24 Ni4 C40'
_cell_volume   963.44626946
_cell_formula_units_Z   4
loop_
 _symmetry_equiv_pos_site_id
 _symmetry_equiv_pos_as_xyz
  1  'x, y, z'
loop_
 _atom_site_type_symbol
 _atom_site_label
 _atom_site_symmetry_multiplicity
 _atom_site_fract_x
 _atom_site_fract_y
 _atom_site_fract_z
 _atom_site_occupancy
  C  C0  1  0.31547900  0.95671600  0.09644700  1
  C  C1  1  0.68452100  0.04328400  0.09644700  1
  C  C2  1  0.81547900  0.54328400  0.90355300  1
  C  C3  1  0.18452100  0.45671600  0.90355300  1
  C  C4  1  0.36159800  0.76322000  0.78977600  1
  C  C5  1  0.63840200  0.23678000  0.78977600  1
  C  C6  1  0.86159800  0.73678000  0.21022400  1
  C  C7  1  0.13840200  0.26322000  0.21022400  1
  C  C8  1  0.03020500  0.82653400  0.70649700  1
  C  C9  1  0.96979500  0.17346600  0.70649700  1
  C  C10  1  0.53020500  0.67346600  0.29350300  1
  C  C11  1  0.46979500  0.32653400  0.29350300  1
  C  C12  1  0.01168700  0.60145400  0.67576300  1
  C  C13  1  0.98831300  0.39854600  0.67576300  1
  C  C14  1  0.51168700  0.89854600  0.32423700  1
  C  C15  1  0.48831300  0.10145400  0.32423700  1
  C  C16  1  0.42051300  0.82725400  0.39897300  1
  C  C17  1  0.57948700  0.17274600  0.39897300  1
  C  C18  1  0.92051300  0.67274600  0.60102700  1
  C  C19  1  0.07948700  0.32725400  0.60102700  1
  C  C20  1  0.30763300  0.67763700  0.16656300  1
  C  C21  1  0.69236700  0.32236300  0.16656300  1
  C  C22  1  0.80763300  0.82236300  0.83343700  1
  C  C23  1  0.19236700  0.17763700  0.83343700  1
  C  C24  1  0.02469100  0.65393900  0.10501900  1
  C  C25  1  0.97530900  0.34606100  0.10501900  1
  C  C26  1  0.52469100  0.84606100  0.89498100  1
  C  C27  1  0.47530900  0.15393900  0.89498100  1
  C  C28  1  0.05731700  0.56583800  0.23863200  1
  C  C29  1  0.94268300  0.43416200  0.23863200  1
  C  C30  1  0.55731700  0.93416200  0.76136800  1
  C  C31  1  0.44268300  0.06583800  0.76136800  1
  C  C32  1  0.25139500  0.67732000  0.09946100  1
  C  C33  1  0.74860500  0.32268000  0.09946100  1
  C  C34  1  0.75139500  0.82268000  0.90053900  1
  C  C35  1  0.24860500  0.17732000  0.90053900  1
  C  C36  1  0.49867300  0.63282100  0.68616000  1
  C  C37  1  0.50132700  0.36717900  0.68616000  1
  C  C38  1  0.99867300  0.86717900  0.31384000  1
  C  C39  1  0.00132700  0.13282100  0.31384000  1
  Ni  Ni40  1  0.36140500  0.38521300  0.74397500  1
  Ni  Ni41  1  0.63859400  0.61478700  0.74397500  1
  Ni  Ni42  1  0.86140600  0.11478700  0.25602500  1
  Ni  Ni43  1  0.13859500  0.88521300  0.25602500  1
  Cu  Cu44  1  0.44452900  0.75342000  0.83261900  1
  Cu  Cu45  1  0.55547100  0.24658000  0.83261900  1
  Cu  Cu46  1  0.94452900  0.74658000  0.16738100  1
  Cu  Cu47  1  0.05547100  0.25342000  0.16738100  1
  Cu  Cu48  1  0.47369000  0.69887700  0.40117500  1
  Cu  Cu49  1  0.52631000  0.30112300  0.40117500  1
  Cu  Cu50  1  0.97369000  0.80112300  0.59882500  1
  Cu  Cu51  1  0.02631000  0.19887700  0.59882500  1
  Cu  Cu52  1  0.24657800  0.58846000  0.59313700  1
  Cu  Cu53  1  0.75342200  0.41154000  0.59313700  1
  Cu  Cu54  1  0.74657800  0.91154000  0.40686300  1
  Cu  Cu55  1  0.25342200  0.08846000  0.40686300  1
  Cu  Cu56  1  0.44205800  0.08824100  0.91412400  1
  Cu  Cu57  1  0.55794200  0.91175900  0.91412400  1
  Cu  Cu58  1  0.94205800  0.41175900  0.08587600  1
  Cu  Cu59  1  0.05794200  0.58824100  0.08587600  1
  Cu  Cu60  1  0.31233600  0.15973200  0.35273700  1
  Cu  Cu61  1  0.68766400  0.84026800  0.35273700  1
  Cu  Cu62  1  0.81233600  0.34026800  0.64726300  1
  Cu  Cu63  1  0.18766400  0.65973200  0.64726300  1
  Cu  Cu64  1  0.42999500  0.89606700  0.37689700  1
  Cu  Cu65  1  0.57000500  0.10393300  0.37689700  1
  Cu  Cu66  1  0.92999500  0.60393300  0.62310300  1
  Cu  Cu67  1  0.07000500  0.39606700  0.62310300  1
