# generated using pymatgen
data_Cu4NiC24
_symmetry_space_group_name_H-M   'P 1'
_cell_length_a   6.96569162
_cell_length_b   7.71704178
_cell_length_c   7.19760949
_cell_angle_alpha   105.44762772
_cell_angle_beta   138.24853125
_cell_angle_gamma   90.21794077
_symmetry_Int_Tables_number   1
_chemical_formula_structural   Cu4NiC24
_chemical_formula_sum   'Cu4 Ni1 C24'
_cell_volume   235.64697781
_cell_formula_units_Z   1
loop_
 _symmetry_equiv_pos_site_id
 _symmetry_equiv_pos_as_xyz
  1  'x, y, z'
loop_
 _atom_site_type_symbol
 _atom_site_label
 _atom_site_symmetry_multiplicity
 _atom_site_fract_x
 _atom_site_fract_y
 _atom_site_fract_z
 _atom_site_occupancy
  Ni  Ni0  1  0.24416800  0.89143347  0.62652091  1
  Cu  Cu1  1  0.50038928  0.85716657  0.31770679  1
  Cu  Cu2  1  0.54338953  0.18202413  0.69688364  1
  Cu  Cu3  1  0.97590246  0.63239654  0.65058351  1
  Cu  Cu4  1  0.03580384  0.30086207  0.37670054  1
  C  C5  1  0.93453850  0.03008634  0.51995172  1
  C  C6  1  0.77114297  0.71896885  0.03329549  1
  C  C7  1  0.58192080  0.54191257  0.80312893  1
  C  C8  1  0.42710854  0.51706019  0.14042529  1
  C  C9  1  0.85423252  0.59017824  0.20437712  1
  C  C10  1  0.84307483  0.30099776  0.56993430  1
  C  C11  1  0.32051892  0.13946137  0.22000570  1
  C  C12  1  0.74321747  0.90061414  0.81397027  1
  C  C13  1  0.55304016  0.75259240  0.99879592  1
  C  C14  1  0.47638391  0.23914227  0.00520724  1
  C  C15  1  0.09370109  0.38790227  0.10858803  1
  C  C16  1  0.94408243  0.72589676  0.00226828  1
  C  C17  1  0.91458545  0.93527275  0.57828008  1
  C  C18  1  0.13515282  0.08678459  0.43744929  1
  C  C19  1  0.45354880  0.40497338  0.67626381  1
  C  C20  1  0.56492447  0.61095697  0.34820679  1
  C  C21  1  0.00702926  0.57844327  0.40338244  1
  C  C22  1  0.00635465  0.39143165  0.63982915  1
  C  C23  1  0.50914010  0.11974634  0.39338701  1
  C  C24  1  0.55075979  0.91483466  0.63609938  1
  C  C25  1  0.38968866  0.79141796  0.96197629  1
  C  C26  1  0.60758678  0.17814887  0.02163620  1
  C  C27  1  0.97148206  0.27491910  0.05298378  1
  C  C28  1  0.07081594  0.74504355  0.98148511  1
