# generated using pymatgen
data_Cu4NiC2
_symmetry_space_group_name_H-M   'P 1'
_cell_length_a   7.03452900
_cell_length_b   7.55326200
_cell_length_c   20.17651300
_cell_angle_alpha   90.00000000
_cell_angle_beta   90.00000000
_cell_angle_gamma   90.00000000
_symmetry_Int_Tables_number   1
_chemical_formula_structural   Cu4NiC2
_chemical_formula_sum   'Cu32 Ni8 C16'
_cell_volume   1072.05158997
_cell_formula_units_Z   8
loop_
 _symmetry_equiv_pos_site_id
 _symmetry_equiv_pos_as_xyz
  1  'x, y, z'
loop_
 _atom_site_type_symbol
 _atom_site_label
 _atom_site_symmetry_multiplicity
 _atom_site_fract_x
 _atom_site_fract_y
 _atom_site_fract_z
 _atom_site_occupancy
  C  C0  1  0.47279500  0.00000000  0.61108000  1
  C  C1  1  0.52720500  0.00000000  0.38892000  1
  C  C2  1  0.02720500  0.00000000  0.11108000  1
  C  C3  1  0.97279500  0.00000000  0.88892000  1
  C  C4  1  0.23054000  0.50000000  0.85977200  1
  C  C5  1  0.76946000  0.50000000  0.14022800  1
  C  C6  1  0.26946000  0.50000000  0.35977200  1
  C  C7  1  0.73054000  0.50000000  0.64022800  1
  C  C8  1  0.41750600  0.00000000  0.81785500  1
  C  C9  1  0.58249400  0.00000000  0.18214500  1
  C  C10  1  0.08249400  0.00000000  0.31785500  1
  C  C11  1  0.91750600  0.00000000  0.68214500  1
  C  C12  1  0.28821100  0.50000000  0.56781700  1
  C  C13  1  0.71178900  0.50000000  0.43218300  1
  C  C14  1  0.21178900  0.50000000  0.06781700  1
  C  C15  1  0.78821100  0.50000000  0.93218300  1
  Ni  Ni16  1  0.24140300  0.00000000  0.99162200  1
  Ni  Ni17  1  0.75859700  0.00000000  0.00837800  1
  Ni  Ni18  1  0.25859700  0.00000000  0.49162200  1
  Ni  Ni19  1  0.74140300  0.00000000  0.50837800  1
  Ni  Ni20  1  0.46519100  0.50000000  0.74478100  1
  Ni  Ni21  1  0.53480900  0.50000000  0.25521900  1
  Ni  Ni22  1  0.03480900  0.50000000  0.24478100  1
  Ni  Ni23  1  0.96519100  0.50000000  0.75521900  1
  Cu  Cu24  1  0.14095300  0.00000000  0.64197300  1
  Cu  Cu25  1  0.85904700  0.00000000  0.35802700  1
  Cu  Cu26  1  0.35904700  0.00000000  0.14197300  1
  Cu  Cu27  1  0.64095300  0.00000000  0.85802700  1
  Cu  Cu28  1  0.45818500  0.00000000  0.73099400  1
  Cu  Cu29  1  0.54181500  0.00000000  0.26900600  1
  Cu  Cu30  1  0.04181500  0.00000000  0.23099400  1
  Cu  Cu31  1  0.95818500  0.00000000  0.76900600  1
  Cu  Cu32  1  0.27047600  0.81457400  0.84396400  1
  Cu  Cu33  1  0.72952400  0.81457400  0.15603600  1
  Cu  Cu34  1  0.22952400  0.18542600  0.34396400  1
  Cu  Cu35  1  0.77047600  0.18542600  0.65603600  1
  Cu  Cu36  1  0.72952400  0.18542600  0.15603600  1
  Cu  Cu37  1  0.27047600  0.18542600  0.84396400  1
  Cu  Cu38  1  0.77047600  0.81457400  0.65603600  1
  Cu  Cu39  1  0.22952400  0.81457400  0.34396400  1
  Cu  Cu40  1  0.05519900  0.50000000  0.60109600  1
  Cu  Cu41  1  0.94480100  0.50000000  0.39890400  1
  Cu  Cu42  1  0.44480100  0.50000000  0.10109600  1
  Cu  Cu43  1  0.55519900  0.50000000  0.89890400  1
  Cu  Cu44  1  0.22349400  0.50000000  0.97978300  1
  Cu  Cu45  1  0.77650600  0.50000000  0.02021700  1
  Cu  Cu46  1  0.27650600  0.50000000  0.47978300  1
  Cu  Cu47  1  0.72349400  0.50000000  0.52021700  1
  Cu  Cu48  1  0.42891900  0.68547900  0.59752300  1
  Cu  Cu49  1  0.57108100  0.68547900  0.40247700  1
  Cu  Cu50  1  0.07108100  0.31452100  0.09752300  1
  Cu  Cu51  1  0.92891900  0.31452100  0.90247700  1
  Cu  Cu52  1  0.57108100  0.31452100  0.40247700  1
  Cu  Cu53  1  0.42891900  0.31452100  0.59752300  1
  Cu  Cu54  1  0.92891900  0.68547900  0.90247700  1
  Cu  Cu55  1  0.07108100  0.68547900  0.09752300  1
