# generated using pymatgen
data_CuNiC7
_symmetry_space_group_name_H-M   'P 1'
_cell_length_a   10.86379828
_cell_length_b   11.52884615
_cell_length_c   17.51624931
_cell_angle_alpha   109.23614692
_cell_angle_beta   108.03597746
_cell_angle_gamma   89.97538258
_symmetry_Int_Tables_number   1
_chemical_formula_structural   CuNiC7
_chemical_formula_sum   'Cu16 Ni16 C112'
_cell_volume   1956.94300936
_cell_formula_units_Z   16
loop_
 _symmetry_equiv_pos_site_id
 _symmetry_equiv_pos_as_xyz
  1  'x, y, z'
loop_
 _atom_site_type_symbol
 _atom_site_label
 _atom_site_symmetry_multiplicity
 _atom_site_fract_x
 _atom_site_fract_y
 _atom_site_fract_z
 _atom_site_occupancy
  Ni  Ni0  1  0.30740468  0.06574842  0.61011289  1
  Ni  Ni1  1  0.30917770  0.56772361  0.61277227  1
  Ni  Ni2  1  0.80616311  0.06606488  0.61059670  1
  Ni  Ni3  1  0.80670736  0.56745067  0.61300524  1
  Ni  Ni4  1  0.19562631  0.43329863  0.38663887  1
  Ni  Ni5  1  0.19023624  0.43656086  0.89034588  1
  Ni  Ni6  1  0.69356871  0.43328542  0.38655218  1
  Ni  Ni7  1  0.69071582  0.93136784  0.38585342  1
  Ni  Ni8  1  0.05738623  0.29463408  0.61083826  1
  Ni  Ni9  1  0.05550048  0.79672167  0.61253262  1
  Ni  Ni10  1  0.55816176  0.29615684  0.61238051  1
  Ni  Ni11  1  0.44367481  0.20297668  0.38624674  1
  Ni  Ni12  1  0.44763218  0.20590723  0.89097602  1
  Ni  Ni13  1  0.94517398  0.20406804  0.38615564  1
  Ni  Ni14  1  0.94408256  0.20517599  0.89026085  1
  Ni  Ni15  1  0.94460808  0.70455701  0.38672720  1
  Cu  Cu16  1  0.29818820  0.06879540  0.10881535  1
  Cu  Cu17  1  0.29891133  0.56911324  0.11184082  1
  Cu  Cu18  1  0.79707040  0.06610124  0.10662263  1
  Cu  Cu19  1  0.80244271  0.56879261  0.10940178  1
  Cu  Cu20  1  0.19556504  0.93014894  0.38826356  1
  Cu  Cu21  1  0.19067947  0.93214315  0.89300988  1
  Cu  Cu22  1  0.69523516  0.43599958  0.89249669  1
  Cu  Cu23  1  0.68973957  0.92876900  0.88966522  1
  Cu  Cu24  1  0.05197775  0.28878961  0.10933406  1
  Cu  Cu25  1  0.04949988  0.79110871  0.11074295  1
  Cu  Cu26  1  0.55167466  0.28900579  0.10894589  1
  Cu  Cu27  1  0.54987324  0.79189690  0.10809592  1
  Cu  Cu28  1  0.55437754  0.79264771  0.60963482  1
  Cu  Cu29  1  0.44346366  0.70808987  0.38986952  1
  Cu  Cu30  1  0.44436029  0.71122836  0.89267015  1
  Cu  Cu31  1  0.94066103  0.71288425  0.89284577  1
  C  C32  1  0.00462355  0.99890985  0.49785390  1
  C  C33  1  0.00494075  0.50001563  0.49954347  1
  C  C34  1  0.50426334  0.99893536  0.49936229  1
  C  C35  1  0.50573761  0.50147368  0.00233774  1
  C  C36  1  0.50422732  0.50012281  0.49858832  1
  C  C37  1  0.25554478  0.25232570  0.00236153  1
  C  C38  1  0.25487830  0.24856564  0.49845147  1
  C  C39  1  0.25455664  0.75172462  0.00226480  1
  C  C40  1  0.25529182  0.74931874  0.49936034  1
  C  C41  1  0.75609080  0.25080939  0.00161770  1
  C  C42  1  0.75439760  0.24998525  0.49905367  1
  C  C43  1  0.75336187  0.74920783  0.49878526  1
  C  C44  1  0.10605755  0.09162603  0.24948188  1
  C  C45  1  0.10914988  0.09344861  0.75296132  1
  C  C46  1  0.10812696  0.59513565  0.24944559  1
  C  C47  1  0.10878471  0.59931685  0.75390489  1
  C  C48  1  0.60542635  0.09198128  0.24801437  1
  C  C49  1  0.60804875  0.09358236  0.75229558  1
  C  C50  1  0.60193187  0.59291318  0.24545370  1
  C  C51  1  0.60690651  0.59723881  0.75092122  1
  C  C52  1  0.35456680  0.40619921  0.24672740  1
  C  C53  1  0.36137558  0.40878398  0.75334985  1
  C  C54  1  0.35242640  0.90215106  0.24692188  1
  C  C55  1  0.35913436  0.90412471  0.75042368  1
  C  C56  1  0.85343982  0.40262959  0.24449800  1
  C  C57  1  0.85524061  0.40873337  0.75041189  1
  C  C58  1  0.85778667  0.90545329  0.24869460  1
  C  C59  1  0.85409078  0.90304262  0.75022555  1
  C  C60  1  0.00135393  0.99885636  0.00157852  1
  C  C61  1  0.00280895  0.50146006  0.00182999  1
  C  C62  1  0.50195038  0.99973363  0.00136134  1
  C  C63  1  0.75277524  0.75021424  0.00145626  1
  C  C64  1  0.11939842  0.11437719  0.47919151  1
  C  C65  1  0.11947822  0.12064092  0.98696204  1
  C  C66  1  0.11929961  0.61839145  0.48191830  1
  C  C67  1  0.11309495  0.62145980  0.98404141  1
  C  C68  1  0.61751764  0.11725377  0.48146880  1
  C  C69  1  0.61901817  0.11729172  0.98547759  1
  C  C70  1  0.61439246  0.62037026  0.47913886  1
  C  C71  1  0.61772158  0.61947479  0.97836879  1
  C  C72  1  0.13481083  0.38330120  0.02352695  1
  C  C73  1  0.13675404  0.38178013  0.51768851  1
  C  C74  1  0.13394005  0.88150036  0.01947821  1
  C  C75  1  0.13727448  0.88075465  0.51615127  1
  C  C76  1  0.63927026  0.38366751  0.02331182  1
  C  C77  1  0.63694056  0.38359328  0.51808794  1
  C  C78  1  0.63338013  0.87763906  0.01630736  1
  C  C79  1  0.63396244  0.87874647  0.51840433  1
  C  C80  1  0.36447257  0.10686804  0.47798756  1
  C  C81  1  0.36580552  0.11125842  0.98431693  1
  C  C82  1  0.37036643  0.61575889  0.47973494  1
  C  C83  1  0.36999710  0.61688417  0.98341284  1
  C  C84  1  0.86813342  0.11244100  0.48077789  1
  C  C85  1  0.86372872  0.10641421  0.98226804  1
  C  C86  1  0.86845559  0.61413953  0.48155763  1
  C  C87  1  0.86705912  0.61342959  0.98496286  1
  C  C88  1  0.38711580  0.39185033  0.02441185  1
  C  C89  1  0.38719050  0.38719309  0.51831421  1
  C  C90  1  0.38635654  0.89030889  0.02015661  1
  C  C91  1  0.38879251  0.88258038  0.51681822  1
  C  C92  1  0.88426293  0.39266516  0.01887665  1
  C  C93  1  0.88680490  0.38732692  0.51801099  1
  C  C94  1  0.88148408  0.88367330  0.01624439  1
  C  C95  1  0.88560691  0.88448973  0.51567641  1
  C  C96  1  0.11442962  0.12411944  0.15078910  1
  C  C97  1  0.09049432  0.11022966  0.64227200  1
  C  C98  1  0.11427002  0.62676528  0.15033811  1
  C  C99  1  0.09047614  0.61454022  0.64285239  1
  C  C100  1  0.61537848  0.12368521  0.14969582  1
  C  C101  1  0.58947507  0.11204595  0.64204618  1
  C  C102  1  0.60324707  0.61823805  0.14104561  1
  C  C103  1  0.58658588  0.61353178  0.63982925  1
  C  C104  1  0.44563960  0.38722423  0.35687889  1
  C  C105  1  0.46153141  0.38855301  0.86057007  1
  C  C106  1  0.44667825  0.88603414  0.35780999  1
  C  C107  1  0.46577450  0.87638005  0.85132145  1
  C  C108  1  0.94572017  0.38852626  0.35619188  1
  C  C109  1  0.95257397  0.37788399  0.85187009  1
  C  C110  1  0.95738620  0.88859980  0.35770689  1
  C  C111  1  0.96587965  0.87804567  0.85136959  1
  C  C112  1  0.35437527  0.27637268  0.14238048  1
  C  C113  1  0.34055618  0.28111009  0.64169105  1
  C  C114  1  0.35213022  0.77621673  0.14033406  1
  C  C115  1  0.34746337  0.78069971  0.63966979  1
  C  C116  1  0.85196474  0.27460696  0.13844646  1
  C  C117  1  0.83632170  0.28113601  0.63999978  1
  C  C118  1  0.86164085  0.77540115  0.14817899  1
  C  C119  1  0.83627732  0.77901507  0.63887415  1
  C  C120  1  0.19718524  0.22115043  0.35946867  1
  C  C121  1  0.20222555  0.22330783  0.86109357  1
  C  C122  1  0.20551722  0.72102744  0.35933096  1
  C  C123  1  0.21390422  0.72460792  0.86172897  1
  C  C124  1  0.69583165  0.21948025  0.35904555  1
  C  C125  1  0.69873115  0.22445168  0.86204284  1
  C  C126  1  0.69673238  0.71871755  0.35648622  1
  C  C127  1  0.71604882  0.72433823  0.85146257  1
  C  C128  1  0.41545888  0.06551047  0.24428155  1
  C  C129  1  0.41930875  0.07031848  0.75105654  1
  C  C130  1  0.41523566  0.57454436  0.24971979  1
  C  C131  1  0.42170628  0.57554273  0.75604872  1
  C  C132  1  0.91515390  0.06857522  0.24339581  1
  C  C133  1  0.91933524  0.06747326  0.75018357  1
  C  C134  1  0.91728811  0.56707201  0.24442746  1
  C  C135  1  0.92300134  0.57553330  0.75658833  1
  C  C136  1  0.16449281  0.42616765  0.24363000  1
  C  C137  1  0.17206542  0.43319185  0.75075161  1
  C  C138  1  0.16576887  0.92532773  0.24981804  1
  C  C139  1  0.17461715  0.93062104  0.75675681  1
  C  C140  1  0.66458546  0.42723761  0.24366073  1
  C  C141  1  0.66852195  0.43281192  0.75542348  1
  C  C142  1  0.66596843  0.92426317  0.24413715  1
  C  C143  1  0.66632261  0.92701087  0.75045895  1
