# generated using pymatgen
data_Cu8Ni3
_symmetry_space_group_name_H-M   'P 1'
_cell_length_a   15.29084284
_cell_length_b   15.29084284
_cell_length_c   15.29084289
_cell_angle_alpha   30.25208717
_cell_angle_beta   30.25208717
_cell_angle_gamma   30.25209100
_symmetry_Int_Tables_number   1
_chemical_formula_structural   Cu8Ni3
_chemical_formula_sum   'Cu32 Ni12'
_cell_volume   804.09949658
_cell_formula_units_Z   4
loop_
 _symmetry_equiv_pos_site_id
 _symmetry_equiv_pos_as_xyz
  1  'x, y, z'
loop_
 _atom_site_type_symbol
 _atom_site_label
 _atom_site_symmetry_multiplicity
 _atom_site_fract_x
 _atom_site_fract_y
 _atom_site_fract_z
 _atom_site_occupancy
  Ni  Ni0  1  0.99238700  0.36154200  0.66455200  1
  Ni  Ni1  1  0.66455200  0.99238700  0.36154200  1
  Ni  Ni2  1  0.36154200  0.66455200  0.99238700  1
  Ni  Ni3  1  0.49306900  0.16219500  0.86169900  1
  Ni  Ni4  1  0.86169900  0.49306900  0.16219500  1
  Ni  Ni5  1  0.16219500  0.86169900  0.49306900  1
  Ni  Ni6  1  0.07497500  0.07497500  0.07497500  1
  Ni  Ni7  1  0.26845100  0.26845100  0.26845100  1
  Ni  Ni8  1  0.42840500  0.42840500  0.42840500  1
  Ni  Ni9  1  0.57536800  0.57536800  0.57536800  1
  Ni  Ni10  1  0.76988800  0.76988800  0.76988800  1
  Ni  Ni11  1  0.92716400  0.92716400  0.92716400  1
  Cu  Cu12  1  0.04076400  0.74528900  0.33125300  1
  Cu  Cu13  1  0.33125300  0.04076400  0.74528900  1
  Cu  Cu14  1  0.74528900  0.33125300  0.04076400  1
  Cu  Cu15  1  0.54175900  0.83173300  0.24472700  1
  Cu  Cu16  1  0.24472700  0.54175900  0.83173300  1
  Cu  Cu17  1  0.83173300  0.24472700  0.54175900  1
  Cu  Cu18  1  0.06905600  0.43716200  0.70836800  1
  Cu  Cu19  1  0.70836800  0.06905600  0.43716200  1
  Cu  Cu20  1  0.43716200  0.70836800  0.06905600  1
  Cu  Cu21  1  0.56744300  0.20966400  0.93730000  1
  Cu  Cu22  1  0.93730000  0.56744300  0.20966400  1
  Cu  Cu23  1  0.20966400  0.93730000  0.56744300  1
  Cu  Cu24  1  0.11396600  0.79324500  0.41046600  1
  Cu  Cu25  1  0.41046600  0.11396600  0.79324500  1
  Cu  Cu26  1  0.79324500  0.41046600  0.11396600  1
  Cu  Cu27  1  0.61971800  0.90812300  0.29188900  1
  Cu  Cu28  1  0.29188900  0.61971800  0.90812300  1
  Cu  Cu29  1  0.90812300  0.29188900  0.61971800  1
  Cu  Cu30  1  0.11673400  0.50739100  0.79171700  1
  Cu  Cu31  1  0.79171700  0.11673400  0.50739100  1
  Cu  Cu32  1  0.50739100  0.79171700  0.11673400  1
  Cu  Cu33  1  0.60629800  0.29428900  0.01671100  1
  Cu  Cu34  1  0.01671100  0.60629800  0.29428900  1
  Cu  Cu35  1  0.29428900  0.01671100  0.60629800  1
  Cu  Cu36  1  0.13917700  0.13917700  0.13917700  1
  Cu  Cu37  1  0.20563100  0.20563100  0.20563100  1
  Cu  Cu38  1  0.36229500  0.36229500  0.36229500  1
  Cu  Cu39  1  0.49375500  0.49375500  0.49375500  1
  Cu  Cu40  1  0.63996300  0.63996300  0.63996300  1
  Cu  Cu41  1  0.70699400  0.70699400  0.70699400  1
  Cu  Cu42  1  0.86170400  0.86170400  0.86170400  1
  Cu  Cu43  1  0.99172100  0.99172100  0.99172100  1
