# generated using pymatgen
data_Cu(Ni2C)2
_symmetry_space_group_name_H-M   'P 1'
_cell_length_a   6.65118400
_cell_length_b   7.08161900
_cell_length_c   10.17787220
_cell_angle_alpha   64.06754008
_cell_angle_beta   90.00000000
_cell_angle_gamma   90.00000000
_symmetry_Int_Tables_number   1
_chemical_formula_structural   Cu(Ni2C)2
_chemical_formula_sum   'Cu4 Ni16 C8'
_cell_volume   431.11984946
_cell_formula_units_Z   4
loop_
 _symmetry_equiv_pos_site_id
 _symmetry_equiv_pos_as_xyz
  1  'x, y, z'
loop_
 _atom_site_type_symbol
 _atom_site_label
 _atom_site_symmetry_multiplicity
 _atom_site_fract_x
 _atom_site_fract_y
 _atom_site_fract_z
 _atom_site_occupancy
  C  C0  1  0.62896400  0.80344200  0.42202400  1
  C  C1  1  0.87103600  0.80344200  0.92202400  1
  C  C2  1  0.37103600  0.19655800  0.57797600  1
  C  C3  1  0.12896400  0.19655800  0.07797600  1
  C  C4  1  0.63618000  0.33400300  0.83483200  1
  C  C5  1  0.86382000  0.33400300  0.33483200  1
  C  C6  1  0.36382000  0.66599700  0.16516800  1
  C  C7  1  0.13618000  0.66599700  0.66516800  1
  Ni  Ni8  1  0.66038200  0.55292200  0.87291400  1
  Ni  Ni9  1  0.83961800  0.55292200  0.37291400  1
  Ni  Ni10  1  0.33961800  0.44707800  0.12708600  1
  Ni  Ni11  1  0.16038200  0.44707800  0.62708600  1
  Ni  Ni12  1  0.90278900  0.78582100  0.58859300  1
  Ni  Ni13  1  0.59721100  0.78582100  0.08859300  1
  Ni  Ni14  1  0.09721100  0.21417900  0.41140700  1
  Ni  Ni15  1  0.40278900  0.21417900  0.91140700  1
  Ni  Ni16  1  0.60778400  0.43928000  0.63676200  1
  Ni  Ni17  1  0.89221600  0.43928000  0.13676200  1
  Ni  Ni18  1  0.39221600  0.56072000  0.36323800  1
  Ni  Ni19  1  0.10778400  0.56072000  0.86323800  1
  Ni  Ni20  1  0.85668000  0.16598800  0.91854900  1
  Ni  Ni21  1  0.64332000  0.16598800  0.41854900  1
  Ni  Ni22  1  0.14332000  0.83401200  0.08145100  1
  Ni  Ni23  1  0.35668000  0.83401200  0.58145100  1
  Cu  Cu24  1  0.88345600  0.01341200  0.26072800  1
  Cu  Cu25  1  0.61654400  0.01341200  0.76072800  1
  Cu  Cu26  1  0.11654400  0.98658800  0.73927200  1
  Cu  Cu27  1  0.38345600  0.98658800  0.23927200  1
