# generated using pymatgen
data_CuNiC6
_symmetry_space_group_name_H-M   'P 1'
_cell_length_a   5.56262100
_cell_length_b   7.18540800
_cell_length_c   12.45083400
_cell_angle_alpha   90.00000000
_cell_angle_beta   90.00000000
_cell_angle_gamma   90.00000000
_symmetry_Int_Tables_number   1
_chemical_formula_structural   CuNiC6
_chemical_formula_sum   'Cu2 Ni2 C12'
_cell_volume   497.65611759
_cell_formula_units_Z   2
loop_
 _symmetry_equiv_pos_site_id
 _symmetry_equiv_pos_as_xyz
  1  'x, y, z'
loop_
 _atom_site_type_symbol
 _atom_site_label
 _atom_site_symmetry_multiplicity
 _atom_site_fract_x
 _atom_site_fract_y
 _atom_site_fract_z
 _atom_site_occupancy
  Ni  Ni0  1  0.00000000  0.50000000  0.34136800  1
  Ni  Ni1  1  0.00000000  0.00000000  0.84136800  1
  Cu  Cu2  1  0.50000000  0.50000000  0.15910500  1
  Cu  Cu3  1  0.50000000  0.00000000  0.65910500  1
  C  C4  1  0.00000000  0.24037000  0.08225700  1
  C  C5  1  0.00000000  0.75963000  0.08225700  1
  C  C6  1  0.00000000  0.00000000  0.33273000  1
  C  C7  1  0.50000000  0.77061600  0.41831000  1
  C  C8  1  0.50000000  0.22938400  0.41831000  1
  C  C9  1  0.50000000  0.00000000  0.16566200  1
  C  C10  1  0.00000000  0.74037000  0.58225700  1
  C  C11  1  0.00000000  0.25963000  0.58225700  1
  C  C12  1  0.00000000  0.50000000  0.83273000  1
  C  C13  1  0.50000000  0.27061600  0.91831000  1
  C  C14  1  0.50000000  0.72938400  0.91831000  1
  C  C15  1  0.50000000  0.50000000  0.66566200  1
