# generated using pymatgen
data_CuNiC4
_symmetry_space_group_name_H-M   'P 1'
_cell_length_a   3.34045535
_cell_length_b   3.34045535
_cell_length_c   39.74569800
_cell_angle_alpha   90.00000000
_cell_angle_beta   90.00000000
_cell_angle_gamma   119.99998703
_symmetry_Int_Tables_number   1
_chemical_formula_structural   CuNiC4
_chemical_formula_sum   'Cu2 Ni2 C8'
_cell_volume   384.08925498
_cell_formula_units_Z   2
loop_
 _symmetry_equiv_pos_site_id
 _symmetry_equiv_pos_as_xyz
  1  'x, y, z'
loop_
 _atom_site_type_symbol
 _atom_site_label
 _atom_site_symmetry_multiplicity
 _atom_site_fract_x
 _atom_site_fract_y
 _atom_site_fract_z
 _atom_site_occupancy
  C  C0  1  0.33333300  0.66666700  0.32939000  1
  C  C1  1  0.33333300  0.66666700  0.23387300  1
  Ni  Ni2  1  0.33333300  0.66666700  0.09318600  1
  Ni  Ni3  1  0.66666700  0.33333300  0.28162700  1
  Cu  Cu4  1  0.33333300  0.66666700  0.47055900  1
  Cu  Cu5  1  0.66666700  0.33333300  0.65753700  1
  C  C6  1  0.66666700  0.33333300  0.05122300  1
  C  C7  1  0.66666700  0.33333300  0.42840600  1
  C  C8  1  0.66666700  0.33333300  0.13516000  1
  C  C9  1  0.66666700  0.33333300  0.51272200  1
  C  C10  1  0.33333300  0.66666700  0.69585200  1
  C  C11  1  0.33333300  0.66666700  0.61921300  1
