# generated using pymatgen
data_Cu6Ni4C
_symmetry_space_group_name_H-M   'P 1'
_cell_length_a   3.92158400
_cell_length_b   7.24585072
_cell_length_c   7.24585072
_cell_angle_alpha   120.00000655
_cell_angle_beta   90.00000000
_cell_angle_gamma   90.00000000
_symmetry_Int_Tables_number   1
_chemical_formula_structural   Cu6Ni4C
_chemical_formula_sum   'Cu6 Ni4 C1'
_cell_volume   178.30802493
_cell_formula_units_Z   1
loop_
 _symmetry_equiv_pos_site_id
 _symmetry_equiv_pos_as_xyz
  1  'x, y, z'
loop_
 _atom_site_type_symbol
 _atom_site_label
 _atom_site_symmetry_multiplicity
 _atom_site_fract_x
 _atom_site_fract_y
 _atom_site_fract_z
 _atom_site_occupancy
  C  C0  1  0.00000000  0.00000000  0.00000000  1
  Ni  Ni1  1  0.00000000  0.66666700  0.33333300  1
  Ni  Ni2  1  0.50000000  0.60116200  0.80058100  1
  Ni  Ni3  1  0.50000000  0.19941900  0.39883800  1
  Ni  Ni4  1  0.50000000  0.19941900  0.80058100  1
  Cu  Cu5  1  0.00000000  0.06618800  0.53309400  1
  Cu  Cu6  1  0.00000000  0.46690600  0.93381200  1
  Cu  Cu7  1  0.00000000  0.46690600  0.53309400  1
  Cu  Cu8  1  0.50000000  0.40213800  0.20106900  1
  Cu  Cu9  1  0.50000000  0.79893100  0.59786200  1
  Cu  Cu10  1  0.50000000  0.79893100  0.20106900  1
