# generated using pymatgen
data_Cu(NiC10)2
_symmetry_space_group_name_H-M   'P 1'
_cell_length_a   5.45038883
_cell_length_b   7.16815321
_cell_length_c   7.86520179
_cell_angle_alpha   87.00200703
_cell_angle_beta   108.16745410
_cell_angle_gamma   92.81675770
_symmetry_Int_Tables_number   1
_chemical_formula_structural   Cu(NiC10)2
_chemical_formula_sum   'Cu1 Ni2 C20'
_cell_volume   291.39460698
_cell_formula_units_Z   1
loop_
 _symmetry_equiv_pos_site_id
 _symmetry_equiv_pos_as_xyz
  1  'x, y, z'
loop_
 _atom_site_type_symbol
 _atom_site_label
 _atom_site_symmetry_multiplicity
 _atom_site_fract_x
 _atom_site_fract_y
 _atom_site_fract_z
 _atom_site_occupancy
  Ni  Ni0  1  0.19019000  0.74037000  0.38590300  1
  Ni  Ni1  1  0.82089300  0.28749500  0.62014900  1
  Cu  Cu2  1  0.75464300  0.90138300  0.51560500  1
  C  C3  1  0.96957400  0.72207500  0.84258600  1
  C  C4  1  0.09720900  0.24836900  0.21190100  1
  C  C5  1  0.42260200  0.48172100  0.79695700  1
  C  C6  1  0.60355500  0.51602800  0.22605400  1
  C  C7  1  0.58713700  0.96511100  0.17792100  1
  C  C8  1  0.37068400  0.02674400  0.75656500  1
  C  C9  1  0.62469400  0.74501000  0.27914000  1
  C  C10  1  0.37053500  0.25907300  0.74332100  1
  C  C11  1  0.49912500  0.49755300  0.01206800  1
  C  C12  1  0.52514200  0.95588300  0.96298200  1
  C  C13  1  0.64863800  0.56514300  0.71751500  1
  C  C14  1  0.88884400  0.42955400  0.31741300  1
  C  C15  1  0.36403800  0.05500000  0.23965700  1
  C  C16  1  0.06501400  0.95687400  0.70506100  1
  C  C17  1  0.97773700  0.27891700  0.99277000  1
  C  C18  1  0.03783000  0.73062100  0.07067200  1
  C  C19  1  0.87591100  0.04958200  0.29030700  1
  C  C20  1  0.51302000  0.96808100  0.61856000  1
  C  C21  1  0.14585700  0.57459200  0.69825200  1
  C  C22  1  0.39713000  0.42444900  0.32280900  1
