# generated using pymatgen
data_Cu8Ni2C11
_symmetry_space_group_name_H-M   'P 1'
_cell_length_a   5.39637307
_cell_length_b   7.31064728
_cell_length_c   9.98232400
_cell_angle_alpha   90.00000000
_cell_angle_beta   90.00000000
_cell_angle_gamma   94.64582112
_symmetry_Int_Tables_number   1
_chemical_formula_structural   Cu8Ni2C11
_chemical_formula_sum   'Cu16 Ni4 C22'
_cell_volume   392.51856424
_cell_formula_units_Z   2
loop_
 _symmetry_equiv_pos_site_id
 _symmetry_equiv_pos_as_xyz
  1  'x, y, z'
loop_
 _atom_site_type_symbol
 _atom_site_label
 _atom_site_symmetry_multiplicity
 _atom_site_fract_x
 _atom_site_fract_y
 _atom_site_fract_z
 _atom_site_occupancy
  C  C0  1  0.00000000  0.00000000  0.00000000  1
  C  C1  1  0.50000000  0.50000000  0.50000000  1
  Ni  Ni2  1  0.76549500  0.66382700  0.78355400  1
  Ni  Ni3  1  0.26549500  0.16382700  0.71644600  1
  Ni  Ni4  1  0.23450500  0.33617300  0.21644600  1
  Ni  Ni5  1  0.73450500  0.83617300  0.28355400  1
  Cu  Cu6  1  0.57931500  0.16260600  0.92039000  1
  Cu  Cu7  1  0.07931500  0.66260600  0.57961000  1
  Cu  Cu8  1  0.42068500  0.83739400  0.07961000  1
  Cu  Cu9  1  0.92068500  0.33739400  0.42039000  1
  Cu  Cu10  1  0.69163600  0.26840200  0.04311200  1
  Cu  Cu11  1  0.19163600  0.76840200  0.45688800  1
  Cu  Cu12  1  0.30836400  0.73159800  0.95688800  1
  Cu  Cu13  1  0.80836400  0.23159800  0.54311200  1
  Cu  Cu14  1  0.86459700  0.40725900  0.88575300  1
  Cu  Cu15  1  0.36459700  0.90725900  0.61424700  1
  Cu  Cu16  1  0.13540300  0.59274100  0.11424700  1
  Cu  Cu17  1  0.63540300  0.09274100  0.38575300  1
  Cu  Cu18  1  0.40490300  0.51137300  0.78447400  1
  Cu  Cu19  1  0.90490300  0.01137300  0.71552600  1
  Cu  Cu20  1  0.59509700  0.48862700  0.21552600  1
  Cu  Cu21  1  0.09509700  0.98862700  0.28447400  1
  C  C22  1  0.74383600  0.20497300  0.96122600  1
  C  C23  1  0.24383600  0.70497300  0.53877400  1
  C  C24  1  0.25616400  0.79502700  0.03877400  1
  C  C25  1  0.75616400  0.29502700  0.46122600  1
  C  C26  1  0.85436300  0.85680200  0.82886500  1
  C  C27  1  0.35436300  0.35680200  0.67113500  1
  C  C28  1  0.14563700  0.14319800  0.17113500  1
  C  C29  1  0.64563700  0.64319800  0.32886500  1
  C  C30  1  0.76861200  0.63389600  0.63238000  1
  C  C31  1  0.26861200  0.13389600  0.86762000  1
  C  C32  1  0.23138800  0.36610400  0.36762000  1
  C  C33  1  0.73138800  0.86610400  0.13238000  1
  C  C34  1  0.93948700  0.53016700  0.85596700  1
  C  C35  1  0.43948700  0.03016700  0.64403300  1
  C  C36  1  0.06051300  0.46983300  0.14403300  1
  C  C37  1  0.56051300  0.96983300  0.35596700  1
  C  C38  1  0.49013100  0.61649000  0.83880200  1
  C  C39  1  0.99013100  0.11649000  0.66119800  1
  C  C40  1  0.50986900  0.38351000  0.16119800  1
  C  C41  1  0.00986900  0.88351000  0.33880200  1
