# generated using pymatgen
data_Cu16Ni4C
_symmetry_space_group_name_H-M   'P 1'
_cell_length_a   8.27100313
_cell_length_b   8.27100313
_cell_length_c   13.87605052
_cell_angle_alpha   75.16549651
_cell_angle_beta   75.16549651
_cell_angle_gamma   63.03230164
_symmetry_Int_Tables_number   1
_chemical_formula_structural   Cu16Ni4C
_chemical_formula_sum   'Cu32 Ni8 C2'
_cell_volume   806.97748955
_cell_formula_units_Z   2
loop_
 _symmetry_equiv_pos_site_id
 _symmetry_equiv_pos_as_xyz
  1  'x, y, z'
loop_
 _atom_site_type_symbol
 _atom_site_label
 _atom_site_symmetry_multiplicity
 _atom_site_fract_x
 _atom_site_fract_y
 _atom_site_fract_z
 _atom_site_occupancy
  C  C0  1  0.65008800  0.63633100  0.89950700  1
  C  C1  1  0.63633100  0.65008800  0.39950700  1
  Ni  Ni2  1  0.99649000  0.25530700  0.13958200  1
  Ni  Ni3  1  0.20992100  0.60653900  0.96324700  1
  Ni  Ni4  1  0.02212300  0.59916100  0.31632700  1
  Ni  Ni5  1  0.59916100  0.02212300  0.81632700  1
  Ni  Ni6  1  0.60653900  0.20992100  0.46324700  1
  Ni  Ni7  1  0.44597700  0.93843500  0.24140100  1
  Ni  Ni8  1  0.25530700  0.99649000  0.63958200  1
  Ni  Ni9  1  0.93843500  0.44597700  0.74140100  1
  Cu  Cu10  1  0.89932500  0.58102600  0.26136600  1
  Cu  Cu11  1  0.96566900  0.53962200  0.63931200  1
  Cu  Cu12  1  0.17531700  0.42830600  0.33745300  1
  Cu  Cu13  1  0.71517600  0.23819100  0.96640600  1
  Cu  Cu14  1  0.94767500  0.54879000  0.81787100  1
  Cu  Cu15  1  0.66092800  0.39263200  0.41439400  1
  Cu  Cu16  1  0.23819100  0.71517600  0.46640600  1
  Cu  Cu17  1  0.16587500  0.01019700  0.74340700  1
  Cu  Cu18  1  0.74799400  0.07130000  0.76726000  1
  Cu  Cu19  1  0.42830600  0.17531700  0.83745300  1
  Cu  Cu20  1  0.78207700  0.06013700  0.48225700  1
  Cu  Cu21  1  0.14566800  0.76073600  0.54579300  1
  Cu  Cu22  1  0.13996800  0.11940800  0.56508700  1
  Cu  Cu23  1  0.58102600  0.89932500  0.76136600  1
  Cu  Cu24  1  0.01019700  0.16587500  0.24340700  1
  Cu  Cu25  1  0.07130000  0.74799400  0.26726000  1
  Cu  Cu26  1  0.73021700  0.48001300  0.77374900  1
  Cu  Cu27  1  0.25875800  0.47720300  0.05609300  1
  Cu  Cu28  1  0.64785000  0.89191200  0.91764700  1
  Cu  Cu29  1  0.39263200  0.66092800  0.91439400  1
  Cu  Cu30  1  0.11940800  0.13996800  0.06508700  1
  Cu  Cu31  1  0.50440400  0.72397100  0.52592900  1
  Cu  Cu32  1  0.48001300  0.73021700  0.27374900  1
  Cu  Cu33  1  0.54879000  0.94767500  0.31787100  1
  Cu  Cu34  1  0.76073600  0.14566800  0.04579300  1
  Cu  Cu35  1  0.89191200  0.64785000  0.41764700  1
  Cu  Cu36  1  0.53962200  0.96566900  0.13931200  1
  Cu  Cu37  1  0.47720300  0.25875800  0.55609300  1
  Cu  Cu38  1  0.72397100  0.50440400  0.02592900  1
  Cu  Cu39  1  0.28532300  0.75656200  0.63301300  1
  Cu  Cu40  1  0.75656200  0.28532300  0.13301300  1
  Cu  Cu41  1  0.06013700  0.78207700  0.98225700  1
