# generated using pymatgen
data_Cu7(Ni2C)2
_symmetry_space_group_name_H-M   'P 1'
_cell_length_a   26.82375400
_cell_length_b   7.52052400
_cell_length_c   9.99490640
_cell_angle_alpha   50.92105412
_cell_angle_beta   90.00000000
_cell_angle_gamma   90.00000000
_symmetry_Int_Tables_number   1
_chemical_formula_structural   Cu7(Ni2C)2
_chemical_formula_sum   'Cu28 Ni16 C8'
_cell_volume   1565.17797349
_cell_formula_units_Z   4
loop_
 _symmetry_equiv_pos_site_id
 _symmetry_equiv_pos_as_xyz
  1  'x, y, z'
loop_
 _atom_site_type_symbol
 _atom_site_label
 _atom_site_symmetry_multiplicity
 _atom_site_fract_x
 _atom_site_fract_y
 _atom_site_fract_z
 _atom_site_occupancy
  C  C0  1  0.56701100  0.68917500  0.34903800  1
  C  C1  1  0.93298900  0.68917500  0.84903800  1
  C  C2  1  0.43298900  0.31082500  0.65096200  1
  C  C3  1  0.06701100  0.31082500  0.15096200  1
  Ni  Ni4  1  0.67883300  0.19702400  0.40271300  1
  Ni  Ni5  1  0.82116700  0.19702400  0.90271300  1
  Ni  Ni6  1  0.32116700  0.80297600  0.59728700  1
  Ni  Ni7  1  0.17883300  0.80297600  0.09728700  1
  Ni  Ni8  1  0.67705400  0.19192300  0.79654700  1
  Ni  Ni9  1  0.82294600  0.19192300  0.29654700  1
  Ni  Ni10  1  0.32294600  0.80807700  0.20345300  1
  Ni  Ni11  1  0.17705400  0.80807700  0.70345300  1
  Ni  Ni12  1  0.61610100  0.46600000  0.96783300  1
  Ni  Ni13  1  0.88389900  0.46600000  0.46783300  1
  Ni  Ni14  1  0.38389900  0.53400000  0.03216700  1
  Ni  Ni15  1  0.11610100  0.53400000  0.53216700  1
  Ni  Ni16  1  0.74327900  0.66113200  0.38289300  1
  Ni  Ni17  1  0.75672100  0.66113200  0.88289300  1
  Ni  Ni18  1  0.25672100  0.33886800  0.61710700  1
  Ni  Ni19  1  0.24327900  0.33886800  0.11710700  1
  Cu  Cu20  1  0.52017400  0.62742800  0.86478300  1
  Cu  Cu21  1  0.97982600  0.62742800  0.36478300  1
  Cu  Cu22  1  0.47982600  0.37257200  0.13521700  1
  Cu  Cu23  1  0.02017400  0.37257200  0.63521700  1
  Cu  Cu24  1  0.59520800  0.19357000  0.92052800  1
  Cu  Cu25  1  0.90479200  0.19357000  0.42052800  1
  Cu  Cu26  1  0.40479200  0.80643000  0.07947200  1
  Cu  Cu27  1  0.09520800  0.80643000  0.57947200  1
  Cu  Cu28  1  0.76868400  0.26174900  0.57057700  1
  Cu  Cu29  1  0.73131600  0.26174900  0.07057700  1
  Cu  Cu30  1  0.23131600  0.73825100  0.42942300  1
  Cu  Cu31  1  0.26868400  0.73825100  0.92942300  1
  Cu  Cu32  1  0.67838900  0.62263100  0.58191700  1
  Cu  Cu33  1  0.82161100  0.62263100  0.08191700  1
  Cu  Cu34  1  0.32161100  0.37736900  0.41808300  1
  Cu  Cu35  1  0.17838900  0.37736900  0.91808300  1
  Cu  Cu36  1  0.59636600  0.21292600  0.27477400  1
  Cu  Cu37  1  0.90363400  0.21292600  0.77477400  1
  Cu  Cu38  1  0.40363400  0.78707400  0.72522600  1
  Cu  Cu39  1  0.09636600  0.78707400  0.22522600  1
  Cu  Cu40  1  0.68127000  0.62707600  0.21084800  1
  Cu  Cu41  1  0.81873000  0.62707600  0.71084800  1
  Cu  Cu42  1  0.31873000  0.37292400  0.78915200  1
  Cu  Cu43  1  0.18127000  0.37292400  0.28915200  1
  Cu  Cu44  1  0.62224300  0.12295900  0.63256100  1
  Cu  Cu45  1  0.87775700  0.12295900  0.13256100  1
  Cu  Cu46  1  0.37775700  0.87704100  0.36743900  1
  Cu  Cu47  1  0.12224300  0.87704100  0.86743900  1
  C  C48  1  0.50695400  0.56138500  0.75347000  1
  C  C49  1  0.99304600  0.56138500  0.25347000  1
  C  C50  1  0.49304600  0.43861500  0.24653000  1
  C  C51  1  0.00695400  0.43861500  0.74653000  1
