# generated using pymatgen
data_Cu6NiC5
_symmetry_space_group_name_H-M   'P 1'
_cell_length_a   5.17521864
_cell_length_b   5.17521864
_cell_length_c   14.50230800
_cell_angle_alpha   90.00000000
_cell_angle_beta   90.00000000
_cell_angle_gamma   120.00000821
_symmetry_Int_Tables_number   1
_chemical_formula_structural   Cu6NiC5
_chemical_formula_sum   'Cu18 Ni3 C15'
_cell_volume   336.37609563
_cell_formula_units_Z   3
loop_
 _symmetry_equiv_pos_site_id
 _symmetry_equiv_pos_as_xyz
  1  'x, y, z'
loop_
 _atom_site_type_symbol
 _atom_site_label
 _atom_site_symmetry_multiplicity
 _atom_site_fract_x
 _atom_site_fract_y
 _atom_site_fract_z
 _atom_site_occupancy
  C  C0  1  0.55618600  0.77809300  0.00000000  1
  C  C1  1  0.22190700  0.77809300  0.33333300  1
  C  C2  1  0.22190700  0.44381400  0.66666700  1
  C  C3  1  0.88910000  0.44455000  0.50000000  1
  C  C4  1  0.55545000  0.44455000  0.83333300  1
  C  C5  1  0.55545000  0.11090000  0.16666700  1
  C  C6  1  0.54976600  0.77488300  0.50000000  1
  C  C7  1  0.22511700  0.77488300  0.83333300  1
  C  C8  1  0.22511700  0.45023400  0.16666700  1
  C  C9  1  0.88888900  0.44444500  0.00000000  1
  C  C10  1  0.55555500  0.44444500  0.33333300  1
  C  C11  1  0.55555500  0.11111100  0.66666700  1
  C  C12  1  0.22769600  0.11384800  0.50000000  1
  C  C13  1  0.88615200  0.11384800  0.83333300  1
  C  C14  1  0.88615200  0.77230400  0.16666700  1
  Ni  Ni15  1  0.22184800  0.11092400  0.00000000  1
  Ni  Ni16  1  0.88907600  0.11092400  0.33333300  1
  Ni  Ni17  1  0.88907600  0.77815200  0.66666700  1
  Cu  Cu18  1  0.22341200  0.41188700  0.92268600  1
  Cu  Cu19  1  0.58811300  0.81152500  0.25601900  1
  Cu  Cu20  1  0.22341200  0.81152500  0.07731400  1
  Cu  Cu21  1  0.18847500  0.77658800  0.58935200  1
  Cu  Cu22  1  0.58811300  0.77658800  0.74398100  1
  Cu  Cu23  1  0.18847500  0.41188700  0.41064800  1
  Cu  Cu24  1  0.92235700  0.11244800  0.07498800  1
  Cu  Cu25  1  0.88755200  0.80990800  0.40832100  1
  Cu  Cu26  1  0.92235700  0.80990800  0.92501200  1
  Cu  Cu27  1  0.19009200  0.07764300  0.74165400  1
  Cu  Cu28  1  0.88755200  0.07764300  0.59167900  1
  Cu  Cu29  1  0.19009200  0.11244800  0.25834600  1
  Cu  Cu30  1  0.52194100  0.11119900  0.92317700  1
  Cu  Cu31  1  0.88880100  0.41074100  0.25651100  1
  Cu  Cu32  1  0.52194100  0.41074100  0.07682300  1
  Cu  Cu33  1  0.58925900  0.47805900  0.58984400  1
  Cu  Cu34  1  0.88880100  0.47805900  0.74348900  1
  Cu  Cu35  1  0.58925900  0.11119900  0.41015600  1
