# generated using pymatgen
data_Cu5NiC5
_symmetry_space_group_name_H-M   'P 1'
_cell_length_a   11.63505554
_cell_length_b   11.63505554
_cell_length_c   7.11403942
_cell_angle_alpha   81.58989843
_cell_angle_beta   81.58989843
_cell_angle_gamma   34.95571447
_symmetry_Int_Tables_number   1
_chemical_formula_structural   Cu5NiC5
_chemical_formula_sum   'Cu10 Ni2 C10'
_cell_volume   545.25308720
_cell_formula_units_Z   2
loop_
 _symmetry_equiv_pos_site_id
 _symmetry_equiv_pos_as_xyz
  1  'x, y, z'
loop_
 _atom_site_type_symbol
 _atom_site_label
 _atom_site_symmetry_multiplicity
 _atom_site_fract_x
 _atom_site_fract_y
 _atom_site_fract_z
 _atom_site_occupancy
  C  C0  1  0.29346800  0.70737500  0.49891000  1
  C  C1  1  0.70737500  0.29346800  0.99891000  1
  C  C2  1  0.85678800  0.43752900  0.51527900  1
  C  C3  1  0.43752900  0.85678800  0.01527900  1
  C  C4  1  0.14551800  0.54893600  0.15163700  1
  C  C5  1  0.54893600  0.14551800  0.65163700  1
  Ni  Ni6  1  0.99249800  0.60987500  0.70718500  1
  Ni  Ni7  1  0.60987500  0.99249800  0.20718500  1
  Cu  Cu8  1  0.63182100  0.52147900  0.25425400  1
  Cu  Cu9  1  0.52147900  0.63182100  0.75425400  1
  Cu  Cu10  1  0.36266700  0.47815100  0.82073100  1
  Cu  Cu11  1  0.47815100  0.36266700  0.32073100  1
  Cu  Cu12  1  0.78668600  0.68036900  0.17769800  1
  Cu  Cu13  1  0.68036900  0.78668600  0.67769800  1
  Cu  Cu14  1  0.18475600  0.34702900  0.51751300  1
  Cu  Cu15  1  0.34702900  0.18475600  0.01751300  1
  Cu  Cu16  1  0.95285100  0.80348800  0.48228600  1
  Cu  Cu17  1  0.80348800  0.95285100  0.98228600  1
  C  C18  1  0.03100300  0.23321100  0.88050800  1
  C  C19  1  0.23321100  0.03100300  0.38050800  1
  C  C20  1  0.89832900  0.11747400  0.63221900  1
  C  C21  1  0.11747400  0.89832900  0.13221900  1
