# generated using pymatgen
data_CuNiC14
_symmetry_space_group_name_H-M   'P 1'
_cell_length_a   6.43196600
_cell_length_b   10.95804000
_cell_length_c   12.77963800
_cell_angle_alpha   90.00000000
_cell_angle_beta   90.00000000
_cell_angle_gamma   90.00000000
_symmetry_Int_Tables_number   1
_chemical_formula_structural   CuNiC14
_chemical_formula_sum   'Cu4 Ni4 C56'
_cell_volume   900.73113184
_cell_formula_units_Z   4
loop_
 _symmetry_equiv_pos_site_id
 _symmetry_equiv_pos_as_xyz
  1  'x, y, z'
loop_
 _atom_site_type_symbol
 _atom_site_label
 _atom_site_symmetry_multiplicity
 _atom_site_fract_x
 _atom_site_fract_y
 _atom_site_fract_z
 _atom_site_occupancy
  C  C0  1  0.75352300  0.31310900  0.81813500  1
  C  C1  1  0.24647700  0.81310900  0.18186500  1
  C  C2  1  0.25352300  0.81310900  0.68186500  1
  C  C3  1  0.74647700  0.31310900  0.31813500  1
  C  C4  1  0.67559300  0.10444400  0.61295800  1
  C  C5  1  0.32440600  0.60444400  0.38704200  1
  C  C6  1  0.17559400  0.60444400  0.88704200  1
  C  C7  1  0.82440700  0.10444400  0.11295800  1
  Ni  Ni8  1  0.99756700  0.99958600  0.86384100  1
  Ni  Ni9  1  0.00243300  0.49958600  0.13615900  1
  Ni  Ni10  1  0.49756700  0.49958600  0.63615900  1
  Ni  Ni11  1  0.50243300  0.99958600  0.36384100  1
  Cu  Cu12  1  0.24703800  0.24691500  0.74578800  1
  Cu  Cu13  1  0.75296200  0.74691500  0.25421200  1
  Cu  Cu14  1  0.74703800  0.74691500  0.75421200  1
  Cu  Cu15  1  0.25296200  0.24691500  0.24578800  1
  C  C16  1  0.99799200  0.49986800  0.68760500  1
  C  C17  1  0.00200800  0.99986800  0.31239500  1
  C  C18  1  0.49799200  0.99986800  0.81239500  1
  C  C19  1  0.50200800  0.49986800  0.18760500  1
  C  C20  1  0.14514600  0.25518800  0.99642500  1
  C  C21  1  0.85485400  0.75518800  0.00357500  1
  C  C22  1  0.64514600  0.75518800  0.50357500  1
  C  C23  1  0.35485400  0.25518800  0.49642500  1
  C  C24  1  0.48873700  0.37034900  0.73182900  1
  C  C25  1  0.51126300  0.87034900  0.26817100  1
  C  C26  1  0.98873700  0.87034900  0.76817100  1
  C  C27  1  0.01126300  0.37034900  0.23182900  1
  C  C28  1  0.01436000  0.37503900  0.00488300  1
  C  C29  1  0.98564000  0.87503900  0.99511700  1
  C  C30  1  0.51436000  0.87503900  0.49511700  1
  C  C31  1  0.48564000  0.37503900  0.50488300  1
  C  C32  1  0.28603600  0.23796600  0.09272200  1
  C  C33  1  0.71396400  0.73796600  0.90727800  1
  C  C34  1  0.78603600  0.73796600  0.40727800  1
  C  C35  1  0.21396400  0.23796600  0.59272200  1
  C  C36  1  0.01248500  0.38267300  0.75458900  1
  C  C37  1  0.98751500  0.88267300  0.24541100  1
  C  C38  1  0.51248500  0.88267300  0.74541100  1
  C  C39  1  0.48751500  0.38267300  0.25458900  1
  C  C40  1  0.50954600  0.62705900  0.73321600  1
  C  C41  1  0.49045400  0.12705900  0.26678400  1
  C  C42  1  0.00954600  0.12705900  0.76678400  1
  C  C43  1  0.99045400  0.62705900  0.23321600  1
  C  C44  1  0.98737400  0.61199300  0.76176000  1
  C  C45  1  0.01262600  0.11199300  0.23824000  1
  C  C46  1  0.48737400  0.11199300  0.73824000  1
  C  C47  1  0.51262600  0.61199300  0.26176000  1
  C  C48  1  0.80626300  0.49293500  0.61509200  1
  C  C49  1  0.19373700  0.99293500  0.38490800  1
  C  C50  1  0.30626300  0.99293500  0.88490800  1
  C  C51  1  0.69373700  0.49293500  0.11509200  1
  C  C52  1  0.28628900  0.25972500  0.89940300  1
  C  C53  1  0.71371100  0.75972500  0.10059700  1
  C  C54  1  0.78628900  0.75972500  0.60059700  1
  C  C55  1  0.21371100  0.25972500  0.39940300  1
  C  C56  1  0.18659600  0.51267000  0.61381700  1
  C  C57  1  0.81340400  0.01267000  0.38618300  1
  C  C58  1  0.68659600  0.01267000  0.88618300  1
  C  C59  1  0.31340400  0.51267000  0.11381700  1
  C  C60  1  0.98675500  0.14588200  0.98877900  1
  C  C61  1  0.01324500  0.64588200  0.01122100  1
  C  C62  1  0.48675500  0.64588200  0.51122100  1
  C  C63  1  0.51324500  0.14588200  0.48877900  1
