# generated using pymatgen
data_Cu6Ni6C
_symmetry_space_group_name_H-M   'P 1'
_cell_length_a   9.41863134
_cell_length_b   6.97917328
_cell_length_c   13.22562831
_cell_angle_alpha   75.95478908
_cell_angle_beta   68.92061184
_cell_angle_gamma   47.56395026
_symmetry_Int_Tables_number   1
_chemical_formula_structural   Cu6Ni6C
_chemical_formula_sum   'Cu6 Ni6 C1'
_cell_volume   598.69126979
_cell_formula_units_Z   1
loop_
 _symmetry_equiv_pos_site_id
 _symmetry_equiv_pos_as_xyz
  1  'x, y, z'
loop_
 _atom_site_type_symbol
 _atom_site_label
 _atom_site_symmetry_multiplicity
 _atom_site_fract_x
 _atom_site_fract_y
 _atom_site_fract_z
 _atom_site_occupancy
  C  C0  1  0.00000000  0.00000000  0.00000000  1
  Ni  Ni1  1  0.68681800  0.00000000  0.50374100  1
  Ni  Ni2  1  0.31318200  0.00000000  0.49625900  1
  Ni  Ni3  1  0.68444800  0.23058100  0.00311500  1
  Ni  Ni4  1  0.31555200  0.76941900  0.99688500  1
  Ni  Ni5  1  0.91502900  0.76941900  0.00311500  1
  Ni  Ni6  1  0.08497100  0.23058100  0.99688500  1
  Cu  Cu7  1  0.57223800  0.22854400  0.50367900  1
  Cu  Cu8  1  0.42776200  0.77145600  0.49632100  1
  Cu  Cu9  1  0.73437600  0.00000000  0.99784400  1
  Cu  Cu10  1  0.19921700  0.22854400  0.49632100  1
  Cu  Cu11  1  0.26562400  0.00000000  0.00215600  1
  Cu  Cu12  1  0.80078300  0.77145600  0.50367900  1
