# generated using pymatgen
data_CuNi2C5
_symmetry_space_group_name_H-M   'P 1'
_cell_length_a   5.89171845
_cell_length_b   8.10166912
_cell_length_c   8.75026000
_cell_angle_alpha   90.00000000
_cell_angle_beta   90.00000000
_cell_angle_gamma   90.19758824
_symmetry_Int_Tables_number   1
_chemical_formula_structural   CuNi2C5
_chemical_formula_sum   'Cu4 Ni8 C20'
_cell_volume   417.67151990
_cell_formula_units_Z   4
loop_
 _symmetry_equiv_pos_site_id
 _symmetry_equiv_pos_as_xyz
  1  'x, y, z'
loop_
 _atom_site_type_symbol
 _atom_site_label
 _atom_site_symmetry_multiplicity
 _atom_site_fract_x
 _atom_site_fract_y
 _atom_site_fract_z
 _atom_site_occupancy
  Ni  Ni0  1  0.52494000  0.85016600  0.61032600  1
  Ni  Ni1  1  0.47506000  0.14983400  0.38967400  1
  Ni  Ni2  1  0.02494000  0.35016600  0.88967400  1
  Ni  Ni3  1  0.97506000  0.64983400  0.11032600  1
  Ni  Ni4  1  0.74759200  0.49864200  0.50210500  1
  Ni  Ni5  1  0.25240800  0.50135800  0.49789500  1
  Ni  Ni6  1  0.24759200  0.99864200  0.99789500  1
  Ni  Ni7  1  0.75240800  0.00135800  0.00210500  1
  Cu  Cu8  1  0.48953200  0.76081200  0.25151600  1
  Cu  Cu9  1  0.51046800  0.23918800  0.74848400  1
  Cu  Cu10  1  0.98953200  0.26081200  0.24848400  1
  Cu  Cu11  1  0.01046800  0.73918800  0.75151600  1
  C  C12  1  0.44588100  0.90741700  0.39666000  1
  C  C13  1  0.55411900  0.09258300  0.60334000  1
  C  C14  1  0.94588100  0.40741700  0.10334000  1
  C  C15  1  0.05411900  0.59258300  0.89666000  1
  C  C16  1  0.49821700  0.86608000  0.07658800  1
  C  C17  1  0.50178300  0.13392000  0.92341200  1
  C  C18  1  0.99821700  0.36608000  0.42341200  1
  C  C19  1  0.00178300  0.63392000  0.57658800  1
  C  C20  1  0.50252400  0.62703500  0.57077800  1
  C  C21  1  0.49747600  0.37296500  0.42922200  1
  C  C22  1  0.00252400  0.12703500  0.92922200  1
  C  C23  1  0.99747600  0.87296500  0.07077800  1
  C  C24  1  0.74895300  0.66670300  0.27482700  1
  C  C25  1  0.25104700  0.33329700  0.72517300  1
  C  C26  1  0.24895300  0.16670300  0.22517300  1
  C  C27  1  0.75104700  0.83329700  0.77482700  1
  C  C28  1  0.26567400  0.62842900  0.25172800  1
  C  C29  1  0.73432600  0.37157100  0.74827200  1
  C  C30  1  0.76567400  0.12842900  0.24827200  1
  C  C31  1  0.23432600  0.87157100  0.75172800  1
