# generated using pymatgen
data_Cu6Ni3C2
_symmetry_space_group_name_H-M   'P 1'
_cell_length_a   6.37206581
_cell_length_b   6.37206581
_cell_length_c   14.22862469
_cell_angle_alpha   83.44320220
_cell_angle_beta   83.44320220
_cell_angle_gamma   120.63956898
_symmetry_Int_Tables_number   1
_chemical_formula_structural   Cu6Ni3C2
_chemical_formula_sum   'Cu12 Ni6 C4'
_cell_volume   483.67373662
_cell_formula_units_Z   2
loop_
 _symmetry_equiv_pos_site_id
 _symmetry_equiv_pos_as_xyz
  1  'x, y, z'
loop_
 _atom_site_type_symbol
 _atom_site_label
 _atom_site_symmetry_multiplicity
 _atom_site_fract_x
 _atom_site_fract_y
 _atom_site_fract_z
 _atom_site_occupancy
  C  C0  1  0.39005900  0.60994100  0.75000000  1
  C  C1  1  0.60994100  0.39005900  0.25000000  1
  C  C2  1  0.00000000  0.00000000  0.00000000  1
  C  C3  1  0.00000000  0.00000000  0.50000000  1
  Ni  Ni4  1  0.50000000  0.50000000  0.00000000  1
  Ni  Ni5  1  0.50000000  0.50000000  0.50000000  1
  Ni  Ni6  1  0.49745400  0.06928400  0.87415700  1
  Ni  Ni7  1  0.50254600  0.93071600  0.12584300  1
  Ni  Ni8  1  0.93071600  0.50254600  0.62584300  1
  Ni  Ni9  1  0.06928400  0.49745400  0.37415700  1
  Cu  Cu10  1  0.86964100  0.94670900  0.89655100  1
  Cu  Cu11  1  0.13035900  0.05329000  0.10344900  1
  Cu  Cu12  1  0.05329000  0.13035900  0.60344900  1
  Cu  Cu13  1  0.94670900  0.86964100  0.39655100  1
  Cu  Cu14  1  0.19041900  0.86659100  0.94839000  1
  Cu  Cu15  1  0.80958100  0.13340900  0.05161000  1
  Cu  Cu16  1  0.13340900  0.80958100  0.55161000  1
  Cu  Cu17  1  0.86659100  0.19041900  0.44839000  1
  Cu  Cu18  1  0.67679000  0.76707300  0.56676700  1
  Cu  Cu19  1  0.32321000  0.23292700  0.43323300  1
  Cu  Cu20  1  0.23292700  0.32321000  0.93323300  1
  Cu  Cu21  1  0.76707300  0.67679000  0.06676700  1
