# generated using pymatgen
data_Cu2NiC4
_symmetry_space_group_name_H-M   'P 1'
_cell_length_a   6.05262088
_cell_length_b   6.05262088
_cell_length_c   14.83510556
_cell_angle_alpha   89.67470558
_cell_angle_beta   89.67470558
_cell_angle_gamma   59.92659331
_symmetry_Int_Tables_number   1
_chemical_formula_structural   Cu2NiC4
_chemical_formula_sum   'Cu12 Ni6 C24'
_cell_volume   470.30237183
_cell_formula_units_Z   6
loop_
 _symmetry_equiv_pos_site_id
 _symmetry_equiv_pos_as_xyz
  1  'x, y, z'
loop_
 _atom_site_type_symbol
 _atom_site_label
 _atom_site_symmetry_multiplicity
 _atom_site_fract_x
 _atom_site_fract_y
 _atom_site_fract_z
 _atom_site_occupancy
  Ni  Ni0  1  0.33614900  0.33614900  0.04133100  1
  Ni  Ni1  1  0.66531800  0.66531800  0.33319500  1
  Ni  Ni2  1  0.83276500  0.83276500  0.16748200  1
  Ni  Ni3  1  0.33013600  0.33013600  0.66595200  1
  Ni  Ni4  1  0.49823200  0.49823200  0.49998900  1
  Ni  Ni5  1  0.16661800  0.16661800  0.83270800  1
  Cu  Cu6  1  0.83603100  0.32807000  0.16699400  1
  Cu  Cu7  1  0.00278000  0.00278000  0.37762500  1
  Cu  Cu8  1  0.99855700  0.99855700  0.00310100  1
  Cu  Cu9  1  0.32807000  0.83603100  0.16699400  1
  Cu  Cu10  1  0.49964200  0.99723400  0.49977500  1
  Cu  Cu11  1  0.66860200  0.66860200  0.70906100  1
  Cu  Cu12  1  0.99723400  0.49964200  0.49977500  1
  Cu  Cu13  1  0.16676200  0.66093700  0.83306100  1
  Cu  Cu14  1  0.32733500  0.32733500  0.28974600  1
  Cu  Cu15  1  0.66093700  0.16676100  0.83306100  1
  Cu  Cu16  1  0.99379800  0.99379800  0.62416700  1
  Cu  Cu17  1  0.66231500  0.66231500  0.95989100  1
  C  C18  1  0.69748900  0.15895600  0.08575200  1
  C  C19  1  0.00109500  0.00109500  0.24540300  1
  C  C20  1  0.15895600  0.69748900  0.08575200  1
  C  C21  1  0.15502500  0.15502500  0.08860200  1
  C  C22  1  0.35396200  0.82250500  0.41983600  1
  C  C23  1  0.50551100  0.50551100  0.24482900  1
  C  C24  1  0.66729500  0.66729500  0.57635500  1
  C  C25  1  0.50614400  0.98009500  0.24634700  1
  C  C26  1  0.82250500  0.35396200  0.41983600  1
  C  C27  1  0.66345900  0.66345900  0.09054900  1
  C  C28  1  0.82427100  0.82427100  0.42098300  1
  C  C29  1  0.98009500  0.50614400  0.24634700  1
  C  C30  1  0.01720400  0.49548600  0.75261200  1
  C  C31  1  0.17178100  0.17178100  0.57909300  1
  C  C32  1  0.16707000  0.64214000  0.57866500  1
  C  C33  1  0.49548600  0.01720400  0.75261200  1
  C  C34  1  0.33352100  0.33352100  0.90661700  1
  C  C35  1  0.32925300  0.32925300  0.42336600  1
  C  C36  1  0.49110600  0.49110600  0.75464500  1
  C  C37  1  0.64214000  0.16707000  0.57866500  1
  C  C38  1  0.84010900  0.84010900  0.91355800  1
  C  C39  1  0.83866600  0.30746900  0.91582200  1
  C  C40  1  0.99765600  0.99765600  0.75733700  1
  C  C41  1  0.30746900  0.83866600  0.91582200  1
