# generated using pymatgen
data_Cu3NiC
_symmetry_space_group_name_H-M   'P 1'
_cell_length_a   9.30429800
_cell_length_b   9.30429800
_cell_length_c   9.30429800
_cell_angle_alpha   90.00000000
_cell_angle_beta   90.00000000
_cell_angle_gamma   90.00000000
_symmetry_Int_Tables_number   1
_chemical_formula_structural   Cu3NiC
_chemical_formula_sum   'Cu24 Ni8 C8'
_cell_volume   805.47271753
_cell_formula_units_Z   8
loop_
 _symmetry_equiv_pos_site_id
 _symmetry_equiv_pos_as_xyz
  1  'x, y, z'
loop_
 _atom_site_type_symbol
 _atom_site_label
 _atom_site_symmetry_multiplicity
 _atom_site_fract_x
 _atom_site_fract_y
 _atom_site_fract_z
 _atom_site_occupancy
  C  C0  1  0.50000000  0.50000000  0.00000000  1
  C  C1  1  0.50000000  0.00000000  0.50000000  1
  C  C2  1  0.00000000  0.50000000  0.50000000  1
  C  C3  1  0.00000000  0.00000000  0.00000000  1
  C  C4  1  0.00000000  0.00000000  0.50000000  1
  C  C5  1  0.00000000  0.50000000  0.00000000  1
  C  C6  1  0.50000000  0.00000000  0.00000000  1
  C  C7  1  0.50000000  0.50000000  0.50000000  1
  Ni  Ni8  1  0.22408700  0.77591300  0.27591300  1
  Ni  Ni9  1  0.77591300  0.27591300  0.22408700  1
  Ni  Ni10  1  0.27591300  0.22408700  0.77591300  1
  Ni  Ni11  1  0.72408700  0.72408700  0.72408700  1
  Ni  Ni12  1  0.77591300  0.22408700  0.72408700  1
  Ni  Ni13  1  0.22408700  0.72408700  0.77591300  1
  Ni  Ni14  1  0.72408700  0.77591300  0.22408700  1
  Ni  Ni15  1  0.27591300  0.27591300  0.27591300  1
  Cu  Cu16  1  0.11150700  0.72181800  0.22090300  1
  Cu  Cu17  1  0.88849300  0.22181800  0.27909700  1
  Cu  Cu18  1  0.38849300  0.27818200  0.72090300  1
  Cu  Cu19  1  0.61150700  0.77818200  0.77909700  1
  Cu  Cu20  1  0.22090300  0.11150700  0.72181800  1
  Cu  Cu21  1  0.27909700  0.88849300  0.22181800  1
  Cu  Cu22  1  0.72090300  0.38849300  0.27818200  1
  Cu  Cu23  1  0.77909700  0.61150700  0.77818200  1
  Cu  Cu24  1  0.72181800  0.22090300  0.11150700  1
  Cu  Cu25  1  0.22181800  0.27909700  0.88849300  1
  Cu  Cu26  1  0.27818200  0.72090300  0.38849300  1
  Cu  Cu27  1  0.77818200  0.77909700  0.61150700  1
  Cu  Cu28  1  0.88849300  0.27818200  0.77909700  1
  Cu  Cu29  1  0.11150700  0.77818200  0.72090300  1
  Cu  Cu30  1  0.61150700  0.72181800  0.27909700  1
  Cu  Cu31  1  0.38849300  0.22181800  0.22090300  1
  Cu  Cu32  1  0.77909700  0.88849300  0.27818200  1
  Cu  Cu33  1  0.72090300  0.11150700  0.77818200  1
  Cu  Cu34  1  0.27909700  0.61150700  0.72181800  1
  Cu  Cu35  1  0.22090300  0.38849300  0.22181800  1
  Cu  Cu36  1  0.27818200  0.77909700  0.88849300  1
  Cu  Cu37  1  0.77818200  0.72090300  0.11150700  1
  Cu  Cu38  1  0.72181800  0.27909700  0.61150700  1
  Cu  Cu39  1  0.22181800  0.22090300  0.38849300  1
