# generated using pymatgen
data_Cu2Ni3C7
_symmetry_space_group_name_H-M   'P 1'
_cell_length_a   6.53070767
_cell_length_b   6.53070767
_cell_length_c   11.49118489
_cell_angle_alpha   75.55429136
_cell_angle_beta   75.55429136
_cell_angle_gamma   33.80155795
_symmetry_Int_Tables_number   1
_chemical_formula_structural   Cu2Ni3C7
_chemical_formula_sum   'Cu2 Ni3 C7'
_cell_volume   263.22187781
_cell_formula_units_Z   1
loop_
 _symmetry_equiv_pos_site_id
 _symmetry_equiv_pos_as_xyz
  1  'x, y, z'
loop_
 _atom_site_type_symbol
 _atom_site_label
 _atom_site_symmetry_multiplicity
 _atom_site_fract_x
 _atom_site_fract_y
 _atom_site_fract_z
 _atom_site_occupancy
  Ni  Ni0  1  0.30526900  0.30526900  0.79744800  1
  Ni  Ni1  1  0.69473100  0.69473100  0.20255200  1
  Ni  Ni2  1  0.00000000  0.00000000  0.00000000  1
  Cu  Cu3  1  0.11228500  0.11228500  0.57011800  1
  Cu  Cu4  1  0.88771500  0.88771500  0.42988200  1
  C  C5  1  0.26448500  0.26448500  0.36424900  1
  C  C6  1  0.73551500  0.73551500  0.63575100  1
  C  C7  1  0.66253200  0.66253200  0.94630900  1
  C  C8  1  0.33746800  0.33746800  0.05369100  1
  C  C9  1  0.97106200  0.97106200  0.77377500  1
  C  C10  1  0.02893800  0.02893800  0.22622500  1
  C  C11  1  0.50000000  0.50000000  0.50000000  1
