# generated using pymatgen
data_Cu2Ni2C3
_symmetry_space_group_name_H-M   'P 1'
_cell_length_a   9.41602413
_cell_length_b   9.41602413
_cell_length_c   6.76596900
_cell_angle_alpha   90.00000000
_cell_angle_beta   90.00000000
_cell_angle_gamma   153.25271421
_symmetry_Int_Tables_number   1
_chemical_formula_structural   Cu2Ni2C3
_chemical_formula_sum   'Cu4 Ni4 C6'
_cell_volume   269.98014034
_cell_formula_units_Z   2
loop_
 _symmetry_equiv_pos_site_id
 _symmetry_equiv_pos_as_xyz
  1  'x, y, z'
loop_
 _atom_site_type_symbol
 _atom_site_label
 _atom_site_symmetry_multiplicity
 _atom_site_fract_x
 _atom_site_fract_y
 _atom_site_fract_z
 _atom_site_occupancy
  Ni  Ni0  1  0.80976300  0.19023700  0.55963300  1
  Ni  Ni1  1  0.19023700  0.80976300  0.44036700  1
  Ni  Ni2  1  0.19023700  0.80976300  0.05963300  1
  Ni  Ni3  1  0.80976300  0.19023700  0.94036700  1
  Cu  Cu4  1  0.55225800  0.44774200  0.25000000  1
  Cu  Cu5  1  0.44774200  0.55225800  0.75000000  1
  Cu  Cu6  1  0.34277500  0.65722500  0.25000000  1
  Cu  Cu7  1  0.65722500  0.34277500  0.75000000  1
  C  C8  1  0.94111300  0.05888700  0.07278800  1
  C  C9  1  0.05888700  0.94111300  0.92721200  1
  C  C10  1  0.05888700  0.94111300  0.57278800  1
  C  C11  1  0.94111300  0.05888700  0.42721200  1
  C  C12  1  0.71953800  0.28046200  0.25000000  1
  C  C13  1  0.28046200  0.71953800  0.75000000  1
