# generated using pymatgen
data_CuNiC10
_symmetry_space_group_name_H-M   'P 1'
_cell_length_a   6.29202200
_cell_length_b   10.29935046
_cell_length_c   11.01052615
_cell_angle_alpha   118.75716959
_cell_angle_beta   90.00008320
_cell_angle_gamma   89.99991365
_symmetry_Int_Tables_number   1
_chemical_formula_structural   CuNiC10
_chemical_formula_sum   'Cu4 Ni4 C40'
_cell_volume   625.52199159
_cell_formula_units_Z   4
loop_
 _symmetry_equiv_pos_site_id
 _symmetry_equiv_pos_as_xyz
  1  'x, y, z'
loop_
 _atom_site_type_symbol
 _atom_site_label
 _atom_site_symmetry_multiplicity
 _atom_site_fract_x
 _atom_site_fract_y
 _atom_site_fract_z
 _atom_site_occupancy
  C  C0  1  0.00395700  0.24517800  0.23789100  1
  C  C1  1  0.99916800  0.73928600  0.24343800  1
  C  C2  1  0.49604300  0.24518100  0.23789300  1
  C  C3  1  0.50083200  0.73928500  0.24343700  1
  C  C4  1  0.50394100  0.75483100  0.76212100  1
  C  C5  1  0.49919300  0.26071900  0.75655300  1
  C  C6  1  0.99605800  0.75483500  0.76212100  1
  C  C7  1  0.00080900  0.26072000  0.75655300  1
  Ni  Ni8  1  0.75000000  0.09102700  0.37466500  1
  Ni  Ni9  1  0.25000100  0.90899400  0.62538200  1
  Ni  Ni10  1  0.75000000  0.60549200  0.40035600  1
  Ni  Ni11  1  0.25000000  0.39453500  0.59965000  1
  Cu  Cu12  1  0.25000000  0.55939000  0.42615200  1
  Cu  Cu13  1  0.25000000  0.04940800  0.42959100  1
  Cu  Cu14  1  0.75000000  0.44064600  0.57386300  1
  Cu  Cu15  1  0.75000000  0.95058400  0.57043000  1
  C  C16  1  0.75000100  0.39187100  0.05613200  1
  C  C17  1  0.74999900  0.90402200  0.07487600  1
  C  C18  1  0.24999800  0.60807900  0.94385600  1
  C  C19  1  0.25000100  0.09600900  0.92510000  1
  C  C20  1  0.25000100  0.13886200  0.05488400  1
  C  C21  1  0.24999900  0.67789600  0.07615700  1
  C  C22  1  0.74999900  0.86118800  0.94508800  1
  C  C23  1  0.75000100  0.32193900  0.92383100  1
  C  C24  1  0.75000100  0.53339800  0.12085100  1
  C  C25  1  0.74999900  0.04602200  0.16137100  1
  C  C26  1  0.25000000  0.46655500  0.87904300  1
  C  C27  1  0.25000100  0.95397800  0.83862200  1
  C  C28  1  0.75000000  0.32020900  0.12417000  1
  C  C29  1  0.75000000  0.81350100  0.12263500  1
  C  C30  1  0.24999700  0.67984900  0.87591900  1
  C  C31  1  0.25000100  0.18646200  0.87728800  1
  C  C32  1  0.75000000  0.29796400  0.41682900  1
  C  C33  1  0.75000000  0.80043900  0.41939900  1
  C  C34  1  0.25000000  0.70203200  0.58318300  1
  C  C35  1  0.25000100  0.19958400  0.58059100  1
  C  C36  1  0.25000000  0.39952000  0.42954000  1
  C  C37  1  0.24999900  0.89699300  0.44469100  1
  C  C38  1  0.75000000  0.60049700  0.57045300  1
  C  C39  1  0.75000100  0.10302600  0.55536800  1
  C  C40  1  0.03243900  0.55546600  0.33992300  1
  C  C41  1  0.03699500  0.04247800  0.33859700  1
  C  C42  1  0.46756000  0.55546500  0.33992300  1
  C  C43  1  0.46300500  0.04247700  0.33859800  1
  C  C44  1  0.53243600  0.44457900  0.66008800  1
  C  C45  1  0.53701000  0.95747600  0.66140400  1
  C  C46  1  0.96756400  0.44457800  0.66008800  1
  C  C47  1  0.96299000  0.95747500  0.66140400  1
