# generated using pymatgen
data_Cu7Ni3C
_symmetry_space_group_name_H-M   'P 1'
_cell_length_a   4.55796372
_cell_length_b   9.15137889
_cell_length_c   12.49924197
_cell_angle_alpha   102.52828812
_cell_angle_beta   98.09712730
_cell_angle_gamma   88.56462150
_symmetry_Int_Tables_number   1
_chemical_formula_structural   Cu7Ni3C
_chemical_formula_sum   'Cu14 Ni6 C2'
_cell_volume   503.86782310
_cell_formula_units_Z   2
loop_
 _symmetry_equiv_pos_site_id
 _symmetry_equiv_pos_as_xyz
  1  'x, y, z'
loop_
 _atom_site_type_symbol
 _atom_site_label
 _atom_site_symmetry_multiplicity
 _atom_site_fract_x
 _atom_site_fract_y
 _atom_site_fract_z
 _atom_site_occupancy
  Ni  Ni0  1  0.31883800  0.64117600  0.21070200  1
  Ni  Ni1  1  0.68116200  0.35882400  0.78929800  1
  Ni  Ni2  1  0.35862100  0.71310800  0.32014600  1
  Ni  Ni3  1  0.64137900  0.28689200  0.67985400  1
  Ni  Ni4  1  0.66805300  0.46243500  0.31334200  1
  Ni  Ni5  1  0.33194700  0.53756500  0.68665800  1
  Cu  Cu6  1  0.18621300  0.88016200  0.37934000  1
  Cu  Cu7  1  0.81378700  0.11983800  0.62066000  1
  Cu  Cu8  1  0.39872400  0.04807100  0.33288300  1
  Cu  Cu9  1  0.60127600  0.95192900  0.66711700  1
  Cu  Cu10  1  0.16474200  0.06370700  0.18157800  1
  Cu  Cu11  1  0.83525800  0.93629300  0.81842200  1
  Cu  Cu12  1  0.30866800  0.87973000  0.07419400  1
  Cu  Cu13  1  0.69133200  0.12027000  0.92580600  1
  Cu  Cu14  1  0.09052800  0.69916300  0.10164200  1
  Cu  Cu15  1  0.90947200  0.30083700  0.89835800  1
  Cu  Cu16  1  0.49675400  0.46998500  0.17672700  1
  Cu  Cu17  1  0.50324600  0.53001500  0.82327300  1
  Cu  Cu18  1  0.58503400  0.62582100  0.41163200  1
  Cu  Cu19  1  0.41496600  0.37417900  0.58836800  1
  C  C20  1  0.82714000  0.36131100  0.33599800  1
  C  C21  1  0.17286000  0.63868900  0.66400200  1
