# generated using pymatgen
data_Cu2NiC5
_symmetry_space_group_name_H-M   'P 1'
_cell_length_a   8.82848445
_cell_length_b   8.82848445
_cell_length_c   8.82848445
_cell_angle_alpha   127.60491197
_cell_angle_beta   127.60491197
_cell_angle_gamma   77.26593481
_symmetry_Int_Tables_number   1
_chemical_formula_structural   Cu2NiC5
_chemical_formula_sum   'Cu4 Ni2 C10'
_cell_volume   419.04096293
_cell_formula_units_Z   2
loop_
 _symmetry_equiv_pos_site_id
 _symmetry_equiv_pos_as_xyz
  1  'x, y, z'
loop_
 _atom_site_type_symbol
 _atom_site_label
 _atom_site_symmetry_multiplicity
 _atom_site_fract_x
 _atom_site_fract_y
 _atom_site_fract_z
 _atom_site_occupancy
  C  C0  1  0.00000000  0.00000000  0.00000000  1
  C  C1  1  0.50000000  0.50000000  0.00000000  1
  C  C2  1  0.79581500  0.29581500  0.81235300  1
  C  C3  1  0.20418500  0.70418500  0.18764700  1
  C  C4  1  0.48346200  0.98346200  0.18764700  1
  C  C5  1  0.29581500  0.48346200  0.50000000  1
  C  C6  1  0.01653800  0.20418500  0.50000000  1
  C  C7  1  0.51653800  0.01653800  0.81235300  1
  C  C8  1  0.70418500  0.51653800  0.50000000  1
  C  C9  1  0.98346200  0.79581500  0.50000000  1
  Ni  Ni10  1  0.25000000  0.25000000  0.00000000  1
  Ni  Ni11  1  0.75000000  0.75000000  0.00000000  1
  Cu  Cu12  1  0.13583000  0.63583000  0.77165900  1
  Cu  Cu13  1  0.86417000  0.36417000  0.22834100  1
  Cu  Cu14  1  0.63583000  0.86417000  0.50000000  1
  Cu  Cu15  1  0.36417000  0.13583000  0.50000000  1
