# generated using pymatgen
data_CuNiC19
_symmetry_space_group_name_H-M   'P 1'
_cell_length_a   6.71111600
_cell_length_b   12.46992400
_cell_length_c   14.01208329
_cell_angle_alpha   90.00000000
_cell_angle_beta   99.56208280
_cell_angle_gamma   90.00000000
_symmetry_Int_Tables_number   1
_chemical_formula_structural   CuNiC19
_chemical_formula_sum   'Cu4 Ni4 C76'
_cell_volume   1156.33839238
_cell_formula_units_Z   4
loop_
 _symmetry_equiv_pos_site_id
 _symmetry_equiv_pos_as_xyz
  1  'x, y, z'
loop_
 _atom_site_type_symbol
 _atom_site_label
 _atom_site_symmetry_multiplicity
 _atom_site_fract_x
 _atom_site_fract_y
 _atom_site_fract_z
 _atom_site_occupancy
  Ni  Ni0  1  0.87125100  0.98958900  0.18839400  1
  Ni  Ni1  1  0.12874900  0.48958900  0.31160600  1
  Ni  Ni2  1  0.12874900  0.01041100  0.81160600  1
  Ni  Ni3  1  0.87125100  0.51041100  0.68839400  1
  Cu  Cu4  1  0.31320300  0.59354300  0.09188100  1
  Cu  Cu5  1  0.68679700  0.09354300  0.40811900  1
  Cu  Cu6  1  0.68679700  0.40645700  0.90811900  1
  Cu  Cu7  1  0.31320300  0.90645700  0.59188100  1
  C  C8  1  0.67717700  0.75043200  0.53632300  1
  C  C9  1  0.32282300  0.25043200  0.96367700  1
  C  C10  1  0.32282300  0.24956800  0.46367700  1
  C  C11  1  0.67717700  0.74956800  0.03632300  1
  C  C12  1  0.50219900  0.86409200  0.40072500  1
  C  C13  1  0.49780100  0.36409200  0.09927500  1
  C  C14  1  0.49780100  0.13590800  0.59927500  1
  C  C15  1  0.50219900  0.63590800  0.90072500  1
  C  C16  1  0.87750700  0.84703500  0.44277800  1
  C  C17  1  0.12249300  0.34703500  0.05722200  1
  C  C18  1  0.12249300  0.15296500  0.55722200  1
  C  C19  1  0.87750700  0.65296500  0.94277800  1
  C  C20  1  0.16097700  0.94275700  0.36122000  1
  C  C21  1  0.83902300  0.44275700  0.13878000  1
  C  C22  1  0.83902300  0.05724300  0.63878000  1
  C  C23  1  0.16097700  0.55724300  0.86122000  1
  C  C24  1  0.26287500  0.80180700  0.25593600  1
  C  C25  1  0.73712500  0.30180700  0.24406400  1
  C  C26  1  0.73712500  0.19819300  0.74406400  1
  C  C27  1  0.26287500  0.69819300  0.75593600  1
  C  C28  1  0.70404000  0.73872900  0.64893700  1
  C  C29  1  0.29596000  0.23872900  0.85106300  1
  C  C30  1  0.29596000  0.26127100  0.35106300  1
  C  C31  1  0.70404000  0.76127100  0.14893700  1
  C  C32  1  0.65348200  0.64669200  0.59272000  1
  C  C33  1  0.34651800  0.14669200  0.90728000  1
  C  C34  1  0.34651800  0.35330800  0.40728000  1
  C  C35  1  0.65348200  0.85330800  0.09272000  1
  C  C36  1  0.85589800  0.75757300  0.49866700  1
  C  C37  1  0.14410200  0.25757300  0.00133300  1
  C  C38  1  0.14410200  0.24242700  0.50133300  1
  C  C39  1  0.85589800  0.74242700  0.99866700  1
  C  C40  1  0.50449100  0.80418100  0.49538800  1
  C  C41  1  0.49550900  0.30418100  0.00461200  1
  C  C42  1  0.49550900  0.19581900  0.50461200  1
  C  C43  1  0.50449100  0.69581900  0.99538800  1
  C  C44  1  0.71284000  0.90343500  0.39847500  1
  C  C45  1  0.28716000  0.40343500  0.10152500  1
  C  C46  1  0.28716000  0.09656500  0.60152500  1
  C  C47  1  0.71284000  0.59656500  0.89847500  1
  C  C48  1  0.37391100  0.95907100  0.39971700  1
  C  C49  1  0.62608900  0.45907100  0.10028300  1
  C  C50  1  0.62608900  0.04092900  0.60028300  1
  C  C51  1  0.37391100  0.54092900  0.89971700  1
  C  C52  1  0.44071800  0.79178800  0.32037700  1
  C  C53  1  0.55928200  0.29178800  0.17962300  1
  C  C54  1  0.55928200  0.20821200  0.67962300  1
  C  C55  1  0.44071800  0.70821200  0.82037700  1
  C  C56  1  0.07252100  0.87932900  0.43918800  1
  C  C57  1  0.92747900  0.37932900  0.06081200  1
  C  C58  1  0.92747900  0.12067100  0.56081200  1
  C  C59  1  0.07252100  0.62067100  0.93918800  1
  C  C60  1  0.12693100  0.88356300  0.26878500  1
  C  C61  1  0.87306900  0.38356300  0.23121500  1
  C  C62  1  0.87306900  0.11643700  0.73121500  1
  C  C63  1  0.12693100  0.61643700  0.76878500  1
  C  C64  1  0.22082600  0.73328400  0.17941100  1
  C  C65  1  0.77917400  0.23328400  0.32058900  1
  C  C66  1  0.77917400  0.26671600  0.82058900  1
  C  C67  1  0.22082600  0.76671600  0.67941100  1
  C  C68  1  0.97116100  0.53437100  0.14020800  1
  C  C69  1  0.02883900  0.03437100  0.35979200  1
  C  C70  1  0.02883900  0.46562900  0.85979200  1
  C  C71  1  0.97116100  0.96562900  0.64020800  1
  C  C72  1  0.37382500  0.59741100  0.26284500  1
  C  C73  1  0.62617500  0.09741100  0.23715500  1
  C  C74  1  0.62617500  0.40258900  0.73715500  1
  C  C75  1  0.37382500  0.90258900  0.76284500  1
  C  C76  1  0.77116500  0.48243400  0.43687800  1
  C  C77  1  0.22883500  0.98243400  0.06312200  1
  C  C78  1  0.22883500  0.51756600  0.56312200  1
  C  C79  1  0.77116500  0.01756600  0.93687800  1
  C  C80  1  0.23064300  0.58239700  0.49647500  1
  C  C81  1  0.76935700  0.08239700  0.00352500  1
  C  C82  1  0.76935700  0.41760300  0.50352500  1
  C  C83  1  0.23064300  0.91760300  0.99647500  1
