# generated using pymatgen
data_Cu(NiC3)3
_symmetry_space_group_name_H-M   'P 1'
_cell_length_a   5.39316314
_cell_length_b   5.39316314
_cell_length_c   12.42122000
_cell_angle_alpha   90.00000000
_cell_angle_beta   90.00000000
_cell_angle_gamma   117.93748307
_symmetry_Int_Tables_number   1
_chemical_formula_structural   Cu(NiC3)3
_chemical_formula_sum   'Cu2 Ni6 C18'
_cell_volume   319.18165747
_cell_formula_units_Z   2
loop_
 _symmetry_equiv_pos_site_id
 _symmetry_equiv_pos_as_xyz
  1  'x, y, z'
loop_
 _atom_site_type_symbol
 _atom_site_label
 _atom_site_symmetry_multiplicity
 _atom_site_fract_x
 _atom_site_fract_y
 _atom_site_fract_z
 _atom_site_occupancy
  Ni  Ni0  1  0.34991000  0.34991000  0.50000000  1
  Ni  Ni1  1  0.65009000  0.65009000  0.00000000  1
  Ni  Ni2  1  0.04736100  0.70236400  0.61878700  1
  Ni  Ni3  1  0.70236400  0.04736100  0.38121300  1
  Ni  Ni4  1  0.95263900  0.29763600  0.11878700  1
  Ni  Ni5  1  0.29763600  0.95263900  0.88121300  1
  Cu  Cu6  1  0.53732000  0.46268000  0.75000000  1
  Cu  Cu7  1  0.46268000  0.53732000  0.25000000  1
  C  C8  1  0.69036500  0.02837200  0.64851800  1
  C  C9  1  0.02837200  0.69036500  0.35148200  1
  C  C10  1  0.30963500  0.97162800  0.14851800  1
  C  C11  1  0.97162800  0.30963500  0.85148200  1
  C  C12  1  0.58525500  0.71356900  0.62828600  1
  C  C13  1  0.71356900  0.58525500  0.37171400  1
  C  C14  1  0.41474500  0.28643100  0.12828600  1
  C  C15  1  0.28643100  0.41474500  0.87171400  1
  C  C16  1  0.86901500  0.21802800  0.55694300  1
  C  C17  1  0.21802800  0.86901500  0.44305700  1
  C  C18  1  0.13098500  0.78197200  0.05694300  1
  C  C19  1  0.78197200  0.13098500  0.94305700  1
  C  C20  1  0.45591600  0.09417100  0.68602000  1
  C  C21  1  0.09417100  0.45591600  0.31398000  1
  C  C22  1  0.54408400  0.90582900  0.18602000  1
  C  C23  1  0.90582900  0.54408400  0.81398000  1
  C  C24  1  0.90696200  0.09303800  0.75000000  1
  C  C25  1  0.09303800  0.90696200  0.25000000  1
