# generated using pymatgen
data_CuNiC4
_symmetry_space_group_name_H-M   'P 1'
_cell_length_a   3.69375800
_cell_length_b   6.23517900
_cell_length_c   15.66330700
_cell_angle_alpha   90.00000000
_cell_angle_beta   90.00000000
_cell_angle_gamma   90.00000000
_symmetry_Int_Tables_number   1
_chemical_formula_structural   CuNiC4
_chemical_formula_sum   'Cu4 Ni4 C16'
_cell_volume   360.74541893
_cell_formula_units_Z   4
loop_
 _symmetry_equiv_pos_site_id
 _symmetry_equiv_pos_as_xyz
  1  'x, y, z'
loop_
 _atom_site_type_symbol
 _atom_site_label
 _atom_site_symmetry_multiplicity
 _atom_site_fract_x
 _atom_site_fract_y
 _atom_site_fract_z
 _atom_site_occupancy
  Ni  Ni0  1  0.75000000  0.77552300  0.79910100  1
  Ni  Ni1  1  0.25000000  0.22447700  0.20089900  1
  Ni  Ni2  1  0.25000000  0.72447700  0.29910100  1
  Ni  Ni3  1  0.75000000  0.27552300  0.70089900  1
  Cu  Cu4  1  0.75000000  0.24899100  0.43992500  1
  Cu  Cu5  1  0.25000000  0.75100900  0.56007500  1
  Cu  Cu6  1  0.25000000  0.25100900  0.93992500  1
  Cu  Cu7  1  0.75000000  0.74899100  0.06007500  1
  C  C8  1  0.75000000  0.89194100  0.63304700  1
  C  C9  1  0.25000000  0.10805900  0.36695300  1
  C  C10  1  0.25000000  0.60805900  0.13304700  1
  C  C11  1  0.75000000  0.39194100  0.86695300  1
  C  C12  1  0.75000000  0.86723100  0.46405100  1
  C  C13  1  0.25000000  0.13276900  0.53594900  1
  C  C14  1  0.25000000  0.63276900  0.96405100  1
  C  C15  1  0.75000000  0.36723100  0.03594900  1
  C  C16  1  0.75000000  0.99563300  0.94298700  1
  C  C17  1  0.25000000  0.00436700  0.05701300  1
  C  C18  1  0.25000000  0.50436700  0.44298700  1
  C  C19  1  0.75000000  0.49563300  0.55701300  1
  C  C20  1  0.75000000  0.90736200  0.18998700  1
  C  C21  1  0.25000000  0.09263800  0.81001300  1
  C  C22  1  0.25000000  0.59263800  0.68998700  1
  C  C23  1  0.75000000  0.40736200  0.31001300  1
