# generated using pymatgen
data_Cu2NiC9
_symmetry_space_group_name_H-M   'P 1'
_cell_length_a   5.97934000
_cell_length_b   5.97934000
_cell_length_c   20.78517900
_cell_angle_alpha   90.00000000
_cell_angle_beta   90.00000000
_cell_angle_gamma   90.00000000
_symmetry_Int_Tables_number   1
_chemical_formula_structural   Cu2NiC9
_chemical_formula_sum   'Cu8 Ni4 C36'
_cell_volume   743.12225428
_cell_formula_units_Z   4
loop_
 _symmetry_equiv_pos_site_id
 _symmetry_equiv_pos_as_xyz
  1  'x, y, z'
loop_
 _atom_site_type_symbol
 _atom_site_label
 _atom_site_symmetry_multiplicity
 _atom_site_fract_x
 _atom_site_fract_y
 _atom_site_fract_z
 _atom_site_occupancy
  Ni  Ni0  1  0.23757900  0.76242100  0.50000000  1
  Ni  Ni1  1  0.76242100  0.23757900  0.50000000  1
  Ni  Ni2  1  0.26242100  0.26242100  0.00000000  1
  Ni  Ni3  1  0.73757900  0.73757900  0.00000000  1
  Cu  Cu4  1  0.22005100  0.77994900  0.31377000  1
  Cu  Cu5  1  0.77994900  0.22005100  0.31377000  1
  Cu  Cu6  1  0.27994900  0.27994900  0.81377000  1
  Cu  Cu7  1  0.72005100  0.72005100  0.81377000  1
  Cu  Cu8  1  0.77994900  0.22005100  0.68623000  1
  Cu  Cu9  1  0.22005100  0.77994900  0.68623000  1
  Cu  Cu10  1  0.72005100  0.72005100  0.18623000  1
  Cu  Cu11  1  0.27994900  0.27994900  0.18623000  1
  C  C12  1  0.24052900  0.75947100  0.10364300  1
  C  C13  1  0.75947100  0.24052900  0.10364300  1
  C  C14  1  0.25947100  0.25947100  0.60364300  1
  C  C15  1  0.74052900  0.74052900  0.60364300  1
  C  C16  1  0.75947100  0.24052900  0.89635700  1
  C  C17  1  0.24052900  0.75947100  0.89635700  1
  C  C18  1  0.74052900  0.74052900  0.39635700  1
  C  C19  1  0.25947100  0.25947100  0.39635700  1
  C  C20  1  0.29504400  0.29504400  0.50000000  1
  C  C21  1  0.70495600  0.70495600  0.50000000  1
  C  C22  1  0.20495600  0.79504400  0.00000000  1
  C  C23  1  0.79504400  0.20495600  0.00000000  1
  C  C24  1  0.32240600  0.67759400  0.21228700  1
  C  C25  1  0.67759400  0.32240600  0.21228700  1
  C  C26  1  0.17759400  0.17759400  0.71228700  1
  C  C27  1  0.82240600  0.82240600  0.71228700  1
  C  C28  1  0.67759400  0.32240600  0.78771300  1
  C  C29  1  0.32240600  0.67759400  0.78771300  1
  C  C30  1  0.82240600  0.82240600  0.28771300  1
  C  C31  1  0.17759400  0.17759400  0.28771300  1
  C  C32  1  0.00000000  0.50000000  0.38044600  1
  C  C33  1  0.50000000  0.00000000  0.88044600  1
  C  C34  1  0.00000000  0.50000000  0.61955400  1
  C  C35  1  0.50000000  0.00000000  0.11955400  1
  C  C36  1  0.50000000  0.00000000  0.38044600  1
  C  C37  1  0.00000000  0.50000000  0.88044600  1
  C  C38  1  0.50000000  0.00000000  0.61955400  1
  C  C39  1  0.00000000  0.50000000  0.11955400  1
  C  C40  1  0.50000000  0.50000000  0.36275100  1
  C  C41  1  0.00000000  0.00000000  0.86275100  1
  C  C42  1  0.50000000  0.50000000  0.63724900  1
  C  C43  1  0.00000000  0.00000000  0.13724900  1
  C  C44  1  0.50000000  0.50000000  0.09168900  1
  C  C45  1  0.00000000  0.00000000  0.59168900  1
  C  C46  1  0.50000000  0.50000000  0.90831100  1
  C  C47  1  0.00000000  0.00000000  0.40831100  1
