# generated using pymatgen
data_Cu(Ni10C11)3
_symmetry_space_group_name_H-M   'P 1'
_cell_length_a   8.68666600
_cell_length_b   8.68666600
_cell_length_c   8.68361000
_cell_angle_alpha   90.00000000
_cell_angle_beta   90.00000000
_cell_angle_gamma   90.00000000
_symmetry_Int_Tables_number   1
_chemical_formula_structural   Cu(Ni10C11)3
_chemical_formula_sum   'Cu1 Ni30 C33'
_cell_volume   655.24928656
_cell_formula_units_Z   1
loop_
 _symmetry_equiv_pos_site_id
 _symmetry_equiv_pos_as_xyz
  1  'x, y, z'
loop_
 _atom_site_type_symbol
 _atom_site_label
 _atom_site_symmetry_multiplicity
 _atom_site_fract_x
 _atom_site_fract_y
 _atom_site_fract_z
 _atom_site_occupancy
  C  C0  1  0.00000000  0.00000000  0.00000000  1
  Ni  Ni1  1  0.50000000  0.00000000  0.00000000  1
  Ni  Ni2  1  0.00000000  0.50000000  0.00000000  1
  Ni  Ni3  1  0.00000000  0.00000000  0.50000000  1
  Ni  Ni4  1  0.50000000  0.00000000  0.50000000  1
  Ni  Ni5  1  0.00000000  0.50000000  0.50000000  1
  Ni  Ni6  1  0.50000000  0.50000000  0.50000000  1
  Ni  Ni7  1  0.25512100  0.25512100  0.00000000  1
  Ni  Ni8  1  0.74487900  0.25512100  0.00000000  1
  Ni  Ni9  1  0.25512100  0.74487900  0.00000000  1
  Ni  Ni10  1  0.74487900  0.74487900  0.00000000  1
  Ni  Ni11  1  0.25047800  0.25047800  0.50000000  1
  Ni  Ni12  1  0.74952200  0.25047800  0.50000000  1
  Ni  Ni13  1  0.25047800  0.74952200  0.50000000  1
  Ni  Ni14  1  0.74952200  0.74952200  0.50000000  1
  Ni  Ni15  1  0.25744700  0.00000000  0.25744900  1
  Ni  Ni16  1  0.74255300  0.00000000  0.25744900  1
  Ni  Ni17  1  0.24819000  0.50000000  0.25294300  1
  Ni  Ni18  1  0.75181000  0.50000000  0.25294300  1
  Ni  Ni19  1  0.25744700  0.00000000  0.74255100  1
  Ni  Ni20  1  0.74255300  0.00000000  0.74255100  1
  Ni  Ni21  1  0.24819000  0.50000000  0.74705700  1
  Ni  Ni22  1  0.75181000  0.50000000  0.74705700  1
  Ni  Ni23  1  0.00000000  0.25744700  0.25744900  1
  Ni  Ni24  1  0.50000000  0.24819000  0.25294300  1
  Ni  Ni25  1  0.00000000  0.74255300  0.25744900  1
  Ni  Ni26  1  0.50000000  0.75181000  0.25294300  1
  Ni  Ni27  1  0.00000000  0.25744700  0.74255100  1
  Ni  Ni28  1  0.50000000  0.24819000  0.74705700  1
  Ni  Ni29  1  0.00000000  0.74255300  0.74255100  1
  Ni  Ni30  1  0.50000000  0.75181000  0.74705700  1
  Cu  Cu31  1  0.50000000  0.50000000  0.00000000  1
  C  C32  1  0.00000000  0.00000000  0.27894600  1
  C  C33  1  0.50000000  0.00000000  0.25734800  1
  C  C34  1  0.00000000  0.50000000  0.25734800  1
  C  C35  1  0.50000000  0.50000000  0.26477700  1
  C  C36  1  0.00000000  0.00000000  0.72105400  1
  C  C37  1  0.50000000  0.00000000  0.74265200  1
  C  C38  1  0.00000000  0.50000000  0.74265200  1
  C  C39  1  0.50000000  0.50000000  0.73522300  1
  C  C40  1  0.24979000  0.24979000  0.24915300  1
  C  C41  1  0.75021000  0.24979000  0.24915300  1
  C  C42  1  0.24979000  0.75021000  0.24915300  1
  C  C43  1  0.75021000  0.75021000  0.24915300  1
  C  C44  1  0.24979000  0.24979000  0.75084700  1
  C  C45  1  0.75021000  0.24979000  0.75084700  1
  C  C46  1  0.24979000  0.75021000  0.75084700  1
  C  C47  1  0.75021000  0.75021000  0.75084700  1
  C  C48  1  0.27781300  0.00000000  0.00000000  1
  C  C49  1  0.72218700  0.00000000  0.00000000  1
  C  C50  1  0.24069400  0.50000000  0.00000000  1
  C  C51  1  0.75930600  0.50000000  0.00000000  1
  C  C52  1  0.25516600  0.00000000  0.50000000  1
  C  C53  1  0.74483400  0.00000000  0.50000000  1
  C  C54  1  0.24937700  0.50000000  0.50000000  1
  C  C55  1  0.75062300  0.50000000  0.50000000  1
  C  C56  1  0.00000000  0.27781300  0.00000000  1
  C  C57  1  0.50000000  0.24069400  0.00000000  1
  C  C58  1  0.00000000  0.72218700  0.00000000  1
  C  C59  1  0.50000000  0.75930600  0.00000000  1
  C  C60  1  0.00000000  0.25516600  0.50000000  1
  C  C61  1  0.50000000  0.24937700  0.50000000  1
  C  C62  1  0.00000000  0.74483400  0.50000000  1
  C  C63  1  0.50000000  0.75062300  0.50000000  1
