# generated using pymatgen
data_CuNi2C11
_symmetry_space_group_name_H-M   'P 1'
_cell_length_a   6.30484700
_cell_length_b   7.44561200
_cell_length_c   14.32497600
_cell_angle_alpha   90.00000000
_cell_angle_beta   90.00000000
_cell_angle_gamma   90.00000000
_symmetry_Int_Tables_number   1
_chemical_formula_structural   CuNi2C11
_chemical_formula_sum   'Cu4 Ni8 C44'
_cell_volume   672.46371555
_cell_formula_units_Z   4
loop_
 _symmetry_equiv_pos_site_id
 _symmetry_equiv_pos_as_xyz
  1  'x, y, z'
loop_
 _atom_site_type_symbol
 _atom_site_label
 _atom_site_symmetry_multiplicity
 _atom_site_fract_x
 _atom_site_fract_y
 _atom_site_fract_z
 _atom_site_occupancy
  Ni  Ni0  1  0.75000000  0.85286400  0.87759500  1
  Ni  Ni1  1  0.25000000  0.14713600  0.12240500  1
  Ni  Ni2  1  0.25000000  0.35286400  0.62240500  1
  Ni  Ni3  1  0.75000000  0.64713600  0.37759500  1
  Ni  Ni4  1  0.50000000  0.50000000  0.00000000  1
  Ni  Ni5  1  0.50000000  0.00000000  0.50000000  1
  Ni  Ni6  1  0.00000000  0.00000000  0.50000000  1
  Ni  Ni7  1  0.00000000  0.50000000  0.00000000  1
  Cu  Cu8  1  0.75000000  0.42951600  0.76876700  1
  Cu  Cu9  1  0.75000000  0.07048400  0.26876700  1
  Cu  Cu10  1  0.25000000  0.92951600  0.73123300  1
  Cu  Cu11  1  0.25000000  0.57048400  0.23123300  1
  C  C12  1  0.25000000  0.86642200  0.92935600  1
  C  C13  1  0.75000000  0.13357800  0.07064400  1
  C  C14  1  0.75000000  0.36642200  0.57064400  1
  C  C15  1  0.25000000  0.63357800  0.42935600  1
  C  C16  1  0.75000000  0.88644700  0.69416200  1
  C  C17  1  0.75000000  0.61355300  0.19416200  1
  C  C18  1  0.25000000  0.38644700  0.80583800  1
  C  C19  1  0.25000000  0.11355300  0.30583800  1
  C  C20  1  0.03912200  0.10514900  0.36398800  1
  C  C21  1  0.53912200  0.89485100  0.63601200  1
  C  C22  1  0.96087800  0.60514900  0.13601200  1
  C  C23  1  0.46087800  0.39485100  0.86398800  1
  C  C24  1  0.96087800  0.89485100  0.63601200  1
  C  C25  1  0.46087800  0.10514900  0.36398800  1
  C  C26  1  0.03912200  0.39485100  0.86398800  1
  C  C27  1  0.53912200  0.60514900  0.13601200  1
  C  C28  1  0.25000000  0.82295900  0.47490700  1
  C  C29  1  0.75000000  0.17704100  0.52509300  1
  C  C30  1  0.75000000  0.32295900  0.02509300  1
  C  C31  1  0.25000000  0.67704100  0.97490700  1
  C  C32  1  0.75000000  0.63233800  0.95285300  1
  C  C33  1  0.25000000  0.36766200  0.04714700  1
  C  C34  1  0.25000000  0.13233800  0.54714700  1
  C  C35  1  0.75000000  0.86766200  0.45285300  1
  C  C36  1  0.75000000  0.70688000  0.75298500  1
  C  C37  1  0.25000000  0.29312000  0.24701500  1
  C  C38  1  0.25000000  0.20688000  0.74701500  1
  C  C39  1  0.75000000  0.79312000  0.25298500  1
  C  C40  1  0.43766200  0.62216500  0.35864800  1
  C  C41  1  0.93766200  0.37783500  0.64135200  1
  C  C42  1  0.56233800  0.12216500  0.14135200  1
  C  C43  1  0.06233800  0.87783500  0.85864800  1
  C  C44  1  0.56233800  0.37783500  0.64135200  1
  C  C45  1  0.06233800  0.62216500  0.35864800  1
  C  C46  1  0.43766200  0.87783500  0.85864800  1
  C  C47  1  0.93766200  0.12216500  0.14135200  1
  C  C48  1  0.75000000  0.98843500  0.99859100  1
  C  C49  1  0.25000000  0.53811000  0.73199700  1
  C  C50  1  0.25000000  0.96189000  0.23199700  1
  C  C51  1  0.75000000  0.03811000  0.76800300  1
  C  C52  1  0.75000000  0.51156500  0.49859100  1
  C  C53  1  0.25000000  0.48843500  0.50140900  1
  C  C54  1  0.25000000  0.01156500  0.00140900  1
  C  C55  1  0.75000000  0.46189000  0.26800300  1
