# generated using pymatgen
data_Cu8Ni4C67
_symmetry_space_group_name_H-M   'P 1'
_cell_length_a   9.34189543
_cell_length_b   9.34189543
_cell_length_c   12.08585007
_cell_angle_alpha   68.98807194
_cell_angle_beta   68.98807194
_cell_angle_gamma   85.62735989
_symmetry_Int_Tables_number   1
_chemical_formula_structural   Cu8Ni4C67
_chemical_formula_sum   'Cu8 Ni4 C67'
_cell_volume   917.48075773
_cell_formula_units_Z   1
loop_
 _symmetry_equiv_pos_site_id
 _symmetry_equiv_pos_as_xyz
  1  'x, y, z'
loop_
 _atom_site_type_symbol
 _atom_site_label
 _atom_site_symmetry_multiplicity
 _atom_site_fract_x
 _atom_site_fract_y
 _atom_site_fract_z
 _atom_site_occupancy
  C  C0  1  0.24929900  0.00119600  0.87416000  1
  C  C1  1  0.75027900  0.49941300  0.37636600  1
  C  C2  1  0.99880400  0.75070100  0.12584000  1
  C  C3  1  0.50058700  0.24972100  0.62363400  1
  C  C4  1  0.11026200  0.88973800  0.50000000  1
  C  C5  1  0.87850200  0.60542400  0.75808200  1
  C  C6  1  0.39457600  0.12149800  0.24191800  1
  Ni  Ni7  1  0.88899000  0.11101000  0.00000000  1
  Ni  Ni8  1  0.39365900  0.60634100  0.50000000  1
  Ni  Ni9  1  0.60375700  0.89182100  0.74889600  1
  Ni  Ni10  1  0.10817900  0.39624300  0.25110400  1
  Cu  Cu11  1  0.22473200  0.66117900  0.77820400  1
  Cu  Cu12  1  0.72515600  0.15686000  0.28141000  1
  Cu  Cu13  1  0.33882100  0.77526800  0.22179600  1
  Cu  Cu14  1  0.84314000  0.27484400  0.71859000  1
  Cu  Cu15  1  0.28302800  0.34194700  0.96968200  1
  Cu  Cu16  1  0.77291400  0.83977400  0.47082700  1
  Cu  Cu17  1  0.16022600  0.22708600  0.52917300  1
  Cu  Cu18  1  0.65805300  0.71697200  0.03031800  1
  C  C19  1  0.07900500  0.04778800  0.19775100  1
  C  C20  1  0.58036800  0.54126100  0.70192200  1
  C  C21  1  0.95221200  0.92099500  0.80224900  1
  C  C22  1  0.45873900  0.41963200  0.29807800  1
  C  C23  1  0.42131800  0.95683100  0.54509100  1
  C  C24  1  0.92173500  0.45555600  0.05273500  1
  C  C25  1  0.54444400  0.07826500  0.94726500  1
  C  C26  1  0.04316900  0.57868200  0.45490900  1
  C  C27  1  0.34015400  0.65984600  0.00000000  1
  C  C28  1  0.84082400  0.15917600  0.50000000  1
  C  C29  1  0.15992400  0.34060900  0.75172900  1
  C  C30  1  0.65939100  0.84007600  0.24827100  1
  C  C31  1  0.98989000  0.93417500  0.91230600  1
  C  C32  1  0.48837600  0.43758500  0.41000800  1
  C  C33  1  0.06582500  0.01011000  0.08769400  1
  C  C34  1  0.56241500  0.51162400  0.58999200  1
  C  C35  1  0.50970700  0.06435600  0.83613000  1
  C  C36  1  0.00873700  0.56478000  0.34337700  1
  C  C37  1  0.43522000  0.99126300  0.65662300  1
  C  C38  1  0.93564400  0.49029300  0.16387000  1
  C  C39  1  0.05472900  0.80911600  0.74180000  1
  C  C40  1  0.56298900  0.29932100  0.25114800  1
  C  C41  1  0.19088400  0.94527100  0.25820000  1
  C  C42  1  0.70067900  0.43701100  0.74885200  1
  C  C43  1  0.43717800  0.18935700  0.00491300  1
  C  C44  1  0.94588800  0.69340800  0.51184100  1
  C  C45  1  0.30659200  0.05411200  0.48815900  1
  C  C46  1  0.81064300  0.56282200  0.99508700  1
  C  C47  1  0.86170800  0.28410900  0.09824600  1
  C  C48  1  0.36539300  0.78344300  0.59064800  1
  C  C49  1  0.71589100  0.13829200  0.90175400  1
  C  C50  1  0.21655700  0.63460700  0.40935200  1
  C  C51  1  0.63564900  0.70993900  0.66668400  1
  C  C52  1  0.14267500  0.21920100  0.15100400  1
  C  C53  1  0.78079900  0.85732500  0.84899600  1
  C  C54  1  0.29006100  0.36435100  0.33331600  1
  C  C55  1  0.91615400  0.02834500  0.30152000  1
  C  C56  1  0.41822700  0.50858100  0.81109700  1
  C  C57  1  0.97165500  0.08384600  0.69848000  1
  C  C58  1  0.49141900  0.58177300  0.18890300  1
  C  C59  1  0.58406000  0.98634900  0.43785400  1
  C  C60  1  0.08366600  0.48004700  0.94561400  1
  C  C61  1  0.51995300  0.91633400  0.05438600  1
  C  C62  1  0.01365100  0.41594000  0.56214600  1
  C  C63  1  0.27243300  0.73981400  0.89503200  1
  C  C64  1  0.76541800  0.23703400  0.39879900  1
  C  C65  1  0.26018600  0.72756700  0.10496800  1
  C  C66  1  0.76296600  0.23458200  0.60120100  1
  C  C67  1  0.22755600  0.26325800  0.85796900  1
  C  C68  1  0.73179400  0.75984400  0.34858600  1
  C  C69  1  0.24015600  0.26820600  0.65141400  1
  C  C70  1  0.73674200  0.77244400  0.14203100  1
  C  C71  1  0.19323900  0.51894600  0.68989000  1
  C  C72  1  0.69548100  0.01906100  0.18708800  1
  C  C73  1  0.98093900  0.30451900  0.81291200  1
  C  C74  1  0.48105400  0.80676100  0.31011000  1
  C  C75  1  0.30138600  0.48255400  0.06064500  1
  C  C76  1  0.80475000  0.98240900  0.56486000  1
  C  C77  1  0.51744600  0.69861400  0.93935500  1
  C  C78  1  0.01759100  0.19525000  0.43514000  1
