# generated using pymatgen
data_CuNiC6
_symmetry_space_group_name_H-M   'P 1'
_cell_length_a   5.25255900
_cell_length_b   10.41087100
_cell_length_c   15.23885700
_cell_angle_alpha   90.00000000
_cell_angle_beta   90.00000000
_cell_angle_gamma   90.00000000
_symmetry_Int_Tables_number   1
_chemical_formula_structural   CuNiC6
_chemical_formula_sum   'Cu8 Ni8 C48'
_cell_volume   833.31730045
_cell_formula_units_Z   8
loop_
 _symmetry_equiv_pos_site_id
 _symmetry_equiv_pos_as_xyz
  1  'x, y, z'
loop_
 _atom_site_type_symbol
 _atom_site_label
 _atom_site_symmetry_multiplicity
 _atom_site_fract_x
 _atom_site_fract_y
 _atom_site_fract_z
 _atom_site_occupancy
  Ni  Ni0  1  0.47315000  0.36320200  0.53662500  1
  Ni  Ni1  1  0.97315100  0.13679800  0.53662500  1
  Ni  Ni2  1  0.97315100  0.63679800  0.96337500  1
  Ni  Ni3  1  0.02685000  0.36320200  0.03662500  1
  Ni  Ni4  1  0.52684900  0.13679800  0.03662500  1
  Ni  Ni5  1  0.02685000  0.86320200  0.46337500  1
  Ni  Ni6  1  0.52684900  0.63679800  0.46337500  1
  Ni  Ni7  1  0.47315000  0.86320200  0.96337500  1
  C  C8  1  0.96681500  0.37937000  0.40778500  1
  C  C9  1  0.53318500  0.87937000  0.59221500  1
  C  C10  1  0.03318500  0.62063000  0.59221500  1
  C  C11  1  0.46681500  0.12063000  0.40778500  1
  C  C12  1  0.03318500  0.12063000  0.90778500  1
  C  C13  1  0.96681500  0.87937000  0.09221500  1
  C  C14  1  0.53318500  0.37937000  0.90778500  1
  C  C15  1  0.46681500  0.62063000  0.09221500  1
  Cu  Cu16  1  0.04738700  0.85596600  0.76462400  1
  Cu  Cu17  1  0.95261300  0.14403400  0.23537600  1
  Cu  Cu18  1  0.45261300  0.35596600  0.23537600  1
  Cu  Cu19  1  0.95261300  0.64403400  0.26462400  1
  Cu  Cu20  1  0.54738700  0.14403400  0.73537600  1
  Cu  Cu21  1  0.54738700  0.64403400  0.76462400  1
  Cu  Cu22  1  0.45261300  0.85596600  0.26462400  1
  Cu  Cu23  1  0.04738700  0.35596600  0.73537600  1
  C  C24  1  0.78023600  0.29916000  0.31386500  1
  C  C25  1  0.27623300  0.02682600  0.96685800  1
  C  C26  1  0.22376700  0.52682600  0.03314200  1
  C  C27  1  0.36909000  0.79947800  0.84305700  1
  C  C28  1  0.13091000  0.29947800  0.15694300  1
  C  C29  1  0.78023600  0.79916000  0.18613500  1
  C  C30  1  0.13091000  0.79947800  0.34305700  1
  C  C31  1  0.71976400  0.79916000  0.68613500  1
  C  C32  1  0.27623300  0.52682600  0.53314200  1
  C  C33  1  0.21976400  0.70084000  0.68613500  1
  C  C34  1  0.71976400  0.29916000  0.81386500  1
  C  C35  1  0.66417300  0.21934200  0.48135600  1
  C  C36  1  0.77623300  0.97317400  0.53314200  1
  C  C37  1  0.63091000  0.70052200  0.34305700  1
  C  C38  1  0.17710300  0.98402300  0.17650200  1
  C  C39  1  0.77623300  0.47317400  0.96685800  1
  C  C40  1  0.21976400  0.20084000  0.81386500  1
  C  C41  1  0.86909000  0.20052200  0.65694300  1
  C  C42  1  0.16417300  0.78065800  0.01864400  1
  C  C43  1  0.22376700  0.02682600  0.46685800  1
  C  C44  1  0.33582700  0.78065800  0.51864400  1
  C  C45  1  0.82289700  0.01597700  0.82349800  1
  C  C46  1  0.63091000  0.20052200  0.15694300  1
  C  C47  1  0.67710300  0.01597700  0.32349800  1
  C  C48  1  0.33582700  0.28065800  0.98135600  1
  C  C49  1  0.16417300  0.28065800  0.48135600  1
  C  C50  1  0.72376700  0.47317400  0.46685800  1
  C  C51  1  0.72376700  0.97317400  0.03314200  1
  C  C52  1  0.67710300  0.51597700  0.17650200  1
  C  C53  1  0.83582700  0.71934200  0.51864400  1
  C  C54  1  0.83582700  0.21934200  0.98135600  1
  C  C55  1  0.66417300  0.71934200  0.01864400  1
  C  C56  1  0.82289700  0.51597700  0.67650200  1
  C  C57  1  0.86909000  0.70052200  0.84305700  1
  C  C58  1  0.36909000  0.29947800  0.65694300  1
  C  C59  1  0.17710300  0.48402300  0.32349800  1
  C  C60  1  0.32289700  0.48402300  0.82349800  1
  C  C61  1  0.28023600  0.20084000  0.31386500  1
  C  C62  1  0.32289700  0.98402300  0.67650200  1
  C  C63  1  0.28023600  0.70084000  0.18613500  1
