# generated using pymatgen
data_Cu2NiC5
_symmetry_space_group_name_H-M   'P 1'
_cell_length_a   3.68394400
_cell_length_b   5.29813927
_cell_length_c   13.25645255
_cell_angle_alpha   94.56427372
_cell_angle_beta   97.23453467
_cell_angle_gamma   89.96025737
_symmetry_Int_Tables_number   1
_chemical_formula_structural   Cu2NiC5
_chemical_formula_sum   'Cu4 Ni2 C10'
_cell_volume   255.85485217
_cell_formula_units_Z   2
loop_
 _symmetry_equiv_pos_site_id
 _symmetry_equiv_pos_as_xyz
  1  'x, y, z'
loop_
 _atom_site_type_symbol
 _atom_site_label
 _atom_site_symmetry_multiplicity
 _atom_site_fract_x
 _atom_site_fract_y
 _atom_site_fract_z
 _atom_site_occupancy
  Ni  Ni0  1  0.46179600  0.87074700  0.73083200  1
  Ni  Ni1  1  0.93479000  0.10770100  0.23834500  1
  Cu  Cu2  1  0.81070900  0.37033800  0.87847800  1
  Cu  Cu3  1  0.39939000  0.58650400  0.11681900  1
  Cu  Cu4  1  0.09480500  0.64770100  0.39755300  1
  Cu  Cu5  1  0.72245800  0.30579200  0.58772800  1
  C  C6  1  0.99911300  0.49709200  0.24198400  1
  C  C7  1  0.67150200  0.52652300  0.73262000  1
  C  C8  1  0.31893100  0.57610600  0.91572400  1
  C  C9  1  0.87862600  0.39114100  0.04265800  1
  C  C10  1  0.16632500  0.56496000  0.55615800  1
  C  C11  1  0.59579600  0.46261000  0.40604600  1
  C  C12  1  0.97966900  0.03265900  0.68998200  1
  C  C13  1  0.99928000  0.02324300  0.39211100  1
  C  C14  1  0.41387900  0.99515800  0.18855100  1
  C  C15  1  0.52433600  0.03887300  0.86958800  1
