# generated using pymatgen
data_CuNiC6
_symmetry_space_group_name_H-M   'P 1'
_cell_length_a   10.72779800
_cell_length_b   5.66923600
_cell_length_c   9.38932478
_cell_angle_alpha   58.00613821
_cell_angle_beta   90.00000000
_cell_angle_gamma   90.00000000
_symmetry_Int_Tables_number   1
_chemical_formula_structural   CuNiC6
_chemical_formula_sum   'Cu4 Ni4 C24'
_cell_volume   484.30509552
_cell_formula_units_Z   4
loop_
 _symmetry_equiv_pos_site_id
 _symmetry_equiv_pos_as_xyz
  1  'x, y, z'
loop_
 _atom_site_type_symbol
 _atom_site_label
 _atom_site_symmetry_multiplicity
 _atom_site_fract_x
 _atom_site_fract_y
 _atom_site_fract_z
 _atom_site_occupancy
  Ni  Ni0  1  0.06119400  0.59062900  0.82626400  1
  Ni  Ni1  1  0.93880600  0.40937100  0.17373600  1
  Ni  Ni2  1  0.56119400  0.40937100  0.67373600  1
  Ni  Ni3  1  0.43880600  0.59062900  0.32626400  1
  Cu  Cu4  1  0.37675600  0.18553700  0.03222400  1
  Cu  Cu5  1  0.62324400  0.81446300  0.96777600  1
  Cu  Cu6  1  0.87675600  0.81446300  0.46777600  1
  Cu  Cu7  1  0.12324400  0.18553700  0.53222400  1
  C  C8  1  0.89852200  0.08499400  0.83928900  1
  C  C9  1  0.10147800  0.91500600  0.16071100  1
  C  C10  1  0.60147800  0.08499400  0.33928900  1
  C  C11  1  0.39852200  0.91500600  0.66071100  1
  C  C12  1  0.96040700  0.97064000  0.66801000  1
  C  C13  1  0.97191700  0.48782200  0.66688900  1
  C  C14  1  0.79400200  0.16896700  0.29303500  1
  C  C15  1  0.45511600  0.76865000  0.49355200  1
  C  C16  1  0.69538900  0.70867600  0.53091200  1
  C  C17  1  0.80461100  0.70867600  0.03091200  1
  C  C18  1  0.52808300  0.48782200  0.16688900  1
  C  C19  1  0.47191700  0.51217800  0.83311100  1
  C  C20  1  0.54488400  0.23135000  0.50644800  1
  C  C21  1  0.46040700  0.02936000  0.83199000  1
  C  C22  1  0.30461100  0.29132400  0.46908800  1
  C  C23  1  0.03959300  0.02936000  0.33199000  1
  C  C24  1  0.53959300  0.97064000  0.16801000  1
  C  C25  1  0.19538900  0.29132400  0.96908800  1
  C  C26  1  0.95511600  0.23135000  0.00644800  1
  C  C27  1  0.04488400  0.76865000  0.99355200  1
  C  C28  1  0.20599800  0.83103300  0.70696500  1
  C  C29  1  0.02808300  0.51217800  0.33311100  1
  C  C30  1  0.29400200  0.83103300  0.20696500  1
  C  C31  1  0.70599800  0.16896700  0.79303500  1
