# generated using pymatgen
data_Cu2Ni2C11
_symmetry_space_group_name_H-M   'P 1'
_cell_length_a   6.40733707
_cell_length_b   6.40733707
_cell_length_c   11.56804994
_cell_angle_alpha   89.05131038
_cell_angle_beta   89.05131038
_cell_angle_gamma   135.01689398
_symmetry_Int_Tables_number   1
_chemical_formula_structural   Cu2Ni2C11
_chemical_formula_sum   'Cu2 Ni2 C11'
_cell_volume   335.40154398
_cell_formula_units_Z   1
loop_
 _symmetry_equiv_pos_site_id
 _symmetry_equiv_pos_as_xyz
  1  'x, y, z'
loop_
 _atom_site_type_symbol
 _atom_site_label
 _atom_site_symmetry_multiplicity
 _atom_site_fract_x
 _atom_site_fract_y
 _atom_site_fract_z
 _atom_site_occupancy
  Ni  Ni0  1  0.99197200  0.49043200  0.93844800  1
  Ni  Ni1  1  0.49043200  0.99197200  0.93844800  1
  Cu  Cu2  1  0.05635500  0.55502500  0.27022600  1
  Cu  Cu3  1  0.55502500  0.05635500  0.27022600  1
  C  C4  1  0.23843000  0.88439900  0.20194200  1
  C  C5  1  0.88439900  0.23843000  0.20194200  1
  C  C6  1  0.01947900  0.01947900  0.02188400  1
  C  C7  1  0.72794200  0.37044400  0.33971800  1
  C  C8  1  0.37044400  0.72794200  0.33971800  1
  C  C9  1  0.17266300  0.82476400  0.85790000  1
  C  C10  1  0.82476400  0.17266300  0.85790000  1
  C  C11  1  0.96317100  0.96317100  0.92154000  1
  C  C12  1  0.23142700  0.23142700  0.60778500  1
  C  C13  1  0.31769600  0.65280100  0.00666200  1
  C  C14  1  0.65280100  0.31769600  0.00666200  1
