# generated using pymatgen
data_Cu6NiC6
_symmetry_space_group_name_H-M   'P 1'
_cell_length_a   6.48248296
_cell_length_b   6.48248296
_cell_length_c   6.48248296
_cell_angle_alpha   135.09165044
_cell_angle_beta   99.10092126
_cell_angle_gamma   97.67704175
_symmetry_Int_Tables_number   1
_chemical_formula_structural   Cu6NiC6
_chemical_formula_sum   'Cu6 Ni1 C6'
_cell_volume   177.71636434
_cell_formula_units_Z   1
loop_
 _symmetry_equiv_pos_site_id
 _symmetry_equiv_pos_as_xyz
  1  'x, y, z'
loop_
 _atom_site_type_symbol
 _atom_site_label
 _atom_site_symmetry_multiplicity
 _atom_site_fract_x
 _atom_site_fract_y
 _atom_site_fract_z
 _atom_site_occupancy
  Ni  Ni0  1  0.00000000  0.00000000  0.00000000  1
  C  C1  1  0.34373100  0.34373100  0.00000000  1
  C  C2  1  0.65626900  0.65626900  0.00000000  1
  C  C3  1  0.66501100  0.00000000  0.66501100  1
  C  C4  1  0.33498900  0.00000000  0.33498900  1
  C  C5  1  0.81600600  0.31600600  0.50000000  1
  C  C6  1  0.18399400  0.68399400  0.50000000  1
  Cu  Cu7  1  0.50000000  0.00000000  0.00000000  1
  Cu  Cu8  1  0.50000000  0.50000000  0.50000000  1
  Cu  Cu9  1  0.00000000  0.00000000  0.50000000  1
  Cu  Cu10  1  0.00000000  0.50000000  0.00000000  1
  Cu  Cu11  1  0.23875000  0.50000000  0.73875000  1
  Cu  Cu12  1  0.76125000  0.50000000  0.26125000  1
