# generated using pymatgen
data_Cu15Ni2C25
_symmetry_space_group_name_H-M   'P 1'
_cell_length_a   9.33740800
_cell_length_b   9.40498218
_cell_length_c   9.52115802
_cell_angle_alpha   91.23991158
_cell_angle_beta   109.29899412
_cell_angle_gamma   89.60440241
_symmetry_Int_Tables_number   1
_chemical_formula_structural   Cu15Ni2C25
_chemical_formula_sum   'Cu30 Ni4 C50'
_cell_volume   788.96084559
_cell_formula_units_Z   2
loop_
 _symmetry_equiv_pos_site_id
 _symmetry_equiv_pos_as_xyz
  1  'x, y, z'
loop_
 _atom_site_type_symbol
 _atom_site_label
 _atom_site_symmetry_multiplicity
 _atom_site_fract_x
 _atom_site_fract_y
 _atom_site_fract_z
 _atom_site_occupancy
  C  C0  1  0.00000000  0.00000000  0.50000000  1
  C  C1  1  0.50000000  0.50000000  0.50000000  1
  C  C2  1  0.29005300  0.20042300  0.48270700  1
  C  C3  1  0.70994700  0.79957700  0.51729300  1
  C  C4  1  0.24689400  0.14219100  0.78739500  1
  C  C5  1  0.75310600  0.85780900  0.21260500  1
  C  C6  1  0.19829700  0.70320200  0.47865000  1
  C  C7  1  0.80170300  0.29679800  0.52135000  1
  C  C8  1  0.43440700  0.64366700  0.77890900  1
  C  C9  1  0.56559300  0.35633300  0.22109100  1
  C  C10  1  0.41877400  0.15830700  0.32659800  1
  C  C11  1  0.58122600  0.84169300  0.67340200  1
  C  C12  1  0.38818500  0.14661900  0.03618600  1
  C  C13  1  0.61181500  0.85338100  0.96381400  1
  C  C14  1  0.96419600  0.65972300  0.31147400  1
  C  C15  1  0.03580400  0.34027700  0.68852600  1
  C  C16  1  0.52376900  0.60149100  0.01701700  1
  C  C17  1  0.47623100  0.39850900  0.98298300  1
  C  C18  1  0.17837700  0.45839200  0.26176700  1
  C  C19  1  0.82162300  0.54160800  0.73823300  1
  C  C20  1  0.21046200  0.49082500  0.11774500  1
  C  C21  1  0.78953800  0.50917500  0.88225500  1
  C  C22  1  0.07999800  0.84105300  0.05421900  1
  C  C23  1  0.92000200  0.15894700  0.94578100  1
  C  C24  1  0.18807100  0.96727400  0.08015800  1
  C  C25  1  0.81192900  0.03272600  0.91984200  1
  C  C26  1  0.10359000  0.12564900  0.18296600  1
  C  C27  1  0.89641000  0.87435100  0.81703400  1
  C  C28  1  0.12827200  0.26779800  0.11005800  1
  C  C29  1  0.87172800  0.73220200  0.88994200  1
  C  C30  1  0.55519100  0.18417000  0.86552700  1
  C  C31  1  0.44480900  0.81583000  0.13447300  1
  C  C32  1  0.51200900  0.31666300  0.74166600  1
  C  C33  1  0.48799100  0.68333700  0.25833400  1
  C  C34  1  0.61035100  0.17388000  0.71939100  1
  C  C35  1  0.38964900  0.82612000  0.28060900  1
  C  C36  1  0.13488100  0.68235800  0.84000700  1
  C  C37  1  0.86511900  0.31764200  0.15999300  1
  C  C38  1  0.02540900  0.73877900  0.66935400  1
  C  C39  1  0.97459100  0.26122100  0.33064600  1
  C  C40  1  0.17389000  0.83217900  0.76492000  1
  C  C41  1  0.82611000  0.16782100  0.23508000  1
  C  C42  1  0.39785400  0.02020000  0.66268100  1
  C  C43  1  0.60214600  0.97980000  0.33731900  1
  C  C44  1  0.19646300  0.52863300  0.66522700  1
  C  C45  1  0.80353700  0.47136700  0.33477300  1
  C  C46  1  0.37399700  0.13370400  0.67334200  1
  C  C47  1  0.62600300  0.86629600  0.32665800  1
  C  C48  1  0.23173900  0.64057200  0.67131000  1
  C  C49  1  0.76826100  0.35942800  0.32869000  1
  Ni  Ni50  1  0.52074700  0.20659300  0.75365400  1
  Ni  Ni51  1  0.47925300  0.79340700  0.24634600  1
  Ni  Ni52  1  0.13820000  0.72602100  0.74315000  1
  Ni  Ni53  1  0.86180000  0.27397900  0.25685000  1
  Cu  Cu54  1  0.12055600  0.16606800  0.43629700  1
  Cu  Cu55  1  0.87944400  0.83393200  0.56370300  1
  Cu  Cu56  1  0.32432600  0.35694700  0.47676100  1
  Cu  Cu57  1  0.67567400  0.64305300  0.52323900  1
  Cu  Cu58  1  0.36736400  0.10522500  0.38933000  1
  Cu  Cu59  1  0.63263600  0.89477500  0.61067000  1
  Cu  Cu60  1  0.19477800  0.29343100  0.79815200  1
  Cu  Cu61  1  0.80522200  0.70656900  0.20184800  1
  Cu  Cu62  1  0.13018800  0.02511000  0.72449500  1
  Cu  Cu63  1  0.86981200  0.97489000  0.27550500  1
  Cu  Cu64  1  0.36202800  0.08898900  0.94162300  1
  Cu  Cu65  1  0.63797200  0.91101100  0.05837700  1
  Cu  Cu66  1  0.16281800  0.85962200  0.47948400  1
  Cu  Cu67  1  0.83718200  0.14037800  0.52051600  1
  Cu  Cu68  1  0.05849800  0.61031500  0.38198400  1
  Cu  Cu69  1  0.94150200  0.38968500  0.61801600  1
  Cu  Cu70  1  0.34037400  0.66223300  0.44268400  1
  Cu  Cu71  1  0.65962600  0.33776700  0.55731600  1
  Cu  Cu72  1  0.51018600  0.51765100  0.72933500  1
  Cu  Cu73  1  0.48981400  0.48234900  0.27066500  1
  Cu  Cu74  1  0.50659300  0.78880500  0.78610200  1
  Cu  Cu75  1  0.49340700  0.21119500  0.21389800  1
  Cu  Cu76  1  0.42280500  0.61609900  0.94299100  1
  Cu  Cu77  1  0.57719500  0.38390100  0.05700900  1
  Cu  Cu78  1  0.13858500  0.44159600  0.15377100  1
  Cu  Cu79  1  0.86141500  0.55840400  0.84622900  1
  Cu  Cu80  1  0.18857900  0.86555900  0.10075900  1
  Cu  Cu81  1  0.81142100  0.13444100  0.89924100  1
  Cu  Cu82  1  0.10278000  0.16438000  0.08845600  1
  Cu  Cu83  1  0.89722000  0.83562000  0.91154400  1
