# generated using pymatgen
data_Cu(NiC)2
_symmetry_space_group_name_H-M   'P 1'
_cell_length_a   8.86223400
_cell_length_b   8.87573809
_cell_length_c   8.88088410
_cell_angle_alpha   109.63509887
_cell_angle_beta   109.45969275
_cell_angle_gamma   109.24776536
_symmetry_Int_Tables_number   1
_chemical_formula_structural   Cu(NiC)2
_chemical_formula_sum   'Cu8 Ni16 C16'
_cell_volume   538.21871103
_cell_formula_units_Z   8
loop_
 _symmetry_equiv_pos_site_id
 _symmetry_equiv_pos_as_xyz
  1  'x, y, z'
loop_
 _atom_site_type_symbol
 _atom_site_label
 _atom_site_symmetry_multiplicity
 _atom_site_fract_x
 _atom_site_fract_y
 _atom_site_fract_z
 _atom_site_occupancy
  C  C0  1  0.54676800  0.78538200  0.24654100  1
  C  C1  1  0.00604100  0.00673800  0.00439900  1
  C  C2  1  0.78870800  0.25735300  0.96583800  1
  C  C3  1  0.49914100  0.99841300  0.49795300  1
  C  C4  1  0.28413700  0.25008900  0.46961400  1
  C  C5  1  0.99771900  0.50659200  0.50138700  1
  C  C6  1  0.96895000  0.71469600  0.74295600  1
  C  C7  1  0.74128700  0.02552000  0.70695200  1
  C  C8  1  0.25350200  0.96857300  0.28694500  1
  C  C9  1  0.74881200  0.53615700  0.21355100  1
  C  C10  1  0.24595500  0.45931800  0.79260500  1
  C  C11  1  0.03129300  0.29187100  0.24487600  1
  C  C12  1  0.50879200  0.50965000  0.99159100  1
  C  C13  1  0.72021100  0.74890000  0.53579900  1
  C  C14  1  0.21431200  0.74725900  0.03586200  1
  C  C15  1  0.45287700  0.21100100  0.75996700  1
  Ni  Ni16  1  0.77199800  0.76439300  0.26778800  1
  Ni  Ni17  1  0.48121600  0.53116900  0.24412300  1
  Ni  Ni18  1  0.22816500  0.96925700  0.54744200  1
  Ni  Ni19  1  0.95129700  0.48775200  0.27721200  1
  Ni  Ni20  1  0.53135400  0.03885100  0.22816600  1
  Ni  Ni21  1  0.46610900  0.95639100  0.77169900  1
  Ni  Ni22  1  0.72958700  0.45519600  0.01294800  1
  Ni  Ni23  1  0.96781100  0.73666000  0.48780200  1
  Ni  Ni24  1  0.98587000  0.22516000  0.04614300  1
  Ni  Ni25  1  0.77116600  0.03322800  0.45418700  1
  Ni  Ni26  1  0.73828700  0.77363000  0.77595100  1
  Ni  Ni27  1  0.04954100  0.51146200  0.72109000  1
  Ni  Ni28  1  0.23607900  0.01158400  0.03750900  1
  Ni  Ni29  1  0.51572000  0.46556100  0.75990100  1
  Ni  Ni30  1  0.27169800  0.54414600  0.98947400  1
  Ni  Ni31  1  0.22674400  0.23408900  0.72726300  1
  Cu  Cu32  1  0.54621600  0.27168600  0.46280900  1
  Cu  Cu33  1  0.27074900  0.72512600  0.26287400  1
  Cu  Cu34  1  0.01331500  0.77136200  0.95630600  1
  Cu  Cu35  1  0.25537200  0.22450800  0.23238700  1
  Cu  Cu36  1  0.76201400  0.99035200  0.96211400  1
  Cu  Cu37  1  0.45376600  0.72751200  0.53320900  1
  Cu  Cu38  1  0.73309700  0.27239800  0.73467900  1
  Cu  Cu39  1  0.03432100  0.26101400  0.51008500  1
