# generated using pymatgen
data_CuNi5C23
_symmetry_space_group_name_H-M   'P 1'
_cell_length_a   8.85845000
_cell_length_b   10.67482732
_cell_length_c   10.80858386
_cell_angle_alpha   66.19334572
_cell_angle_beta   74.51261564
_cell_angle_gamma   70.49945099
_symmetry_Int_Tables_number   1
_chemical_formula_structural   CuNi5C23
_chemical_formula_sum   'Cu2 Ni10 C46'
_cell_volume   871.04893767
_cell_formula_units_Z   2
loop_
 _symmetry_equiv_pos_site_id
 _symmetry_equiv_pos_as_xyz
  1  'x, y, z'
loop_
 _atom_site_type_symbol
 _atom_site_label
 _atom_site_symmetry_multiplicity
 _atom_site_fract_x
 _atom_site_fract_y
 _atom_site_fract_z
 _atom_site_occupancy
  Ni  Ni0  1  0.86120000  0.23128300  0.18320100  1
  Ni  Ni1  1  0.13880000  0.76871700  0.81679900  1
  Ni  Ni2  1  0.20076500  0.24569000  0.22686500  1
  Ni  Ni3  1  0.79923500  0.75431000  0.77313500  1
  Ni  Ni4  1  0.15052800  0.95069900  0.24851800  1
  Ni  Ni5  1  0.84947200  0.04930100  0.75148200  1
  Ni  Ni6  1  0.17667400  0.00521600  0.52163200  1
  Ni  Ni7  1  0.82332600  0.99478400  0.47836800  1
  Ni  Ni8  1  0.11899800  0.69970900  0.55274700  1
  Ni  Ni9  1  0.88100200  0.30029100  0.44725300  1
  Cu  Cu10  1  0.72225900  0.75730600  0.21861400  1
  Cu  Cu11  1  0.27774100  0.24269400  0.78138600  1
  C  C12  1  0.74982700  0.31389500  0.06435900  1
  C  C13  1  0.25017300  0.68610500  0.93564100  1
  C  C14  1  0.78379100  0.33583100  0.30558400  1
  C  C15  1  0.21620900  0.66416900  0.69441600  1
  C  C16  1  0.04130500  0.30363300  0.12240800  1
  C  C17  1  0.95869500  0.69636700  0.87759200  1
  C  C18  1  0.33367600  0.33324900  0.13519800  1
  C  C19  1  0.66632400  0.66675100  0.86480200  1
  C  C20  1  0.29234400  0.11448300  0.40259400  1
  C  C21  1  0.70765600  0.88551700  0.59740600  1
  C  C22  1  0.27398000  0.07042300  0.18803800  1
  C  C23  1  0.72602000  0.92957700  0.81196200  1
  C  C24  1  0.25926200  0.83036700  0.17432600  1
  C  C25  1  0.74073800  0.16963300  0.82567400  1
  C  C26  1  0.99111500  0.06154800  0.15022600  1
  C  C27  1  0.00888500  0.93845200  0.84977400  1
  C  C28  1  0.01807800  0.08681200  0.38034800  1
  C  C29  1  0.98192200  0.91318800  0.61965200  1
  C  C30  1  0.26556700  0.90132800  0.66560300  1
  C  C31  1  0.73443300  0.09867200  0.33439700  1
  C  C32  1  0.22957500  0.86079700  0.43811500  1
  C  C33  1  0.77042500  0.13920300  0.56188500  1
  C  C34  1  0.21507100  0.57338000  0.49115300  1
  C  C35  1  0.78492900  0.42662000  0.50884700  1
  C  C36  1  0.93680500  0.65213800  0.66026000  1
  C  C37  1  0.06319500  0.34786200  0.33974000  1
  C  C38  1  0.98549200  0.85269900  0.40579000  1
  C  C39  1  0.01450800  0.14730100  0.59421000  1
  C  C40  1  0.56242000  0.67726700  0.31581000  1
  C  C41  1  0.43758000  0.32273300  0.68419000  1
  C  C42  1  0.59924700  0.87696300  0.30763800  1
  C  C43  1  0.40075300  0.12303700  0.69236200  1
  C  C44  1  0.88704400  0.83711200  0.13608700  1
  C  C45  1  0.11295600  0.16288800  0.86391300  1
  C  C46  1  0.85797300  0.62759700  0.15208000  1
  C  C47  1  0.14202700  0.37240300  0.84792000  1
  C  C48  1  0.82342200  0.72271300  0.35873500  1
  C  C49  1  0.17657800  0.27728700  0.64126500  1
  C  C50  1  0.61848900  0.80631700  0.08366100  1
  C  C51  1  0.38151100  0.19368300  0.91633900  1
  C  C52  1  0.43108000  0.41679400  0.30423900  1
  C  C53  1  0.56892000  0.58320600  0.69576100  1
  C  C54  1  0.39631000  0.54645900  0.23132000  1
  C  C55  1  0.60369000  0.45354100  0.76868000  1
  C  C56  1  0.24067600  0.61007100  0.23897900  1
  C  C57  1  0.75932400  0.38992900  0.76102100  1
