# generated using pymatgen
data_Cu4NiC7
_symmetry_space_group_name_H-M   'P 1'
_cell_length_a   7.70761300
_cell_length_b   7.70761300
_cell_length_c   7.70761300
_cell_angle_alpha   90.00000000
_cell_angle_beta   90.00000000
_cell_angle_gamma   90.00000000
_symmetry_Int_Tables_number   1
_chemical_formula_structural   Cu4NiC7
_chemical_formula_sum   'Cu16 Ni4 C28'
_cell_volume   457.88846358
_cell_formula_units_Z   4
loop_
 _symmetry_equiv_pos_site_id
 _symmetry_equiv_pos_as_xyz
  1  'x, y, z'
loop_
 _atom_site_type_symbol
 _atom_site_label
 _atom_site_symmetry_multiplicity
 _atom_site_fract_x
 _atom_site_fract_y
 _atom_site_fract_z
 _atom_site_occupancy
  C  C0  1  0.13433400  0.63433400  0.86566600  1
  C  C1  1  0.63433400  0.86566600  0.13433400  1
  C  C2  1  0.86566600  0.13433400  0.63433400  1
  C  C3  1  0.36566600  0.36566600  0.36566600  1
  C  C4  1  0.90150700  0.90150700  0.90150700  1
  C  C5  1  0.09849300  0.40150700  0.59849300  1
  C  C6  1  0.40150700  0.59849300  0.09849300  1
  C  C7  1  0.59849300  0.09849300  0.40150700  1
  C  C8  1  0.08371600  0.74975300  0.39441800  1
  C  C9  1  0.60558200  0.58371600  0.75024700  1
  C  C10  1  0.24975300  0.10558200  0.91628400  1
  C  C11  1  0.58371600  0.75024700  0.60558200  1
  C  C12  1  0.10558200  0.91628400  0.24975300  1
  C  C13  1  0.74975300  0.39441800  0.08371600  1
  C  C14  1  0.91628400  0.24975300  0.10558200  1
  C  C15  1  0.39441800  0.08371600  0.74975300  1
  C  C16  1  0.75024700  0.60558200  0.58371600  1
  C  C17  1  0.41628400  0.25024700  0.89441800  1
  C  C18  1  0.89441800  0.41628400  0.25024700  1
  C  C19  1  0.25024700  0.89441800  0.41628400  1
  C  C20  1  0.04529600  0.95470400  0.45470400  1
  C  C21  1  0.54529600  0.54529600  0.54529600  1
  C  C22  1  0.45470400  0.04529600  0.95470400  1
  C  C23  1  0.95470400  0.45470400  0.04529600  1
  Ni  Ni24  1  0.12219200  0.87780800  0.37780800  1
  Ni  Ni25  1  0.62219200  0.62219200  0.62219200  1
  Ni  Ni26  1  0.37780800  0.12219200  0.87780800  1
  Ni  Ni27  1  0.87780800  0.37780800  0.12219200  1
  Cu  Cu28  1  0.95909200  0.70706600  0.88910100  1
  Cu  Cu29  1  0.11089900  0.45909200  0.79293400  1
  Cu  Cu30  1  0.20706600  0.61089900  0.04090800  1
  Cu  Cu31  1  0.45909200  0.79293400  0.11089900  1
  Cu  Cu32  1  0.61089900  0.04090800  0.20706600  1
  Cu  Cu33  1  0.70706600  0.88910100  0.95909200  1
  Cu  Cu34  1  0.04090800  0.20706600  0.61089900  1
  Cu  Cu35  1  0.88910100  0.95909200  0.70706600  1
  Cu  Cu36  1  0.79293400  0.11089900  0.45909200  1
  Cu  Cu37  1  0.54090800  0.29293400  0.38910100  1
  Cu  Cu38  1  0.38910100  0.54090800  0.29293400  1
  Cu  Cu39  1  0.29293400  0.38910100  0.54090800  1
  Cu  Cu40  1  0.01472100  0.01472100  0.01472100  1
  Cu  Cu41  1  0.98527900  0.51472100  0.48527900  1
  Cu  Cu42  1  0.51472100  0.48527900  0.98527900  1
  Cu  Cu43  1  0.48527900  0.98527900  0.51472100  1
  C  C44  1  0.24027000  0.74027000  0.75973000  1
  C  C45  1  0.74027000  0.75973000  0.24027000  1
  C  C46  1  0.75973000  0.24027000  0.74027000  1
  C  C47  1  0.25973000  0.25973000  0.25973000  1
