# generated using pymatgen
data_CuNi3C34
_symmetry_space_group_name_H-M   'P 1'
_cell_length_a   5.55719321
_cell_length_b   5.55719321
_cell_length_c   15.97814700
_cell_angle_alpha   90.00000000
_cell_angle_beta   90.00000000
_cell_angle_gamma   90.00000000
_symmetry_Int_Tables_number   1
_chemical_formula_structural   CuNi3C34
_chemical_formula_sum   'Cu1 Ni3 C34'
_cell_volume   493.44346817
_cell_formula_units_Z   1
loop_
 _symmetry_equiv_pos_site_id
 _symmetry_equiv_pos_as_xyz
  1  'x, y, z'
loop_
 _atom_site_type_symbol
 _atom_site_label
 _atom_site_symmetry_multiplicity
 _atom_site_fract_x
 _atom_site_fract_y
 _atom_site_fract_z
 _atom_site_occupancy
  C  C0  1  0.50000000  0.00000000  0.76408400  1
  C  C1  1  0.00000000  0.50000000  0.76408400  1
  C  C2  1  0.50000000  0.00000000  0.23360400  1
  C  C3  1  0.00000000  0.50000000  0.23360400  1
  C  C4  1  0.50000000  0.00000000  0.99953800  1
  C  C5  1  0.00000000  0.50000000  0.99953800  1
  C  C6  1  0.50000000  0.00000000  0.50157700  1
  C  C7  1  0.00000000  0.50000000  0.50157700  1
  Ni  Ni8  1  0.50000000  0.50000000  0.62605800  1
  Ni  Ni9  1  0.00000000  0.00000000  0.37480400  1
  Ni  Ni10  1  0.50000000  0.50000000  0.37453700  1
  Cu  Cu11  1  0.00000000  0.00000000  0.62314300  1
  C  C12  1  0.00000000  0.00000000  0.89070800  1
  C  C13  1  0.50000000  0.50000000  0.89207100  1
  C  C14  1  0.00000000  0.00000000  0.10742800  1
  C  C15  1  0.50000000  0.50000000  0.10764900  1
  C  C16  1  0.24996600  0.24996600  0.90389800  1
  C  C17  1  0.75003400  0.75003400  0.90389800  1
  C  C18  1  0.24996600  0.75003400  0.90389800  1
  C  C19  1  0.75003400  0.24996600  0.90389800  1
  C  C20  1  0.24988600  0.24988600  0.09635300  1
  C  C21  1  0.75011400  0.75011400  0.09635300  1
  C  C22  1  0.24988600  0.75011400  0.09635300  1
  C  C23  1  0.75011400  0.24988600  0.09635300  1
  C  C24  1  0.00000000  0.00000000  0.74035200  1
  C  C25  1  0.50000000  0.50000000  0.74165400  1
  C  C26  1  0.00000000  0.00000000  0.25910000  1
  C  C27  1  0.50000000  0.50000000  0.25829500  1
  C  C28  1  0.24735800  0.24735800  0.61228800  1
  C  C29  1  0.75264200  0.75264200  0.61228800  1
  C  C30  1  0.24735800  0.75264200  0.61228800  1
  C  C31  1  0.75264200  0.24735800  0.61228800  1
  C  C32  1  0.25004400  0.25004400  0.38823000  1
  C  C33  1  0.74995600  0.74995600  0.38823000  1
  C  C34  1  0.25004400  0.74995600  0.38823000  1
  C  C35  1  0.74995600  0.25004400  0.38823000  1
  C  C36  1  0.00000000  0.00000000  0.50213800  1
  C  C37  1  0.50000000  0.50000000  0.50137700  1
