# generated using pymatgen
data_Cu2NiC
_symmetry_space_group_name_H-M   'P 1'
_cell_length_a   8.70349724
_cell_length_b   8.70349724
_cell_length_c   8.70349717
_cell_angle_alpha   107.71256616
_cell_angle_beta   107.71256616
_cell_angle_gamma   107.71256748
_symmetry_Int_Tables_number   1
_chemical_formula_structural   Cu2NiC
_chemical_formula_sum   'Cu12 Ni6 C6'
_cell_volume   538.03970259
_cell_formula_units_Z   6
loop_
 _symmetry_equiv_pos_site_id
 _symmetry_equiv_pos_as_xyz
  1  'x, y, z'
loop_
 _atom_site_type_symbol
 _atom_site_label
 _atom_site_symmetry_multiplicity
 _atom_site_fract_x
 _atom_site_fract_y
 _atom_site_fract_z
 _atom_site_occupancy
  C  C0  1  0.74661600  0.91339500  0.31013500  1
  C  C1  1  0.25338400  0.08660500  0.68986500  1
  C  C2  1  0.08660500  0.68986500  0.25338400  1
  C  C3  1  0.68986500  0.25338400  0.08660500  1
  C  C4  1  0.91339500  0.31013500  0.74661600  1
  C  C5  1  0.31013500  0.74661600  0.91339500  1
  Ni  Ni6  1  0.55808600  0.85277000  0.62645300  1
  Ni  Ni7  1  0.85277000  0.62645300  0.55808600  1
  Ni  Ni8  1  0.62645300  0.55808600  0.85277000  1
  Ni  Ni9  1  0.44191400  0.14723000  0.37354700  1
  Ni  Ni10  1  0.14723000  0.37354700  0.44191400  1
  Ni  Ni11  1  0.37354700  0.44191400  0.14723000  1
  Cu  Cu12  1  0.25906500  0.41197800  0.84204400  1
  Cu  Cu13  1  0.84204400  0.25906500  0.41197800  1
  Cu  Cu14  1  0.58802200  0.15795600  0.74093500  1
  Cu  Cu15  1  0.41197800  0.84204400  0.25906500  1
  Cu  Cu16  1  0.74093500  0.58802200  0.15795600  1
  Cu  Cu17  1  0.15795600  0.74093500  0.58802200  1
  Cu  Cu18  1  0.36386400  0.13736200  0.05651200  1
  Cu  Cu19  1  0.05651200  0.36386400  0.13736200  1
  Cu  Cu20  1  0.13736200  0.05651200  0.36386400  1
  Cu  Cu21  1  0.63613600  0.86263800  0.94348800  1
  Cu  Cu22  1  0.94348800  0.63613600  0.86263800  1
  Cu  Cu23  1  0.86263800  0.94348800  0.63613600  1
