# generated using pymatgen
data_CuNiC6
_symmetry_space_group_name_H-M   'P 1'
_cell_length_a   7.92611876
_cell_length_b   7.92611876
_cell_length_c   9.16181319
_cell_angle_alpha   54.84821793
_cell_angle_beta   54.84821793
_cell_angle_gamma   70.61647251
_symmetry_Int_Tables_number   1
_chemical_formula_structural   CuNiC6
_chemical_formula_sum   'Cu2 Ni2 C12'
_cell_volume   384.78296082
_cell_formula_units_Z   2
loop_
 _symmetry_equiv_pos_site_id
 _symmetry_equiv_pos_as_xyz
  1  'x, y, z'
loop_
 _atom_site_type_symbol
 _atom_site_label
 _atom_site_symmetry_multiplicity
 _atom_site_fract_x
 _atom_site_fract_y
 _atom_site_fract_z
 _atom_site_occupancy
  Ni  Ni0  1  0.50000000  0.00000000  0.50000000  1
  Ni  Ni1  1  0.00000000  0.50000000  0.50000000  1
  Cu  Cu2  1  0.00000000  0.50000000  0.00000000  1
  Cu  Cu3  1  0.50000000  0.00000000  0.00000000  1
  C  C4  1  0.66691000  0.66691000  0.49299000  1
  C  C5  1  0.33309000  0.33309000  0.50701000  1
  C  C6  1  0.66385400  0.66385400  0.17739300  1
  C  C7  1  0.33614600  0.33614600  0.82260700  1
  C  C8  1  0.16218300  0.84340500  0.66257900  1
  C  C9  1  0.83781700  0.15659500  0.33742100  1
  C  C10  1  0.84340500  0.16218300  0.66257900  1
  C  C11  1  0.15659500  0.83781700  0.33742100  1
  C  C12  1  0.82478600  0.49393000  0.83780100  1
  C  C13  1  0.17521400  0.50607000  0.16219900  1
  C  C14  1  0.50607000  0.17521400  0.16219900  1
  C  C15  1  0.49393000  0.82478600  0.83780100  1
