# generated using pymatgen
data_Cu3Ni3C
_symmetry_space_group_name_H-M   'P 1'
_cell_length_a   5.72121857
_cell_length_b   5.72121857
_cell_length_c   5.72121853
_cell_angle_alpha   94.44445405
_cell_angle_beta   94.44445405
_cell_angle_gamma   94.44446579
_symmetry_Int_Tables_number   1
_chemical_formula_structural   Cu3Ni3C
_chemical_formula_sum   'Cu6 Ni6 C2'
_cell_volume   185.48639632
_cell_formula_units_Z   2
loop_
 _symmetry_equiv_pos_site_id
 _symmetry_equiv_pos_as_xyz
  1  'x, y, z'
loop_
 _atom_site_type_symbol
 _atom_site_label
 _atom_site_symmetry_multiplicity
 _atom_site_fract_x
 _atom_site_fract_y
 _atom_site_fract_z
 _atom_site_occupancy
  C  C0  1  0.50000000  0.50000000  0.50000000  1
  C  C1  1  0.00000000  0.00000000  0.00000000  1
  Ni  Ni2  1  0.40965600  0.54542400  0.14530900  1
  Ni  Ni3  1  0.54542400  0.14530900  0.40965600  1
  Ni  Ni4  1  0.14530900  0.40965600  0.54542400  1
  Ni  Ni5  1  0.59034400  0.45457600  0.85469100  1
  Ni  Ni6  1  0.45457600  0.85469100  0.59034400  1
  Ni  Ni7  1  0.85469100  0.59034400  0.45457600  1
  Cu  Cu8  1  0.22104000  0.91129600  0.21723700  1
  Cu  Cu9  1  0.91129600  0.21723700  0.22104000  1
  Cu  Cu10  1  0.21723700  0.22104000  0.91129600  1
  Cu  Cu11  1  0.77896000  0.08870400  0.78276300  1
  Cu  Cu12  1  0.08870400  0.78276300  0.77896000  1
  Cu  Cu13  1  0.78276300  0.77896000  0.08870400  1
