# generated using pymatgen
data_CuNiC8
_symmetry_space_group_name_H-M   'P 1'
_cell_length_a   5.56400900
_cell_length_b   5.49467900
_cell_length_c   9.56176675
_cell_angle_alpha   54.91654410
_cell_angle_beta   90.00000000
_cell_angle_gamma   90.00000000
_symmetry_Int_Tables_number   1
_chemical_formula_structural   CuNiC8
_chemical_formula_sum   'Cu2 Ni2 C16'
_cell_volume   239.21542863
_cell_formula_units_Z   2
loop_
 _symmetry_equiv_pos_site_id
 _symmetry_equiv_pos_as_xyz
  1  'x, y, z'
loop_
 _atom_site_type_symbol
 _atom_site_label
 _atom_site_symmetry_multiplicity
 _atom_site_fract_x
 _atom_site_fract_y
 _atom_site_fract_z
 _atom_site_occupancy
  C  C0  1  0.04010800  0.25865000  0.74965400  1
  C  C1  1  0.54010800  0.74135000  0.75034600  1
  C  C2  1  0.45989200  0.25865000  0.24965400  1
  C  C3  1  0.95989200  0.74135000  0.25034600  1
  Ni  Ni4  1  0.50000000  0.50000000  0.50000000  1
  Ni  Ni5  1  0.00000000  0.50000000  0.00000000  1
  Cu  Cu6  1  0.50000000  0.00000000  0.00000000  1
  Cu  Cu7  1  0.00000000  0.00000000  0.50000000  1
  C  C8  1  0.80436000  0.66489100  0.54591900  1
  C  C9  1  0.30436000  0.33510900  0.95408100  1
  C  C10  1  0.19564000  0.33510900  0.45408100  1
  C  C11  1  0.69564000  0.66489100  0.04591900  1
  C  C12  1  0.28757200  0.76035000  0.54829500  1
  C  C13  1  0.78757200  0.23965000  0.95170500  1
  C  C14  1  0.71242800  0.23965000  0.45170500  1
  C  C15  1  0.21242800  0.76035000  0.04829500  1
  C  C16  1  0.47282100  0.14972100  0.75904000  1
  C  C17  1  0.97282100  0.85027900  0.74096000  1
  C  C18  1  0.52717900  0.85027900  0.24096000  1
  C  C19  1  0.02717900  0.14972100  0.25904000  1
