# generated using pymatgen
data_Cu2NiC7
_symmetry_space_group_name_H-M   'P 1'
_cell_length_a   6.91819696
_cell_length_b   4.63580200
_cell_length_c   11.30410211
_cell_angle_alpha   90.00000000
_cell_angle_beta   85.80427309
_cell_angle_gamma   90.00000000
_symmetry_Int_Tables_number   1
_chemical_formula_structural   Cu2NiC7
_chemical_formula_sum   'Cu4 Ni2 C14'
_cell_volume   361.56665668
_cell_formula_units_Z   2
loop_
 _symmetry_equiv_pos_site_id
 _symmetry_equiv_pos_as_xyz
  1  'x, y, z'
loop_
 _atom_site_type_symbol
 _atom_site_label
 _atom_site_symmetry_multiplicity
 _atom_site_fract_x
 _atom_site_fract_y
 _atom_site_fract_z
 _atom_site_occupancy
  Ni  Ni0  1  0.63319600  0.47540500  0.21113400  1
  Ni  Ni1  1  0.36680400  0.97540500  0.78886600  1
  Cu  Cu2  1  0.83357400  0.55221900  0.78676100  1
  Cu  Cu3  1  0.15609800  0.62915200  0.44467400  1
  Cu  Cu4  1  0.16642600  0.05221900  0.21323900  1
  Cu  Cu5  1  0.84390200  0.12915200  0.55532600  1
  C  C6  1  0.09572600  0.47520100  0.99635900  1
  C  C7  1  0.90427400  0.97520100  0.00364100  1
  C  C8  1  0.48435200  0.12522000  0.41572000  1
  C  C9  1  0.23530200  0.47080600  0.86922800  1
  C  C10  1  0.47520800  0.74176000  0.54505500  1
  C  C11  1  0.73931600  0.95928600  0.90259600  1
  C  C12  1  0.51564800  0.62522000  0.58428100  1
  C  C13  1  0.52479200  0.24176000  0.45494500  1
  C  C14  1  0.76469800  0.97080600  0.13077200  1
  C  C15  1  0.01601300  0.75029300  0.62207000  1
  C  C16  1  0.63397100  0.31065600  0.68525000  1
  C  C17  1  0.98398700  0.25029300  0.37793000  1
  C  C18  1  0.36602900  0.81065600  0.31475000  1
  C  C19  1  0.26068400  0.45928600  0.09740400  1
