# generated using pymatgen
data_Cu8NiC3
_symmetry_space_group_name_H-M   'P 1'
_cell_length_a   7.11931472
_cell_length_b   7.11931472
_cell_length_c   7.75292939
_cell_angle_alpha   81.20675619
_cell_angle_beta   81.20675619
_cell_angle_gamma   109.52763569
_symmetry_Int_Tables_number   1
_chemical_formula_structural   Cu8NiC3
_chemical_formula_sum   'Cu8 Ni1 C3'
_cell_volume   357.11506778
_cell_formula_units_Z   1
loop_
 _symmetry_equiv_pos_site_id
 _symmetry_equiv_pos_as_xyz
  1  'x, y, z'
loop_
 _atom_site_type_symbol
 _atom_site_label
 _atom_site_symmetry_multiplicity
 _atom_site_fract_x
 _atom_site_fract_y
 _atom_site_fract_z
 _atom_site_occupancy
  C  C0  1  0.11617600  0.11617600  0.53548700  1
  C  C1  1  0.49970300  0.99983900  0.99956200  1
  C  C2  1  0.99983900  0.49970300  0.99956200  1
  Ni  Ni3  1  0.57496700  0.57496700  0.69514300  1
  Cu  Cu4  1  0.08057000  0.79754400  0.22799700  1
  Cu  Cu5  1  0.79754400  0.08057000  0.22799700  1
  Cu  Cu6  1  0.77376600  0.77376600  0.90765800  1
  Cu  Cu7  1  0.27077600  0.27077600  0.90984200  1
  Cu  Cu8  1  0.59635200  0.29407000  0.23160000  1
  Cu  Cu9  1  0.29407000  0.59635200  0.23160000  1
  Cu  Cu10  1  0.80958200  0.32362100  0.73351500  1
  Cu  Cu11  1  0.32362100  0.80958200  0.73351500  1
