# generated using pymatgen
data_Cu2NiC4
_symmetry_space_group_name_H-M   'P 1'
_cell_length_a   7.24026289
_cell_length_b   7.24056200
_cell_length_c   7.24031700
_cell_angle_alpha   59.99882950
_cell_angle_beta   90.00091940
_cell_angle_gamma   119.99914718
_symmetry_Int_Tables_number   1
_chemical_formula_structural   Cu2NiC4
_chemical_formula_sum   'Cu4 Ni2 C8'
_cell_volume   268.39263530
_cell_formula_units_Z   2
loop_
 _symmetry_equiv_pos_site_id
 _symmetry_equiv_pos_as_xyz
  1  'x, y, z'
loop_
 _atom_site_type_symbol
 _atom_site_label
 _atom_site_symmetry_multiplicity
 _atom_site_fract_x
 _atom_site_fract_y
 _atom_site_fract_z
 _atom_site_occupancy
  Ni  Ni0  1  0.12499500  0.75000700  0.12501000  1
  Ni  Ni1  1  0.87500400  0.25000800  0.87499000  1
  Cu  Cu2  1  0.49994000  0.99991900  0.50000200  1
  Cu  Cu3  1  0.50000900  0.49997700  0.50000100  1
  Cu  Cu4  1  0.50003000  0.50005000  0.00000700  1
  Cu  Cu5  1  0.00000200  0.00000600  0.50000500  1
  C  C6  1  0.26217700  0.47565700  0.26216400  1
  C  C7  1  0.73782300  0.97564800  0.73782800  1
  C  C8  1  0.28652800  0.52435300  0.73783400  1
  C  C9  1  0.73782900  0.97565900  0.28651900  1
  C  C10  1  0.71347500  0.47563600  0.26217400  1
  C  C11  1  0.26218100  0.02434900  0.71347600  1
  C  C12  1  0.73783500  0.52436600  0.73783000  1
  C  C13  1  0.26217800  0.02437100  0.26215700  1
