# generated using pymatgen
data_CuNiC3
_symmetry_space_group_name_H-M   'P 1'
_cell_length_a   7.22666600
_cell_length_b   7.69384170
_cell_length_c   13.86280075
_cell_angle_alpha   94.34905157
_cell_angle_beta   90.00000000
_cell_angle_gamma   90.00000000
_symmetry_Int_Tables_number   1
_chemical_formula_structural   CuNiC3
_chemical_formula_sum   'Cu8 Ni8 C24'
_cell_volume   768.56373831
_cell_formula_units_Z   8
loop_
 _symmetry_equiv_pos_site_id
 _symmetry_equiv_pos_as_xyz
  1  'x, y, z'
loop_
 _atom_site_type_symbol
 _atom_site_label
 _atom_site_symmetry_multiplicity
 _atom_site_fract_x
 _atom_site_fract_y
 _atom_site_fract_z
 _atom_site_occupancy
  C  C0  1  0.73688900  0.07744200  0.94508900  1
  C  C1  1  0.26311100  0.92255800  0.05491100  1
  C  C2  1  0.23688900  0.42255800  0.55491100  1
  C  C3  1  0.76311100  0.57744200  0.44508900  1
  Ni  Ni4  1  0.08486000  0.89259200  0.81333500  1
  Ni  Ni5  1  0.91514000  0.10740800  0.18666500  1
  Ni  Ni6  1  0.58486000  0.60740800  0.68666500  1
  Ni  Ni7  1  0.41514000  0.39259200  0.31333500  1
  Ni  Ni8  1  0.34649600  0.33303100  0.96457400  1
  Ni  Ni9  1  0.65350400  0.66696900  0.03542600  1
  Ni  Ni10  1  0.84649600  0.16696900  0.53542600  1
  Ni  Ni11  1  0.15350400  0.83303100  0.46457400  1
  Cu  Cu12  1  0.97353500  0.46170800  0.82359700  1
  Cu  Cu13  1  0.02646500  0.53829200  0.17640300  1
  Cu  Cu14  1  0.47353500  0.03829200  0.67640300  1
  Cu  Cu15  1  0.52646500  0.96170800  0.32359700  1
  Cu  Cu16  1  0.12592100  0.88285600  0.69858600  1
  Cu  Cu17  1  0.87407900  0.11714400  0.30141400  1
  Cu  Cu18  1  0.62592100  0.61714400  0.80141400  1
  Cu  Cu19  1  0.37407900  0.38285600  0.19858600  1
  C  C20  1  0.40374100  0.18727200  0.97166400  1
  C  C21  1  0.59625900  0.81272800  0.02833600  1
  C  C22  1  0.90374100  0.31272800  0.52833600  1
  C  C23  1  0.09625900  0.68727200  0.47166400  1
  C  C24  1  0.04894600  0.89875700  0.89768400  1
  C  C25  1  0.95105400  0.10124300  0.10231600  1
  C  C26  1  0.54894600  0.60124300  0.60231600  1
  C  C27  1  0.45105400  0.39875700  0.39768400  1
  C  C28  1  0.40406200  0.21229700  0.65763500  1
  C  C29  1  0.59593800  0.78770300  0.34236500  1
  C  C30  1  0.90406200  0.28770300  0.84236500  1
  C  C31  1  0.09593800  0.71229700  0.15763500  1
  C  C32  1  0.28679900  0.47890500  0.95856700  1
  C  C33  1  0.71320100  0.52109500  0.04143300  1
  C  C34  1  0.78679900  0.02109500  0.54143300  1
  C  C35  1  0.21320100  0.97890500  0.45856700  1
  C  C36  1  0.58154600  0.03693100  0.76562600  1
  C  C37  1  0.41845400  0.96306900  0.23437400  1
  C  C38  1  0.08154600  0.46306900  0.73437400  1
  C  C39  1  0.91845400  0.53693100  0.26562600  1
