# generated using pymatgen
data_CuNiC8
_symmetry_space_group_name_H-M   'P 1'
_cell_length_a   5.27728800
_cell_length_b   8.95328200
_cell_length_c   18.68596900
_cell_angle_alpha   90.00000000
_cell_angle_beta   90.00000000
_cell_angle_gamma   90.00000000
_symmetry_Int_Tables_number   1
_chemical_formula_structural   CuNiC8
_chemical_formula_sum   'Cu8 Ni8 C64'
_cell_volume   882.89423984
_cell_formula_units_Z   8
loop_
 _symmetry_equiv_pos_site_id
 _symmetry_equiv_pos_as_xyz
  1  'x, y, z'
loop_
 _atom_site_type_symbol
 _atom_site_label
 _atom_site_symmetry_multiplicity
 _atom_site_fract_x
 _atom_site_fract_y
 _atom_site_fract_z
 _atom_site_occupancy
  Ni  Ni0  1  0.62800500  0.15276000  0.37610600  1
  Ni  Ni1  1  0.37199500  0.84724000  0.62389400  1
  Ni  Ni2  1  0.62800500  0.65276000  0.12389400  1
  Ni  Ni3  1  0.12800500  0.84724000  0.12389400  1
  Ni  Ni4  1  0.87199500  0.15276000  0.87610600  1
  Ni  Ni5  1  0.37199500  0.34724000  0.87610600  1
  Ni  Ni6  1  0.12800500  0.34724000  0.37610600  1
  Ni  Ni7  1  0.87199500  0.65276000  0.62389400  1
  Cu  Cu8  1  0.35700700  0.97781800  0.87782400  1
  Cu  Cu9  1  0.64299300  0.02218200  0.12217600  1
  Cu  Cu10  1  0.85700700  0.02218200  0.62217600  1
  Cu  Cu11  1  0.14299300  0.97781800  0.37782400  1
  Cu  Cu12  1  0.35700700  0.47781800  0.62217600  1
  Cu  Cu13  1  0.64299300  0.52218200  0.37782400  1
  Cu  Cu14  1  0.85700700  0.52218200  0.87782400  1
  Cu  Cu15  1  0.14299300  0.47781800  0.12217600  1
  C  C16  1  0.55234400  0.65820700  0.76892300  1
  C  C17  1  0.70110300  0.83759400  0.47550400  1
  C  C18  1  0.79889700  0.83759400  0.97550400  1
  C  C19  1  0.94765600  0.15820700  0.23107700  1
  C  C20  1  0.05234400  0.34179300  0.73107700  1
  C  C21  1  0.44765600  0.84179300  0.26892300  1
  C  C22  1  0.20110300  0.66240600  0.47550400  1
  C  C23  1  0.70110300  0.33759400  0.02449600  1
  C  C24  1  0.79889700  0.33759400  0.52449600  1
  C  C25  1  0.94765600  0.65820700  0.26892300  1
  C  C26  1  0.44765600  0.34179300  0.23107700  1
  C  C27  1  0.55234400  0.15820700  0.73107700  1
  C  C28  1  0.29889700  0.16240600  0.52449600  1
  C  C29  1  0.05234400  0.84179300  0.76892300  1
  C  C30  1  0.29889700  0.66240600  0.97550400  1
  C  C31  1  0.20110300  0.16240600  0.02449600  1
  C  C32  1  0.96160200  0.49992800  0.30896700  1
  C  C33  1  0.29229700  0.01218600  0.06349100  1
  C  C34  1  0.03839800  0.50007200  0.69103300  1
  C  C35  1  0.70433300  0.33579400  0.93699600  1
  C  C36  1  0.20433300  0.16420600  0.93699600  1
  C  C37  1  0.90167300  0.20131300  0.05217000  1
  C  C38  1  0.95984100  0.65983200  0.18196200  1
  C  C39  1  0.04015900  0.84016800  0.68196200  1
  C  C40  1  0.70433300  0.83579400  0.56300400  1
  C  C41  1  0.95984100  0.15983200  0.31803800  1
  C  C42  1  0.46160200  0.50007200  0.19103300  1
  C  C43  1  0.79566700  0.33579400  0.43699600  1
  C  C44  1  0.70770300  0.98781400  0.93650900  1
  C  C45  1  0.45984100  0.84016800  0.18196200  1
  C  C46  1  0.53839800  0.99992800  0.69103300  1
  C  C47  1  0.29229700  0.51218600  0.43650900  1
  C  C48  1  0.46160200  0.00007200  0.30896700  1
  C  C49  1  0.16695100  0.77695400  0.29958700  1
  C  C50  1  0.33304900  0.77695400  0.79958700  1
  C  C51  1  0.59832700  0.70131300  0.94783000  1
  C  C52  1  0.79566700  0.83579400  0.06300400  1
  C  C53  1  0.54015900  0.65983200  0.68196200  1
  C  C54  1  0.79229700  0.48781400  0.06349100  1
  C  C55  1  0.16695100  0.27695400  0.20041300  1
  C  C56  1  0.29566700  0.16420600  0.43699600  1
  C  C57  1  0.54015900  0.15983200  0.81803800  1
  C  C58  1  0.70770300  0.48781400  0.56349100  1
  C  C59  1  0.20433300  0.66420600  0.56300400  1
  C  C60  1  0.20770300  0.51218600  0.93650900  1
  C  C61  1  0.66695100  0.72304600  0.29958700  1
  C  C62  1  0.03839800  0.00007200  0.80896700  1
  C  C63  1  0.83304900  0.72304600  0.79958700  1
  C  C64  1  0.83304900  0.22304600  0.70041300  1
  C  C65  1  0.79229700  0.98781400  0.43650900  1
  C  C66  1  0.29566700  0.66420600  0.06300400  1
  C  C67  1  0.20770300  0.01218600  0.56349100  1
  C  C68  1  0.33304900  0.27695400  0.70041300  1
  C  C69  1  0.09832700  0.79868700  0.94783000  1
  C  C70  1  0.40167300  0.79868700  0.44783000  1
  C  C71  1  0.66695100  0.22304600  0.20041300  1
  C  C72  1  0.40167300  0.29868700  0.05217000  1
  C  C73  1  0.59832700  0.20131300  0.55217000  1
  C  C74  1  0.09832700  0.29868700  0.55217000  1
  C  C75  1  0.45984100  0.34016800  0.31803800  1
  C  C76  1  0.53839800  0.49992800  0.80896700  1
  C  C77  1  0.90167300  0.70131300  0.44783000  1
  C  C78  1  0.04015900  0.34016800  0.81803800  1
  C  C79  1  0.96160200  0.99992800  0.19103300  1
