# generated using pymatgen
data_Cu8Ni2C3
_symmetry_space_group_name_H-M   'P 1'
_cell_length_a   10.93148700
_cell_length_b   6.38545200
_cell_length_c   12.68676839
_cell_angle_alpha   76.58875531
_cell_angle_beta   90.00000000
_cell_angle_gamma   90.00000000
_symmetry_Int_Tables_number   1
_chemical_formula_structural   Cu8Ni2C3
_chemical_formula_sum   'Cu32 Ni8 C12'
_cell_volume   861.41886241
_cell_formula_units_Z   4
loop_
 _symmetry_equiv_pos_site_id
 _symmetry_equiv_pos_as_xyz
  1  'x, y, z'
loop_
 _atom_site_type_symbol
 _atom_site_label
 _atom_site_symmetry_multiplicity
 _atom_site_fract_x
 _atom_site_fract_y
 _atom_site_fract_z
 _atom_site_occupancy
  C  C0  1  0.74515000  0.00639100  0.65458200  1
  C  C1  1  0.24515000  0.99360900  0.84541800  1
  C  C2  1  0.25485000  0.99360900  0.34541800  1
  C  C3  1  0.75485000  0.00639100  0.15458200  1
  C  C4  1  0.94306700  0.69750200  0.60319700  1
  C  C5  1  0.44306700  0.30249800  0.89680300  1
  C  C6  1  0.05693300  0.30249800  0.39680300  1
  C  C7  1  0.55693300  0.69750200  0.10319700  1
  C  C8  1  0.68597400  0.95239100  0.92660500  1
  C  C9  1  0.18597400  0.04760900  0.57339500  1
  C  C10  1  0.31402600  0.04760900  0.07339500  1
  C  C11  1  0.81402600  0.95239100  0.42660500  1
  Ni  Ni12  1  0.57726300  0.79376300  0.97574700  1
  Ni  Ni13  1  0.07726300  0.20623700  0.52425300  1
  Ni  Ni14  1  0.42273700  0.20623700  0.02425300  1
  Ni  Ni15  1  0.92273700  0.79376300  0.47574700  1
  Ni  Ni16  1  0.11727300  0.76040000  0.58888400  1
  Ni  Ni17  1  0.61727300  0.23960000  0.91111600  1
  Ni  Ni18  1  0.88272700  0.23960000  0.41111600  1
  Ni  Ni19  1  0.38272700  0.76040000  0.08888400  1
  Cu  Cu20  1  0.90017000  0.84215300  0.67566600  1
  Cu  Cu21  1  0.40017000  0.15784700  0.82433400  1
  Cu  Cu22  1  0.09983000  0.15784700  0.32433400  1
  Cu  Cu23  1  0.59983000  0.84215300  0.17566600  1
  Cu  Cu24  1  0.93823400  0.45854400  0.64189400  1
  Cu  Cu25  1  0.43823400  0.54145600  0.85810600  1
  Cu  Cu26  1  0.06176600  0.54145600  0.35810600  1
  Cu  Cu27  1  0.56176600  0.45854400  0.14189400  1
  Cu  Cu28  1  0.79031300  0.96253500  0.00394200  1
  Cu  Cu29  1  0.29031300  0.03746500  0.49605800  1
  Cu  Cu30  1  0.20968700  0.03746500  0.99605800  1
  Cu  Cu31  1  0.70968700  0.96253500  0.50394200  1
  Cu  Cu32  1  0.71588500  0.96130300  0.81069400  1
  Cu  Cu33  1  0.21588500  0.03869700  0.68930600  1
  Cu  Cu34  1  0.28411500  0.03869700  0.18930600  1
  Cu  Cu35  1  0.78411500  0.96130300  0.31069400  1
  Cu  Cu36  1  0.02341000  0.11436700  0.83827500  1
  Cu  Cu37  1  0.52341000  0.88563300  0.66172500  1
  Cu  Cu38  1  0.97659000  0.88563300  0.16172500  1
  Cu  Cu39  1  0.47659000  0.11436700  0.33827500  1
  Cu  Cu40  1  0.73629200  0.30938500  0.60462900  1
  Cu  Cu41  1  0.23629200  0.69061500  0.89537100  1
  Cu  Cu42  1  0.26370800  0.69061500  0.39537100  1
  Cu  Cu43  1  0.76370800  0.30938500  0.10462900  1
  Cu  Cu44  1  0.52487000  0.69711800  0.65274100  1
  Cu  Cu45  1  0.02487000  0.30288200  0.84725900  1
  Cu  Cu46  1  0.47513000  0.30288200  0.34725900  1
  Cu  Cu47  1  0.97513000  0.69711800  0.15274100  1
  Cu  Cu48  1  0.68667500  0.37670200  0.92643900  1
  Cu  Cu49  1  0.18667500  0.62329800  0.57356100  1
  Cu  Cu50  1  0.31332500  0.62329800  0.07356100  1
  Cu  Cu51  1  0.81332500  0.37670200  0.42643900  1
