# generated using pymatgen
data_Cu5NiC
_symmetry_space_group_name_H-M   'P 1'
_cell_length_a   8.15698300
_cell_length_b   10.10184100
_cell_length_c   10.98243522
_cell_angle_alpha   81.05189989
_cell_angle_beta   90.00000000
_cell_angle_gamma   90.00000000
_symmetry_Int_Tables_number   1
_chemical_formula_structural   Cu5NiC
_chemical_formula_sum   'Cu40 Ni8 C8'
_cell_volume   893.94497590
_cell_formula_units_Z   8
loop_
 _symmetry_equiv_pos_site_id
 _symmetry_equiv_pos_as_xyz
  1  'x, y, z'
loop_
 _atom_site_type_symbol
 _atom_site_label
 _atom_site_symmetry_multiplicity
 _atom_site_fract_x
 _atom_site_fract_y
 _atom_site_fract_z
 _atom_site_occupancy
  C  C0  1  0.26794600  0.90942300  0.13290300  1
  C  C1  1  0.73205400  0.09057700  0.86709700  1
  C  C2  1  0.76794600  0.59057700  0.86709700  1
  C  C3  1  0.23205400  0.40942300  0.13290300  1
  C  C4  1  0.76378100  0.96735900  0.31751300  1
  C  C5  1  0.23621900  0.03264100  0.68248700  1
  C  C6  1  0.26378100  0.53264100  0.68248700  1
  C  C7  1  0.73621900  0.46735900  0.31751300  1
  Ni  Ni8  1  0.64950300  0.68944300  0.53136900  1
  Ni  Ni9  1  0.35049700  0.31055700  0.46863100  1
  Ni  Ni10  1  0.14950300  0.81055700  0.46863100  1
  Ni  Ni11  1  0.85049700  0.18944300  0.53136900  1
  Ni  Ni12  1  0.77343600  0.79359000  0.11674800  1
  Ni  Ni13  1  0.22656400  0.20641000  0.88325200  1
  Ni  Ni14  1  0.27343600  0.70641000  0.88325200  1
  Ni  Ni15  1  0.72656400  0.29359000  0.11674800  1
  Cu  Cu16  1  0.62147600  0.85100100  0.16527400  1
  Cu  Cu17  1  0.37852400  0.14899900  0.83472600  1
  Cu  Cu18  1  0.12147600  0.64899900  0.83472600  1
  Cu  Cu19  1  0.87852400  0.35100100  0.16527400  1
  Cu  Cu20  1  0.91279500  0.85447700  0.17893000  1
  Cu  Cu21  1  0.08720500  0.14552300  0.82107000  1
  Cu  Cu22  1  0.41279500  0.64552300  0.82107000  1
  Cu  Cu23  1  0.58720500  0.35447700  0.17893000  1
  Cu  Cu24  1  0.98210700  0.87208000  0.43650300  1
  Cu  Cu25  1  0.01789300  0.12792000  0.56349700  1
  Cu  Cu26  1  0.48210700  0.62792000  0.56349700  1
  Cu  Cu27  1  0.51789300  0.37208000  0.43650300  1
  Cu  Cu28  1  0.61776400  0.81173700  0.44032500  1
  Cu  Cu29  1  0.38223600  0.18826300  0.55967500  1
  Cu  Cu30  1  0.11776400  0.68826300  0.55967500  1
  Cu  Cu31  1  0.88223600  0.31173700  0.44032500  1
  Cu  Cu32  1  0.28451700  0.67902700  0.01752900  1
  Cu  Cu33  1  0.71548300  0.32097300  0.98247100  1
  Cu  Cu34  1  0.78451700  0.82097300  0.98247100  1
  Cu  Cu35  1  0.21548300  0.17902700  0.01752900  1
  Cu  Cu36  1  0.47088700  0.55024800  0.29043200  1
  Cu  Cu37  1  0.52911300  0.44975200  0.70956800  1
  Cu  Cu38  1  0.97088700  0.94975200  0.70956800  1
  Cu  Cu39  1  0.02911300  0.05024800  0.29043200  1
  Cu  Cu40  1  0.73224600  0.71955600  0.64090000  1
  Cu  Cu41  1  0.26775400  0.28044400  0.35910000  1
  Cu  Cu42  1  0.23224600  0.78044400  0.35910000  1
  Cu  Cu43  1  0.76775400  0.21955600  0.64090000  1
  Cu  Cu44  1  0.74512300  0.59338100  0.46875900  1
  Cu  Cu45  1  0.25487700  0.40661900  0.53124100  1
  Cu  Cu46  1  0.24512300  0.90661900  0.53124100  1
  Cu  Cu47  1  0.75487700  0.09338100  0.46875900  1
  Cu  Cu48  1  0.77674300  0.64344300  0.15822600  1
  Cu  Cu49  1  0.22325700  0.35655700  0.84177400  1
  Cu  Cu50  1  0.27674300  0.85655700  0.84177400  1
  Cu  Cu51  1  0.72325700  0.14344300  0.15822600  1
  Cu  Cu52  1  0.51200900  0.96481500  0.70774400  1
  Cu  Cu53  1  0.48799100  0.03518500  0.29225600  1
  Cu  Cu54  1  0.01200900  0.53518500  0.29225600  1
  Cu  Cu55  1  0.98799100  0.46481500  0.70774400  1
