# generated using pymatgen
data_Cu5Ni2C25
_symmetry_space_group_name_H-M   'P 1'
_cell_length_a   2.91756800
_cell_length_b   9.78109600
_cell_length_c   10.33437649
_cell_angle_alpha   79.72681249
_cell_angle_beta   90.00000000
_cell_angle_gamma   90.00000000
_symmetry_Int_Tables_number   1
_chemical_formula_structural   Cu5Ni2C25
_chemical_formula_sum   'Cu5 Ni2 C25'
_cell_volume   290.18437806
_cell_formula_units_Z   1
loop_
 _symmetry_equiv_pos_site_id
 _symmetry_equiv_pos_as_xyz
  1  'x, y, z'
loop_
 _atom_site_type_symbol
 _atom_site_label
 _atom_site_symmetry_multiplicity
 _atom_site_fract_x
 _atom_site_fract_y
 _atom_site_fract_z
 _atom_site_occupancy
  C  C0  1  0.50000000  0.00000000  0.00000000  1
  C  C1  1  0.50000000  0.00000000  0.50000000  1
  C  C2  1  0.00000000  0.74314500  0.12239200  1
  C  C3  1  0.00000000  0.74161900  0.63239500  1
  C  C4  1  0.50000000  0.50075200  0.23785500  1
  C  C5  1  0.50000000  0.49924800  0.76214500  1
  C  C6  1  0.00000000  0.25685500  0.87760800  1
  C  C7  1  0.00000000  0.25838100  0.36760500  1
  C  C8  1  0.00000000  0.50000000  0.00000000  1
  Ni  Ni9  1  0.00000000  0.99540600  0.75084700  1
  Ni  Ni10  1  0.00000000  0.00459400  0.24915300  1
  Cu  Cu11  1  0.50000000  0.72855100  0.89222600  1
  Cu  Cu12  1  0.50000000  0.74608400  0.37724400  1
  Cu  Cu13  1  0.00000000  0.50000000  0.50000000  1
  Cu  Cu14  1  0.50000000  0.27144900  0.10777400  1
  Cu  Cu15  1  0.50000000  0.25391600  0.62275600  1
  C  C16  1  0.50000000  0.11014700  0.80364100  1
  C  C17  1  0.50000000  0.11028400  0.30818400  1
  C  C18  1  0.00000000  0.87893900  0.91810900  1
  C  C19  1  0.00000000  0.87541500  0.42228600  1
  C  C20  1  0.50000000  0.63508000  0.05803100  1
  C  C21  1  0.50000000  0.62031800  0.55439800  1
  C  C22  1  0.00000000  0.36532700  0.67963800  1
  C  C23  1  0.00000000  0.36503400  0.18613700  1
  C  C24  1  0.50000000  0.88985300  0.19635900  1
  C  C25  1  0.50000000  0.88971600  0.69181600  1
  C  C26  1  0.00000000  0.63467300  0.32036200  1
  C  C27  1  0.00000000  0.63496600  0.81386300  1
  C  C28  1  0.50000000  0.37968200  0.44560200  1
  C  C29  1  0.50000000  0.36492000  0.94196900  1
  C  C30  1  0.00000000  0.12106100  0.08189100  1
  C  C31  1  0.00000000  0.12458500  0.57771400  1
