# generated using pymatgen
data_Cu2Ni3C32
_symmetry_space_group_name_H-M   'P 1'
_cell_length_a   8.69468859
_cell_length_b   8.75107026
_cell_length_c   8.83053759
_cell_angle_alpha   60.28053126
_cell_angle_beta   59.26029748
_cell_angle_gamma   58.05559577
_symmetry_Int_Tables_number   1
_chemical_formula_structural   Cu2Ni3C32
_chemical_formula_sum   'Cu2 Ni3 C32'
_cell_volume   466.06930948
_cell_formula_units_Z   1
loop_
 _symmetry_equiv_pos_site_id
 _symmetry_equiv_pos_as_xyz
  1  'x, y, z'
loop_
 _atom_site_type_symbol
 _atom_site_label
 _atom_site_symmetry_multiplicity
 _atom_site_fract_x
 _atom_site_fract_y
 _atom_site_fract_z
 _atom_site_occupancy
  C  C0  1  0.25112100  0.25776800  0.85742600  1
  Ni  Ni1  1  0.05892200  0.65706300  0.63271800  1
  Ni  Ni2  1  0.44990900  0.84583800  0.84714800  1
  Ni  Ni3  1  0.92441400  0.35776900  0.36017600  1
  Cu  Cu4  1  0.01391900  0.98136100  0.00598200  1
  Cu  Cu5  1  0.50570000  0.50881300  0.48874800  1
  C  C6  1  0.56814000  0.14250400  0.14970400  1
  C  C7  1  0.24685400  0.24902900  0.54937800  1
  C  C8  1  0.24038500  0.95401200  0.25841600  1
  C  C9  1  0.24694400  0.54681000  0.96390300  1
  C  C10  1  0.76617200  0.44085000  0.04690000  1
  C  C11  1  0.72373100  0.06301000  0.75247100  1
  C  C12  1  0.75364700  0.74567500  0.45151400  1
  C  C13  1  0.05115200  0.09555000  0.33542000  1
  C  C14  1  0.06848200  0.51528400  0.11452400  1
  C  C15  1  0.07272400  0.30562300  0.51275100  1
  C  C16  1  0.23584800  0.09345900  0.74865400  1
  C  C17  1  0.44065800  0.18077700  0.39349400  1
  C  C18  1  0.27659900  0.39617900  0.57499800  1
  C  C19  1  0.23265200  0.95714100  0.08003700  1
  C  C20  1  0.29248400  0.75353100  0.39569500  1
  C  C21  1  0.61619900  0.61202500  0.96088600  1
  C  C22  1  0.28972100  0.51459300  0.78458100  1
  C  C23  1  0.77345300  0.24291400  0.06518800  1
  C  C24  1  0.52641200  0.04521100  0.82445200  1
  C  C25  1  0.41035800  0.02348100  0.18089800  1
  C  C26  1  0.23724500  0.74726800  0.92395800  1
  C  C27  1  0.71486500  0.43871900  0.24070900  1
  C  C28  1  0.43284100  0.40164900  0.02048500  1
  C  C29  1  0.70675800  0.25583100  0.60300900  1
  C  C30  1  0.75155500  0.06714900  0.91818200  1
  C  C31  1  0.70985100  0.60581800  0.43793100  1
  C  C32  1  0.58185500  0.83411400  0.60108500  1
  C  C33  1  0.77035000  0.91069100  0.24879800  1
  C  C34  1  0.94563700  0.68053100  0.46539300  1
  C  C35  1  0.97044900  0.43144400  0.91264800  1
  C  C36  1  0.89199500  0.89051500  0.70580100  1
