# generated using pymatgen
data_Cu2NiC7
_symmetry_space_group_name_H-M   'P 1'
_cell_length_a   5.21053700
_cell_length_b   5.44679100
_cell_length_c   7.61979100
_cell_angle_alpha   90.00000000
_cell_angle_beta   90.00000000
_cell_angle_gamma   90.00000000
_symmetry_Int_Tables_number   1
_chemical_formula_structural   Cu2NiC7
_chemical_formula_sum   'Cu4 Ni2 C14'
_cell_volume   216.25504843
_cell_formula_units_Z   2
loop_
 _symmetry_equiv_pos_site_id
 _symmetry_equiv_pos_as_xyz
  1  'x, y, z'
loop_
 _atom_site_type_symbol
 _atom_site_label
 _atom_site_symmetry_multiplicity
 _atom_site_fract_x
 _atom_site_fract_y
 _atom_site_fract_z
 _atom_site_occupancy
  C  C0  1  0.01698100  0.68204300  0.00000000  1
  C  C1  1  0.51698100  0.31795700  0.50000000  1
  Ni  Ni2  1  0.49094200  0.21213400  0.00000000  1
  Ni  Ni3  1  0.99094200  0.78786600  0.50000000  1
  Cu  Cu4  1  0.00098600  0.23784700  0.75003400  1
  Cu  Cu5  1  0.00098600  0.23784700  0.24996600  1
  Cu  Cu6  1  0.50098600  0.76215300  0.25003400  1
  Cu  Cu7  1  0.50098600  0.76215300  0.74996600  1
  C  C8  1  0.10789100  0.19925600  0.50000000  1
  C  C9  1  0.19532400  0.94504700  0.81171400  1
  C  C10  1  0.19532400  0.94504700  0.18828600  1
  C  C11  1  0.30924900  0.43859800  0.81093800  1
  C  C12  1  0.30924900  0.43859800  0.18906200  1
  C  C13  1  0.37189700  0.71372700  0.50000000  1
  C  C14  1  0.60789100  0.80074400  0.00000000  1
  C  C15  1  0.69532400  0.05495300  0.31171400  1
  C  C16  1  0.69532400  0.05495300  0.68828600  1
  C  C17  1  0.80924900  0.56140200  0.68906200  1
  C  C18  1  0.80924900  0.56140200  0.31093800  1
  C  C19  1  0.87189700  0.28627300  0.00000000  1
