# generated using pymatgen
data_CuNi2C11
_symmetry_space_group_name_H-M   'P 1'
_cell_length_a   5.98088952
_cell_length_b   5.98088952
_cell_length_c   7.60213474
_cell_angle_alpha   68.88554336
_cell_angle_beta   68.88554336
_cell_angle_gamma   54.99476324
_symmetry_Int_Tables_number   1
_chemical_formula_structural   CuNi2C11
_chemical_formula_sum   'Cu1 Ni2 C11'
_cell_volume   203.54787957
_cell_formula_units_Z   1
loop_
 _symmetry_equiv_pos_site_id
 _symmetry_equiv_pos_as_xyz
  1  'x, y, z'
loop_
 _atom_site_type_symbol
 _atom_site_label
 _atom_site_symmetry_multiplicity
 _atom_site_fract_x
 _atom_site_fract_y
 _atom_site_fract_z
 _atom_site_occupancy
  C  C0  1  0.00000000  0.00000000  0.50000000  1
  Ni  Ni1  1  0.39254900  0.39254900  0.28945900  1
  Ni  Ni2  1  0.60745100  0.60745100  0.71054100  1
  Cu  Cu3  1  0.00000000  0.00000000  0.00000000  1
  C  C4  1  0.81218200  0.81218200  0.07651600  1
  C  C5  1  0.18781800  0.18781800  0.92348400  1
  C  C6  1  0.74477100  0.23133500  0.19577100  1
  C  C7  1  0.25522900  0.76866500  0.80422900  1
  C  C8  1  0.76866500  0.25522900  0.80422900  1
  C  C9  1  0.23133500  0.74477100  0.19577100  1
  C  C10  1  0.64425500  0.64425500  0.48108000  1
  C  C11  1  0.35574500  0.35574500  0.51892000  1
  C  C12  1  0.25077700  0.25077700  0.25544300  1
  C  C13  1  0.74922300  0.74922300  0.74455700  1
