# generated using pymatgen
data_Cu2Ni3C32
_symmetry_space_group_name_H-M   'P 1'
_cell_length_a   8.73063355
_cell_length_b   8.76716836
_cell_length_c   8.76846383
_cell_angle_alpha   59.99355312
_cell_angle_beta   59.58343409
_cell_angle_gamma   59.90285798
_symmetry_Int_Tables_number   1
_chemical_formula_structural   Cu2Ni3C32
_chemical_formula_sum   'Cu2 Ni3 C32'
_cell_volume   472.70352150
_cell_formula_units_Z   1
loop_
 _symmetry_equiv_pos_site_id
 _symmetry_equiv_pos_as_xyz
  1  'x, y, z'
loop_
 _atom_site_type_symbol
 _atom_site_label
 _atom_site_symmetry_multiplicity
 _atom_site_fract_x
 _atom_site_fract_y
 _atom_site_fract_z
 _atom_site_occupancy
  C  C0  1  0.13281800  0.62160700  0.62413100  1
  Ni  Ni1  1  0.76781300  0.74467800  0.74335600  1
  Ni  Ni2  1  0.41290400  0.86203900  0.86305700  1
  Ni  Ni3  1  0.95355100  0.34933300  0.34827000  1
  Cu  Cu4  1  0.01672300  0.99756500  0.99201800  1
  Cu  Cu5  1  0.53056400  0.49050100  0.48900800  1
  C  C6  1  0.57227200  0.14221400  0.14280700  1
  C  C7  1  0.26015100  0.25034300  0.54339200  1
  C  C8  1  0.26045500  0.94550100  0.25103000  1
  C  C9  1  0.26157900  0.54247900  0.94639100  1
  C  C10  1  0.75783400  0.44676600  0.04879600  1
  C  C11  1  0.75897300  0.04915800  0.74598800  1
  C  C12  1  0.75901900  0.74658600  0.44560600  1
  C  C13  1  0.08677300  0.08657600  0.33093700  1
  C  C14  1  0.08655800  0.49581400  0.08644900  1
  C  C15  1  0.08717000  0.32981400  0.49609700  1
  C  C16  1  0.23356200  0.08686200  0.73872700  1
  C  C17  1  0.44361100  0.15933200  0.39464400  1
  C  C18  1  0.31180700  0.38866600  0.55286100  1
  C  C19  1  0.23630300  0.93989100  0.08710600  1
  C  C20  1  0.31123900  0.74643000  0.38963300  1
  C  C21  1  0.58735400  0.61111500  0.99135900  1
  C  C22  1  0.31428300  0.55113400  0.74644400  1
  C  C23  1  0.77378500  0.25221100  0.05643400  1
  C  C24  1  0.58755800  0.99175200  0.80988500  1
  C  C25  1  0.44363000  0.00212900  0.16070500  1
  C  C26  1  0.23640200  0.73631800  0.94111300  1
  C  C27  1  0.73474000  0.42404900  0.24191900  1
  C  C28  1  0.44247100  0.39317000  0.00456500  1
  C  C29  1  0.73796600  0.24126400  0.59803000  1
  C  C30  1  0.77381200  0.05806400  0.91695800  1
  C  C31  1  0.73655300  0.59896900  0.42307400  1
  C  C32  1  0.58745000  0.81063900  0.61088800  1
  C  C33  1  0.77516400  0.91769500  0.25045700  1
  C  C34  1  0.93362600  0.69659000  0.48734700  1
  C  C35  1  0.93332000  0.48906400  0.88175300  1
  C  C36  1  0.93364700  0.88180800  0.69689000  1
