# generated using pymatgen
data_Cu3NiC34
_symmetry_space_group_name_H-M   'P 1'
_cell_length_a   6.40735137
_cell_length_b   6.40735137
_cell_length_c   12.79611169
_cell_angle_alpha   82.86974020
_cell_angle_beta   82.86974020
_cell_angle_gamma   82.81195779
_symmetry_Int_Tables_number   1
_chemical_formula_structural   Cu3NiC34
_chemical_formula_sum   'Cu3 Ni1 C34'
_cell_volume   514.01805192
_cell_formula_units_Z   1
loop_
 _symmetry_equiv_pos_site_id
 _symmetry_equiv_pos_as_xyz
  1  'x, y, z'
loop_
 _atom_site_type_symbol
 _atom_site_label
 _atom_site_symmetry_multiplicity
 _atom_site_fract_x
 _atom_site_fract_y
 _atom_site_fract_z
 _atom_site_occupancy
  Ni  Ni0  1  0.34157400  0.34157400  0.67121600  1
  Cu  Cu1  1  0.34071700  0.34071700  0.17046400  1
  Cu  Cu2  1  0.65997000  0.65997000  0.82957000  1
  Cu  Cu3  1  0.65925800  0.65925800  0.32951200  1
  C  C4  1  0.70486600  0.29482200  0.00054900  1
  C  C5  1  0.70852300  0.29300700  0.49872500  1
  C  C6  1  0.29373800  0.99754100  0.85426600  1
  C  C7  1  0.29536200  0.99987400  0.35187100  1
  C  C8  1  0.99919600  0.70743100  0.64684700  1
  C  C9  1  0.00046500  0.70460100  0.14772700  1
  C  C10  1  0.70743100  0.99919600  0.64684700  1
  C  C11  1  0.70460100  0.00046500  0.14772700  1
  C  C12  1  0.99754100  0.29373800  0.85426600  1
  C  C13  1  0.99987400  0.29536200  0.35187100  1
  C  C14  1  0.29300700  0.70852300  0.49872500  1
  C  C15  1  0.29482200  0.70486600  0.00054900  1
  C  C16  1  0.99902700  0.99902700  0.75063100  1
  C  C17  1  0.99989500  0.99989500  0.24987800  1
  C  C18  1  0.99990400  0.50000100  0.00046800  1
  C  C19  1  0.99908800  0.50081500  0.49900400  1
  C  C20  1  0.50000100  0.99990400  0.00046800  1
  C  C21  1  0.50081500  0.99908800  0.49900400  1
  C  C22  1  0.09590600  0.09590600  0.54804700  1
  C  C23  1  0.09693300  0.09693300  0.04906400  1
  C  C24  1  0.90266800  0.90266800  0.95176600  1
  C  C25  1  0.90295800  0.90295800  0.45031200  1
  C  C26  1  0.15478200  0.65816900  0.82950500  1
  C  C27  1  0.15630400  0.65641900  0.32778300  1
  C  C28  1  0.65798100  0.65798100  0.57708100  1
  C  C29  1  0.65584100  0.65584100  0.07783200  1
  C  C30  1  0.65816900  0.15478200  0.82950500  1
  C  C31  1  0.65641900  0.15630400  0.32778300  1
  C  C32  1  0.84367400  0.34352900  0.67167600  1
  C  C33  1  0.84366800  0.34368600  0.17184900  1
  C  C34  1  0.34396700  0.34396700  0.92355900  1
  C  C35  1  0.34384200  0.34384200  0.42052500  1
  C  C36  1  0.34352900  0.84367400  0.67167600  1
  C  C37  1  0.34368600  0.84366800  0.17184900  1
