# generated using pymatgen
data_CuNiC8
_symmetry_space_group_name_H-M   'P 1'
_cell_length_a   5.82666615
_cell_length_b   5.97165600
_cell_length_c   8.33813227
_cell_angle_alpha   90.00000000
_cell_angle_beta   90.38387353
_cell_angle_gamma   90.00000000
_symmetry_Int_Tables_number   1
_chemical_formula_structural   CuNiC8
_chemical_formula_sum   'Cu2 Ni2 C16'
_cell_volume   290.11751566
_cell_formula_units_Z   2
loop_
 _symmetry_equiv_pos_site_id
 _symmetry_equiv_pos_as_xyz
  1  'x, y, z'
loop_
 _atom_site_type_symbol
 _atom_site_label
 _atom_site_symmetry_multiplicity
 _atom_site_fract_x
 _atom_site_fract_y
 _atom_site_fract_z
 _atom_site_occupancy
  C  C0  1  0.48838000  0.54212300  0.25187700  1
  C  C1  1  0.98838000  0.95787700  0.75187700  1
  Ni  Ni2  1  0.00098600  0.50522800  0.50020900  1
  Ni  Ni3  1  0.50098600  0.99477200  0.00020900  1
  Cu  Cu4  1  0.51650600  0.44793900  0.75060600  1
  Cu  Cu5  1  0.01650600  0.05206100  0.25060600  1
  C  C6  1  0.50021100  0.99978000  0.50008900  1
  C  C7  1  0.00021100  0.50022000  0.00008900  1
  C  C8  1  0.61415800  0.96904700  0.27112700  1
  C  C9  1  0.11415800  0.53095300  0.77112700  1
  C  C10  1  0.40841800  0.04222200  0.73126700  1
  C  C11  1  0.90841800  0.45777800  0.23126700  1
  C  C12  1  0.17362100  0.78325500  0.05892200  1
  C  C13  1  0.67362100  0.71674500  0.55892200  1
  C  C14  1  0.80664700  0.22915600  0.94264500  1
  C  C15  1  0.30664700  0.27084400  0.44264500  1
  C  C16  1  0.22024900  0.81719100  0.44375900  1
  C  C17  1  0.72024900  0.68280900  0.94375900  1
  C  C18  1  0.77082300  0.19861000  0.54949900  1
  C  C19  1  0.27082300  0.30139000  0.04949900  1
