# generated using pymatgen
data_CuNi2C
_symmetry_space_group_name_H-M   'P 1'
_cell_length_a   13.30713649
_cell_length_b   13.30713649
_cell_length_c   13.30713649
_cell_angle_alpha   122.36253587
_cell_angle_beta   118.18881523
_cell_angle_gamma   89.56149316
_symmetry_Int_Tables_number   1
_chemical_formula_structural   CuNi2C
_chemical_formula_sum   'Cu1 Ni2 C1'
_cell_volume   1656.47070682
_cell_formula_units_Z   1
loop_
 _symmetry_equiv_pos_site_id
 _symmetry_equiv_pos_as_xyz
  1  'x, y, z'
loop_
 _atom_site_type_symbol
 _atom_site_label
 _atom_site_symmetry_multiplicity
 _atom_site_fract_x
 _atom_site_fract_y
 _atom_site_fract_z
 _atom_site_occupancy
  C  C0  1  0.00000000  0.00000000  0.00000000  1
  Ni  Ni1  1  0.00000000  0.27581400  0.27581400  1
  Ni  Ni2  1  0.00000000  0.72418600  0.72418600  1
  Cu  Cu3  1  0.00000000  0.50000000  0.50000000  1
