# generated using pymatgen
data_Cu6Ni2C
_symmetry_space_group_name_H-M   'P 1'
_cell_length_a   6.63364558
_cell_length_b   6.63364558
_cell_length_c   5.87816700
_cell_angle_alpha   83.17696848
_cell_angle_beta   83.17696848
_cell_angle_gamma   83.22048728
_symmetry_Int_Tables_number   1
_chemical_formula_structural   Cu6Ni2C
_chemical_formula_sum   'Cu6 Ni2 C1'
_cell_volume   253.59821742
_cell_formula_units_Z   1
loop_
 _symmetry_equiv_pos_site_id
 _symmetry_equiv_pos_as_xyz
  1  'x, y, z'
loop_
 _atom_site_type_symbol
 _atom_site_label
 _atom_site_symmetry_multiplicity
 _atom_site_fract_x
 _atom_site_fract_y
 _atom_site_fract_z
 _atom_site_occupancy
  C  C0  1  0.00000000  0.00000000  0.00000000  1
  Ni  Ni1  1  0.83753900  0.83753900  0.30145300  1
  Ni  Ni2  1  0.16246100  0.16246100  0.69854700  1
  Cu  Cu3  1  0.65535500  0.65535500  0.85021500  1
  Cu  Cu4  1  0.34464500  0.34464500  0.14978500  1
  Cu  Cu5  1  0.48191300  0.73212300  0.78561200  1
  Cu  Cu6  1  0.73212300  0.48191300  0.78561200  1
  Cu  Cu7  1  0.51808700  0.26787700  0.21438800  1
  Cu  Cu8  1  0.26787700  0.51808700  0.21438800  1
