# generated using pymatgen
data_Cu8NiC5
_symmetry_space_group_name_H-M   'P 1'
_cell_length_a   6.86025000
_cell_length_b   9.06367200
_cell_length_c   12.46545200
_cell_angle_alpha   90.00000000
_cell_angle_beta   90.00000000
_cell_angle_gamma   90.00000000
_symmetry_Int_Tables_number   1
_chemical_formula_structural   Cu8NiC5
_chemical_formula_sum   'Cu16 Ni2 C10'
_cell_volume   775.09003595
_cell_formula_units_Z   2
loop_
 _symmetry_equiv_pos_site_id
 _symmetry_equiv_pos_as_xyz
  1  'x, y, z'
loop_
 _atom_site_type_symbol
 _atom_site_label
 _atom_site_symmetry_multiplicity
 _atom_site_fract_x
 _atom_site_fract_y
 _atom_site_fract_z
 _atom_site_occupancy
  C  C0  1  0.50000000  0.37245700  0.32752800  1
  C  C1  1  0.50000000  0.87245700  0.67247200  1
  C  C2  1  0.00000000  0.62894400  0.16690000  1
  C  C3  1  0.00000000  0.12894400  0.83310000  1
  C  C4  1  0.50000000  0.01944800  0.08051300  1
  C  C5  1  0.50000000  0.51944800  0.91948700  1
  C  C6  1  0.00000000  0.98103500  0.41811500  1
  C  C7  1  0.00000000  0.48103500  0.58188500  1
  Ni  Ni8  1  0.00000000  0.73126100  0.82456000  1
  Ni  Ni9  1  0.00000000  0.23126100  0.17544000  1
  C  C10  1  0.50000000  0.27014600  0.67416300  1
  C  C11  1  0.50000000  0.77014600  0.32583700  1
  Cu  Cu12  1  0.25442200  0.32411500  0.10598900  1
  Cu  Cu13  1  0.74557800  0.82411500  0.89401100  1
  Cu  Cu14  1  0.76581800  0.67095200  0.39387400  1
  Cu  Cu15  1  0.23418200  0.17095200  0.60612600  1
  Cu  Cu16  1  0.23418200  0.67095200  0.39387400  1
  Cu  Cu17  1  0.76581800  0.17095200  0.60612600  1
  Cu  Cu18  1  0.74557800  0.32411500  0.10598900  1
  Cu  Cu19  1  0.25442200  0.82411500  0.89401100  1
  Cu  Cu20  1  0.50000000  0.19026200  0.84427900  1
  Cu  Cu21  1  0.50000000  0.69026200  0.15572100  1
  Cu  Cu22  1  0.00000000  0.80602200  0.66174800  1
  Cu  Cu23  1  0.00000000  0.30602200  0.33825200  1
  Cu  Cu24  1  0.50000000  0.01295000  0.34771000  1
  Cu  Cu25  1  0.50000000  0.51295000  0.65229000  1
  Cu  Cu26  1  0.00000000  0.99733900  0.15452900  1
  Cu  Cu27  1  0.00000000  0.49733900  0.84547100  1
