# generated using pymatgen
data_Cu3(NiC4)2
_symmetry_space_group_name_H-M   'P 1'
_cell_length_a   6.55085645
_cell_length_b   6.55085645
_cell_length_c   12.47033634
_cell_angle_alpha   80.78803124
_cell_angle_beta   80.78803124
_cell_angle_gamma   48.47994727
_symmetry_Int_Tables_number   1
_chemical_formula_structural   Cu3(NiC4)2
_chemical_formula_sum   'Cu6 Ni4 C16'
_cell_volume   394.45491888
_cell_formula_units_Z   2
loop_
 _symmetry_equiv_pos_site_id
 _symmetry_equiv_pos_as_xyz
  1  'x, y, z'
loop_
 _atom_site_type_symbol
 _atom_site_label
 _atom_site_symmetry_multiplicity
 _atom_site_fract_x
 _atom_site_fract_y
 _atom_site_fract_z
 _atom_site_occupancy
  Ni  Ni0  1  0.46517800  0.00127600  0.15827200  1
  Ni  Ni1  1  0.99872400  0.53482200  0.34172800  1
  Ni  Ni2  1  0.53482200  0.99872400  0.84172800  1
  Ni  Ni3  1  0.00127600  0.46517800  0.65827200  1
  Cu  Cu4  1  0.12914700  0.87085300  0.75000000  1
  Cu  Cu5  1  0.87085300  0.12914700  0.25000000  1
  Cu  Cu6  1  0.34875500  0.92159200  0.44537100  1
  Cu  Cu7  1  0.07840800  0.65124500  0.05462900  1
  Cu  Cu8  1  0.65124500  0.07840800  0.55462900  1
  Cu  Cu9  1  0.92159200  0.34875500  0.94537100  1
  C  C10  1  0.23664100  0.31865200  0.95192900  1
  C  C11  1  0.68134800  0.76335900  0.54807100  1
  C  C12  1  0.76335900  0.68134800  0.04807100  1
  C  C13  1  0.31865200  0.23664100  0.45192900  1
  C  C14  1  0.78156100  0.59602700  0.81885100  1
  C  C15  1  0.40397300  0.21843900  0.68114900  1
  C  C16  1  0.21843900  0.40397300  0.18114900  1
  C  C17  1  0.59602700  0.78156100  0.31885100  1
  C  C18  1  0.21640400  0.02130300  0.85705700  1
  C  C19  1  0.97869700  0.78359600  0.64294300  1
  C  C20  1  0.17929600  0.99304400  0.14782300  1
  C  C21  1  0.00695600  0.82070400  0.35217700  1
  C  C22  1  0.82070400  0.00695600  0.85217700  1
  C  C23  1  0.99304400  0.17929600  0.64782300  1
  C  C24  1  0.02130300  0.21640400  0.35705700  1
  C  C25  1  0.78359600  0.97869700  0.14294300  1
