# generated using pymatgen
data_CuNiC4
_symmetry_space_group_name_H-M   'P 1'
_cell_length_a   3.25156261
_cell_length_b   3.25156261
_cell_length_c   36.90117900
_cell_angle_alpha   90.00000000
_cell_angle_beta   90.00000000
_cell_angle_gamma   120.00001244
_symmetry_Int_Tables_number   1
_chemical_formula_structural   CuNiC4
_chemical_formula_sum   'Cu2 Ni2 C8'
_cell_volume   337.87422430
_cell_formula_units_Z   2
loop_
 _symmetry_equiv_pos_site_id
 _symmetry_equiv_pos_as_xyz
  1  'x, y, z'
loop_
 _atom_site_type_symbol
 _atom_site_label
 _atom_site_symmetry_multiplicity
 _atom_site_fract_x
 _atom_site_fract_y
 _atom_site_fract_z
 _atom_site_occupancy
  Ni  Ni0  1  0.33333300  0.66666700  0.09394300  1
  Ni  Ni1  1  0.66666700  0.33333300  0.90605700  1
  Cu  Cu2  1  0.33333300  0.66666700  0.71819400  1
  Cu  Cu3  1  0.66666700  0.33333300  0.28180600  1
  C  C4  1  0.33333300  0.66666700  0.95212000  1
  C  C5  1  0.66666700  0.33333300  0.04788000  1
  C  C6  1  0.66666700  0.33333300  0.14001700  1
  C  C7  1  0.33333300  0.66666700  0.85998300  1
  C  C8  1  0.33333300  0.66666700  0.32386800  1
  C  C9  1  0.66666700  0.33333300  0.67613200  1
  C  C10  1  0.66666700  0.33333300  0.76025100  1
  C  C11  1  0.33333300  0.66666700  0.23974900  1
