# generated using pymatgen
data_Cu12Ni3C4
_symmetry_space_group_name_H-M   'P 1'
_cell_length_a   8.49520782
_cell_length_b   8.49520782
_cell_length_c   8.49520820
_cell_angle_alpha   107.65225726
_cell_angle_beta   107.65225726
_cell_angle_gamma   107.65225964
_symmetry_Int_Tables_number   1
_chemical_formula_structural   Cu12Ni3C4
_chemical_formula_sum   'Cu24 Ni6 C8'
_cell_volume   501.22243966
_cell_formula_units_Z   2
loop_
 _symmetry_equiv_pos_site_id
 _symmetry_equiv_pos_as_xyz
  1  'x, y, z'
loop_
 _atom_site_type_symbol
 _atom_site_label
 _atom_site_symmetry_multiplicity
 _atom_site_fract_x
 _atom_site_fract_y
 _atom_site_fract_z
 _atom_site_occupancy
  C  C0  1  0.61589600  0.14142500  0.76691500  1
  C  C1  1  0.76691500  0.61589600  0.14142500  1
  C  C2  1  0.14142500  0.76691500  0.61589600  1
  C  C3  1  0.38410400  0.85857500  0.23308500  1
  C  C4  1  0.23308500  0.38410400  0.85857500  1
  C  C5  1  0.85857500  0.23308500  0.38410400  1
  C  C6  1  0.00000000  0.00000000  0.00000000  1
  C  C7  1  0.50000000  0.50000000  0.50000000  1
  Ni  Ni8  1  0.90068600  0.55161400  0.76715800  1
  Ni  Ni9  1  0.76715800  0.90068600  0.55161400  1
  Ni  Ni10  1  0.55161400  0.76715800  0.90068600  1
  Ni  Ni11  1  0.09931400  0.44838600  0.23284200  1
  Ni  Ni12  1  0.23284200  0.09931400  0.44838600  1
  Ni  Ni13  1  0.44838600  0.23284200  0.09931400  1
  Cu  Cu14  1  0.75674800  0.52022400  0.58966400  1
  Cu  Cu15  1  0.58966400  0.75674800  0.52022400  1
  Cu  Cu16  1  0.52022400  0.58966400  0.75674800  1
  Cu  Cu17  1  0.24325200  0.47977600  0.41033600  1
  Cu  Cu18  1  0.41033600  0.24325200  0.47977600  1
  Cu  Cu19  1  0.47977600  0.41033600  0.24325200  1
  Cu  Cu20  1  0.81748200  0.45883300  0.86058200  1
  Cu  Cu21  1  0.86058200  0.81748200  0.45883300  1
  Cu  Cu22  1  0.45883300  0.86058200  0.81748200  1
  Cu  Cu23  1  0.18251800  0.54116700  0.13941800  1
  Cu  Cu24  1  0.13941800  0.18251800  0.54116700  1
  Cu  Cu25  1  0.54116700  0.13941800  0.18251800  1
  Cu  Cu26  1  0.03162100  0.49135200  0.71688300  1
  Cu  Cu27  1  0.71688300  0.03162100  0.49135200  1
  Cu  Cu28  1  0.49135200  0.71688300  0.03162100  1
  Cu  Cu29  1  0.96837900  0.50864800  0.28311700  1
  Cu  Cu30  1  0.28311700  0.96837900  0.50864800  1
  Cu  Cu31  1  0.50864800  0.28311700  0.96837900  1
  Cu  Cu32  1  0.00553000  0.75644100  0.88679700  1
  Cu  Cu33  1  0.88679700  0.00553000  0.75644100  1
  Cu  Cu34  1  0.75644100  0.88679700  0.00553000  1
  Cu  Cu35  1  0.99447000  0.24355900  0.11320300  1
  Cu  Cu36  1  0.11320300  0.99447000  0.24355900  1
  Cu  Cu37  1  0.24355900  0.11320300  0.99447000  1
