# generated using pymatgen
data_CuNiC8
_symmetry_space_group_name_H-M   'P 1'
_cell_length_a   5.91311140
_cell_length_b   6.06726769
_cell_length_c   8.48064679
_cell_angle_alpha   90.08694943
_cell_angle_beta   90.54410223
_cell_angle_gamma   89.94841030
_symmetry_Int_Tables_number   1
_chemical_formula_structural   CuNiC8
_chemical_formula_sum   'Cu2 Ni2 C16'
_cell_volume   304.24113989
_cell_formula_units_Z   2
loop_
 _symmetry_equiv_pos_site_id
 _symmetry_equiv_pos_as_xyz
  1  'x, y, z'
loop_
 _atom_site_type_symbol
 _atom_site_label
 _atom_site_symmetry_multiplicity
 _atom_site_fract_x
 _atom_site_fract_y
 _atom_site_fract_z
 _atom_site_occupancy
  Ni  Ni0  1  0.98780685  0.04698506  0.25147926  1
  Ni  Ni1  1  0.01219315  0.95301494  0.74852074  1
  C  C2  1  0.00000000  0.50000000  -0.00000000  1
  C  C3  1  0.50000000  0.00000000  0.50000000  1
  Cu  Cu4  1  0.51348758  0.54810168  0.24820853  1
  Cu  Cu5  1  0.48651242  0.45189832  0.75179147  1
  C  C6  1  0.50000000  0.00000000  -0.00000000  1
  C  C7  1  0.00000000  0.50000000  0.50000000  1
  C  C8  1  0.22454454  0.18566181  0.94938754  1
  C  C9  1  0.27614907  0.68426729  0.55455469  1
  C  C10  1  0.77545546  0.81433819  0.05061246  1
  C  C11  1  0.72385093  0.31573271  0.44544531  1
  C  C12  1  0.32324119  0.72006959  0.94478296  1
  C  C13  1  0.17919837  0.22275090  0.55421559  1
  C  C14  1  0.67675881  0.27993041  0.05521704  1
  C  C15  1  0.82080163  0.77724910  0.44578441  1
  C  C16  1  0.40408613  0.96190007  0.22834695  1
  C  C17  1  0.10415767  0.46760108  0.27178196  1
  C  C18  1  0.59591387  0.03809993  0.77165305  1
  C  C19  1  0.89584233  0.53239892  0.72821804  1
