# generated using pymatgen
data_Cu4(NiC2)3
_symmetry_space_group_name_H-M   'P 1'
_cell_length_a   16.95296300
_cell_length_b   16.95296300
_cell_length_c   5.03105200
_cell_angle_alpha   90.00000000
_cell_angle_beta   90.00000000
_cell_angle_gamma   90.00000000
_symmetry_Int_Tables_number   1
_chemical_formula_structural   Cu4(NiC2)3
_chemical_formula_sum   'Cu32 Ni24 C48'
_cell_volume   1445.93920894
_cell_formula_units_Z   8
loop_
 _symmetry_equiv_pos_site_id
 _symmetry_equiv_pos_as_xyz
  1  'x, y, z'
loop_
 _atom_site_type_symbol
 _atom_site_label
 _atom_site_symmetry_multiplicity
 _atom_site_fract_x
 _atom_site_fract_y
 _atom_site_fract_z
 _atom_site_occupancy
  Ni  Ni0  1  0.20995800  0.47249300  0.00000000  1
  Ni  Ni1  1  0.79004200  0.52750700  0.00000000  1
  Ni  Ni2  1  0.47249300  0.79004200  0.50000000  1
  Ni  Ni3  1  0.70995800  0.02750700  0.00000000  1
  Ni  Ni4  1  0.52750700  0.20995800  0.50000000  1
  Ni  Ni5  1  0.29004200  0.97249300  0.00000000  1
  Ni  Ni6  1  0.97249300  0.70995800  0.50000000  1
  Ni  Ni7  1  0.02750700  0.29004200  0.50000000  1
  Ni  Ni8  1  0.29823600  0.28321300  0.00000000  1
  Ni  Ni9  1  0.70176400  0.71678700  0.00000000  1
  Ni  Ni10  1  0.28321300  0.70176400  0.50000000  1
  Ni  Ni11  1  0.79823600  0.21678700  0.00000000  1
  Ni  Ni12  1  0.71678700  0.29823600  0.50000000  1
  Ni  Ni13  1  0.20176400  0.78321300  0.00000000  1
  Ni  Ni14  1  0.78321300  0.79823600  0.50000000  1
  Ni  Ni15  1  0.21678700  0.20176400  0.50000000  1
  Ni  Ni16  1  0.10143100  0.20332600  0.00000000  1
  Ni  Ni17  1  0.89856900  0.79667400  0.00000000  1
  Ni  Ni18  1  0.20332600  0.89856900  0.50000000  1
  Ni  Ni19  1  0.60143100  0.29667400  0.00000000  1
  Ni  Ni20  1  0.79667400  0.10143100  0.50000000  1
  Ni  Ni21  1  0.39856900  0.70332600  0.00000000  1
  Ni  Ni22  1  0.70332600  0.60143100  0.50000000  1
  Ni  Ni23  1  0.29667400  0.39856900  0.50000000  1
  Cu  Cu24  1  0.12490300  0.62490300  0.25000000  1
  Cu  Cu25  1  0.87509700  0.37509700  0.75000000  1
  Cu  Cu26  1  0.87509700  0.37509700  0.25000000  1
  Cu  Cu27  1  0.62490300  0.87509700  0.75000000  1
  Cu  Cu28  1  0.12490300  0.62490300  0.75000000  1
  Cu  Cu29  1  0.37509700  0.12490300  0.25000000  1
  Cu  Cu30  1  0.37509700  0.12490300  0.75000000  1
  Cu  Cu31  1  0.62490300  0.87509700  0.25000000  1
  Cu  Cu32  1  0.15496100  0.05178000  0.24995000  1
  Cu  Cu33  1  0.84503900  0.94822000  0.75005000  1
  Cu  Cu34  1  0.84503900  0.94822000  0.24995000  1
  Cu  Cu35  1  0.05178000  0.84503900  0.74995000  1
  Cu  Cu36  1  0.65496100  0.44822000  0.75005000  1
  Cu  Cu37  1  0.15496100  0.05178000  0.75005000  1
  Cu  Cu38  1  0.94822000  0.15496100  0.25005000  1
  Cu  Cu39  1  0.34503900  0.55178000  0.24995000  1
  Cu  Cu40  1  0.94822000  0.15496100  0.74995000  1
  Cu  Cu41  1  0.34503900  0.55178000  0.75005000  1
  Cu  Cu42  1  0.05178000  0.84503900  0.25005000  1
  Cu  Cu43  1  0.65496100  0.44822000  0.24995000  1
  Cu  Cu44  1  0.55178000  0.65496100  0.25005000  1
  Cu  Cu45  1  0.44822000  0.34503900  0.74995000  1
  Cu  Cu46  1  0.44822000  0.34503900  0.25005000  1
  Cu  Cu47  1  0.55178000  0.65496100  0.74995000  1
  Cu  Cu48  1  0.03971700  0.38502500  0.00000000  1
  Cu  Cu49  1  0.96028300  0.61497500  0.00000000  1
  Cu  Cu50  1  0.38502500  0.96028300  0.50000000  1
  Cu  Cu51  1  0.53971700  0.11497500  0.00000000  1
  Cu  Cu52  1  0.61497500  0.03971700  0.50000000  1
  Cu  Cu53  1  0.46028300  0.88502500  0.00000000  1
  Cu  Cu54  1  0.88502500  0.53971700  0.50000000  1
  Cu  Cu55  1  0.11497500  0.46028300  0.50000000  1
  C  C56  1  0.43536900  0.02165700  0.00000000  1
  C  C57  1  0.56463100  0.97834300  0.00000000  1
  C  C58  1  0.02165700  0.56463100  0.50000000  1
  C  C59  1  0.93536900  0.47834300  0.00000000  1
  C  C60  1  0.97834300  0.43536900  0.50000000  1
  C  C61  1  0.06463100  0.52165700  0.00000000  1
  C  C62  1  0.52165700  0.93536900  0.50000000  1
  C  C63  1  0.47834300  0.06463100  0.50000000  1
  C  C64  1  0.03078600  0.06214600  0.00000000  1
  C  C65  1  0.96921400  0.93785400  0.00000000  1
  C  C66  1  0.06214600  0.96921400  0.50000000  1
  C  C67  1  0.53078600  0.43785400  0.00000000  1
  C  C68  1  0.93785400  0.03078600  0.50000000  1
  C  C69  1  0.46921400  0.56214600  0.00000000  1
  C  C70  1  0.56214600  0.53078600  0.50000000  1
  C  C71  1  0.43785400  0.46921400  0.50000000  1
  C  C72  1  0.36284700  0.43086700  0.00000000  1
  C  C73  1  0.63715300  0.56913300  0.00000000  1
  C  C74  1  0.43086700  0.63715300  0.50000000  1
  C  C75  1  0.86284700  0.06913300  0.00000000  1
  C  C76  1  0.56913300  0.36284700  0.50000000  1
  C  C77  1  0.13715300  0.93086700  0.00000000  1
  C  C78  1  0.93086700  0.86284700  0.50000000  1
  C  C79  1  0.06913300  0.13715300  0.50000000  1
  C  C80  1  0.45163500  0.22423200  0.00000000  1
  C  C81  1  0.54836500  0.77576800  0.00000000  1
  C  C82  1  0.22423200  0.54836500  0.50000000  1
  C  C83  1  0.95163500  0.27576800  0.00000000  1
  C  C84  1  0.77576800  0.45163500  0.50000000  1
  C  C85  1  0.04836500  0.72423200  0.00000000  1
  C  C86  1  0.72423200  0.95163500  0.50000000  1
  C  C87  1  0.27576800  0.04836500  0.50000000  1
  C  C88  1  0.66055800  0.16055800  0.25000000  1
  C  C89  1  0.33944200  0.83944200  0.75000000  1
  C  C90  1  0.33944200  0.83944200  0.25000000  1
  C  C91  1  0.16055800  0.33944200  0.75000000  1
  C  C92  1  0.66055800  0.16055800  0.75000000  1
  C  C93  1  0.83944200  0.66055800  0.25000000  1
  C  C94  1  0.83944200  0.66055800  0.75000000  1
  C  C95  1  0.16055800  0.33944200  0.25000000  1
  C  C96  1  0.24893600  0.13049400  0.00000000  1
  C  C97  1  0.75106400  0.86950600  0.00000000  1
  C  C98  1  0.13049400  0.75106400  0.50000000  1
  C  C99  1  0.74893600  0.36950600  0.00000000  1
  C  C100  1  0.86950600  0.24893600  0.50000000  1
  C  C101  1  0.25106400  0.63049400  0.00000000  1
  C  C102  1  0.63049400  0.74893600  0.50000000  1
  C  C103  1  0.36950600  0.25106400  0.50000000  1
