# generated using pymatgen
data_CuNi5C3
_symmetry_space_group_name_H-M   'P 1'
_cell_length_a   7.06303400
_cell_length_b   9.56822800
_cell_length_c   13.72414000
_cell_angle_alpha   90.00000000
_cell_angle_beta   90.00000000
_cell_angle_gamma   90.00000000
_symmetry_Int_Tables_number   1
_chemical_formula_structural   CuNi5C3
_chemical_formula_sum   'Cu4 Ni20 C12'
_cell_volume   927.48725824
_cell_formula_units_Z   4
loop_
 _symmetry_equiv_pos_site_id
 _symmetry_equiv_pos_as_xyz
  1  'x, y, z'
loop_
 _atom_site_type_symbol
 _atom_site_label
 _atom_site_symmetry_multiplicity
 _atom_site_fract_x
 _atom_site_fract_y
 _atom_site_fract_z
 _atom_site_occupancy
  C  C0  1  0.81918300  0.99966600  0.13582500  1
  C  C1  1  0.68081700  0.50033400  0.63582500  1
  C  C2  1  0.18081700  0.49966600  0.86417500  1
  C  C3  1  0.31918300  0.00033400  0.36417500  1
  C  C4  1  0.18081700  0.00033400  0.86417500  1
  C  C5  1  0.31918300  0.49966600  0.36417500  1
  C  C6  1  0.81918300  0.50033400  0.13582500  1
  C  C7  1  0.68081700  0.99966600  0.63582500  1
  C  C8  1  0.80104700  0.75000000  0.38609300  1
  C  C9  1  0.69895300  0.75000000  0.88609300  1
  C  C10  1  0.19895300  0.25000000  0.61390700  1
  C  C11  1  0.30104700  0.25000000  0.11390700  1
  Ni  Ni12  1  0.52397300  0.75000000  0.49232100  1
  Ni  Ni13  1  0.97602700  0.75000000  0.99232100  1
  Ni  Ni14  1  0.47602700  0.25000000  0.50767900  1
  Ni  Ni15  1  0.02397300  0.25000000  0.00767900  1
  Ni  Ni16  1  0.59495700  0.75000000  0.25589800  1
  Ni  Ni17  1  0.90504300  0.75000000  0.75589800  1
  Ni  Ni18  1  0.40504300  0.25000000  0.74410200  1
  Ni  Ni19  1  0.09495700  0.25000000  0.24410200  1
  Ni  Ni20  1  0.05994300  0.75000000  0.26913000  1
  Ni  Ni21  1  0.44005700  0.75000000  0.76913000  1
  Ni  Ni22  1  0.94005700  0.25000000  0.73087000  1
  Ni  Ni23  1  0.55994300  0.25000000  0.23087000  1
  Ni  Ni24  1  0.82234400  0.99292700  0.39988500  1
  Ni  Ni25  1  0.67765600  0.50707300  0.89988500  1
  Ni  Ni26  1  0.17765600  0.49292700  0.60011500  1
  Ni  Ni27  1  0.32234400  0.00707300  0.10011500  1
  Ni  Ni28  1  0.17765600  0.00707300  0.60011500  1
  Ni  Ni29  1  0.32234400  0.49292700  0.10011500  1
  Ni  Ni30  1  0.82234400  0.50707300  0.39988500  1
  Ni  Ni31  1  0.67765600  0.99292700  0.89988500  1
  Cu  Cu32  1  0.95777400  0.75000000  0.48725600  1
  Cu  Cu33  1  0.54222600  0.75000000  0.98725600  1
  Cu  Cu34  1  0.04222600  0.25000000  0.51274400  1
  Cu  Cu35  1  0.45777400  0.25000000  0.01274400  1
