# generated using pymatgen
data_Cu18Ni2C17
_symmetry_space_group_name_H-M   'P 1'
_cell_length_a   17.60778000
_cell_length_b   17.60778000
_cell_length_c   2.99413700
_cell_angle_alpha   90.00000000
_cell_angle_beta   90.00000000
_cell_angle_gamma   90.00000000
_symmetry_Int_Tables_number   1
_chemical_formula_structural   Cu18Ni2C17
_chemical_formula_sum   'Cu36 Ni4 C34'
_cell_volume   928.28402073
_cell_formula_units_Z   2
loop_
 _symmetry_equiv_pos_site_id
 _symmetry_equiv_pos_as_xyz
  1  'x, y, z'
loop_
 _atom_site_type_symbol
 _atom_site_label
 _atom_site_symmetry_multiplicity
 _atom_site_fract_x
 _atom_site_fract_y
 _atom_site_fract_z
 _atom_site_occupancy
  C  C0  1  0.30413000  0.80413000  0.50000000  1
  C  C1  1  0.69587000  0.19587000  0.50000000  1
  C  C2  1  0.80413000  0.69587000  0.50000000  1
  C  C3  1  0.19587000  0.30413000  0.50000000  1
  C  C4  1  0.00000000  0.00000000  0.50000000  1
  C  C5  1  0.50000000  0.50000000  0.50000000  1
  C  C6  1  0.18646400  0.03462100  0.50000000  1
  C  C7  1  0.81353600  0.96537900  0.50000000  1
  C  C8  1  0.68646400  0.46537900  0.50000000  1
  C  C9  1  0.31353600  0.53462100  0.50000000  1
  C  C10  1  0.96537900  0.18646400  0.50000000  1
  C  C11  1  0.03462100  0.81353600  0.50000000  1
  C  C12  1  0.53462100  0.68646400  0.50000000  1
  C  C13  1  0.46537900  0.31353600  0.50000000  1
  C  C14  1  0.32934600  0.17065400  0.50000000  1
  C  C15  1  0.67065400  0.82934600  0.50000000  1
  C  C16  1  0.82934600  0.32934600  0.50000000  1
  C  C17  1  0.17065400  0.67065400  0.50000000  1
  Ni  Ni18  1  0.44922100  0.05077900  0.50000000  1
  Ni  Ni19  1  0.55077900  0.94922100  0.50000000  1
  Ni  Ni20  1  0.94922100  0.44922100  0.50000000  1
  Ni  Ni21  1  0.05077900  0.55077900  0.50000000  1
  C  C22  1  0.16960600  0.87855900  0.50000000  1
  C  C23  1  0.83039400  0.12144100  0.50000000  1
  C  C24  1  0.66960600  0.62144100  0.50000000  1
  C  C25  1  0.33039400  0.37855900  0.50000000  1
  C  C26  1  0.12144100  0.16960600  0.50000000  1
  C  C27  1  0.87855900  0.83039400  0.50000000  1
  C  C28  1  0.37855900  0.66960600  0.50000000  1
  C  C29  1  0.62144100  0.33039400  0.50000000  1
  C  C30  1  0.33636900  0.96182000  0.50000000  1
  C  C31  1  0.66363100  0.03818000  0.50000000  1
  C  C32  1  0.83636900  0.53818000  0.50000000  1
  C  C33  1  0.16363100  0.46182000  0.50000000  1
  C  C34  1  0.03818000  0.33636900  0.50000000  1
  C  C35  1  0.96182000  0.66363100  0.50000000  1
  C  C36  1  0.46182000  0.83636900  0.50000000  1
  C  C37  1  0.53818000  0.16363100  0.50000000  1
  Cu  Cu38  1  0.25411500  0.91913000  0.00000000  1
  Cu  Cu39  1  0.74588500  0.08087000  0.00000000  1
  Cu  Cu40  1  0.75411500  0.58087000  0.00000000  1
  Cu  Cu41  1  0.24588500  0.41913000  0.00000000  1
  Cu  Cu42  1  0.08087000  0.25411500  0.00000000  1
  Cu  Cu43  1  0.91913000  0.74588500  0.00000000  1
  Cu  Cu44  1  0.41913000  0.75411500  0.00000000  1
  Cu  Cu45  1  0.58087000  0.24588500  0.00000000  1
  Cu  Cu46  1  0.41755200  0.91755200  0.00000000  1
  Cu  Cu47  1  0.58244800  0.08244800  0.00000000  1
  Cu  Cu48  1  0.91755200  0.58244800  0.00000000  1
  Cu  Cu49  1  0.08244800  0.41755200  0.00000000  1
  Cu  Cu50  1  0.33021600  0.05051200  0.00000000  1
  Cu  Cu51  1  0.66978400  0.94948800  0.00000000  1
  Cu  Cu52  1  0.83021600  0.44948800  0.00000000  1
  Cu  Cu53  1  0.16978400  0.55051200  0.00000000  1
  Cu  Cu54  1  0.94948800  0.33021600  0.00000000  1
  Cu  Cu55  1  0.05051200  0.66978400  0.00000000  1
  Cu  Cu56  1  0.55051200  0.83021600  0.00000000  1
  Cu  Cu57  1  0.44948800  0.16978400  0.00000000  1
  Cu  Cu58  1  0.16832900  0.78854200  0.00000000  1
  Cu  Cu59  1  0.83167100  0.21145800  0.00000000  1
  Cu  Cu60  1  0.66832900  0.71145800  0.00000000  1
  Cu  Cu61  1  0.33167100  0.28854200  0.00000000  1
  Cu  Cu62  1  0.21145800  0.16832900  0.00000000  1
  Cu  Cu63  1  0.78854200  0.83167100  0.00000000  1
  Cu  Cu64  1  0.28854200  0.66832900  0.00000000  1
  Cu  Cu65  1  0.71145800  0.33167100  0.00000000  1
  Cu  Cu66  1  0.09750300  0.93002500  0.00000000  1
  Cu  Cu67  1  0.90249700  0.06997500  0.00000000  1
  Cu  Cu68  1  0.59750300  0.56997500  0.00000000  1
  Cu  Cu69  1  0.40249700  0.43002500  0.00000000  1
  Cu  Cu70  1  0.06997500  0.09750300  0.00000000  1
  Cu  Cu71  1  0.93002500  0.90249700  0.00000000  1
  Cu  Cu72  1  0.43002500  0.59750300  0.00000000  1
  Cu  Cu73  1  0.56997500  0.40249700  0.00000000  1
