# generated using pymatgen
data_CuNi2C11
_symmetry_space_group_name_H-M   'P 1'
_cell_length_a   3.85807443
_cell_length_b   3.85807443
_cell_length_c   11.44657800
_cell_angle_alpha   90.00000000
_cell_angle_beta   90.00000000
_cell_angle_gamma   90.17261804
_symmetry_Int_Tables_number   1
_chemical_formula_structural   CuNi2C11
_chemical_formula_sum   'Cu1 Ni2 C11'
_cell_volume   170.37854524
_cell_formula_units_Z   1
loop_
 _symmetry_equiv_pos_site_id
 _symmetry_equiv_pos_as_xyz
  1  'x, y, z'
loop_
 _atom_site_type_symbol
 _atom_site_label
 _atom_site_symmetry_multiplicity
 _atom_site_fract_x
 _atom_site_fract_y
 _atom_site_fract_z
 _atom_site_occupancy
  Ni  Ni0  1  0.50897700  0.49102300  0.67265500  1
  Ni  Ni1  1  0.50897700  0.49102300  0.32734500  1
  Cu  Cu2  1  0.49926900  0.50073100  0.00000000  1
  C  C3  1  0.03225900  0.96774100  0.50000000  1
  C  C4  1  0.00003400  0.99996600  0.84877100  1
  C  C5  1  0.00003400  0.99996600  0.15122900  1
  C  C6  1  0.99999600  0.50040500  0.87457800  1
  C  C7  1  0.49959500  0.00000400  0.87457800  1
  C  C8  1  0.99999600  0.50040500  0.12542200  1
  C  C9  1  0.49959500  0.00000400  0.12542200  1
  C  C10  1  0.99476200  0.00523800  0.66281500  1
  C  C11  1  0.99476200  0.00523800  0.33718500  1
  C  C12  1  0.02542900  0.48863500  0.50000000  1
  C  C13  1  0.51136500  0.97457100  0.50000000  1
