# generated using pymatgen
data_Cu4Ni2C25
_symmetry_space_group_name_H-M   'P 1'
_cell_length_a   2.93969500
_cell_length_b   9.06535400
_cell_length_c   25.33079300
_cell_angle_alpha   90.00000000
_cell_angle_beta   90.00000000
_cell_angle_gamma   90.00000000
_symmetry_Int_Tables_number   1
_chemical_formula_structural   Cu4Ni2C25
_chemical_formula_sum   'Cu8 Ni4 C50'
_cell_volume   675.04982265
_cell_formula_units_Z   2
loop_
 _symmetry_equiv_pos_site_id
 _symmetry_equiv_pos_as_xyz
  1  'x, y, z'
loop_
 _atom_site_type_symbol
 _atom_site_label
 _atom_site_symmetry_multiplicity
 _atom_site_fract_x
 _atom_site_fract_y
 _atom_site_fract_z
 _atom_site_occupancy
  C  C0  1  0.00000000  0.94592600  0.99108200  1
  C  C1  1  0.00000000  0.94477000  0.20342000  1
  C  C2  1  0.00000000  0.05523000  0.70342000  1
  C  C3  1  0.00000000  0.05407400  0.49108200  1
  C  C4  1  0.00000000  0.44263000  0.51246400  1
  C  C5  1  0.00000000  0.44863100  0.30376500  1
  C  C6  1  0.00000000  0.55136900  0.80376500  1
  C  C7  1  0.00000000  0.55737000  0.01246400  1
  C  C8  1  0.00000000  0.75639900  0.10035400  1
  C  C9  1  0.00000000  0.24360100  0.60035400  1
  C  C10  1  0.00000000  0.25105900  0.39909000  1
  C  C11  1  0.50000000  0.39908100  0.69160800  1
  C  C12  1  0.50000000  0.60091900  0.19160800  1
  C  C13  1  0.00000000  0.74894100  0.89909000  1
  Ni  Ni14  1  0.00000000  0.74797100  0.50015600  1
  Ni  Ni15  1  0.50000000  0.89669700  0.80772600  1
  Ni  Ni16  1  0.50000000  0.10330300  0.30772600  1
  Ni  Ni17  1  0.00000000  0.25202900  0.00015600  1
  Cu  Cu18  1  0.00000000  0.76919500  0.30597500  1
  Cu  Cu19  1  0.50000000  0.89105200  0.58866600  1
  Cu  Cu20  1  0.50000000  0.10894800  0.08866600  1
  Cu  Cu21  1  0.00000000  0.23080500  0.80597500  1
  Cu  Cu22  1  0.00000000  0.26215600  0.19521300  1
  Cu  Cu23  1  0.50000000  0.39240500  0.91130000  1
  Cu  Cu24  1  0.50000000  0.60759500  0.41130000  1
  Cu  Cu25  1  0.00000000  0.73784400  0.69521300  1
  C  C26  1  0.00000000  0.75041100  0.42425200  1
  C  C27  1  0.00000000  0.74699400  0.57609200  1
  C  C28  1  0.50000000  0.81450800  0.94162500  1
  C  C29  1  0.50000000  0.80149800  0.15627400  1
  C  C30  1  0.50000000  0.86283800  0.66639100  1
  C  C31  1  0.00000000  0.85015800  0.76068300  1
  C  C32  1  0.50000000  0.89085300  0.50397300  1
  C  C33  1  0.50000000  0.90349700  0.28124000  1
  C  C34  1  0.00000000  0.94063000  0.85458800  1
  C  C35  1  0.00000000  0.95457600  0.08002600  1
  C  C36  1  0.00000000  0.04542400  0.58002600  1
  C  C37  1  0.00000000  0.05937000  0.35458800  1
  C  C38  1  0.50000000  0.09650300  0.78124000  1
  C  C39  1  0.50000000  0.10914700  0.00397300  1
  C  C40  1  0.00000000  0.14984200  0.26068300  1
  C  C41  1  0.50000000  0.13716200  0.16639100  1
  C  C42  1  0.50000000  0.19850200  0.65627400  1
  C  C43  1  0.50000000  0.18549200  0.44162500  1
  C  C44  1  0.00000000  0.25300600  0.07609200  1
  C  C45  1  0.00000000  0.24958900  0.92425200  1
  C  C46  1  0.50000000  0.31004000  0.55682100  1
  C  C47  1  0.50000000  0.29720700  0.34126400  1
  C  C48  1  0.50000000  0.36051900  0.83377300  1
  C  C49  1  0.00000000  0.34095700  0.73960500  1
  C  C50  1  0.50000000  0.39587500  0.99581600  1
  C  C51  1  0.50000000  0.39925900  0.21737200  1
  C  C52  1  0.00000000  0.43820700  0.64328700  1
  C  C53  1  0.00000000  0.45108100  0.41609800  1
  C  C54  1  0.00000000  0.54891900  0.91609800  1
  C  C55  1  0.00000000  0.56179300  0.14328700  1
  C  C56  1  0.50000000  0.60074100  0.71737200  1
  C  C57  1  0.50000000  0.60412500  0.49581600  1
  C  C58  1  0.00000000  0.65904300  0.23960500  1
  C  C59  1  0.50000000  0.63948100  0.33377300  1
  C  C60  1  0.50000000  0.70279300  0.84126400  1
  C  C61  1  0.50000000  0.68996000  0.05682100  1
