# generated using pymatgen
data_Cu2NiC9
_symmetry_space_group_name_H-M   'P 1'
_cell_length_a   6.84040511
_cell_length_b   6.98874275
_cell_length_c   13.37981520
_cell_angle_alpha   80.17929260
_cell_angle_beta   103.72882912
_cell_angle_gamma   98.59412271
_symmetry_Int_Tables_number   1
_chemical_formula_structural   Cu2NiC9
_chemical_formula_sum   'Cu8 Ni4 C36'
_cell_volume   608.27431764
_cell_formula_units_Z   4
loop_
 _symmetry_equiv_pos_site_id
 _symmetry_equiv_pos_as_xyz
  1  'x, y, z'
loop_
 _atom_site_type_symbol
 _atom_site_label
 _atom_site_symmetry_multiplicity
 _atom_site_fract_x
 _atom_site_fract_y
 _atom_site_fract_z
 _atom_site_occupancy
  C  C0  1  0.50000000  0.50000000  0.50000000  1
  C  C1  1  0.00000000  0.50000000  0.50000000  1
  C  C2  1  0.50000000  0.00000000  0.00000000  1
  C  C3  1  0.99999900  0.00000000  0.00000000  1
  C  C4  1  0.24968400  0.98567600  0.33805800  1
  C  C5  1  0.24991400  0.48564700  0.83787100  1
  C  C6  1  0.75008800  0.51435200  0.16213000  1
  C  C7  1  0.75031500  0.01432100  0.66194300  1
  C  C8  1  0.72962300  0.01382800  0.25771300  1
  C  C9  1  0.72940000  0.51371500  0.75777900  1
  C  C10  1  0.77047400  0.12057900  0.36418800  1
  C  C11  1  0.77096500  0.62028500  0.86432500  1
  C  C12  1  0.27060000  0.48628500  0.24222100  1
  C  C13  1  0.27037800  0.98617300  0.74228600  1
  C  C14  1  0.22903500  0.37971600  0.13567400  1
  C  C15  1  0.22952600  0.87942200  0.63581200  1
  C  C16  1  0.62231400  0.90302800  0.35934500  1
  C  C17  1  0.62214900  0.40276000  0.85947300  1
  C  C18  1  0.87789700  0.91228400  0.36887200  1
  C  C19  1  0.87779100  0.41211600  0.86886300  1
  C  C20  1  0.37785000  0.59724000  0.14052700  1
  C  C21  1  0.37768700  0.09697400  0.64065400  1
  C  C22  1  0.12220900  0.58788500  0.13113600  1
  C  C23  1  0.12210300  0.08771800  0.63112700  1
  C  C24  1  0.24999400  0.84089600  0.38640200  1
  C  C25  1  0.25077700  0.34062600  0.88610700  1
  C  C26  1  0.74922500  0.65937200  0.11389300  1
  C  C27  1  0.75000000  0.15910300  0.61359900  1
  Ni  Ni28  1  0.75002000  0.98711000  0.33763000  1
  Ni  Ni29  1  0.75002700  0.48692900  0.83769200  1
  Ni  Ni30  1  0.24997300  0.51307100  0.16230800  1
  Ni  Ni31  1  0.24998000  0.01289200  0.66237000  1
  C  C32  1  0.31832000  0.04851900  0.13070300  1
  C  C33  1  0.31853000  0.55136100  0.63063800  1
  C  C34  1  0.18144900  0.32958600  0.40902100  1
  C  C35  1  0.18029300  0.82995800  0.90864700  1
  C  C36  1  0.68147100  0.44863900  0.36936200  1
  C  C37  1  0.68168100  0.95148100  0.86929700  1
  C  C38  1  0.81970700  0.17004000  0.09135400  1
  C  C39  1  0.81855000  0.67041400  0.59098000  1
  Cu  Cu40  1  0.41480900  0.76401800  0.40842300  1
  Cu  Cu41  1  0.41606000  0.26408900  0.90729200  1
  Cu  Cu42  1  0.08547600  0.76954400  0.41391400  1
  Cu  Cu43  1  0.08696000  0.26917800  0.91414300  1
  Cu  Cu44  1  0.58394200  0.73590900  0.09270700  1
  Cu  Cu45  1  0.58519000  0.23598400  0.59157800  1
  Cu  Cu46  1  0.91304300  0.73082300  0.08585800  1
  Cu  Cu47  1  0.91452200  0.23045500  0.58608600  1
