# generated using pymatgen
data_Cu2NiC12
_symmetry_space_group_name_H-M   'P 1'
_cell_length_a   7.49956500
_cell_length_b   7.08958500
_cell_length_c   7.15727973
_cell_angle_alpha   61.35433312
_cell_angle_beta   90.00000000
_cell_angle_gamma   90.00000000
_symmetry_Int_Tables_number   1
_chemical_formula_structural   Cu2NiC12
_chemical_formula_sum   'Cu4 Ni2 C24'
_cell_volume   333.96585598
_cell_formula_units_Z   2
loop_
 _symmetry_equiv_pos_site_id
 _symmetry_equiv_pos_as_xyz
  1  'x, y, z'
loop_
 _atom_site_type_symbol
 _atom_site_label
 _atom_site_symmetry_multiplicity
 _atom_site_fract_x
 _atom_site_fract_y
 _atom_site_fract_z
 _atom_site_occupancy
  Ni  Ni0  1  0.50000000  0.50000000  0.00000000  1
  Ni  Ni1  1  0.00000000  0.00000000  0.00000000  1
  Cu  Cu2  1  0.23228800  0.22732200  0.26764000  1
  Cu  Cu3  1  0.73228800  0.27267800  0.73236000  1
  Cu  Cu4  1  0.76771200  0.77267800  0.73236000  1
  Cu  Cu5  1  0.26771200  0.72732200  0.26764000  1
  C  C6  1  0.38565300  0.00884200  0.74842100  1
  C  C7  1  0.88565300  0.49115800  0.25157900  1
  C  C8  1  0.61434700  0.99115800  0.25157900  1
  C  C9  1  0.11434700  0.50884200  0.74842100  1
  C  C10  1  0.50918700  0.81758000  0.78315900  1
  C  C11  1  0.00918700  0.68242000  0.21684100  1
  C  C12  1  0.49081300  0.18242000  0.21684100  1
  C  C13  1  0.99081300  0.31758000  0.78315900  1
  C  C14  1  0.49638700  0.19572400  0.73399000  1
  C  C15  1  0.99638700  0.30427600  0.26601000  1
  C  C16  1  0.50361300  0.80427600  0.26601000  1
  C  C17  1  0.00361300  0.69572400  0.73399000  1
  C  C18  1  0.24353500  0.41930300  0.94653100  1
  C  C19  1  0.74353500  0.08069700  0.05346900  1
  C  C20  1  0.75646500  0.58069700  0.05346900  1
  C  C21  1  0.25646500  0.91930300  0.94653100  1
  C  C22  1  0.23488600  0.57776100  0.55510200  1
  C  C23  1  0.73488600  0.92223900  0.44489800  1
  C  C24  1  0.76511400  0.42223900  0.44489800  1
  C  C25  1  0.26511400  0.07776100  0.55510200  1
  C  C26  1  0.32780300  0.49295800  0.22914700  1
  C  C27  1  0.82780300  0.00704200  0.77085300  1
  C  C28  1  0.67219700  0.50704200  0.77085300  1
  C  C29  1  0.17219700  0.99295800  0.22914700  1
