# generated using pymatgen
data_Cu2NiC4
_symmetry_space_group_name_H-M   'P 1'
_cell_length_a   5.01970900
_cell_length_b   5.80455300
_cell_length_c   10.52677700
_cell_angle_alpha   90.00000000
_cell_angle_beta   90.00000000
_cell_angle_gamma   90.00000000
_symmetry_Int_Tables_number   1
_chemical_formula_structural   Cu2NiC4
_chemical_formula_sum   'Cu8 Ni4 C16'
_cell_volume   306.72045874
_cell_formula_units_Z   4
loop_
 _symmetry_equiv_pos_site_id
 _symmetry_equiv_pos_as_xyz
  1  'x, y, z'
loop_
 _atom_site_type_symbol
 _atom_site_label
 _atom_site_symmetry_multiplicity
 _atom_site_fract_x
 _atom_site_fract_y
 _atom_site_fract_z
 _atom_site_occupancy
  Ni  Ni0  1  0.33509500  0.00000000  0.50000000  1
  Ni  Ni1  1  0.66490500  0.50000000  0.00000000  1
  Ni  Ni2  1  0.02700300  0.00000000  0.00000000  1
  Ni  Ni3  1  0.97299700  0.50000000  0.50000000  1
  Cu  Cu4  1  0.03377200  0.50000000  0.23680200  1
  Cu  Cu5  1  0.03377200  0.50000000  0.76319800  1
  Cu  Cu6  1  0.96622800  0.00000000  0.26319800  1
  Cu  Cu7  1  0.96622800  0.00000000  0.73680200  1
  Cu  Cu8  1  0.50000000  0.25000000  0.25000000  1
  Cu  Cu9  1  0.50000000  0.75000000  0.75000000  1
  Cu  Cu10  1  0.50000000  0.75000000  0.25000000  1
  Cu  Cu11  1  0.50000000  0.25000000  0.75000000  1
  C  C12  1  0.36334900  0.50000000  0.13165200  1
  C  C13  1  0.36334900  0.50000000  0.86834800  1
  C  C14  1  0.63665100  0.00000000  0.36834800  1
  C  C15  1  0.63665100  0.00000000  0.63165200  1
  C  C16  1  0.68814700  0.50000000  0.34861200  1
  C  C17  1  0.68814700  0.50000000  0.65138800  1
  C  C18  1  0.31185300  0.00000000  0.15138800  1
  C  C19  1  0.31185300  0.00000000  0.84861200  1
  C  C20  1  0.16025400  0.25130700  0.36717000  1
  C  C21  1  0.16025400  0.74869300  0.63283000  1
  C  C22  1  0.83974600  0.75130700  0.13283000  1
  C  C23  1  0.83974600  0.24869300  0.86717000  1
  C  C24  1  0.83974600  0.24869300  0.13283000  1
  C  C25  1  0.83974600  0.75130700  0.86717000  1
  C  C26  1  0.16025400  0.74869300  0.36717000  1
  C  C27  1  0.16025400  0.25130700  0.63283000  1
