# generated using pymatgen
data_Cu11NiC36
_symmetry_space_group_name_H-M   'P 1'
_cell_length_a   3.86144700
_cell_length_b   7.50697000
_cell_length_c   25.99736700
_cell_angle_alpha   90.00000000
_cell_angle_beta   90.00000000
_cell_angle_gamma   90.00000000
_symmetry_Int_Tables_number   1
_chemical_formula_structural   Cu11NiC36
_chemical_formula_sum   'Cu11 Ni1 C36'
_cell_volume   753.60561164
_cell_formula_units_Z   1
loop_
 _symmetry_equiv_pos_site_id
 _symmetry_equiv_pos_as_xyz
  1  'x, y, z'
loop_
 _atom_site_type_symbol
 _atom_site_label
 _atom_site_symmetry_multiplicity
 _atom_site_fract_x
 _atom_site_fract_y
 _atom_site_fract_z
 _atom_site_occupancy
  Ni  Ni0  1  0.00000000  0.00000000  0.50000000  1
  Cu  Cu1  1  0.00000000  0.50000000  0.24898700  1
  Cu  Cu2  1  0.00000000  0.50000000  0.75101300  1
  Cu  Cu3  1  0.00000000  0.25055100  0.12408300  1
  Cu  Cu4  1  0.00000000  0.74944900  0.87591700  1
  Cu  Cu5  1  0.00000000  0.74944900  0.12408300  1
  Cu  Cu6  1  0.00000000  0.25055100  0.87591700  1
  Cu  Cu7  1  0.00000000  0.00000000  0.00000000  1
  Cu  Cu8  1  0.00000000  0.24988400  0.37426400  1
  Cu  Cu9  1  0.00000000  0.75011600  0.62573600  1
  Cu  Cu10  1  0.00000000  0.75011600  0.37426400  1
  Cu  Cu11  1  0.00000000  0.24988400  0.62573600  1
  C  C12  1  0.00000000  0.50000000  0.10549300  1
  C  C13  1  0.00000000  0.50000000  0.89450700  1
  C  C14  1  0.00000000  0.00000000  0.14161900  1
  C  C15  1  0.00000000  0.00000000  0.85838100  1
  C  C16  1  0.00000000  0.32076900  0.19570000  1
  C  C17  1  0.00000000  0.67923100  0.80430000  1
  C  C18  1  0.00000000  0.67923100  0.19570000  1
  C  C19  1  0.00000000  0.32076900  0.80430000  1
  C  C20  1  0.00000000  0.17707800  0.44584900  1
  C  C21  1  0.00000000  0.82292200  0.55415100  1
  C  C22  1  0.00000000  0.82292200  0.44584900  1
  C  C23  1  0.00000000  0.17707800  0.55415100  1
  C  C24  1  0.50000000  0.00000000  0.00000000  1
  C  C25  1  0.00000000  0.50000000  0.39306000  1
  C  C26  1  0.00000000  0.50000000  0.60694000  1
  C  C27  1  0.00000000  0.00000000  0.35592300  1
  C  C28  1  0.00000000  0.00000000  0.64407700  1
  C  C29  1  0.00000000  0.32058900  0.30253000  1
  C  C30  1  0.00000000  0.67941100  0.69747000  1
  C  C31  1  0.00000000  0.67941100  0.30253000  1
  C  C32  1  0.00000000  0.32058900  0.69747000  1
  C  C33  1  0.00000000  0.18067800  0.05280500  1
  C  C34  1  0.00000000  0.81932200  0.94719500  1
  C  C35  1  0.00000000  0.81932200  0.05280500  1
  C  C36  1  0.00000000  0.18067800  0.94719500  1
  C  C37  1  0.50000000  0.24901100  0.37359700  1
  C  C38  1  0.50000000  0.75098900  0.62640300  1
  C  C39  1  0.50000000  0.75098900  0.37359700  1
  C  C40  1  0.50000000  0.24901100  0.62640300  1
  C  C41  1  0.50000000  0.50000000  0.24844900  1
  C  C42  1  0.50000000  0.50000000  0.75155100  1
  C  C43  1  0.50000000  0.25127000  0.12430700  1
  C  C44  1  0.50000000  0.74873000  0.87569300  1
  C  C45  1  0.50000000  0.74873000  0.12430700  1
  C  C46  1  0.50000000  0.25127000  0.87569300  1
  C  C47  1  0.50000000  0.00000000  0.50000000  1
