# generated using pymatgen
data_Cu2Ni2C31
_symmetry_space_group_name_H-M   'P 1'
_cell_length_a   6.55904728
_cell_length_b   7.14333300
_cell_length_c   12.76969129
_cell_angle_alpha   106.24222744
_cell_angle_beta   97.68439224
_cell_angle_gamma   90.00000000
_symmetry_Int_Tables_number   1
_chemical_formula_structural   Cu2Ni2C31
_chemical_formula_sum   'Cu2 Ni2 C31'
_cell_volume   568.82608231
_cell_formula_units_Z   1
loop_
 _symmetry_equiv_pos_site_id
 _symmetry_equiv_pos_as_xyz
  1  'x, y, z'
loop_
 _atom_site_type_symbol
 _atom_site_label
 _atom_site_symmetry_multiplicity
 _atom_site_fract_x
 _atom_site_fract_y
 _atom_site_fract_z
 _atom_site_occupancy
  Ni  Ni0  1  0.27850300  0.13793100  0.26281600  1
  Ni  Ni1  1  0.72149700  0.87511400  0.73718400  1
  Cu  Cu2  1  0.96111900  0.25780500  0.51823200  1
  Cu  Cu3  1  0.03888100  0.73957300  0.48176800  1
  C  C4  1  0.00476300  0.43501500  0.86870900  1
  C  C5  1  0.99523700  0.56630600  0.13129100  1
  C  C6  1  0.22078400  0.08427200  0.73256300  1
  C  C7  1  0.77921600  0.35170900  0.26743700  1
  C  C8  1  0.57475200  0.35339300  0.70609800  1
  C  C9  1  0.42524800  0.64729500  0.29390200  1
  C  C10  1  0.22198500  0.65213100  0.73631400  1
  C  C11  1  0.77801500  0.91581600  0.26368600  1
  C  C12  1  0.00000000  0.50064600  0.00000000  1
  C  C13  1  0.77392000  0.37616300  0.80302200  1
  C  C14  1  0.22608000  0.57314200  0.19697800  1
  C  C15  1  0.27845000  0.88803000  0.77225000  1
  C  C16  1  0.72155000  0.11578000  0.22775000  1
  C  C17  1  0.05084000  0.03898700  0.62542300  1
  C  C18  1  0.94916000  0.41356300  0.37457700  1
  C  C19  1  0.44517100  0.16346300  0.71484700  1
  C  C20  1  0.55482900  0.44861500  0.28515300  1
  C  C21  1  0.14580900  0.24410900  0.83975600  1
  C  C22  1  0.85419100  0.40435300  0.16024400  1
  C  C23  1  0.65104300  0.32303300  0.58758600  1
  C  C24  1  0.34895700  0.73544700  0.41241400  1
  C  C25  1  0.08389500  0.57558700  0.61863600  1
  C  C26  1  0.91610500  0.95695100  0.38136400  1
  C  C27  1  0.44874200  0.55438800  0.74538800  1
  C  C28  1  0.55125800  0.80900000  0.25461200  1
  C  C29  1  0.09925500  0.61867700  0.83523000  1
  C  C30  1  0.90074500  0.78344700  0.16477000  1
  C  C31  1  0.42317700  0.92141200  0.02365200  1
  C  C32  1  0.57682300  0.89776000  0.97634800  1
  C  C33  1  0.35058700  0.23825300  0.48942200  1
  C  C34  1  0.64941300  0.74883200  0.51057800  1
