# generated using pymatgen
data_Cu19(Ni2C3)2
_symmetry_space_group_name_H-M   'P 1'
_cell_length_a   8.02995400
_cell_length_b   11.05879475
_cell_length_c   12.29071908
_cell_angle_alpha   77.86139780
_cell_angle_beta   76.53285887
_cell_angle_gamma   71.87223102
_symmetry_Int_Tables_number   1
_chemical_formula_structural   Cu19(Ni2C3)2
_chemical_formula_sum   'Cu38 Ni8 C12'
_cell_volume   997.46348002
_cell_formula_units_Z   2
loop_
 _symmetry_equiv_pos_site_id
 _symmetry_equiv_pos_as_xyz
  1  'x, y, z'
loop_
 _atom_site_type_symbol
 _atom_site_label
 _atom_site_symmetry_multiplicity
 _atom_site_fract_x
 _atom_site_fract_y
 _atom_site_fract_z
 _atom_site_occupancy
  C  C0  1  0.20805800  0.65870000  0.05531700  1
  C  C1  1  0.79194200  0.34130000  0.94468300  1
  C  C2  1  0.59310600  0.96828400  0.16126800  1
  C  C3  1  0.40689400  0.03171600  0.83873200  1
  C  C4  1  0.94092600  0.83059800  0.45593300  1
  C  C5  1  0.05907400  0.16940200  0.54406700  1
  C  C6  1  0.30639700  0.45459700  0.65215700  1
  C  C7  1  0.69360300  0.54540300  0.34784300  1
  C  C8  1  0.55711100  0.71279700  0.69628300  1
  C  C9  1  0.44288900  0.28720300  0.30371700  1
  C  C10  1  0.88979200  0.77570500  0.80875500  1
  C  C11  1  0.11020800  0.22429500  0.19124500  1
  Ni  Ni12  1  0.91128800  0.00236400  0.84620600  1
  Ni  Ni13  1  0.08871200  0.99763600  0.15379400  1
  Ni  Ni14  1  0.79826600  0.47773400  0.63722800  1
  Ni  Ni15  1  0.20173400  0.52226600  0.36277200  1
  Ni  Ni16  1  0.41336900  0.82203400  0.50916400  1
  Ni  Ni17  1  0.58663100  0.17796600  0.49083600  1
  Ni  Ni18  1  0.27922500  0.31919900  0.97744600  1
  Ni  Ni19  1  0.72077500  0.68080100  0.02255400  1
  Cu  Cu20  1  0.36234400  0.18846900  0.03490800  1
  Cu  Cu21  1  0.63765600  0.81153100  0.96509200  1
  Cu  Cu22  1  0.63451400  0.53035300  0.73432800  1
  Cu  Cu23  1  0.36548600  0.46964700  0.26567200  1
  Cu  Cu24  1  0.52431900  0.86605800  0.57417900  1
  Cu  Cu25  1  0.47568100  0.13394200  0.42582100  1
  Cu  Cu26  1  0.21959800  0.31462600  0.87513300  1
  Cu  Cu27  1  0.78040200  0.68537400  0.12486700  1
  Cu  Cu28  1  0.98781200  0.86403900  0.90233700  1
  Cu  Cu29  1  0.01218800  0.13596100  0.09766300  1
  Cu  Cu30  1  0.82157100  0.59990400  0.56598500  1
  Cu  Cu31  1  0.17842900  0.40009600  0.43401500  1
  Cu  Cu32  1  0.73864000  0.40013200  0.57967400  1
  Cu  Cu33  1  0.26136000  0.59986800  0.42032600  1
  Cu  Cu34  1  0.43015300  0.68721500  0.57966200  1
  Cu  Cu35  1  0.56984700  0.31278500  0.42033800  1
  Cu  Cu36  1  0.10425300  0.36458500  0.06971200  1
  Cu  Cu37  1  0.89574700  0.63541500  0.93028800  1
  Cu  Cu38  1  0.07265900  0.71203100  0.72790600  1
  Cu  Cu39  1  0.92734100  0.28796900  0.27209400  1
  Cu  Cu40  1  0.82505600  0.96746100  0.76000900  1
  Cu  Cu41  1  0.17494400  0.03253900  0.23999100  1
  Cu  Cu42  1  0.77508600  0.07796200  0.92522600  1
  Cu  Cu43  1  0.22491400  0.92203800  0.07477400  1
  Cu  Cu44  1  0.94680300  0.40401000  0.69476600  1
  Cu  Cu45  1  0.05319700  0.59599000  0.30523400  1
  Cu  Cu46  1  0.22916700  0.90035600  0.52369600  1
  Cu  Cu47  1  0.77083300  0.09964400  0.47630400  1
  Cu  Cu48  1  0.38258800  0.41081700  0.96278100  1
  Cu  Cu49  1  0.61741200  0.58918300  0.03721900  1
  Cu  Cu50  1  0.72334800  0.76618000  0.73569700  1
  Cu  Cu51  1  0.27665200  0.23382000  0.26430300  1
  Cu  Cu52  1  0.05063600  0.06343600  0.78692700  1
  Cu  Cu53  1  0.94936400  0.93656400  0.21307300  1
  Cu  Cu54  1  0.50217600  0.81405600  0.39256600  1
  Cu  Cu55  1  0.49782400  0.18594400  0.60743400  1
  Cu  Cu56  1  0.39096800  0.74428600  0.79926800  1
  Cu  Cu57  1  0.60903200  0.25571400  0.20073200  1
