# generated using pymatgen
data_CuNi4C3
_symmetry_space_group_name_H-M   'P 1'
_cell_length_a   9.25935941
_cell_length_b   9.25935941
_cell_length_c   5.82969226
_cell_angle_alpha   81.59192471
_cell_angle_beta   81.59192471
_cell_angle_gamma   36.45233191
_symmetry_Int_Tables_number   1
_chemical_formula_structural   CuNi4C3
_chemical_formula_sum   'Cu2 Ni8 C6'
_cell_volume   293.42571718
_cell_formula_units_Z   2
loop_
 _symmetry_equiv_pos_site_id
 _symmetry_equiv_pos_as_xyz
  1  'x, y, z'
loop_
 _atom_site_type_symbol
 _atom_site_label
 _atom_site_symmetry_multiplicity
 _atom_site_fract_x
 _atom_site_fract_y
 _atom_site_fract_z
 _atom_site_occupancy
  C  C0  1  0.36327000  0.94848300  0.72125800  1
  C  C1  1  0.70696100  0.29303900  0.75000000  1
  C  C2  1  0.94848300  0.36327000  0.22125800  1
  C  C3  1  0.29303900  0.70696100  0.25000000  1
  C  C4  1  0.05151700  0.63673000  0.77874200  1
  C  C5  1  0.63673000  0.05151700  0.27874200  1
  Ni  Ni6  1  0.50400400  0.63834100  0.89795300  1
  Ni  Ni7  1  0.15318900  0.04696300  0.44361400  1
  Ni  Ni8  1  0.95303700  0.84681100  0.05638600  1
  Ni  Ni9  1  0.63834100  0.50400400  0.39795300  1
  Ni  Ni10  1  0.36165900  0.49599600  0.60204700  1
  Ni  Ni11  1  0.04696300  0.15318900  0.94361400  1
  Ni  Ni12  1  0.84681100  0.95303700  0.55638600  1
  Ni  Ni13  1  0.49599600  0.36165900  0.10204700  1
  Cu  Cu14  1  0.00000000  0.50000000  0.50000000  1
  Cu  Cu15  1  0.50000000  0.00000000  0.00000000  1
