# generated using pymatgen
data_Cu3Ni2
_symmetry_space_group_name_H-M   'P 1'
_cell_length_a   29.20571904
_cell_length_b   10.26967092
_cell_length_c   14.88123711
_cell_angle_alpha   153.08848780
_cell_angle_beta   168.90022491
_cell_angle_gamma   24.67294437
_symmetry_Int_Tables_number   1
_chemical_formula_structural   Cu3Ni2
_chemical_formula_sum   'Cu3 Ni2'
_cell_volume   358.69644221
_cell_formula_units_Z   1
loop_
 _symmetry_equiv_pos_site_id
 _symmetry_equiv_pos_as_xyz
  1  'x, y, z'
loop_
 _atom_site_type_symbol
 _atom_site_label
 _atom_site_symmetry_multiplicity
 _atom_site_fract_x
 _atom_site_fract_y
 _atom_site_fract_z
 _atom_site_occupancy
  Ni  Ni0  1  0.24052200  0.52050400  0.00000000  1
  Ni  Ni1  1  0.75947800  0.47949600  0.00000000  1
  Cu  Cu2  1  0.00000000  0.00000000  0.00000000  1
  Cu  Cu3  1  0.40587200  0.32219900  0.00000000  1
  Cu  Cu4  1  0.59412800  0.67780100  0.00000000  1
