# generated using pymatgen
data_Cu3NiC16
_symmetry_space_group_name_H-M   'P 1'
_cell_length_a   8.28602548
_cell_length_b   8.28602548
_cell_length_c   8.23034000
_cell_angle_alpha   90.00000000
_cell_angle_beta   90.00000000
_cell_angle_gamma   90.82759809
_symmetry_Int_Tables_number   1
_chemical_formula_structural   Cu3NiC16
_chemical_formula_sum   'Cu6 Ni2 C32'
_cell_volume   565.02153189
_cell_formula_units_Z   2
loop_
 _symmetry_equiv_pos_site_id
 _symmetry_equiv_pos_as_xyz
  1  'x, y, z'
loop_
 _atom_site_type_symbol
 _atom_site_label
 _atom_site_symmetry_multiplicity
 _atom_site_fract_x
 _atom_site_fract_y
 _atom_site_fract_z
 _atom_site_occupancy
  Ni  Ni0  1  0.50216600  0.49783400  0.25000000  1
  Ni  Ni1  1  0.49783400  0.50216600  0.75000000  1
  C  C2  1  0.74961100  0.74961100  0.00000000  1
  C  C3  1  0.25038900  0.25038900  0.50000000  1
  Cu  Cu4  1  0.99381300  0.00618700  0.75000000  1
  Cu  Cu5  1  0.00618700  0.99381300  0.25000000  1
  Cu  Cu6  1  0.49835700  0.99597000  0.25525500  1
  Cu  Cu7  1  0.99597000  0.49835700  0.74474500  1
  Cu  Cu8  1  0.50164300  0.00403000  0.75525500  1
  Cu  Cu9  1  0.00403000  0.50164300  0.24474500  1
  C  C10  1  0.75334600  0.24608900  0.00030200  1
  C  C11  1  0.24608900  0.75334600  0.99969800  1
  C  C12  1  0.75391100  0.24665400  0.49969800  1
  C  C13  1  0.24665400  0.75391100  0.50030200  1
  C  C14  1  0.24747500  0.24747500  0.00000000  1
  C  C15  1  0.75252500  0.75252500  0.50000000  1
  C  C16  1  0.78736300  0.21263700  0.25000000  1
  C  C17  1  0.21263700  0.78736300  0.75000000  1
  C  C18  1  0.72365600  0.27634400  0.75000000  1
  C  C19  1  0.27634400  0.72365600  0.25000000  1
  C  C20  1  0.76235000  0.47555300  0.02755300  1
  C  C21  1  0.47555300  0.76235000  0.97244700  1
  C  C22  1  0.98257200  0.25216000  0.53290300  1
  C  C23  1  0.25216000  0.98257200  0.46709700  1
  C  C24  1  0.74784000  0.01742800  0.96709700  1
  C  C25  1  0.01742800  0.74784000  0.03290300  1
  C  C26  1  0.52444700  0.23765000  0.47244700  1
  C  C27  1  0.23765000  0.52444700  0.52755300  1
  C  C28  1  0.72120400  0.78399500  0.27190700  1
  C  C29  1  0.78399500  0.72120400  0.72809300  1
  C  C30  1  0.27879600  0.21600500  0.77190700  1
  C  C31  1  0.21600500  0.27879600  0.22809300  1
  C  C32  1  0.75640600  0.49906900  0.46788300  1
  C  C33  1  0.49906900  0.75640600  0.53211700  1
  C  C34  1  0.00079500  0.24414000  0.95849900  1
  C  C35  1  0.24414000  0.00079500  0.04150100  1
  C  C36  1  0.75586000  0.99920500  0.54150100  1
  C  C37  1  0.99920500  0.75586000  0.45849900  1
  C  C38  1  0.50093100  0.24359400  0.03211700  1
  C  C39  1  0.24359400  0.50093100  0.96788300  1
