# generated using pymatgen
data_CuNiC13
_symmetry_space_group_name_H-M   'P 1'
_cell_length_a   8.60145327
_cell_length_b   8.60145327
_cell_length_c   3.96358300
_cell_angle_alpha   90.00000000
_cell_angle_beta   90.00000000
_cell_angle_gamma   131.20793536
_symmetry_Int_Tables_number   1
_chemical_formula_structural   CuNiC13
_chemical_formula_sum   'Cu1 Ni1 C13'
_cell_volume   220.61566901
_cell_formula_units_Z   1
loop_
 _symmetry_equiv_pos_site_id
 _symmetry_equiv_pos_as_xyz
  1  'x, y, z'
loop_
 _atom_site_type_symbol
 _atom_site_label
 _atom_site_symmetry_multiplicity
 _atom_site_fract_x
 _atom_site_fract_y
 _atom_site_fract_z
 _atom_site_occupancy
  Ni  Ni0  1  0.28759000  0.71241000  0.50000000  1
  Cu  Cu1  1  0.63087700  0.36912300  0.50000000  1
  C  C2  1  0.99951800  0.00048200  0.00000000  1
  C  C3  1  0.91282900  0.08717100  0.71628600  1
  C  C4  1  0.91282900  0.08717100  0.28371400  1
  C  C5  1  0.87631300  0.73706300  0.00000000  1
  C  C6  1  0.26293700  0.12368700  0.00000000  1
  C  C7  1  0.44593300  0.55406700  0.84224600  1
  C  C8  1  0.44593300  0.55406700  0.15775400  1
  C  C9  1  0.28587600  0.17220300  0.50000000  1
  C  C10  1  0.82779700  0.71412400  0.50000000  1
  C  C11  1  0.92333300  0.44449900  0.83711800  1
  C  C12  1  0.55550100  0.07666700  0.16288200  1
  C  C13  1  0.92333300  0.44449900  0.16288200  1
  C  C14  1  0.55550100  0.07666700  0.83711800  1
