# generated using pymatgen
data_CuNi5C6
_symmetry_space_group_name_H-M   'P 1'
_cell_length_a   5.90725421
_cell_length_b   5.90725421
_cell_length_c   11.18312642
_cell_angle_alpha   94.85315876
_cell_angle_beta   94.85315876
_cell_angle_gamma   119.54981006
_symmetry_Int_Tables_number   1
_chemical_formula_structural   CuNi5C6
_chemical_formula_sum   'Cu2 Ni10 C12'
_cell_volume   334.65391014
_cell_formula_units_Z   2
loop_
 _symmetry_equiv_pos_site_id
 _symmetry_equiv_pos_as_xyz
  1  'x, y, z'
loop_
 _atom_site_type_symbol
 _atom_site_label
 _atom_site_symmetry_multiplicity
 _atom_site_fract_x
 _atom_site_fract_y
 _atom_site_fract_z
 _atom_site_occupancy
  Ni  Ni0  1  0.66973900  0.82908400  0.99856600  1
  Ni  Ni1  1  0.33026100  0.17091600  0.00143400  1
  Ni  Ni2  1  0.17091600  0.33026100  0.50143400  1
  Ni  Ni3  1  0.82908400  0.66973900  0.49856600  1
  Ni  Ni4  1  0.50000000  0.00000000  0.50000000  1
  Ni  Ni5  1  0.00000000  0.50000000  0.00000000  1
  Ni  Ni6  1  0.91521300  0.08478700  0.75000000  1
  Ni  Ni7  1  0.08478700  0.91521300  0.25000000  1
  Ni  Ni8  1  0.58149700  0.41850300  0.75000000  1
  Ni  Ni9  1  0.41850300  0.58149700  0.25000000  1
  Cu  Cu10  1  0.24783100  0.75216900  0.75000000  1
  Cu  Cu11  1  0.75216900  0.24783100  0.25000000  1
  C  C12  1  0.57773700  0.08213500  0.86000000  1
  C  C13  1  0.42226300  0.91786500  0.14000000  1
  C  C14  1  0.91786500  0.42226300  0.64000000  1
  C  C15  1  0.08213500  0.57773700  0.36000000  1
  C  C16  1  0.79062800  0.98733000  0.36671300  1
  C  C17  1  0.20937200  0.01267000  0.63328700  1
  C  C18  1  0.01267000  0.20937200  0.13328700  1
  C  C19  1  0.98733000  0.79062800  0.86671300  1
  C  C20  1  0.50711700  0.70993500  0.63364000  1
  C  C21  1  0.49288300  0.29006500  0.36636000  1
  C  C22  1  0.29006500  0.49288300  0.86636000  1
  C  C23  1  0.70993500  0.50711700  0.13364000  1
