# generated using pymatgen
data_CuNiC11
_symmetry_space_group_name_H-M   'P 1'
_cell_length_a   8.58651354
_cell_length_b   10.96371637
_cell_length_c   10.22915351
_cell_angle_alpha   57.59467252
_cell_angle_beta   66.52313046
_cell_angle_gamma   50.32540170
_symmetry_Int_Tables_number   1
_chemical_formula_structural   CuNiC11
_chemical_formula_sum   'Cu2 Ni2 C22'
_cell_volume   623.41725853
_cell_formula_units_Z   2
loop_
 _symmetry_equiv_pos_site_id
 _symmetry_equiv_pos_as_xyz
  1  'x, y, z'
loop_
 _atom_site_type_symbol
 _atom_site_label
 _atom_site_symmetry_multiplicity
 _atom_site_fract_x
 _atom_site_fract_y
 _atom_site_fract_z
 _atom_site_occupancy
  Ni  Ni0  1  0.41217600  0.42319900  0.52959300  1
  Ni  Ni1  1  0.91217600  0.13503200  0.02959300  1
  Cu  Cu2  1  0.77339200  0.75087800  0.77193900  1
  Cu  Cu3  1  0.27339200  0.20379100  0.27193900  1
  C  C4  1  0.35444300  0.64875800  0.35247900  1
  C  C5  1  0.69024000  0.63713100  0.43145600  1
  C  C6  1  0.51668800  0.32634100  0.38685700  1
  C  C7  1  0.85444300  0.14431900  0.85247900  1
  C  C8  1  0.01668800  0.27011500  0.88685700  1
  C  C9  1  0.19024000  0.74117400  0.93145600  1
  C  C10  1  0.62561300  0.27592700  0.63559100  1
  C  C11  1  0.23075000  0.37196300  0.62302000  1
  C  C12  1  0.61106500  0.68805600  0.52403000  1
  C  C13  1  0.12561300  0.96286900  0.13559100  1
  C  C14  1  0.11106500  0.67684800  0.02403000  1
  C  C15  1  0.73075000  0.27426700  0.12302000  1
  C  C16  1  0.78431900  0.88368700  0.50619400  1
  C  C17  1  0.28431900  0.32580100  0.00619400  1
  C  C18  1  0.19113600  0.11065500  0.53495100  1
  C  C19  1  0.69113600  0.66325800  0.03495100  1
  C  C20  1  0.23118500  0.20707400  0.78391300  1
  C  C21  1  0.26433600  0.61104200  0.65261000  1
  C  C22  1  0.73118500  0.27782800  0.28391300  1
  C  C23  1  0.76433600  0.97201200  0.15261000  1
  C  C24  1  0.16445800  0.76358900  0.25836500  1
  C  C25  1  0.66445800  0.31358800  0.75836500  1
