# generated using pymatgen
data_Cu4Ni4C17
_symmetry_space_group_name_H-M   'P 1'
_cell_length_a   5.07007700
_cell_length_b   8.70166985
_cell_length_c   8.66192484
_cell_angle_alpha   81.42399779
_cell_angle_beta   90.00000000
_cell_angle_gamma   90.00000000
_symmetry_Int_Tables_number   1
_chemical_formula_structural   Cu4Ni4C17
_chemical_formula_sum   'Cu4 Ni4 C17'
_cell_volume   377.87515437
_cell_formula_units_Z   1
loop_
 _symmetry_equiv_pos_site_id
 _symmetry_equiv_pos_as_xyz
  1  'x, y, z'
loop_
 _atom_site_type_symbol
 _atom_site_label
 _atom_site_symmetry_multiplicity
 _atom_site_fract_x
 _atom_site_fract_y
 _atom_site_fract_z
 _atom_site_occupancy
  C  C0  1  0.75000000  0.49883000  0.78062100  1
  Ni  Ni1  1  0.25000000  0.69477800  0.69853500  1
  Ni  Ni2  1  0.75000000  0.32205100  0.32271200  1
  Ni  Ni3  1  0.75000000  0.20486800  0.82538900  1
  Ni  Ni4  1  0.25000000  0.84263900  0.19785600  1
  Cu  Cu5  1  0.25000000  0.33732900  0.60825100  1
  Cu  Cu6  1  0.75000000  0.66360100  0.37883100  1
  Cu  Cu7  1  0.75000000  0.80387000  0.85712400  1
  Cu  Cu8  1  0.25000000  0.19685500  0.13875000  1
  C  C9  1  0.25000000  0.40126200  0.43694000  1
  C  C10  1  0.75000000  0.59322200  0.54984400  1
  C  C11  1  0.75000000  0.84719600  0.01772000  1
  C  C12  1  0.25000000  0.16728000  0.97335400  1
  C  C13  1  0.25000000  0.47803100  0.71666300  1
  C  C14  1  0.75000000  0.53928900  0.26391900  1
  C  C15  1  0.75000000  0.90759000  0.70455700  1
  C  C16  1  0.25000000  0.03762200  0.26081600  1
  C  C17  1  0.99980200  0.29218200  0.17299600  1
  C  C18  1  0.50980200  0.67132800  0.85227500  1
  C  C19  1  0.99738500  0.77086700  0.34657400  1
  C  C20  1  0.49792100  0.23913300  0.65507100  1
  C  C21  1  0.99019800  0.67132800  0.85227500  1
  C  C22  1  0.50019800  0.29218200  0.17299600  1
  C  C23  1  0.00207900  0.23913300  0.65507100  1
  C  C24  1  0.50261500  0.77086700  0.34657400  1
