# generated using pymatgen
data_Cu(Ni2C)3
_symmetry_space_group_name_H-M   'P 1'
_cell_length_a   7.43920465
_cell_length_b   7.43920465
_cell_length_c   7.43920465
_cell_angle_alpha   120.52175285
_cell_angle_beta   118.64881499
_cell_angle_gamma   90.72738020
_symmetry_Int_Tables_number   1
_chemical_formula_structural   Cu(Ni2C)3
_chemical_formula_sum   'Cu2 Ni12 C6'
_cell_volume   292.81792870
_cell_formula_units_Z   2
loop_
 _symmetry_equiv_pos_site_id
 _symmetry_equiv_pos_as_xyz
  1  'x, y, z'
loop_
 _atom_site_type_symbol
 _atom_site_label
 _atom_site_symmetry_multiplicity
 _atom_site_fract_x
 _atom_site_fract_y
 _atom_site_fract_z
 _atom_site_occupancy
  C  C0  1  0.50000000  0.50000000  0.00000000  1
  C  C1  1  0.00000000  0.50000000  0.50000000  1
  C  C2  1  0.00000000  0.00000000  0.00000000  1
  C  C3  1  0.50000000  0.00000000  0.50000000  1
  C  C4  1  0.50000000  0.00000000  0.00000000  1
  C  C5  1  0.50000000  0.50000000  0.50000000  1
  Ni  Ni6  1  0.19696200  0.94696200  0.25000000  1
  Ni  Ni7  1  0.57628200  0.32628200  0.25000000  1
  Ni  Ni8  1  0.18580700  0.91907900  0.86353300  1
  Ni  Ni9  1  0.55554700  0.32227400  0.63646700  1
  Ni  Ni10  1  0.55554700  0.91907900  0.23327300  1
  Ni  Ni11  1  0.18580700  0.32227400  0.26672700  1
  Ni  Ni12  1  0.80303800  0.05303800  0.75000000  1
  Ni  Ni13  1  0.42371800  0.67371800  0.75000000  1
  Ni  Ni14  1  0.81419300  0.08092100  0.13646700  1
  Ni  Ni15  1  0.44445300  0.67772600  0.36353300  1
  Ni  Ni16  1  0.44445300  0.08092100  0.76672700  1
  Ni  Ni17  1  0.81419300  0.67772600  0.73327300  1
  Cu  Cu18  1  0.86541500  0.61541500  0.25000000  1
  Cu  Cu19  1  0.13458500  0.38458500  0.75000000  1
