# generated using pymatgen
data_Cu5NiC17
_symmetry_space_group_name_H-M   'P 1'
_cell_length_a   8.39071200
_cell_length_b   8.39204100
_cell_length_c   12.46597777
_cell_angle_alpha   90.00000000
_cell_angle_beta   109.66648434
_cell_angle_gamma   90.00000000
_symmetry_Int_Tables_number   1
_chemical_formula_structural   Cu5NiC17
_chemical_formula_sum   'Cu10 Ni2 C34'
_cell_volume   826.59043237
_cell_formula_units_Z   2
loop_
 _symmetry_equiv_pos_site_id
 _symmetry_equiv_pos_as_xyz
  1  'x, y, z'
loop_
 _atom_site_type_symbol
 _atom_site_label
 _atom_site_symmetry_multiplicity
 _atom_site_fract_x
 _atom_site_fract_y
 _atom_site_fract_z
 _atom_site_occupancy
  C  C0  1  0.74547900  0.00000000  0.00000000  1
  C  C1  1  0.24547900  0.00000000  0.00000000  1
  C  C2  1  0.48329500  0.51156300  0.50000000  1
  C  C3  1  0.98329500  0.48843600  0.50000000  1
  Ni  Ni4  1  0.82467700  0.50000000  0.00000000  1
  Ni  Ni5  1  0.32467600  0.50000000  0.00000000  1
  Cu  Cu6  1  0.87308400  0.26548300  0.79079900  1
  Cu  Cu7  1  0.08228500  0.73451700  0.20920100  1
  Cu  Cu8  1  0.37308400  0.73451700  0.79079900  1
  Cu  Cu9  1  0.58228500  0.26548300  0.20920100  1
  Cu  Cu10  1  0.82806600  0.75261700  0.72841300  1
  Cu  Cu11  1  0.09965200  0.24738300  0.27158700  1
  Cu  Cu12  1  0.32806600  0.24738300  0.72841300  1
  Cu  Cu13  1  0.59965200  0.75261700  0.27158700  1
  Cu  Cu14  1  0.52261300  0.05342600  0.50000000  1
  Cu  Cu15  1  0.02261300  0.94657400  0.50000000  1
  C  C16  1  0.92406600  0.06446600  0.84536100  1
  C  C17  1  0.07870600  0.93553400  0.15463900  1
  C  C18  1  0.42406600  0.93553400  0.84536100  1
  C  C19  1  0.57870600  0.06446600  0.15463900  1
  C  C20  1  0.01754400  0.38142200  0.91604800  1
  C  C21  1  0.10149600  0.61857800  0.08395200  1
  C  C22  1  0.51754400  0.61857800  0.91604800  1
  C  C23  1  0.60149600  0.38142200  0.08395200  1
  C  C24  1  0.69300900  0.30489000  0.84189400  1
  C  C25  1  0.85111500  0.69511000  0.15810600  1
  C  C26  1  0.19300900  0.69511000  0.84189400  1
  C  C27  1  0.35111500  0.30489000  0.15810600  1
  C  C28  1  0.83079000  0.71147200  0.87422100  1
  C  C29  1  0.95656900  0.28852800  0.12577900  1
  C  C30  1  0.33079000  0.28852800  0.87422100  1
  C  C31  1  0.45656900  0.71147200  0.12577900  1
  C  C32  1  0.82371300  0.55341100  0.66820900  1
  C  C33  1  0.15550400  0.44658900  0.33179100  1
  C  C34  1  0.32371300  0.44658900  0.66820900  1
  C  C35  1  0.65550400  0.55341100  0.33179100  1
  C  C36  1  0.60218700  0.80067300  0.66518700  1
  C  C37  1  0.93700100  0.19932700  0.33481300  1
  C  C38  1  0.10218700  0.19932700  0.66518700  1
  C  C39  1  0.43700100  0.80067300  0.33481300  1
  C  C40  1  0.63788400  0.18801900  0.61622500  1
  C  C41  1  0.02165900  0.81198100  0.38377500  1
  C  C42  1  0.13788400  0.81198100  0.61622500  1
  C  C43  1  0.52165900  0.18801900  0.38377500  1
  C  C44  1  0.30741500  0.10202100  0.50000000  1
  C  C45  1  0.80741500  0.89797900  0.50000000  1
