# generated using pymatgen
data_CuNiC10
_symmetry_space_group_name_H-M   'P 1'
_cell_length_a   5.77999658
_cell_length_b   28.03221090
_cell_length_c   9.20517450
_cell_angle_alpha   90.00000000
_cell_angle_beta   90.00000000
_cell_angle_gamma   90.00000000
_symmetry_Int_Tables_number   1
_chemical_formula_structural   CuNiC10
_chemical_formula_sum   'Cu8 Ni8 C80'
_cell_volume   1491.47836878
_cell_formula_units_Z   8
loop_
 _symmetry_equiv_pos_site_id
 _symmetry_equiv_pos_as_xyz
  1  'x, y, z'
loop_
 _atom_site_type_symbol
 _atom_site_label
 _atom_site_symmetry_multiplicity
 _atom_site_fract_x
 _atom_site_fract_y
 _atom_site_fract_z
 _atom_site_occupancy
  Ni  Ni0  1  0.24473688  0.91876879  0.66038024  1
  Ni  Ni1  1  0.75526312  0.08123121  0.16038024  1
  Ni  Ni2  1  0.25526312  0.41876879  0.66038024  1
  Ni  Ni3  1  0.74473688  0.58123121  0.16038024  1
  Ni  Ni4  1  0.71348428  0.83225663  0.99893928  1
  Ni  Ni5  1  0.28651572  0.16774337  0.49893928  1
  Ni  Ni6  1  0.78651572  0.33225663  0.99893928  1
  Ni  Ni7  1  0.21348428  0.66774337  0.49893928  1
  Cu  Cu8  1  0.72473569  0.55290519  0.63197808  1
  Cu  Cu9  1  0.27526431  0.44709481  0.13197808  1
  Cu  Cu10  1  0.77526431  0.05290519  0.63197808  1
  Cu  Cu11  1  0.22473569  0.94709481  0.13197808  1
  Cu  Cu12  1  0.67749361  0.80118877  0.53640724  1
  Cu  Cu13  1  0.32250639  0.19881123  0.03640724  1
  Cu  Cu14  1  0.82250639  0.30118877  0.53640724  1
  Cu  Cu15  1  0.17749361  0.69881123  0.03640724  1
  C  C16  1  0.21008400  0.79301695  0.73591239  1
  C  C17  1  0.78991600  0.20698305  0.23591239  1
  C  C18  1  0.28991600  0.29301695  0.73591239  1
  C  C19  1  0.71008400  0.70698305  0.23591239  1
  C  C20  1  0.73478727  0.93323295  0.40278961  1
  C  C21  1  0.26521273  0.06676705  0.90278961  1
  C  C22  1  0.76521273  0.43323295  0.40278961  1
  C  C23  1  0.23478727  0.56676705  0.90278961  1
  C  C24  1  0.69035190  0.68264698  0.76995385  1
  C  C25  1  0.30964810  0.31735302  0.26995385  1
  C  C26  1  0.80964810  0.18264698  0.76995385  1
  C  C27  1  0.19035190  0.81735302  0.26995385  1
  C  C28  1  0.76373987  0.95557851  0.93002317  1
  C  C29  1  0.23626013  0.04442149  0.43002317  1
  C  C30  1  0.73626013  0.45557851  0.93002317  1
  C  C31  1  0.26373987  0.54442149  0.43002317  1
  C  C32  1  0.42453413  0.68232076  0.84144075  1
  C  C33  1  0.57546587  0.31767924  0.34144075  1
  C  C34  1  0.07546587  0.18232076  0.84144075  1
  C  C35  1  0.92453413  0.81767924  0.34144075  1
  C  C36  1  0.54472818  0.92310675  0.26987000  1
  C  C37  1  0.45527182  0.07689325  0.76987000  1
  C  C38  1  0.95527182  0.42310675  0.26987000  1
  C  C39  1  0.04472818  0.57689325  0.76987000  1
  C  C40  1  0.69049945  0.98843819  0.46500728  1
  C  C41  1  0.30950055  0.01156181  0.96500728  1
  C  C42  1  0.80950055  0.48843819  0.46500728  1
  C  C43  1  0.19049945  0.51156181  0.96500728  1
  C  C44  1  0.88277792  0.66844953  0.89793789  1
  C  C45  1  0.11722208  0.33155047  0.39793789  1
  C  C46  1  0.61722208  0.16844953  0.89793789  1
  C  C47  1  0.38277792  0.83155047  0.39793789  1
  C  C48  1  0.26887324  0.75518267  0.60216776  1
  C  C49  1  0.73112676  0.24481733  0.10216776  1
  C  C50  1  0.23112676  0.25518267  0.60216776  1
  C  C51  1  0.76887324  0.74481733  0.10216776  1
  C  C52  1  0.74781495  0.98271403  0.76967489  1
  C  C53  1  0.25218505  0.01728597  0.26967489  1
  C  C54  1  0.75218505  0.48271403  0.76967489  1
  C  C55  1  0.24781495  0.51728597  0.26967489  1
  C  C56  1  0.66984943  0.72964951  0.40155545  1
  C  C57  1  0.33015057  0.27035049  0.90155545  1
  C  C58  1  0.83015057  0.22964951  0.40155545  1
  C  C59  1  0.16984943  0.77035049  0.90155545  1
  C  C60  1  0.75391976  0.73682968  0.70597176  1
  C  C61  1  0.24608024  0.26317032  0.20597176  1
  C  C62  1  0.74608024  0.23682968  0.70597176  1
  C  C63  1  0.25391976  0.76317032  0.20597176  1
  C  C64  1  0.70296795  0.89365899  0.53723090  1
  C  C65  1  0.29703205  0.10634101  0.03723090  1
  C  C66  1  0.79703205  0.39365899  0.53723090  1
  C  C67  1  0.20296795  0.60634101  0.03723090  1
  C  C68  1  0.70369392  0.64245744  0.63626992  1
  C  C69  1  0.29630608  0.35754256  0.13626992  1
  C  C70  1  0.79630608  0.14245744  0.63626992  1
  C  C71  1  0.20369392  0.85754256  0.13626992  1
  C  C72  1  0.44392785  0.82919980  0.74057241  1
  C  C73  1  0.55607215  0.17080020  0.24057241  1
  C  C74  1  0.05607215  0.32919980  0.74057241  1
  C  C75  1  0.94392785  0.67080020  0.24057241  1
  C  C76  1  0.52002844  0.92380360  0.95285513  1
  C  C77  1  0.47997156  0.07619640  0.45285513  1
  C  C78  1  0.97997156  0.42380360  0.95285513  1
  C  C79  1  0.02002844  0.57619640  0.45285513  1
  C  C80  1  0.50456367  0.57207277  0.83790593  1
  C  C81  1  0.49543633  0.42792723  0.33790593  1
  C  C82  1  0.99543633  0.07207277  0.83790593  1
  C  C83  1  0.00456367  0.92792723  0.33790593  1
  C  C84  1  0.98813284  0.91698737  0.92819583  1
  C  C85  1  0.01186716  0.08301263  0.42819583  1
  C  C86  1  0.51186716  0.41698737  0.92819583  1
  C  C87  1  0.48813284  0.58301263  0.42819583  1
  C  C88  1  0.32877325  0.51021732  0.57316526  1
  C  C89  1  0.67122675  0.48978268  0.07316526  1
  C  C90  1  0.17122675  0.01021732  0.57316526  1
  C  C91  1  0.82877325  0.98978268  0.07316526  1
  C  C92  1  0.97981319  0.82706304  0.69509498  1
  C  C93  1  0.02018681  0.17293696  0.19509498  1
  C  C94  1  0.52018681  0.32706304  0.69509498  1
  C  C95  1  0.47981319  0.67293696  0.19509498  1
