# generated using pymatgen
data_CuNi14C17
_symmetry_space_group_name_H-M   'P 1'
_cell_length_a   4.24257100
_cell_length_b   8.50152400
_cell_length_c   8.54855600
_cell_angle_alpha   90.00000000
_cell_angle_beta   90.00000000
_cell_angle_gamma   90.00000000
_symmetry_Int_Tables_number   1
_chemical_formula_structural   CuNi14C17
_chemical_formula_sum   'Cu1 Ni14 C17'
_cell_volume   308.33204632
_cell_formula_units_Z   1
loop_
 _symmetry_equiv_pos_site_id
 _symmetry_equiv_pos_as_xyz
  1  'x, y, z'
loop_
 _atom_site_type_symbol
 _atom_site_label
 _atom_site_symmetry_multiplicity
 _atom_site_fract_x
 _atom_site_fract_y
 _atom_site_fract_z
 _atom_site_occupancy
  Ni  Ni0  1  0.00000000  0.50000000  0.00000000  1
  Ni  Ni1  1  0.00000000  0.50000000  0.50000000  1
  Ni  Ni2  1  0.50000000  0.00000000  0.25565400  1
  Ni  Ni3  1  0.50000000  0.00000000  0.74434600  1
  Ni  Ni4  1  0.50000000  0.50000000  0.25145000  1
  Ni  Ni5  1  0.50000000  0.50000000  0.74855000  1
  Ni  Ni6  1  0.50000000  0.24958000  0.00000000  1
  Ni  Ni7  1  0.50000000  0.24863900  0.50000000  1
  Ni  Ni8  1  0.50000000  0.75042000  0.00000000  1
  Ni  Ni9  1  0.50000000  0.75136100  0.50000000  1
  Ni  Ni10  1  0.00000000  0.24739300  0.25465500  1
  Ni  Ni11  1  0.00000000  0.24739300  0.74534500  1
  Ni  Ni12  1  0.00000000  0.75260700  0.25465500  1
  Ni  Ni13  1  0.00000000  0.75260700  0.74534500  1
  C  C14  1  0.00000000  0.00000000  0.00000000  1
  Cu  Cu15  1  0.00000000  0.00000000  0.50000000  1
  C  C16  1  0.00000000  0.23660600  0.00000000  1
  C  C17  1  0.00000000  0.26196600  0.50000000  1
  C  C18  1  0.00000000  0.76339400  0.00000000  1
  C  C19  1  0.00000000  0.73803400  0.50000000  1
  C  C20  1  0.50000000  0.24903200  0.24932700  1
  C  C21  1  0.50000000  0.24903200  0.75067300  1
  C  C22  1  0.50000000  0.75096800  0.24932700  1
  C  C23  1  0.50000000  0.75096800  0.75067300  1
  C  C24  1  0.50000000  0.00000000  0.00000000  1
  C  C25  1  0.50000000  0.00000000  0.50000000  1
  C  C26  1  0.50000000  0.50000000  0.00000000  1
  C  C27  1  0.50000000  0.50000000  0.50000000  1
  C  C28  1  0.00000000  0.00000000  0.21546900  1
  C  C29  1  0.00000000  0.00000000  0.78453100  1
  C  C30  1  0.00000000  0.50000000  0.24411000  1
  C  C31  1  0.00000000  0.50000000  0.75589000  1
