# generated using pymatgen
data_CuNiC6
_symmetry_space_group_name_H-M   'P 1'
_cell_length_a   5.47948200
_cell_length_b   6.51222300
_cell_length_c   13.12783100
_cell_angle_alpha   90.00000000
_cell_angle_beta   90.00000000
_cell_angle_gamma   90.00000000
_symmetry_Int_Tables_number   1
_chemical_formula_structural   CuNiC6
_chemical_formula_sum   'Cu2 Ni2 C12'
_cell_volume   468.44838460
_cell_formula_units_Z   2
loop_
 _symmetry_equiv_pos_site_id
 _symmetry_equiv_pos_as_xyz
  1  'x, y, z'
loop_
 _atom_site_type_symbol
 _atom_site_label
 _atom_site_symmetry_multiplicity
 _atom_site_fract_x
 _atom_site_fract_y
 _atom_site_fract_z
 _atom_site_occupancy
  Ni  Ni0  1  0.50000000  0.50000000  0.17897000  1
  Ni  Ni1  1  0.50000000  0.00000000  0.67897000  1
  Cu  Cu2  1  0.50000000  0.00000000  0.17155400  1
  Cu  Cu3  1  0.50000000  0.50000000  0.67155400  1
  C  C4  1  0.50000000  0.25013000  0.42356500  1
  C  C5  1  0.50000000  0.74987000  0.42356500  1
  C  C6  1  0.00000000  0.75833000  0.05772700  1
  C  C7  1  0.00000000  0.24167000  0.05772700  1
  C  C8  1  0.00000000  0.00000000  0.33525400  1
  C  C9  1  0.00000000  0.50000000  0.35163400  1
  C  C10  1  0.50000000  0.75013000  0.92356500  1
  C  C11  1  0.50000000  0.24987000  0.92356500  1
  C  C12  1  0.00000000  0.25833000  0.55772700  1
  C  C13  1  0.00000000  0.74167000  0.55772700  1
  C  C14  1  0.00000000  0.50000000  0.83525400  1
  C  C15  1  0.00000000  0.00000000  0.85163400  1
