# generated using pymatgen
data_CuNiC4
_symmetry_space_group_name_H-M   'P 1'
_cell_length_a   5.67428169
_cell_length_b   5.67428200
_cell_length_c   8.08534449
_cell_angle_alpha   69.45767529
_cell_angle_beta   69.45767568
_cell_angle_gamma   59.99999818
_symmetry_Int_Tables_number   1
_chemical_formula_structural   CuNiC4
_chemical_formula_sum   'Cu2 Ni2 C8'
_cell_volume   206.11470824
_cell_formula_units_Z   2
loop_
 _symmetry_equiv_pos_site_id
 _symmetry_equiv_pos_as_xyz
  1  'x, y, z'
loop_
 _atom_site_type_symbol
 _atom_site_label
 _atom_site_symmetry_multiplicity
 _atom_site_fract_x
 _atom_site_fract_y
 _atom_site_fract_z
 _atom_site_occupancy
  C  C0  1  0.78743800  0.78743800  0.63768500  1
  C  C1  1  0.21256100  0.21256100  0.36231600  1
  Ni  Ni2  1  0.88647100  0.88647100  0.34058800  1
  Ni  Ni3  1  0.11352900  0.11352900  0.65941200  1
  Cu  Cu4  1  0.63796800  0.63796800  0.08609500  1
  Cu  Cu5  1  0.36203200  0.36203200  0.91390500  1
  C  C6  1  0.37839200  0.94703800  0.72753300  1
  C  C7  1  0.94703800  0.37839200  0.72753300  1
  C  C8  1  0.94703800  0.94703800  0.72753300  1
  C  C9  1  0.62160800  0.05296200  0.27246700  1
  C  C10  1  0.05296200  0.62160800  0.27246700  1
  C  C11  1  0.05296200  0.05296200  0.27246700  1
