# generated using pymatgen
data_Cu(NiC)3
_symmetry_space_group_name_H-M   'P 1'
_cell_length_a   5.55761300
_cell_length_b   5.55761300
_cell_length_c   26.48225200
_cell_angle_alpha   90.00000000
_cell_angle_beta   90.00000000
_cell_angle_gamma   90.00000000
_symmetry_Int_Tables_number   1
_chemical_formula_structural   Cu(NiC)3
_chemical_formula_sum   'Cu8 Ni24 C24'
_cell_volume   817.95896625
_cell_formula_units_Z   8
loop_
 _symmetry_equiv_pos_site_id
 _symmetry_equiv_pos_as_xyz
  1  'x, y, z'
loop_
 _atom_site_type_symbol
 _atom_site_label
 _atom_site_symmetry_multiplicity
 _atom_site_fract_x
 _atom_site_fract_y
 _atom_site_fract_z
 _atom_site_occupancy
  C  C0  1  0.75000100  0.25000100  0.55218200  1
  C  C1  1  0.25000100  0.75000100  0.55218200  1
  C  C2  1  0.75000100  0.25000100  0.05218200  1
  C  C3  1  0.75000100  0.75000100  0.44781800  1
  C  C4  1  0.25000100  0.25000100  0.44781800  1
  C  C5  1  0.25000100  0.25000100  0.94781800  1
  C  C6  1  0.75000100  0.75000100  0.94781800  1
  C  C7  1  0.25000100  0.75000100  0.05218200  1
  C  C8  1  0.25000100  0.75000100  0.18807400  1
  C  C9  1  0.75000100  0.75000100  0.81192700  1
  C  C10  1  0.25000100  0.25000100  0.81192700  1
  C  C11  1  0.25000100  0.25000100  0.31192600  1
  C  C12  1  0.75000100  0.75000100  0.31192600  1
  C  C13  1  0.75000100  0.25000100  0.18807400  1
  C  C14  1  0.25000100  0.75000100  0.68807300  1
  C  C15  1  0.75000100  0.25000100  0.68807300  1
  C  C16  1  0.25000100  0.25000100  0.61396500  1
  C  C17  1  0.75000100  0.75000100  0.61396500  1
  C  C18  1  0.75000100  0.75000100  0.11396500  1
  C  C19  1  0.75000100  0.25000100  0.38603500  1
  C  C20  1  0.25000100  0.75000100  0.38603500  1
  C  C21  1  0.75000100  0.25000100  0.88603500  1
  C  C22  1  0.25000100  0.75000100  0.88603500  1
  C  C23  1  0.25000100  0.25000100  0.11396500  1
  Ni  Ni24  1  0.00000000  0.50000000  0.62690200  1
  Ni  Ni25  1  0.50000000  0.00000000  0.37309900  1
  Ni  Ni26  1  0.00000000  0.50000000  0.87309800  1
  Ni  Ni27  1  0.50000000  0.00000000  0.12690100  1
  Ni  Ni28  1  0.50000000  0.00000000  0.62690200  1
  Ni  Ni29  1  0.00000000  0.50000000  0.37309900  1
  Ni  Ni30  1  0.50000000  0.00000000  0.87309800  1
  Ni  Ni31  1  0.00000000  0.50000000  0.12690100  1
  Ni  Ni32  1  0.50000000  0.50000000  0.62690200  1
  Ni  Ni33  1  0.50000000  0.50000000  0.37309900  1
  Ni  Ni34  1  0.50000000  0.50000000  0.87309800  1
  Ni  Ni35  1  0.50000000  0.50000000  0.12690100  1
  Ni  Ni36  1  0.00000000  0.00000000  0.62690200  1
  Ni  Ni37  1  0.00000000  0.00000000  0.37309900  1
  Ni  Ni38  1  0.00000000  0.00000000  0.87309800  1
  Ni  Ni39  1  0.00000000  0.00000000  0.12690100  1
  Ni  Ni40  1  0.25000100  0.25000100  0.54107200  1
  Ni  Ni41  1  0.75000100  0.75000100  0.54107200  1
  Ni  Ni42  1  0.75000100  0.75000100  0.04107200  1
  Ni  Ni43  1  0.25000100  0.25000100  0.04107200  1
  Ni  Ni44  1  0.25000100  0.75000100  0.45892800  1
  Ni  Ni45  1  0.75000100  0.25000100  0.95892800  1
  Ni  Ni46  1  0.25000100  0.75000100  0.95892800  1
  Ni  Ni47  1  0.75000100  0.25000100  0.45892800  1
  Cu  Cu48  1  0.25000100  0.25000100  0.71732800  1
  Cu  Cu49  1  0.75000100  0.75000100  0.71732800  1
  Cu  Cu50  1  0.75000100  0.75000100  0.21732800  1
  Cu  Cu51  1  0.75000100  0.25000100  0.28267200  1
  Cu  Cu52  1  0.25000100  0.75000100  0.28267200  1
  Cu  Cu53  1  0.75000100  0.25000100  0.78267200  1
  Cu  Cu54  1  0.25000100  0.75000100  0.78267200  1
  Cu  Cu55  1  0.25000100  0.25000100  0.21732800  1
