# generated using pymatgen
data_Cu2NiC4
_symmetry_space_group_name_H-M   'P 1'
_cell_length_a   3.70956700
_cell_length_b   6.23703800
_cell_length_c   6.77837688
_cell_angle_alpha   89.66788198
_cell_angle_beta   90.00000000
_cell_angle_gamma   90.00000000
_symmetry_Int_Tables_number   1
_chemical_formula_structural   Cu2NiC4
_chemical_formula_sum   'Cu2 Ni1 C4'
_cell_volume   156.82670766
_cell_formula_units_Z   1
loop_
 _symmetry_equiv_pos_site_id
 _symmetry_equiv_pos_as_xyz
  1  'x, y, z'
loop_
 _atom_site_type_symbol
 _atom_site_label
 _atom_site_symmetry_multiplicity
 _atom_site_fract_x
 _atom_site_fract_y
 _atom_site_fract_z
 _atom_site_occupancy
  Ni  Ni0  1  0.00000000  0.36701700  0.34749000  1
  Cu  Cu1  1  0.50000000  0.90160300  0.14879800  1
  Cu  Cu2  1  0.50000000  0.35435600  0.83127300  1
  C  C3  1  0.00000000  0.98344700  0.34369700  1
  C  C4  1  0.00000000  0.50783100  0.67540700  1
  C  C5  1  0.50000000  0.51296300  0.15308700  1
  C  C6  1  0.50000000  0.99778300  0.83424900  1
