# generated using pymatgen
data_Cu2NiC4
_symmetry_space_group_name_H-M   'P 1'
_cell_length_a   2.92169600
_cell_length_b   9.05041400
_cell_length_c   10.37279700
_cell_angle_alpha   90.00000000
_cell_angle_beta   90.00000000
_cell_angle_gamma   90.00000000
_symmetry_Int_Tables_number   1
_chemical_formula_structural   Cu2NiC4
_chemical_formula_sum   'Cu8 Ni4 C16'
_cell_volume   274.28329026
_cell_formula_units_Z   4
loop_
 _symmetry_equiv_pos_site_id
 _symmetry_equiv_pos_as_xyz
  1  'x, y, z'
loop_
 _atom_site_type_symbol
 _atom_site_label
 _atom_site_symmetry_multiplicity
 _atom_site_fract_x
 _atom_site_fract_y
 _atom_site_fract_z
 _atom_site_occupancy
  Ni  Ni0  1  0.75000000  0.75339200  0.65360100  1
  Ni  Ni1  1  0.25000000  0.24660800  0.34639900  1
  Ni  Ni2  1  0.75000000  0.25339200  0.84639900  1
  Ni  Ni3  1  0.25000000  0.74660800  0.15360100  1
  Cu  Cu4  1  0.75000000  0.93654500  0.88004100  1
  Cu  Cu5  1  0.25000000  0.06345500  0.11995900  1
  Cu  Cu6  1  0.75000000  0.43654500  0.61995900  1
  Cu  Cu7  1  0.25000000  0.56345500  0.38004100  1
  Cu  Cu8  1  0.75000000  0.91448600  0.40093200  1
  Cu  Cu9  1  0.25000000  0.08551400  0.59906800  1
  Cu  Cu10  1  0.75000000  0.41448600  0.09906800  1
  Cu  Cu11  1  0.25000000  0.58551400  0.90093200  1
  C  C12  1  0.75000000  0.70941000  0.32609100  1
  C  C13  1  0.25000000  0.29059000  0.67390900  1
  C  C14  1  0.75000000  0.20941000  0.17390900  1
  C  C15  1  0.25000000  0.79059000  0.82609100  1
  C  C16  1  0.75000000  0.61723800  0.03363400  1
  C  C17  1  0.25000000  0.38276200  0.96636600  1
  C  C18  1  0.75000000  0.11723800  0.46636600  1
  C  C19  1  0.25000000  0.88276200  0.53363400  1
  C  C20  1  0.75000000  0.53688900  0.78888200  1
  C  C21  1  0.25000000  0.46311100  0.21111800  1
  C  C22  1  0.75000000  0.03688900  0.71111800  1
  C  C23  1  0.25000000  0.96311100  0.28888200  1
  C  C24  1  0.75000000  0.90626200  0.07255100  1
  C  C25  1  0.25000000  0.09373800  0.92744900  1
  C  C26  1  0.75000000  0.40626200  0.42744900  1
  C  C27  1  0.25000000  0.59373800  0.57255100  1
