# generated using pymatgen
data_Cu8Ni2C
_symmetry_space_group_name_H-M   'P 1'
_cell_length_a   9.06640400
_cell_length_b   9.52562200
_cell_length_c   13.66665500
_cell_angle_alpha   90.00000000
_cell_angle_beta   90.00000000
_cell_angle_gamma   90.00000000
_symmetry_Int_Tables_number   1
_chemical_formula_structural   Cu8Ni2C
_chemical_formula_sum   'Cu64 Ni16 C8'
_cell_volume   1180.29520361
_cell_formula_units_Z   8
loop_
 _symmetry_equiv_pos_site_id
 _symmetry_equiv_pos_as_xyz
  1  'x, y, z'
loop_
 _atom_site_type_symbol
 _atom_site_label
 _atom_site_symmetry_multiplicity
 _atom_site_fract_x
 _atom_site_fract_y
 _atom_site_fract_z
 _atom_site_occupancy
  C  C0  1  0.78078200  0.03546900  0.10398300  1
  C  C1  1  0.71921800  0.53546900  0.89601700  1
  C  C2  1  0.28078200  0.96453100  0.39601700  1
  C  C3  1  0.21921800  0.46453100  0.60398300  1
  C  C4  1  0.21921800  0.96453100  0.89601700  1
  C  C5  1  0.28078200  0.46453100  0.10398300  1
  C  C6  1  0.71921800  0.03546900  0.60398300  1
  C  C7  1  0.78078200  0.53546900  0.39601700  1
  Ni  Ni8  1  0.99644200  0.72288800  0.05729000  1
  Ni  Ni9  1  0.50355800  0.22288800  0.94271000  1
  Ni  Ni10  1  0.49644200  0.27711200  0.44271000  1
  Ni  Ni11  1  0.00355800  0.77711200  0.55729000  1
  Ni  Ni12  1  0.00355800  0.27711200  0.94271000  1
  Ni  Ni13  1  0.49644200  0.77711200  0.05729000  1
  Ni  Ni14  1  0.50355800  0.72288800  0.55729000  1
  Ni  Ni15  1  0.99644200  0.22288800  0.44271000  1
  Ni  Ni16  1  0.82029000  0.89569300  0.84449100  1
  Ni  Ni17  1  0.67971000  0.39569300  0.15550900  1
  Ni  Ni18  1  0.32028900  0.10430700  0.65550900  1
  Ni  Ni19  1  0.17971000  0.60430700  0.34449100  1
  Ni  Ni20  1  0.17971000  0.10430700  0.15550900  1
  Ni  Ni21  1  0.32028900  0.60430700  0.84449100  1
  Ni  Ni22  1  0.67971000  0.89569300  0.34449100  1
  Ni  Ni23  1  0.82029000  0.39569300  0.65550900  1
  Cu  Cu24  1  0.89363700  0.80507900  0.11934700  1
  Cu  Cu25  1  0.60636300  0.30507900  0.88065300  1
  Cu  Cu26  1  0.39363700  0.19492100  0.38065300  1
  Cu  Cu27  1  0.10636300  0.69492100  0.61934700  1
  Cu  Cu28  1  0.10636300  0.19492100  0.88065300  1
  Cu  Cu29  1  0.39363700  0.69492100  0.11934700  1
  Cu  Cu30  1  0.60636300  0.80507900  0.61934700  1
  Cu  Cu31  1  0.89363700  0.30507900  0.38065300  1
  Cu  Cu32  1  0.91645500  0.64273700  0.98115800  1
  Cu  Cu33  1  0.58354500  0.14273700  0.01884200  1
  Cu  Cu34  1  0.41645500  0.35726300  0.51884200  1
  Cu  Cu35  1  0.08354500  0.85726300  0.48115800  1
  Cu  Cu36  1  0.08354500  0.35726300  0.01884200  1
  Cu  Cu37  1  0.41645500  0.85726300  0.98115800  1
  Cu  Cu38  1  0.58354500  0.64273700  0.48115800  1
  Cu  Cu39  1  0.91645500  0.14273700  0.51884200  1
  Cu  Cu40  1  0.08134100  0.62270900  0.11885500  1
  Cu  Cu41  1  0.41865900  0.12270900  0.88114500  1
  Cu  Cu42  1  0.58134100  0.37729100  0.38114500  1
  Cu  Cu43  1  0.91865900  0.87729100  0.61885500  1
  Cu  Cu44  1  0.91865900  0.37729100  0.88114500  1
  Cu  Cu45  1  0.58134100  0.87729100  0.11885500  1
  Cu  Cu46  1  0.41865900  0.62270900  0.61885500  1
  Cu  Cu47  1  0.08134100  0.12270900  0.38114500  1
  Cu  Cu48  1  0.10059900  0.82280200  0.00956600  1
  Cu  Cu49  1  0.39940100  0.32280200  0.99043400  1
  Cu  Cu50  1  0.60059900  0.17719800  0.49043400  1
  Cu  Cu51  1  0.89940100  0.67719800  0.50956600  1
  Cu  Cu52  1  0.89940100  0.17719800  0.99043400  1
  Cu  Cu53  1  0.60059900  0.67719800  0.00956600  1
  Cu  Cu54  1  0.39940100  0.82280200  0.50956600  1
  Cu  Cu55  1  0.10059900  0.32280200  0.49043400  1
  Cu  Cu56  1  0.77116000  0.92703400  0.94528600  1
  Cu  Cu57  1  0.72884000  0.42703400  0.05471400  1
  Cu  Cu58  1  0.27116000  0.07296600  0.55471400  1
  Cu  Cu59  1  0.22884000  0.57296600  0.44528600  1
  Cu  Cu60  1  0.22884000  0.07296600  0.05471400  1
  Cu  Cu61  1  0.27116000  0.57296600  0.94528600  1
  Cu  Cu62  1  0.72884000  0.92703400  0.44528600  1
  Cu  Cu63  1  0.77116000  0.42703400  0.55471400  1
  Cu  Cu64  1  0.74634000  0.99040400  0.77344000  1
  Cu  Cu65  1  0.75366000  0.49040400  0.22656000  1
  Cu  Cu66  1  0.24634000  0.00959600  0.72656000  1
  Cu  Cu67  1  0.25366000  0.50959600  0.27344000  1
  Cu  Cu68  1  0.25366000  0.00959600  0.22656000  1
  Cu  Cu69  1  0.24634000  0.50959600  0.77344000  1
  Cu  Cu70  1  0.75366000  0.99040400  0.27344000  1
  Cu  Cu71  1  0.74634000  0.49040400  0.72656000  1
  Cu  Cu72  1  0.77905500  0.74784700  0.82025900  1
  Cu  Cu73  1  0.72094500  0.24784700  0.17974100  1
  Cu  Cu74  1  0.27905500  0.25215300  0.67974100  1
  Cu  Cu75  1  0.22094500  0.75215300  0.32025900  1
  Cu  Cu76  1  0.22094500  0.25215300  0.17974100  1
  Cu  Cu77  1  0.27905500  0.75215300  0.82025900  1
  Cu  Cu78  1  0.72094500  0.74784700  0.32025900  1
  Cu  Cu79  1  0.77905500  0.24784700  0.67974100  1
  Cu  Cu80  1  0.98247600  0.91452600  0.83580800  1
  Cu  Cu81  1  0.51752400  0.41452600  0.16419200  1
  Cu  Cu82  1  0.48247600  0.08547400  0.66419200  1
  Cu  Cu83  1  0.01752400  0.58547400  0.33580800  1
  Cu  Cu84  1  0.01752400  0.08547400  0.16419200  1
  Cu  Cu85  1  0.48247600  0.58547400  0.83580800  1
  Cu  Cu86  1  0.51752400  0.91452600  0.33580800  1
  Cu  Cu87  1  0.98247600  0.41452600  0.66419200  1
