# generated using pymatgen
data_CuNi5C3
_symmetry_space_group_name_H-M   'P 1'
_cell_length_a   10.35422262
_cell_length_b   10.35422262
_cell_length_c   6.91242700
_cell_angle_alpha   90.00000000
_cell_angle_beta   90.00000000
_cell_angle_gamma   120.00000394
_symmetry_Int_Tables_number   1
_chemical_formula_structural   CuNi5C3
_chemical_formula_sum   'Cu2 Ni10 C6'
_cell_volume   641.79476238
_cell_formula_units_Z   2
loop_
 _symmetry_equiv_pos_site_id
 _symmetry_equiv_pos_as_xyz
  1  'x, y, z'
loop_
 _atom_site_type_symbol
 _atom_site_label
 _atom_site_symmetry_multiplicity
 _atom_site_fract_x
 _atom_site_fract_y
 _atom_site_fract_z
 _atom_site_occupancy
  C  C0  1  0.98763400  0.62969400  0.75084900  1
  C  C1  1  0.64206000  0.01236600  0.75084900  1
  C  C2  1  0.37030600  0.35794000  0.75084900  1
  C  C3  1  0.01236600  0.37030600  0.25084900  1
  C  C4  1  0.35794000  0.98763400  0.25084900  1
  C  C5  1  0.62969400  0.64206000  0.25084900  1
  Ni  Ni6  1  0.33333300  0.66666700  0.94180700  1
  Ni  Ni7  1  0.66666700  0.33333300  0.44180700  1
  Ni  Ni8  1  0.66666700  0.33333300  0.05706800  1
  Ni  Ni9  1  0.33333300  0.66666700  0.55706800  1
  Ni  Ni10  1  0.00554900  0.23886300  0.76132400  1
  Ni  Ni11  1  0.23331400  0.99445100  0.76132400  1
  Ni  Ni12  1  0.76113700  0.76668600  0.76132400  1
  Ni  Ni13  1  0.99445100  0.76113700  0.26132400  1
  Ni  Ni14  1  0.76668600  0.00554900  0.26132400  1
  Ni  Ni15  1  0.23886300  0.23331400  0.26132400  1
  Cu  Cu16  1  0.00000000  0.00000000  0.85447200  1
  Cu  Cu17  1  0.00000000  0.00000000  0.35447200  1
