# generated using pymatgen
data_CuNi3C20
_symmetry_space_group_name_H-M   'P 1'
_cell_length_a   5.24011500
_cell_length_b   5.24011500
_cell_length_c   11.50623800
_cell_angle_alpha   90.00000000
_cell_angle_beta   90.00000000
_cell_angle_gamma   90.00000000
_symmetry_Int_Tables_number   1
_chemical_formula_structural   CuNi3C20
_chemical_formula_sum   'Cu1 Ni3 C20'
_cell_volume   315.94754798
_cell_formula_units_Z   1
loop_
 _symmetry_equiv_pos_site_id
 _symmetry_equiv_pos_as_xyz
  1  'x, y, z'
loop_
 _atom_site_type_symbol
 _atom_site_label
 _atom_site_symmetry_multiplicity
 _atom_site_fract_x
 _atom_site_fract_y
 _atom_site_fract_z
 _atom_site_occupancy
  C  C0  1  0.00000000  0.50000000  0.74985600  1
  C  C1  1  0.50000000  0.00000000  0.25014400  1
  C  C2  1  0.50000000  0.50000000  0.00000000  1
  C  C3  1  0.00000000  0.00000000  0.50000000  1
  Ni  Ni4  1  0.50000000  0.00000000  0.75005300  1
  Ni  Ni5  1  0.00000000  0.50000000  0.24994700  1
  Ni  Ni6  1  0.00000000  0.00000000  0.00000000  1
  Cu  Cu7  1  0.50000000  0.50000000  0.50000000  1
  C  C8  1  0.34158600  0.24467500  0.83489800  1
  C  C9  1  0.84017900  0.74388200  0.33495900  1
  C  C10  1  0.65841400  0.75532500  0.83489800  1
  C  C11  1  0.15982100  0.25611800  0.33495900  1
  C  C12  1  0.24501100  0.15849100  0.08476400  1
  C  C13  1  0.74761100  0.66016900  0.58566200  1
  C  C14  1  0.75498900  0.84150900  0.08476400  1
  C  C15  1  0.25238900  0.33983100  0.58566200  1
  C  C16  1  0.15849100  0.75498900  0.91523600  1
  C  C17  1  0.66016900  0.25238900  0.41433800  1
  C  C18  1  0.84150900  0.24501100  0.91523600  1
  C  C19  1  0.33983100  0.74761100  0.41433800  1
  C  C20  1  0.25611800  0.84017900  0.66504100  1
  C  C21  1  0.75532500  0.34158600  0.16510200  1
  C  C22  1  0.74388200  0.15982100  0.66504100  1
  C  C23  1  0.24467500  0.65841400  0.16510200  1
