# generated using pymatgen
data_Cu2NiC
_symmetry_space_group_name_H-M   'P 1'
_cell_length_a   11.50765600
_cell_length_b   4.23813200
_cell_length_c   8.86849900
_cell_angle_alpha   75.76905796
_cell_angle_beta   90.00000000
_cell_angle_gamma   90.00000000
_symmetry_Int_Tables_number   1
_chemical_formula_structural   Cu2NiC
_chemical_formula_sum   'Cu8 Ni4 C4'
_cell_volume   419.25223740
_cell_formula_units_Z   4
loop_
 _symmetry_equiv_pos_site_id
 _symmetry_equiv_pos_as_xyz
  1  'x, y, z'
loop_
 _atom_site_type_symbol
 _atom_site_label
 _atom_site_symmetry_multiplicity
 _atom_site_fract_x
 _atom_site_fract_y
 _atom_site_fract_z
 _atom_site_occupancy
  Ni  Ni0  1  0.71040300  0.41965400  0.27175600  1
  Ni  Ni1  1  0.78959700  0.41965400  0.77175600  1
  Ni  Ni2  1  0.28959700  0.58034600  0.72824400  1
  Ni  Ni3  1  0.21040300  0.58034600  0.22824400  1
  Cu  Cu4  1  0.53516500  0.90835000  0.51776900  1
  Cu  Cu5  1  0.96483500  0.90835000  0.01776900  1
  Cu  Cu6  1  0.46483500  0.09165000  0.48223100  1
  Cu  Cu7  1  0.03516500  0.09165000  0.98223100  1
  Cu  Cu8  1  0.78602800  0.25322100  0.35300900  1
  Cu  Cu9  1  0.71397200  0.25322100  0.85300900  1
  Cu  Cu10  1  0.21397200  0.74677900  0.64699100  1
  Cu  Cu11  1  0.28602800  0.74677900  0.14699100  1
  C  C12  1  0.63583200  0.58095900  0.19680500  1
  C  C13  1  0.86416800  0.58095900  0.69680500  1
  C  C14  1  0.36416800  0.41904100  0.80319500  1
  C  C15  1  0.13583200  0.41904100  0.30319500  1
