# generated using pymatgen
data_Cu30Ni7C4
_symmetry_space_group_name_H-M   'P 1'
_cell_length_a   12.80932800
_cell_length_b   12.80932800
_cell_length_c   7.12230700
_cell_angle_alpha   90.00000000
_cell_angle_beta   90.00000000
_cell_angle_gamma   90.00000000
_symmetry_Int_Tables_number   1
_chemical_formula_structural   Cu30Ni7C4
_chemical_formula_sum   'Cu60 Ni14 C8'
_cell_volume   1168.62018272
_cell_formula_units_Z   2
loop_
 _symmetry_equiv_pos_site_id
 _symmetry_equiv_pos_as_xyz
  1  'x, y, z'
loop_
 _atom_site_type_symbol
 _atom_site_label
 _atom_site_symmetry_multiplicity
 _atom_site_fract_x
 _atom_site_fract_y
 _atom_site_fract_z
 _atom_site_occupancy
  C  C0  1  0.19863500  0.30136500  0.40792800  1
  C  C1  1  0.30136500  0.80136500  0.59207200  1
  C  C2  1  0.80136500  0.69863500  0.40792800  1
  C  C3  1  0.69863500  0.19863500  0.59207200  1
  C  C4  1  0.36086600  0.13913400  0.01966200  1
  C  C5  1  0.13913400  0.63913400  0.98033800  1
  C  C6  1  0.63913400  0.86086600  0.01966200  1
  C  C7  1  0.86086600  0.36086600  0.98033800  1
  Ni  Ni8  1  0.50000000  0.00000000  0.65322300  1
  Ni  Ni9  1  0.00000000  0.50000000  0.34677700  1
  Ni  Ni10  1  0.62381000  0.12381000  0.10654200  1
  Ni  Ni11  1  0.87619000  0.62381000  0.89345800  1
  Ni  Ni12  1  0.37619000  0.87619000  0.10654200  1
  Ni  Ni13  1  0.12381000  0.37619000  0.89345800  1
  Ni  Ni14  1  0.43572900  0.32289000  0.69864900  1
  Ni  Ni15  1  0.06427100  0.82289000  0.30135100  1
  Ni  Ni16  1  0.56427100  0.67711000  0.69864900  1
  Ni  Ni17  1  0.93572900  0.17711000  0.30135100  1
  Ni  Ni18  1  0.32289000  0.56427100  0.30135100  1
  Ni  Ni19  1  0.17711000  0.06427100  0.69864900  1
  Ni  Ni20  1  0.67711000  0.43572900  0.30135100  1
  Ni  Ni21  1  0.82289000  0.93572900  0.69864900  1
  Cu  Cu22  1  0.29700900  0.20299100  0.20946200  1
  Cu  Cu23  1  0.20299100  0.70299100  0.79053800  1
  Cu  Cu24  1  0.70299100  0.79700900  0.20946200  1
  Cu  Cu25  1  0.79700900  0.29700900  0.79053800  1
  Cu  Cu26  1  0.43218600  0.93218600  0.53906600  1
  Cu  Cu27  1  0.06781400  0.43218600  0.46093400  1
  Cu  Cu28  1  0.56781400  0.06781400  0.53906600  1
  Cu  Cu29  1  0.93218600  0.56781400  0.46093400  1
  Cu  Cu30  1  0.43342100  0.06657900  0.77562300  1
  Cu  Cu31  1  0.06657900  0.56657900  0.22437700  1
  Cu  Cu32  1  0.56657900  0.93342100  0.77562300  1
  Cu  Cu33  1  0.93342100  0.43342100  0.22437700  1
  Cu  Cu34  1  0.65638600  0.15638600  0.92053400  1
  Cu  Cu35  1  0.84361400  0.65638600  0.07946600  1
  Cu  Cu36  1  0.34361400  0.84361400  0.92053400  1
  Cu  Cu37  1  0.15638600  0.34361400  0.07946600  1
  Cu  Cu38  1  0.67698500  0.17698500  0.26093500  1
  Cu  Cu39  1  0.82301500  0.67698500  0.73906500  1
  Cu  Cu40  1  0.32301500  0.82301500  0.26093500  1
  Cu  Cu41  1  0.17698500  0.32301500  0.73906500  1
  Cu  Cu42  1  0.50842400  0.14250100  0.13160300  1
  Cu  Cu43  1  0.99157600  0.64250100  0.86839700  1
  Cu  Cu44  1  0.49157600  0.85749900  0.13160300  1
  Cu  Cu45  1  0.00842400  0.35749900  0.86839700  1
  Cu  Cu46  1  0.14250100  0.49157600  0.86839700  1
  Cu  Cu47  1  0.35749900  0.99157600  0.13160300  1
  Cu  Cu48  1  0.85749900  0.50842400  0.86839700  1
  Cu  Cu49  1  0.64250100  0.00842400  0.13160300  1
  Cu  Cu50  1  0.36804800  0.28784800  0.54424200  1
  Cu  Cu51  1  0.13195200  0.78784800  0.45575800  1
  Cu  Cu52  1  0.63195200  0.71215200  0.54424200  1
  Cu  Cu53  1  0.86804800  0.21215200  0.45575800  1
  Cu  Cu54  1  0.28784800  0.63195200  0.45575800  1
  Cu  Cu55  1  0.21215200  0.13195200  0.54424200  1
  Cu  Cu56  1  0.71215200  0.36804800  0.45575800  1
  Cu  Cu57  1  0.78784800  0.86804800  0.54424200  1
  Cu  Cu58  1  0.54403300  0.28979900  0.67150200  1
  Cu  Cu59  1  0.95596700  0.78979900  0.32849800  1
  Cu  Cu60  1  0.45596700  0.71020100  0.67150200  1
  Cu  Cu61  1  0.04403300  0.21020100  0.32849800  1
  Cu  Cu62  1  0.28979900  0.45596700  0.32849800  1
  Cu  Cu63  1  0.21020100  0.95596700  0.67150200  1
  Cu  Cu64  1  0.71020100  0.54403300  0.32849800  1
  Cu  Cu65  1  0.78979900  0.04403300  0.67150200  1
  Cu  Cu66  1  0.42501400  0.43573600  0.72595500  1
  Cu  Cu67  1  0.07498600  0.93573600  0.27404500  1
  Cu  Cu68  1  0.57498600  0.56426400  0.72595500  1
  Cu  Cu69  1  0.92501400  0.06426400  0.27404500  1
  Cu  Cu70  1  0.43573600  0.57498600  0.27404500  1
  Cu  Cu71  1  0.06426400  0.07498600  0.72595500  1
  Cu  Cu72  1  0.56426400  0.42501400  0.27404500  1
  Cu  Cu73  1  0.93573600  0.92501400  0.72595500  1
  Cu  Cu74  1  0.39498400  0.27058600  0.87926100  1
  Cu  Cu75  1  0.10501600  0.77058600  0.12073900  1
  Cu  Cu76  1  0.60501600  0.72941400  0.87926100  1
  Cu  Cu77  1  0.89498400  0.22941400  0.12073900  1
  Cu  Cu78  1  0.27058600  0.60501600  0.12073900  1
  Cu  Cu79  1  0.22941400  0.10501600  0.87926100  1
  Cu  Cu80  1  0.72941400  0.39498400  0.12073900  1
  Cu  Cu81  1  0.77058600  0.89498400  0.87926100  1
