# generated using pymatgen
data_Cu5NiC3
_symmetry_space_group_name_H-M   'P 1'
_cell_length_a   8.48003931
_cell_length_b   8.48003931
_cell_length_c   13.37064400
_cell_angle_alpha   90.00000000
_cell_angle_beta   90.00000000
_cell_angle_gamma   127.24825343
_symmetry_Int_Tables_number   1
_chemical_formula_structural   Cu5NiC3
_chemical_formula_sum   'Cu20 Ni4 C12'
_cell_volume   765.37149575
_cell_formula_units_Z   4
loop_
 _symmetry_equiv_pos_site_id
 _symmetry_equiv_pos_as_xyz
  1  'x, y, z'
loop_
 _atom_site_type_symbol
 _atom_site_label
 _atom_site_symmetry_multiplicity
 _atom_site_fract_x
 _atom_site_fract_y
 _atom_site_fract_z
 _atom_site_occupancy
  C  C0  1  0.92879600  0.07120400  0.25000000  1
  C  C1  1  0.07120400  0.92879600  0.75000000  1
  C  C2  1  0.32016500  0.67983500  0.25000000  1
  C  C3  1  0.67983500  0.32016500  0.75000000  1
  C  C4  1  0.63011800  0.36988200  0.46231000  1
  C  C5  1  0.36988200  0.63011800  0.53769000  1
  C  C6  1  0.63011800  0.36988200  0.03769000  1
  C  C7  1  0.36988200  0.63011800  0.96231000  1
  C  C8  1  0.88234100  0.11765900  0.95047200  1
  C  C9  1  0.11765900  0.88234100  0.04952800  1
  C  C10  1  0.88234100  0.11765900  0.54952800  1
  C  C11  1  0.11765900  0.88234100  0.45047200  1
  Ni  Ni12  1  0.72058200  0.27941800  0.25000000  1
  Ni  Ni13  1  0.27941800  0.72058200  0.75000000  1
  Ni  Ni14  1  0.53283500  0.46716500  0.25000000  1
  Ni  Ni15  1  0.46716500  0.53283500  0.75000000  1
  Cu  Cu16  1  0.31895200  0.06506400  0.25000000  1
  Cu  Cu17  1  0.06506400  0.31895200  0.75000000  1
  Cu  Cu18  1  0.68104800  0.93493600  0.75000000  1
  Cu  Cu19  1  0.93493600  0.68104800  0.25000000  1
  Cu  Cu20  1  0.56819800  0.00184700  0.39688200  1
  Cu  Cu21  1  0.00184700  0.56819800  0.60311800  1
  Cu  Cu22  1  0.56819800  0.00184700  0.10311800  1
  Cu  Cu23  1  0.00184700  0.56819800  0.89688200  1
  Cu  Cu24  1  0.43180200  0.99815300  0.60311800  1
  Cu  Cu25  1  0.99815300  0.43180200  0.39688200  1
  Cu  Cu26  1  0.43180200  0.99815300  0.89688200  1
  Cu  Cu27  1  0.99815300  0.43180200  0.10311800  1
  Cu  Cu28  1  0.68776200  0.74340600  0.39482700  1
  Cu  Cu29  1  0.74340600  0.68776200  0.60517300  1
  Cu  Cu30  1  0.68776200  0.74340600  0.10517300  1
  Cu  Cu31  1  0.74340600  0.68776200  0.89482700  1
  Cu  Cu32  1  0.31223800  0.25659400  0.60517300  1
  Cu  Cu33  1  0.25659400  0.31223800  0.39482700  1
  Cu  Cu34  1  0.31223800  0.25659400  0.89482700  1
  Cu  Cu35  1  0.25659400  0.31223800  0.10517300  1
