# generated using pymatgen
data_CuNi4C3
_symmetry_space_group_name_H-M   'P 1'
_cell_length_a   6.78824600
_cell_length_b   9.19340400
_cell_length_c   13.91790100
_cell_angle_alpha   90.00000000
_cell_angle_beta   90.00000000
_cell_angle_gamma   90.00000000
_symmetry_Int_Tables_number   1
_chemical_formula_structural   CuNi4C3
_chemical_formula_sum   'Cu8 Ni32 C24'
_cell_volume   868.57567150
_cell_formula_units_Z   8
loop_
 _symmetry_equiv_pos_site_id
 _symmetry_equiv_pos_as_xyz
  1  'x, y, z'
loop_
 _atom_site_type_symbol
 _atom_site_label
 _atom_site_symmetry_multiplicity
 _atom_site_fract_x
 _atom_site_fract_y
 _atom_site_fract_z
 _atom_site_occupancy
  C  C0  1  0.53120500  0.66369600  0.90603300  1
  C  C1  1  0.03120500  0.83630400  0.59396700  1
  C  C2  1  0.46879500  0.16369600  0.59396700  1
  C  C3  1  0.96879500  0.33630400  0.90603300  1
  C  C4  1  0.46879500  0.33630400  0.09396700  1
  C  C5  1  0.96879500  0.16369600  0.40603300  1
  C  C6  1  0.53120500  0.83630400  0.40603300  1
  C  C7  1  0.03120500  0.66369600  0.09396700  1
  C  C8  1  0.75000000  0.00000000  0.06109500  1
  C  C9  1  0.25000000  0.50000000  0.43890500  1
  C  C10  1  0.25000000  0.00000000  0.93890500  1
  C  C11  1  0.75000000  0.50000000  0.56109500  1
  C  C12  1  0.75000000  0.00000000  0.80691800  1
  C  C13  1  0.25000000  0.50000000  0.69308200  1
  C  C14  1  0.25000000  0.00000000  0.19308200  1
  C  C15  1  0.75000000  0.50000000  0.30691800  1
  C  C16  1  0.01867700  0.69099900  0.85427400  1
  C  C17  1  0.51867700  0.80900100  0.64572600  1
  C  C18  1  0.98132300  0.19099900  0.64572600  1
  C  C19  1  0.48132300  0.30900100  0.85427400  1
  C  C20  1  0.98132300  0.30900100  0.14572600  1
  C  C21  1  0.48132300  0.19099900  0.35427400  1
  C  C22  1  0.01867700  0.80900100  0.35427400  1
  C  C23  1  0.51867700  0.69099900  0.14572600  1
  Ni  Ni24  1  0.43710500  0.44570700  0.79499800  1
  Ni  Ni25  1  0.93710500  0.05429300  0.70500200  1
  Ni  Ni26  1  0.56289500  0.94570700  0.70500200  1
  Ni  Ni27  1  0.06289500  0.55429300  0.79499800  1
  Ni  Ni28  1  0.56289500  0.55429300  0.20500200  1
  Ni  Ni29  1  0.06289500  0.94570700  0.29499800  1
  Ni  Ni30  1  0.43710500  0.05429300  0.29499800  1
  Ni  Ni31  1  0.93710500  0.44570700  0.20500200  1
  Ni  Ni32  1  0.20016500  0.75308500  0.89435100  1
  Ni  Ni33  1  0.70016500  0.74691500  0.60564900  1
  Ni  Ni34  1  0.79983500  0.25308500  0.60564900  1
  Ni  Ni35  1  0.29983500  0.24691500  0.89435100  1
  Ni  Ni36  1  0.79983500  0.24691500  0.10564900  1
  Ni  Ni37  1  0.29983500  0.25308500  0.39435100  1
  Ni  Ni38  1  0.20016500  0.74691500  0.39435100  1
  Ni  Ni39  1  0.70016500  0.75308500  0.10564900  1
  Ni  Ni40  1  0.88480200  0.63812600  0.93060000  1
  Ni  Ni41  1  0.38480200  0.86187400  0.56940000  1
  Ni  Ni42  1  0.11519800  0.13812600  0.56940000  1
  Ni  Ni43  1  0.61519800  0.36187400  0.93060000  1
  Ni  Ni44  1  0.11519800  0.36187400  0.06940000  1
  Ni  Ni45  1  0.61519800  0.13812600  0.43060000  1
  Ni  Ni46  1  0.88480200  0.86187400  0.43060000  1
  Ni  Ni47  1  0.38480200  0.63812600  0.06940000  1
  Ni  Ni48  1  0.41923400  0.70384500  0.71042100  1
  Ni  Ni49  1  0.91923400  0.79615500  0.78957900  1
  Ni  Ni50  1  0.58076600  0.20384500  0.78957900  1
  Ni  Ni51  1  0.08076600  0.29615500  0.71042100  1
  Ni  Ni52  1  0.58076600  0.29615500  0.28957900  1
  Ni  Ni53  1  0.08076600  0.20384500  0.21042100  1
  Ni  Ni54  1  0.41923400  0.79615500  0.21042100  1
  Ni  Ni55  1  0.91923400  0.70384500  0.28957900  1
  Cu  Cu56  1  0.58372600  0.92447300  0.90638400  1
  Cu  Cu57  1  0.08372600  0.57552700  0.59361600  1
  Cu  Cu58  1  0.41627400  0.42447300  0.59361600  1
  Cu  Cu59  1  0.91627400  0.07552700  0.90638400  1
  Cu  Cu60  1  0.41627400  0.07552700  0.09361600  1
  Cu  Cu61  1  0.91627400  0.42447300  0.40638400  1
  Cu  Cu62  1  0.58372600  0.57552700  0.40638400  1
  Cu  Cu63  1  0.08372600  0.92447300  0.09361600  1
