# generated using pymatgen
data_Cu(NiC)2
_symmetry_space_group_name_H-M   'P 1'
_cell_length_a   8.84696700
_cell_length_b   8.84754191
_cell_length_c   8.86224379
_cell_angle_alpha   109.54460861
_cell_angle_beta   109.38207055
_cell_angle_gamma   109.33917744
_symmetry_Int_Tables_number   1
_chemical_formula_structural   Cu(NiC)2
_chemical_formula_sum   'Cu8 Ni16 C16'
_cell_volume   534.96744432
_cell_formula_units_Z   8
loop_
 _symmetry_equiv_pos_site_id
 _symmetry_equiv_pos_as_xyz
  1  'x, y, z'
loop_
 _atom_site_type_symbol
 _atom_site_label
 _atom_site_symmetry_multiplicity
 _atom_site_fract_x
 _atom_site_fract_y
 _atom_site_fract_z
 _atom_site_occupancy
  C  C0  1  0.00962000  0.01026200  0.49028600  1
  C  C1  1  0.74850900  0.46683900  0.78898600  1
  C  C2  1  0.23319300  0.76321800  0.52182400  1
  C  C3  1  0.70521200  0.74316900  0.02929900  1
  C  C4  1  0.26176000  0.04531400  0.70955500  1
  C  C5  1  0.50184700  0.99776900  0.99520400  1
  C  C6  1  0.04426100  0.78779000  0.23838600  1
  C  C7  1  0.99519100  0.49293900  0.00930900  1
  C  C8  1  0.48893300  0.49653300  0.49790500  1
  C  C9  1  0.46383900  0.70954900  0.75517600  1
  C  C10  1  0.53501700  0.28466200  0.25628200  1
  C  C11  1  0.96445500  0.21700400  0.74792000  1
  C  C12  1  0.75043200  0.96758100  0.27903800  1
  C  C13  1  0.26326600  0.23858000  0.97046600  1
  C  C14  1  0.78985600  0.26524300  0.46376500  1
  C  C15  1  0.24857000  0.53369300  0.21562700  1
  Ni  Ni16  1  0.02540700  0.02669200  0.23778600  1
  Ni  Ni17  1  0.27155400  0.03508900  0.46233100  1
  Ni  Ni18  1  0.77222900  0.53895500  0.99069600  1
  Ni  Ni19  1  0.47189300  0.73678900  0.50121300  1
  Ni  Ni20  1  0.27166100  0.99964100  0.95473900  1
  Ni  Ni21  1  0.45507900  0.49594600  0.27014600  1
  Ni  Ni22  1  0.74005900  0.99770300  0.03486100  1
  Ni  Ni23  1  0.99861400  0.54526200  0.22875500  1
  Ni  Ni24  1  0.22741400  0.45326900  0.99736800  1
  Ni  Ni25  1  0.21925100  0.26979600  0.73354500  1
  Ni  Ni26  1  0.76300400  0.22039900  0.23587300  1
  Ni  Ni27  1  0.27221000  0.77217900  0.27384800  1
  Ni  Ni28  1  0.54338900  0.27388000  0.50710300  1
  Ni  Ni29  1  0.50228400  0.77137700  0.94984800  1
  Ni  Ni30  1  0.73352000  0.24739900  0.73497100  1
  Ni  Ni31  1  0.03771800  0.26762800  0.46528300  1
  Cu  Cu32  1  0.54969300  0.50387800  0.72781700  1
  Cu  Cu33  1  0.95820700  0.94411300  0.76985800  1
  Cu  Cu34  1  0.94735400  0.72408400  0.55019000  1
  Cu  Cu35  1  0.23084700  0.77272700  0.77470000  1
  Cu  Cu36  1  0.02597700  0.48224500  0.75045700  1
  Cu  Cu37  1  0.47881300  0.22970300  0.05163200  1
  Cu  Cu38  1  0.72951100  0.95447400  0.55727100  1
  Cu  Cu39  1  0.77035300  0.71663100  0.27068400  1
