# generated using pymatgen
data_Cu18Ni7C86
_symmetry_space_group_name_H-M   'P 1'
_cell_length_a   9.89190200
_cell_length_b   11.13135937
_cell_length_c   12.87022627
_cell_angle_alpha   70.88029253
_cell_angle_beta   72.27074583
_cell_angle_gamma   78.71324264
_symmetry_Int_Tables_number   1
_chemical_formula_structural   Cu18Ni7C86
_chemical_formula_sum   'Cu18 Ni7 C86'
_cell_volume   1268.10363953
_cell_formula_units_Z   1
loop_
 _symmetry_equiv_pos_site_id
 _symmetry_equiv_pos_as_xyz
  1  'x, y, z'
loop_
 _atom_site_type_symbol
 _atom_site_label
 _atom_site_symmetry_multiplicity
 _atom_site_fract_x
 _atom_site_fract_y
 _atom_site_fract_z
 _atom_site_occupancy
  C  C0  1  0.01568900  0.53321100  0.86801100  1
  C  C1  1  0.34893400  0.19914300  0.53473000  1
  C  C2  1  0.68229700  0.86661200  0.20104200  1
  C  C3  1  0.65106600  0.80085700  0.46527000  1
  C  C4  1  0.98431100  0.46678900  0.13198900  1
  C  C5  1  0.31770300  0.13338800  0.79895800  1
  C  C6  1  0.90228500  0.37701000  0.57313300  1
  C  C7  1  0.23550100  0.04371900  0.23972100  1
  C  C8  1  0.56924200  0.71059900  0.90633100  1
  C  C9  1  0.76449900  0.95628100  0.76027900  1
  C  C10  1  0.09771500  0.62299000  0.42686700  1
  C  C11  1  0.43075800  0.28940100  0.09366900  1
  C  C12  1  0.33336100  0.66684100  0.66644100  1
  C  C13  1  0.66663900  0.33315900  0.33355900  1
  Ni  Ni14  1  0.88899900  0.30777200  0.84093100  1
  Ni  Ni15  1  0.22103400  0.97497400  0.50706900  1
  Ni  Ni16  1  0.55427400  0.64163600  0.17372900  1
  Ni  Ni17  1  0.77896600  0.02502600  0.49293100  1
  Ni  Ni18  1  0.11100100  0.69222800  0.15906900  1
  Ni  Ni19  1  0.44572600  0.35836400  0.82627100  1
  Ni  Ni20  1  0.00000000  0.00000000  0.00000000  1
  Cu  Cu21  1  0.82599600  0.57870100  0.34248800  1
  Cu  Cu22  1  0.15729100  0.24237000  0.00898600  1
  Cu  Cu23  1  0.49245900  0.91195600  0.67587400  1
  Cu  Cu24  1  0.84270900  0.75763000  0.99101400  1
  Cu  Cu25  1  0.17400400  0.42129900  0.65751200  1
  Cu  Cu26  1  0.50754100  0.08804400  0.32412600  1
  Cu  Cu27  1  0.99993400  0.77190800  0.62897200  1
  Cu  Cu28  1  0.33322300  0.43851500  0.29574900  1
  Cu  Cu29  1  0.66585200  0.10573800  0.96196500  1
  Cu  Cu30  1  0.66677700  0.56148500  0.70425100  1
  Cu  Cu31  1  0.00006600  0.22809200  0.37102800  1
  Cu  Cu32  1  0.33414800  0.89426200  0.03803500  1
  Cu  Cu33  1  0.94949200  0.90284700  0.27905000  1
  Cu  Cu34  1  0.28257800  0.56950200  0.94628800  1
  Cu  Cu35  1  0.61590400  0.23611000  0.61293400  1
  Cu  Cu36  1  0.71742200  0.43049800  0.05371200  1
  Cu  Cu37  1  0.05050800  0.09715300  0.72095000  1
  Cu  Cu38  1  0.38409600  0.76389000  0.38706600  1
  C  C39  1  0.74465100  0.71562300  0.33956400  1
  C  C40  1  0.07687000  0.38007900  0.00662500  1
  C  C41  1  0.41133000  0.04906300  0.67275200  1
  C  C42  1  0.92313000  0.61992100  0.99337500  1
  C  C43  1  0.25534900  0.28437700  0.66043600  1
  C  C44  1  0.58867000  0.95093700  0.32724800  1
  C  C45  1  0.72540800  0.48470700  0.35846600  1
  C  C46  1  0.05485000  0.14930700  0.02460400  1
  C  C47  1  0.39144000  0.81815900  0.69235000  1
  C  C48  1  0.94515000  0.85069300  0.97539600  1
  C  C49  1  0.27459200  0.51529300  0.64153400  1
  C  C50  1  0.60856000  0.18184100  0.30765000  1
  C  C51  1  0.83443200  0.90230700  0.39445800  1
  C  C52  1  0.16693300  0.56918300  0.06114400  1
  C  C53  1  0.50039700  0.23617700  0.72763300  1
  C  C54  1  0.83306700  0.43081700  0.93885600  1
  C  C55  1  0.16556800  0.09769300  0.60554200  1
  C  C56  1  0.49960300  0.76382300  0.27236700  1
  C  C57  1  0.71367600  0.33750800  0.58282100  1
  C  C58  1  0.04722400  0.00406600  0.24959400  1
  C  C59  1  0.38039400  0.67081200  0.91641200  1
  C  C60  1  0.95277600  0.99593400  0.75040600  1
  C  C61  1  0.28632400  0.66249200  0.41717900  1
  C  C62  1  0.61960600  0.32918800  0.08358800  1
  C  C63  1  0.00300300  0.71991100  0.53180700  1
  C  C64  1  0.33641900  0.38651700  0.19841000  1
  C  C65  1  0.66899100  0.05326900  0.86502300  1
  C  C66  1  0.66358100  0.61348300  0.80159000  1
  C  C67  1  0.99699700  0.28008900  0.46819300  1
  C  C68  1  0.33100900  0.94673100  0.13497700  1
  C  C69  1  0.14771500  0.81710600  0.61160400  1
  C  C70  1  0.48116000  0.48355400  0.27832600  1
  C  C71  1  0.81201400  0.15330800  0.94391400  1
  C  C72  1  0.51884000  0.51644600  0.72167400  1
  C  C73  1  0.85228500  0.18289400  0.38839600  1
  C  C74  1  0.18798600  0.84669200  0.05608600  1
  C  C75  1  0.79080500  0.45214800  0.70157100  1
  C  C76  1  0.12418900  0.11863800  0.36833700  1
  C  C77  1  0.45936500  0.78544600  0.03491900  1
  C  C78  1  0.87581100  0.88136200  0.63166300  1
  C  C79  1  0.20919500  0.54785200  0.29842900  1
  C  C80  1  0.54063500  0.21455400  0.96508100  1
  C  C81  1  0.62856000  0.56662900  0.04024700  1
  C  C82  1  0.96152800  0.23366700  0.70709900  1
  C  C83  1  0.29471700  0.89979100  0.37358400  1
  C  C84  1  0.03847200  0.76633300  0.29290100  1
  C  C85  1  0.37144000  0.43337100  0.95975300  1
  C  C86  1  0.70528300  0.10020900  0.62641600  1
  C  C87  1  0.97206800  0.66863100  0.74510300  1
  C  C88  1  0.30569100  0.33502400  0.41177600  1
  C  C89  1  0.63953800  0.00240400  0.07796000  1
  C  C90  1  0.69430900  0.66497600  0.58822400  1
  C  C91  1  0.02793200  0.33136900  0.25489700  1
  C  C92  1  0.36046200  0.99759600  0.92204000  1
  C  C93  1  0.06117300  0.40766500  0.77643800  1
  C  C94  1  0.39522000  0.07396200  0.44305500  1
  C  C95  1  0.72965400  0.74183100  0.10964400  1
  C  C96  1  0.60478000  0.92603800  0.55694500  1
  C  C97  1  0.93882700  0.59233500  0.22356200  1
  C  C98  1  0.27034600  0.25816900  0.89035600  1
  C  C99  1  0.87495400  0.92606000  0.18180900  1
  C  C100  1  0.20809500  0.59263400  0.84883300  1
  C  C101  1  0.54162700  0.25922800  0.51533000  1
  C  C102  1  0.79190500  0.40736600  0.15116700  1
  C  C103  1  0.12504600  0.07394000  0.81819100  1
  C  C104  1  0.45837300  0.74077200  0.48467000  1
  C  C105  1  0.90827300  0.54115900  0.43668200  1
  C  C106  1  0.23967700  0.20618500  0.10322600  1
  C  C107  1  0.57494200  0.87452600  0.77004700  1
  C  C108  1  0.76032300  0.79381500  0.89677400  1
  C  C109  1  0.09172700  0.45884100  0.56331800  1
  C  C110  1  0.42505800  0.12547400  0.22995300  1
