# generated using pymatgen
data_CuNi18C11
_symmetry_space_group_name_H-M   'P 1'
_cell_length_a   9.38767900
_cell_length_b   9.38767900
_cell_length_c   12.85283200
_cell_angle_alpha   90.00000000
_cell_angle_beta   90.00000000
_cell_angle_gamma   90.00000000
_symmetry_Int_Tables_number   1
_chemical_formula_structural   CuNi18C11
_chemical_formula_sum   'Cu4 Ni72 C44'
_cell_volume   1132.70102350
_cell_formula_units_Z   4
loop_
 _symmetry_equiv_pos_site_id
 _symmetry_equiv_pos_as_xyz
  1  'x, y, z'
loop_
 _atom_site_type_symbol
 _atom_site_label
 _atom_site_symmetry_multiplicity
 _atom_site_fract_x
 _atom_site_fract_y
 _atom_site_fract_z
 _atom_site_occupancy
  C  C0  1  0.69428800  0.50000000  0.75000000  1
  C  C1  1  0.30571200  0.50000000  0.25000000  1
  C  C2  1  0.50000000  0.69428800  0.50000000  1
  C  C3  1  0.50000000  0.30571200  0.00000000  1
  C  C4  1  0.00000000  0.85305800  0.00000000  1
  C  C5  1  0.00000000  0.14694200  0.50000000  1
  C  C6  1  0.14694200  0.00000000  0.75000000  1
  C  C7  1  0.85305800  0.00000000  0.25000000  1
  Ni  Ni8  1  0.40870900  0.50234100  0.66225500  1
  Ni  Ni9  1  0.59129100  0.49765900  0.16225500  1
  Ni  Ni10  1  0.49765900  0.40870900  0.41225500  1
  Ni  Ni11  1  0.50234100  0.59129100  0.91225500  1
  Ni  Ni12  1  0.59129100  0.50234100  0.33774500  1
  Ni  Ni13  1  0.40870900  0.49765900  0.83774500  1
  Ni  Ni14  1  0.50234100  0.40870900  0.58774500  1
  Ni  Ni15  1  0.49765900  0.59129100  0.08774500  1
  Ni  Ni16  1  0.11259200  0.79548800  0.21327800  1
  Ni  Ni17  1  0.88740800  0.20451200  0.71327800  1
  Ni  Ni18  1  0.20451200  0.11259200  0.96327800  1
  Ni  Ni19  1  0.79548800  0.88740800  0.46327800  1
  Ni  Ni20  1  0.88740800  0.79548800  0.78672200  1
  Ni  Ni21  1  0.11259200  0.20451200  0.28672200  1
  Ni  Ni22  1  0.79548800  0.11259200  0.03672200  1
  Ni  Ni23  1  0.20451200  0.88740800  0.53672200  1
  Ni  Ni24  1  0.96176000  0.72249600  0.21820900  1
  Ni  Ni25  1  0.03824000  0.27750400  0.71820900  1
  Ni  Ni26  1  0.27750400  0.96176000  0.96820900  1
  Ni  Ni27  1  0.72249600  0.03824000  0.46820900  1
  Ni  Ni28  1  0.03824000  0.72249600  0.78179100  1
  Ni  Ni29  1  0.96176000  0.27750400  0.28179100  1
  Ni  Ni30  1  0.72249600  0.96176000  0.03179100  1
  Ni  Ni31  1  0.27750400  0.03824000  0.53179100  1
  Ni  Ni32  1  0.97806600  0.52861900  0.65817300  1
  Ni  Ni33  1  0.02193400  0.47138100  0.15817300  1
  Ni  Ni34  1  0.47138100  0.97806600  0.40817300  1
  Ni  Ni35  1  0.52861900  0.02193400  0.90817300  1
  Ni  Ni36  1  0.02193400  0.52861900  0.34182700  1
  Ni  Ni37  1  0.97806600  0.47138100  0.84182700  1
  Ni  Ni38  1  0.52861900  0.97806600  0.59182700  1
  Ni  Ni39  1  0.47138100  0.02193400  0.09182700  1
  Ni  Ni40  1  0.87282600  0.45229900  0.57830100  1
  Ni  Ni41  1  0.12717400  0.54770100  0.07830100  1
  Ni  Ni42  1  0.54770100  0.87282600  0.32830100  1
  Ni  Ni43  1  0.45229900  0.12717400  0.82830100  1
  Ni  Ni44  1  0.12717400  0.45229900  0.42169900  1
  Ni  Ni45  1  0.87282600  0.54770100  0.92169900  1
  Ni  Ni46  1  0.45229900  0.87282600  0.67169900  1
  Ni  Ni47  1  0.54770100  0.12717400  0.17169900  1
  Ni  Ni48  1  0.72116500  0.70790300  0.01121200  1
  Ni  Ni49  1  0.27883500  0.29209700  0.51121200  1
  Ni  Ni50  1  0.29209700  0.72116500  0.76121200  1
  Ni  Ni51  1  0.70790300  0.27883500  0.26121200  1
  Ni  Ni52  1  0.27883500  0.70790300  0.98878800  1
  Ni  Ni53  1  0.72116500  0.29209700  0.48878800  1
  Ni  Ni54  1  0.70790300  0.72116500  0.23878800  1
  Ni  Ni55  1  0.29209700  0.27883500  0.73878800  1
  Ni  Ni56  1  0.81691200  0.61937700  0.08822200  1
  Ni  Ni57  1  0.18308800  0.38062300  0.58822200  1
  Ni  Ni58  1  0.38062300  0.81691200  0.83822200  1
  Ni  Ni59  1  0.61937700  0.18308800  0.33822200  1
  Ni  Ni60  1  0.18308800  0.61937700  0.91177800  1
  Ni  Ni61  1  0.81691200  0.38062300  0.41177800  1
  Ni  Ni62  1  0.61937700  0.81691200  0.16177800  1
  Ni  Ni63  1  0.38062300  0.18308800  0.66177800  1
  Ni  Ni64  1  0.81521100  0.65495300  0.52618300  1
  Ni  Ni65  1  0.18478900  0.34504700  0.02618300  1
  Ni  Ni66  1  0.34504700  0.81521100  0.27618300  1
  Ni  Ni67  1  0.65495300  0.18478900  0.77618300  1
  Ni  Ni68  1  0.18478900  0.65495300  0.47381700  1
  Ni  Ni69  1  0.81521100  0.34504700  0.97381700  1
  Ni  Ni70  1  0.65495300  0.81521100  0.72381700  1
  Ni  Ni71  1  0.34504700  0.18478900  0.22381700  1
  Ni  Ni72  1  0.78655900  0.64610600  0.40601200  1
  Ni  Ni73  1  0.21344100  0.35389400  0.90601200  1
  Ni  Ni74  1  0.35389400  0.78655900  0.15601200  1
  Ni  Ni75  1  0.64610600  0.21344100  0.65601200  1
  Ni  Ni76  1  0.21344100  0.64610600  0.59398800  1
  Ni  Ni77  1  0.78655900  0.35389400  0.09398800  1
  Ni  Ni78  1  0.64610600  0.78655900  0.84398800  1
  Ni  Ni79  1  0.35389400  0.21344100  0.34398800  1
  Cu  Cu80  1  0.81068200  0.50000000  0.25000000  1
  Cu  Cu81  1  0.18931800  0.50000000  0.75000000  1
  Cu  Cu82  1  0.50000000  0.81068200  0.00000000  1
  Cu  Cu83  1  0.50000000  0.18931800  0.50000000  1
  C  C84  1  0.50134200  0.50134200  0.62500000  1
  C  C85  1  0.49865800  0.49865800  0.12500000  1
  C  C86  1  0.49865800  0.50134200  0.37500000  1
  C  C87  1  0.50134200  0.49865800  0.87500000  1
  C  C88  1  0.00958500  0.81212400  0.19970300  1
  C  C89  1  0.99041500  0.18787600  0.69970300  1
  C  C90  1  0.18787600  0.00958500  0.94970300  1
  C  C91  1  0.81212400  0.99041500  0.44970300  1
  C  C92  1  0.99041500  0.81212400  0.80029700  1
  C  C93  1  0.00958500  0.18787600  0.30029700  1
  C  C94  1  0.81212400  0.00958500  0.05029700  1
  C  C95  1  0.18787600  0.99041500  0.55029700  1
  C  C96  1  0.88205100  0.53524200  0.62565400  1
  C  C97  1  0.11794900  0.46475800  0.12565400  1
  C  C98  1  0.46475800  0.88205100  0.37565400  1
  C  C99  1  0.53524200  0.11794900  0.87565400  1
  C  C100  1  0.11794900  0.53524200  0.37434600  1
  C  C101  1  0.88205100  0.46475800  0.87434600  1
  C  C102  1  0.53524200  0.88205100  0.62434600  1
  C  C103  1  0.46475800  0.11794900  0.12434600  1
  C  C104  1  0.81942700  0.66925100  0.02006800  1
  C  C105  1  0.18057300  0.33074900  0.52006800  1
  C  C106  1  0.33074900  0.81942700  0.77006800  1
  C  C107  1  0.66925100  0.18057300  0.27006800  1
  C  C108  1  0.18057300  0.66925100  0.97993200  1
  C  C109  1  0.81942700  0.33074900  0.47993200  1
  C  C110  1  0.66925100  0.81942700  0.22993200  1
  C  C111  1  0.33074900  0.18057300  0.72993200  1
  C  C112  1  0.76193900  0.70173600  0.46904000  1
  C  C113  1  0.23806100  0.29826400  0.96904000  1
  C  C114  1  0.29826400  0.76193900  0.21904000  1
  C  C115  1  0.70173600  0.23806100  0.71904000  1
  C  C116  1  0.23806100  0.70173600  0.53096000  1
  C  C117  1  0.76193900  0.29826400  0.03096000  1
  C  C118  1  0.70173600  0.76193900  0.78096000  1
  C  C119  1  0.29826400  0.23806100  0.28096000  1
