# generated using pymatgen
data_Cu2Ni6C29
_symmetry_space_group_name_H-M   'P 1'
_cell_length_a   10.90480742
_cell_length_b   15.30870376
_cell_length_c   10.81871364
_cell_angle_alpha   89.81823955
_cell_angle_beta   90.65581463
_cell_angle_gamma   90.10344030
_symmetry_Int_Tables_number   1
_chemical_formula_structural   Cu2Ni6C29
_chemical_formula_sum   'Cu8 Ni24 C116'
_cell_volume   1805.92924097
_cell_formula_units_Z   4
loop_
 _symmetry_equiv_pos_site_id
 _symmetry_equiv_pos_as_xyz
  1  'x, y, z'
loop_
 _atom_site_type_symbol
 _atom_site_label
 _atom_site_symmetry_multiplicity
 _atom_site_fract_x
 _atom_site_fract_y
 _atom_site_fract_z
 _atom_site_occupancy
  C  C0  1  0.01549423  0.13431089  0.48831040  1
  C  C1  1  0.01300218  0.12135588  0.99677913  1
  C  C2  1  0.00899206  0.61898776  0.51271453  1
  C  C3  1  0.02137831  0.61829408  0.99691873  1
  C  C4  1  0.52502858  0.13119623  0.50854304  1
  C  C5  1  0.51912534  0.12311551  0.97555679  1
  C  C6  1  0.53014517  0.62364697  0.49461687  1
  C  C7  1  0.53933305  0.62759527  0.00508500  1
  C  C8  1  0.49125605  0.35981633  0.00774412  1
  C  C9  1  0.48325369  0.38261892  0.51251187  1
  C  C10  1  0.50124011  0.87111579  0.97828174  1
  C  C11  1  0.48873913  0.87301739  0.49614276  1
  C  C12  1  0.97314057  0.38514997  0.00809653  1
  C  C13  1  0.99083432  0.39229997  0.49976402  1
  C  C14  1  0.97615096  0.87884817  0.00134666  1
  C  C15  1  0.97657529  0.86882684  0.52458618  1
  C  C16  1  0.22494419  0.38140897  0.26307078  1
  C  C17  1  0.24178469  0.38325184  0.74610275  1
  C  C18  1  0.24523934  0.88963894  0.24948488  1
  C  C19  1  0.23448061  0.88574330  0.75990074  1
  C  C20  1  0.72761759  0.39215064  0.25545619  1
  C  C21  1  0.72176507  0.38289922  0.74970223  1
  C  C22  1  0.73820470  0.86479797  0.24224038  1
  C  C23  1  0.72545234  0.87262181  0.74830740  1
  C  C24  1  0.24734782  0.12747436  0.24537935  1
  C  C25  1  0.28225596  0.12395259  0.74256237  1
  C  C26  1  0.26727730  0.61572090  0.26757657  1
  C  C27  1  0.23997462  0.62210333  0.73314896  1
  C  C28  1  0.73039333  0.12278179  0.24285285  1
  C  C29  1  0.73513918  0.11350031  0.75069942  1
  C  C30  1  0.77956148  0.62605740  0.25868968  1
  C  C31  1  0.78223889  0.62703938  0.76254459  1
  Ni  Ni32  1  0.00672091  0.98937527  0.25238007  1
  Ni  Ni33  1  0.99276513  0.99678123  0.75924198  1
  Ni  Ni34  1  0.99765193  0.50131154  0.25144097  1
  Ni  Ni35  1  0.00625970  0.50014126  0.75731243  1
  Ni  Ni36  1  0.49626237  0.50094363  0.24682913  1
  Ni  Ni37  1  0.50284425  0.50429728  0.74271866  1
  Ni  Ni38  1  0.25442728  0.00353920  0.00198667  1
  Ni  Ni39  1  0.25028207  0.50038207  0.50085471  1
  Ni  Ni40  1  0.74660400  0.99717046  0.99813693  1
  Ni  Ni41  1  0.73277636  0.99770462  0.51175117  1
  Ni  Ni42  1  0.74898141  0.49990934  0.00269921  1
  Ni  Ni43  1  0.75436305  0.49900622  0.50081803  1
  Ni  Ni44  1  0.26715335  0.73690851  0.99597922  1
  Ni  Ni45  1  0.24327702  0.75920357  0.48065703  1
  Ni  Ni46  1  0.76839922  0.24119900  0.98459302  1
  Ni  Ni47  1  0.76173536  0.24795321  0.49067875  1
  Ni  Ni48  1  0.75868375  0.74890929  0.00441983  1
  Ni  Ni49  1  0.75747709  0.74814254  0.50668522  1
  Ni  Ni50  1  0.99415548  0.25889832  0.75042418  1
  Ni  Ni51  1  0.00517655  0.74930752  0.25998893  1
  Ni  Ni52  1  0.00804147  0.75173666  0.76085829  1
  Ni  Ni53  1  0.50402874  0.25136631  0.74557477  1
  Ni  Ni54  1  0.50798663  0.74626577  0.25871251  1
  Ni  Ni55  1  0.50550394  0.74469868  0.75222041  1
  Cu  Cu56  1  0.50680828  0.98238408  0.22751718  1
  Cu  Cu57  1  0.48344129  0.99361820  0.74198187  1
  Cu  Cu58  1  0.22138715  0.00293390  0.51892607  1
  Cu  Cu59  1  0.23545124  0.49304712  0.02077884  1
  Cu  Cu60  1  0.24684166  0.25342492  0.95147072  1
  Cu  Cu61  1  0.27509579  0.24176922  0.48284528  1
  Cu  Cu62  1  0.98068662  0.25925311  0.26042288  1
  Cu  Cu63  1  0.50688961  0.26180477  0.27603034  1
  C  C64  1  0.13107380  0.78052830  0.61974525  1
  C  C65  1  0.53115799  0.23198409  0.12452804  1
  C  C66  1  0.62074348  0.27488339  0.61605617  1
  C  C67  1  0.60573024  0.76809853  0.10887979  1
  C  C68  1  0.60204423  0.76861430  0.60562457  1
  C  C69  1  0.38467824  0.21582504  0.36238877  1
  C  C70  1  0.39042454  0.22832186  0.88429076  1
  C  C71  1  0.40631762  0.73400440  0.40460383  1
  C  C72  1  0.41401158  0.72636443  0.90658380  1
  C  C73  1  0.87832586  0.19897874  0.35412129  1
  C  C74  1  0.89399034  0.19339867  0.84832401  1
  C  C75  1  0.90640480  0.73184224  0.41401168  1
  C  C76  1  0.90767290  0.73038106  0.90627516  1
  C  C77  1  0.12278959  0.22766106  0.32909805  1
  C  C78  1  0.15141092  0.23485130  0.81579059  1
  C  C79  1  0.17628416  0.74860436  0.29224072  1
  C  C80  1  0.14924225  0.73015126  0.86447207  1
  C  C81  1  0.63949533  0.23352611  0.36192467  1
  C  C82  1  0.64117991  0.23432921  0.85856126  1
  C  C83  1  0.66163297  0.73204250  0.36001689  1
  C  C84  1  0.65734440  0.73630028  0.86017070  1
  C  C85  1  0.37298940  0.26324503  0.62344582  1
  C  C86  1  0.91865446  0.24462993  0.10661937  1
  C  C87  1  0.91452963  0.25543822  0.59450037  1
  C  C88  1  0.87145243  0.77386583  0.14513511  1
  C  C89  1  0.86089043  0.77381460  0.65484571  1
  C  C90  1  0.35876571  0.47435986  0.13483719  1
  C  C91  1  0.35895168  0.48084117  0.64273883  1
  C  C92  1  0.36425560  0.01771055  0.16388076  1
  C  C93  1  0.34323278  0.99845002  0.63721260  1
  C  C94  1  0.85349413  0.48205513  0.14770854  1
  C  C95  1  0.86206303  0.47999230  0.64536740  1
  C  C96  1  0.85230217  0.99585504  0.17259136  1
  C  C97  1  0.84867847  0.98636091  0.65581858  1
  C  C98  1  0.13313144  0.02630802  0.36489747  1
  C  C99  1  0.14472402  0.02753524  0.85714247  1
  C  C100  1  0.14250786  0.50733870  0.35470741  1
  C  C101  1  0.17419536  0.51366461  0.86527412  1
  C  C102  1  0.58768423  0.03252323  0.35173307  1
  C  C103  1  0.63757773  0.99988377  0.85688111  1
  C  C104  1  0.64486218  0.52074523  0.34781737  1
  C  C105  1  0.63784293  0.52581990  0.85790812  1
  C  C106  1  0.39088196  0.01210037  0.89061192  1
  C  C107  1  0.39431227  0.51582674  0.39334142  1
  C  C108  1  0.89616487  0.01168329  0.90874579  1
  C  C109  1  0.89828682  0.52234778  0.39341707  1
  C  C110  1  0.89655342  0.51550944  0.90056458  1
  C  C111  1  0.10082343  0.47681296  0.11292960  1
  C  C112  1  0.11467338  0.48742193  0.61351856  1
  C  C113  1  0.11124831  0.99451558  0.10719143  1
  C  C114  1  0.08314244  0.99529053  0.60703076  1
  C  C115  1  0.60200467  0.47679378  0.10273996  1
  C  C116  1  0.61551425  0.48068204  0.60032202  1
  C  C117  1  0.60851100  0.97840282  0.10291139  1
  C  C118  1  0.58866889  0.97839993  0.61278857  1
  C  C119  1  0.99335375  0.37432780  0.28146998  1
  C  C120  1  0.01550874  0.37846621  0.78891564  1
  C  C121  1  0.01327393  0.87327526  0.30351569  1
  C  C122  1  0.02199566  0.87130650  0.79804081  1
  C  C123  1  0.50019497  0.37655453  0.28977203  1
  C  C124  1  0.49845102  0.37985198  0.79291467  1
  C  C125  1  0.48020410  0.87235552  0.27274609  1
  C  C126  1  0.46377149  0.86825102  0.76271851  1
  C  C127  1  0.50709324  0.12443721  0.72220024  1
  C  C128  1  0.48019030  0.62539490  0.20999164  1
  C  C129  1  0.46650884  0.62676116  0.70836535  1
  C  C130  1  0.99957120  0.62548116  0.21265955  1
  C  C131  1  0.00426566  0.62595493  0.72377603  1
  C  C132  1  0.20225838  0.17679223  0.05877400  1
  C  C133  1  0.22489369  0.13420451  0.52985031  1
  C  C134  1  0.24398694  0.61999387  0.04868553  1
  C  C135  1  0.22770685  0.63685317  0.51483785  1
  C  C136  1  0.73280489  0.12119115  0.02894382  1
  C  C137  1  0.74047332  0.12001968  0.53366333  1
  C  C138  1  0.74964737  0.62647117  0.04274064  1
  C  C139  1  0.74897422  0.62553213  0.54687265  1
  C  C140  1  0.23099014  0.35452083  0.47596333  1
  C  C141  1  0.25400444  0.36710228  0.98276505  1
  C  C142  1  0.26859723  0.89093818  0.46423726  1
  C  C143  1  0.27546184  0.85936561  0.02217004  1
  C  C144  1  0.77349638  0.37486311  0.46017082  1
  C  C145  1  0.76051823  0.36690028  0.97271557  1
  C  C146  1  0.76231294  0.88118301  0.45799219  1
  C  C147  1  0.76414488  0.87459950  0.97161161  1
