# generated using pymatgen
data_CuNiC3
_symmetry_space_group_name_H-M   'P 1'
_cell_length_a   5.55528806
_cell_length_b   5.55528806
_cell_length_c   6.73678900
_cell_angle_alpha   90.00000000
_cell_angle_beta   90.00000000
_cell_angle_gamma   140.22828594
_symmetry_Int_Tables_number   1
_chemical_formula_structural   CuNiC3
_chemical_formula_sum   'Cu2 Ni2 C6'
_cell_volume   133.00349573
_cell_formula_units_Z   2
loop_
 _symmetry_equiv_pos_site_id
 _symmetry_equiv_pos_as_xyz
  1  'x, y, z'
loop_
 _atom_site_type_symbol
 _atom_site_label
 _atom_site_symmetry_multiplicity
 _atom_site_fract_x
 _atom_site_fract_y
 _atom_site_fract_z
 _atom_site_occupancy
  C  C0  1  0.55155700  0.44844300  0.25000000  1
  C  C1  1  0.44844300  0.55155700  0.75000000  1
  C  C2  1  0.83458700  0.16541300  0.06330300  1
  C  C3  1  0.16541300  0.83458700  0.93669700  1
  C  C4  1  0.16541300  0.83458700  0.56330300  1
  C  C5  1  0.83458700  0.16541300  0.43669700  1
  Ni  Ni6  1  0.27076700  0.72923300  0.25000000  1
  Ni  Ni7  1  0.72923300  0.27076700  0.75000000  1
  Cu  Cu8  1  0.00000000  0.00000000  0.00000000  1
  Cu  Cu9  1  0.00000000  0.00000000  0.50000000  1
