# generated using pymatgen
data_CuNiC7
_symmetry_space_group_name_H-M   'P 1'
_cell_length_a   5.65119300
_cell_length_b   10.09572200
_cell_length_c   19.43098700
_cell_angle_alpha   90.00000000
_cell_angle_beta   90.00000000
_cell_angle_gamma   90.00000000
_symmetry_Int_Tables_number   1
_chemical_formula_structural   CuNiC7
_chemical_formula_sum   'Cu8 Ni8 C56'
_cell_volume   1108.59364322
_cell_formula_units_Z   8
loop_
 _symmetry_equiv_pos_site_id
 _symmetry_equiv_pos_as_xyz
  1  'x, y, z'
loop_
 _atom_site_type_symbol
 _atom_site_label
 _atom_site_symmetry_multiplicity
 _atom_site_fract_x
 _atom_site_fract_y
 _atom_site_fract_z
 _atom_site_occupancy
  Ni  Ni0  1  0.75714900  0.36648600  0.11342300  1
  Ni  Ni1  1  0.24285100  0.86648600  0.88657700  1
  Ni  Ni2  1  0.74285100  0.36648600  0.61342300  1
  Ni  Ni3  1  0.25714900  0.86648600  0.38657700  1
  Ni  Ni4  1  0.25756800  0.00152100  0.13594400  1
  Ni  Ni5  1  0.74243200  0.50152100  0.86405600  1
  Ni  Ni6  1  0.24243200  0.00152100  0.63594400  1
  Ni  Ni7  1  0.75756800  0.50152100  0.36405600  1
  Cu  Cu8  1  0.25845000  0.63598400  0.06436600  1
  Cu  Cu9  1  0.74155000  0.13598400  0.93563400  1
  Cu  Cu10  1  0.24155000  0.63598400  0.56436600  1
  Cu  Cu11  1  0.75845000  0.13598400  0.43563400  1
  Cu  Cu12  1  0.25997600  0.23090800  0.31329600  1
  Cu  Cu13  1  0.74002400  0.73090800  0.68670400  1
  Cu  Cu14  1  0.24002400  0.23090800  0.81329600  1
  Cu  Cu15  1  0.75997600  0.73090800  0.18670400  1
  C  C16  1  0.26311800  0.26146900  0.49424700  1
  C  C17  1  0.73688200  0.76146900  0.50575300  1
  C  C18  1  0.23688200  0.26146900  0.99424700  1
  C  C19  1  0.76311800  0.76146900  0.00575300  1
  C  C20  1  0.25270700  0.60595600  0.24543500  1
  C  C21  1  0.74729300  0.10595600  0.75456500  1
  C  C22  1  0.24729300  0.60595600  0.74543500  1
  C  C23  1  0.75270700  0.10595600  0.25456500  1
  C  C24  1  0.02170400  0.17487600  0.05901800  1
  C  C25  1  0.97829600  0.67487600  0.94098200  1
  C  C26  1  0.47829600  0.17487600  0.55901800  1
  C  C27  1  0.52170400  0.67487600  0.44098200  1
  C  C28  1  0.32927200  0.11703700  0.42970600  1
  C  C29  1  0.67072800  0.61703700  0.57029400  1
  C  C30  1  0.17072800  0.11703700  0.92970600  1
  C  C31  1  0.82927200  0.61703700  0.07029400  1
  C  C32  1  0.49837500  0.16325700  0.03604600  1
  C  C33  1  0.50162500  0.66325700  0.96395400  1
  C  C34  1  0.00162500  0.16325700  0.53604600  1
  C  C35  1  0.99837500  0.66325700  0.46395400  1
  C  C36  1  0.47907700  0.53809300  0.17973800  1
  C  C37  1  0.52092300  0.03809300  0.82026200  1
  C  C38  1  0.02092300  0.53809300  0.67973800  1
  C  C39  1  0.97907700  0.03809300  0.32026200  1
  C  C40  1  0.52928500  0.19156800  0.19173400  1
  C  C41  1  0.47071500  0.69156800  0.80826600  1
  C  C42  1  0.97071500  0.19156800  0.69173400  1
  C  C43  1  0.02928500  0.69156800  0.30826600  1
  C  C44  1  0.30151000  0.46234700  0.31107100  1
  C  C45  1  0.69849000  0.96234700  0.68892900  1
  C  C46  1  0.19849000  0.46234700  0.81107100  1
  C  C47  1  0.80151000  0.96234700  0.18892900  1
  C  C48  1  0.04634800  0.32891500  0.42570500  1
  C  C49  1  0.95365200  0.82891500  0.57429500  1
  C  C50  1  0.45365200  0.32891500  0.92570500  1
  C  C51  1  0.54634800  0.82891500  0.07429500  1
  C  C52  1  0.01065800  0.20268700  0.21080800  1
  C  C53  1  0.98934200  0.70268700  0.78919200  1
  C  C54  1  0.48934200  0.20268700  0.71080800  1
  C  C55  1  0.51065800  0.70268700  0.28919200  1
  C  C56  1  0.54301700  0.35366600  0.46118800  1
  C  C57  1  0.45698300  0.85366600  0.53881200  1
  C  C58  1  0.95698300  0.35366600  0.96118800  1
  C  C59  1  0.04301700  0.85366600  0.03881200  1
  C  C60  1  0.19811700  0.75124600  0.18064900  1
  C  C61  1  0.80188300  0.25124600  0.81935100  1
  C  C62  1  0.30188300  0.75124600  0.68064900  1
  C  C63  1  0.69811700  0.25124600  0.31935100  1
  C  C64  1  0.29619700  0.40442900  0.05974100  1
  C  C65  1  0.70380300  0.90442900  0.94025900  1
  C  C66  1  0.20380300  0.40442900  0.55974100  1
  C  C67  1  0.79619700  0.90442900  0.44025900  1
  C  C68  1  0.47902300  0.01515600  0.29228600  1
  C  C69  1  0.52097700  0.51515600  0.70771400  1
  C  C70  1  0.02097700  0.01515600  0.79228600  1
  C  C71  1  0.97902300  0.51515600  0.20771400  1
