# generated using pymatgen
data_Cu4Ni2C29
_symmetry_space_group_name_H-M   'P 1'
_cell_length_a   6.88323100
_cell_length_b   7.19391899
_cell_length_c   11.33271883
_cell_angle_alpha   96.69197155
_cell_angle_beta   105.31884906
_cell_angle_gamma   109.12697282
_symmetry_Int_Tables_number   1
_chemical_formula_structural   Cu4Ni2C29
_chemical_formula_sum   'Cu4 Ni2 C29'
_cell_volume   498.48732328
_cell_formula_units_Z   1
loop_
 _symmetry_equiv_pos_site_id
 _symmetry_equiv_pos_as_xyz
  1  'x, y, z'
loop_
 _atom_site_type_symbol
 _atom_site_label
 _atom_site_symmetry_multiplicity
 _atom_site_fract_x
 _atom_site_fract_y
 _atom_site_fract_z
 _atom_site_occupancy
  Ni  Ni0  1  0.73953800  0.70777700  0.43040300  1
  Ni  Ni1  1  0.26046200  0.29222300  0.56959700  1
  Cu  Cu2  1  0.66238300  0.78522800  0.81700900  1
  Cu  Cu3  1  0.33761700  0.21477200  0.18299100  1
  Cu  Cu4  1  0.37098900  0.73308000  0.04271100  1
  Cu  Cu5  1  0.62901100  0.26692000  0.95728900  1
  C  C6  1  0.09761300  0.23897400  0.88669200  1
  C  C7  1  0.90238700  0.76102600  0.11330800  1
  C  C8  1  0.17554100  0.90146000  0.74509000  1
  C  C9  1  0.82445900  0.09854000  0.25491000  1
  C  C10  1  0.66290700  0.19962200  0.47078800  1
  C  C11  1  0.33709300  0.80037800  0.52921200  1
  C  C12  1  0.87171700  0.47041200  0.74272200  1
  C  C13  1  0.12828300  0.52958800  0.25727800  1
  C  C14  1  0.50000000  0.00000000  0.50000000  1
  C  C15  1  0.84578200  0.34410700  0.60495300  1
  C  C16  1  0.15421800  0.65589300  0.39504700  1
  C  C17  1  0.38922600  0.91167700  0.85112100  1
  C  C18  1  0.61077400  0.08832300  0.14887900  1
  C  C19  1  0.87396300  0.12394700  0.91222900  1
  C  C20  1  0.12603700  0.87605300  0.08777100  1
  C  C21  1  0.67447700  0.69324700  0.00257700  1
  C  C22  1  0.32552300  0.30675300  0.99742300  1
  C  C23  1  0.11653700  0.10482800  0.76213200  1
  C  C24  1  0.88346300  0.89517200  0.23786800  1
  C  C25  1  0.08688900  0.45480200  0.84502300  1
  C  C26  1  0.91311100  0.54519800  0.15497700  1
  C  C27  1  0.95163400  0.71505400  0.74006200  1
  C  C28  1  0.04836600  0.28494600  0.25993800  1
  C  C29  1  0.46765300  0.68659700  0.60892500  1
  C  C30  1  0.53234700  0.31340300  0.39107500  1
  C  C31  1  0.34243800  0.58512000  0.21728600  1
  C  C32  1  0.65756200  0.41488000  0.78271400  1
  C  C33  1  0.18732800  0.88053000  0.60026700  1
  C  C34  1  0.81267200  0.11947000  0.39973300  1
