# generated using pymatgen
data_Cu(NiC9)3
_symmetry_space_group_name_H-M   'P 1'
_cell_length_a   7.27921156
_cell_length_b   7.27921156
_cell_length_c   17.55495300
_cell_angle_alpha   90.00000000
_cell_angle_beta   90.00000000
_cell_angle_gamma   119.99999597
_symmetry_Int_Tables_number   1
_chemical_formula_structural   Cu(NiC9)3
_chemical_formula_sum   'Cu2 Ni6 C54'
_cell_volume   805.56205933
_cell_formula_units_Z   2
loop_
 _symmetry_equiv_pos_site_id
 _symmetry_equiv_pos_as_xyz
  1  'x, y, z'
loop_
 _atom_site_type_symbol
 _atom_site_label
 _atom_site_symmetry_multiplicity
 _atom_site_fract_x
 _atom_site_fract_y
 _atom_site_fract_z
 _atom_site_occupancy
  Ni  Ni0  1  0.66666700  0.33333300  0.86748500  1
  Ni  Ni1  1  0.33333300  0.66666700  0.13251500  1
  Ni  Ni2  1  0.33333300  0.66666700  0.36748500  1
  Ni  Ni3  1  0.66666700  0.33333300  0.63251500  1
  Ni  Ni4  1  0.00000000  0.00000000  0.75000000  1
  Ni  Ni5  1  0.00000000  0.00000000  0.25000000  1
  Cu  Cu6  1  0.00000000  0.00000000  0.00000000  1
  Cu  Cu7  1  0.00000000  0.00000000  0.50000000  1
  C  C8  1  0.54990700  0.83494500  0.91816400  1
  C  C9  1  0.45009300  0.16505500  0.08183600  1
  C  C10  1  0.28503800  0.45009300  0.91816400  1
  C  C11  1  0.45009300  0.16505500  0.41816400  1
  C  C12  1  0.71496200  0.54990700  0.08183600  1
  C  C13  1  0.54990700  0.83494500  0.58183600  1
  C  C14  1  0.16505500  0.71496200  0.91816400  1
  C  C15  1  0.71496200  0.54990700  0.41816400  1
  C  C16  1  0.83494500  0.28503800  0.08183600  1
  C  C17  1  0.28503800  0.45009300  0.58183600  1
  C  C18  1  0.83494500  0.28503800  0.41816400  1
  C  C19  1  0.16505500  0.71496200  0.58183600  1
  C  C20  1  0.50481300  0.62215100  0.75000000  1
  C  C21  1  0.49518700  0.37784900  0.25000000  1
  C  C22  1  0.11733700  0.49518700  0.75000000  1
  C  C23  1  0.88266300  0.50481300  0.25000000  1
  C  C24  1  0.37784900  0.88266300  0.75000000  1
  C  C25  1  0.62215100  0.11733700  0.25000000  1
  C  C26  1  0.54193700  0.83297300  0.75000000  1
  C  C27  1  0.45806300  0.16702700  0.25000000  1
  C  C28  1  0.29103600  0.45806300  0.75000000  1
  C  C29  1  0.70896400  0.54193700  0.25000000  1
  C  C30  1  0.16702700  0.70896400  0.75000000  1
  C  C31  1  0.83297300  0.29103600  0.25000000  1
  C  C32  1  0.92012400  0.33297500  0.75000000  1
  C  C33  1  0.07987600  0.66702500  0.25000000  1
  C  C34  1  0.41285100  0.07987600  0.75000000  1
  C  C35  1  0.58714900  0.92012400  0.25000000  1
  C  C36  1  0.66702500  0.58714900  0.75000000  1
  C  C37  1  0.33297500  0.41285100  0.25000000  1
  C  C38  1  0.74918600  0.99519600  0.91882300  1
  C  C39  1  0.25081400  0.00480400  0.08117700  1
  C  C40  1  0.24601000  0.25081400  0.91882300  1
  C  C41  1  0.25081400  0.00480400  0.41882300  1
  C  C42  1  0.75399000  0.74918600  0.08117700  1
  C  C43  1  0.74918600  0.99519600  0.58117700  1
  C  C44  1  0.00480400  0.75399000  0.91882300  1
  C  C45  1  0.75399000  0.74918600  0.41882300  1
  C  C46  1  0.99519600  0.24601000  0.08117700  1
  C  C47  1  0.24601000  0.25081400  0.58117700  1
  C  C48  1  0.99519600  0.24601000  0.41882300  1
  C  C49  1  0.00480400  0.75399000  0.58117700  1
  C  C50  1  0.49681300  0.62009300  0.91804600  1
  C  C51  1  0.50318700  0.37990700  0.08195400  1
  C  C52  1  0.12328000  0.50318700  0.91804600  1
  C  C53  1  0.50318700  0.37990700  0.41804600  1
  C  C54  1  0.87672000  0.49681300  0.08195400  1
  C  C55  1  0.49681300  0.62009300  0.58195400  1
  C  C56  1  0.37990700  0.87672000  0.91804600  1
  C  C57  1  0.87672000  0.49681300  0.41804600  1
  C  C58  1  0.62009300  0.12328000  0.08195400  1
  C  C59  1  0.12328000  0.50318700  0.58195400  1
  C  C60  1  0.62009300  0.12328000  0.41804600  1
  C  C61  1  0.37990700  0.87672000  0.58195400  1
