# generated using pymatgen
data_Cu2NiC9
_symmetry_space_group_name_H-M   'P 1'
_cell_length_a   7.94835846
_cell_length_b   10.22118238
_cell_length_c   11.32824733
_cell_angle_alpha   63.28666004
_cell_angle_beta   69.65074494
_cell_angle_gamma   72.54217954
_symmetry_Int_Tables_number   1
_chemical_formula_structural   Cu2NiC9
_chemical_formula_sum   'Cu8 Ni4 C36'
_cell_volume   759.36124176
_cell_formula_units_Z   4
loop_
 _symmetry_equiv_pos_site_id
 _symmetry_equiv_pos_as_xyz
  1  'x, y, z'
loop_
 _atom_site_type_symbol
 _atom_site_label
 _atom_site_symmetry_multiplicity
 _atom_site_fract_x
 _atom_site_fract_y
 _atom_site_fract_z
 _atom_site_occupancy
  C  C0  1  0.67852000  0.69473600  0.33615500  1
  C  C1  1  0.32148000  0.30526400  0.66384500  1
  C  C2  1  0.80692200  0.31446300  0.04344000  1
  C  C3  1  0.19307800  0.68553700  0.95656000  1
  C  C4  1  0.12541300  0.76246400  0.36760700  1
  C  C5  1  0.87458700  0.23753600  0.63239300  1
  C  C6  1  0.86967600  0.69007300  0.69361100  1
  C  C7  1  0.13032400  0.30992700  0.30638900  1
  Ni  Ni8  1  0.20209600  0.95723100  0.55570900  1
  Ni  Ni9  1  0.79790400  0.04276900  0.44429100  1
  Ni  Ni10  1  0.69395100  0.92166600  0.86643400  1
  Ni  Ni11  1  0.30604900  0.07833400  0.13356600  1
  Cu  Cu12  1  0.48293100  0.87020400  0.61467300  1
  Cu  Cu13  1  0.51706900  0.12979600  0.38532700  1
  Cu  Cu14  1  0.68224000  0.99892300  0.02719100  1
  Cu  Cu15  1  0.31776000  0.00107700  0.97280900  1
  Cu  Cu16  1  0.49793400  0.53831000  0.19811500  1
  Cu  Cu17  1  0.50206600  0.46169000  0.80188500  1
  Cu  Cu18  1  0.54359100  0.68037400  0.06767500  1
  Cu  Cu19  1  0.45640900  0.31962600  0.93232500  1
  C  C20  1  0.09006600  0.84632000  0.54089500  1
  C  C21  1  0.90993400  0.15368000  0.45910500  1
  C  C22  1  0.29991200  0.08789600  0.40364300  1
  C  C23  1  0.70008800  0.91210400  0.59635700  1
  C  C24  1  0.07806100  0.03077000  0.67571400  1
  C  C25  1  0.92193900  0.96923000  0.32428600  1
  C  C26  1  0.38342800  0.82454400  0.62081900  1
  C  C27  1  0.61657200  0.17545600  0.37918100  1
  C  C28  1  0.68925700  0.09853300  0.73951100  1
  C  C29  1  0.31074300  0.90146700  0.26048900  1
  C  C30  1  0.85782000  0.78656300  0.82014700  1
  C  C31  1  0.14218000  0.21343700  0.17985300  1
  C  C32  1  0.48302400  0.87776500  0.92964000  1
  C  C33  1  0.51697600  0.12223500  0.07036000  1
  C  C34  1  0.77547200  0.92228300  0.99230300  1
  C  C35  1  0.22452800  0.07771700  0.00769700  1
  C  C36  1  0.03874400  0.54894300  0.76104000  1
  C  C37  1  0.96125600  0.45105700  0.23896000  1
  C  C38  1  0.67416900  0.61056500  0.77694400  1
  C  C39  1  0.32583100  0.38943500  0.22305600  1
  C  C40  1  0.09166700  0.73309100  0.23854800  1
  C  C41  1  0.90833300  0.26690900  0.76145200  1
  C  C42  1  0.29897200  0.61755500  0.42510000  1
  C  C43  1  0.70102800  0.38244500  0.57490000  1
  C  C44  1  0.92404700  0.67968100  0.51761100  1
  C  C45  1  0.07595300  0.32031900  0.48238900  1
  C  C46  1  0.59955700  0.58806900  0.13115200  1
  C  C47  1  0.40044300  0.41193100  0.86884800  1
