# generated using pymatgen
data_Cu2NiC17
_symmetry_space_group_name_H-M   'P 1'
_cell_length_a   5.18041233
_cell_length_b   7.54711934
_cell_length_c   11.00108442
_cell_angle_alpha   85.74578376
_cell_angle_beta   90.06378937
_cell_angle_gamma   90.19544609
_symmetry_Int_Tables_number   1
_chemical_formula_structural   Cu2NiC17
_chemical_formula_sum   'Cu4 Ni2 C34'
_cell_volume   428.92376011
_cell_formula_units_Z   2
loop_
 _symmetry_equiv_pos_site_id
 _symmetry_equiv_pos_as_xyz
  1  'x, y, z'
loop_
 _atom_site_type_symbol
 _atom_site_label
 _atom_site_symmetry_multiplicity
 _atom_site_fract_x
 _atom_site_fract_y
 _atom_site_fract_z
 _atom_site_occupancy
  C  C0  1  0.00455500  0.26230800  0.28777000  1
  C  C1  1  0.00955600  0.27248500  0.79547100  1
  C  C2  1  0.49707600  0.79965000  0.52983800  1
  C  C3  1  0.49387200  0.80907900  0.02520700  1
  C  C4  1  0.98878400  0.81279400  0.29740000  1
  C  C5  1  0.00030000  0.80021900  0.79186700  1
  C  C6  1  0.50562200  0.21609100  0.97964300  1
  C  C7  1  0.50579800  0.20666100  0.47256500  1
  Ni  Ni8  1  0.00317600  0.99703000  0.00270700  1
  Ni  Ni9  1  0.00360800  0.99983800  0.50435800  1
  C  C10  1  0.48066500  0.51535000  0.25347300  1
  C  C11  1  0.49952100  0.50269800  0.75005500  1
  Cu  Cu12  1  0.99686000  0.50240200  0.50356000  1
  Cu  Cu13  1  0.50727800  0.00569100  0.24970700  1
  Cu  Cu14  1  0.98338800  0.50348600  0.00329100  1
  Cu  Cu15  1  0.50677900  0.00380800  0.74834700  1
  C  C16  1  0.30433800  0.42814900  0.40976800  1
  C  C17  1  0.30839500  0.42626200  0.89625600  1
  C  C18  1  0.12190300  0.73988700  0.50629000  1
  C  C19  1  0.12459300  0.73804400  0.98850700  1
  C  C20  1  0.32471600  0.04898400  0.59821300  1
  C  C21  1  0.31937000  0.05136500  0.09794700  1
  C  C22  1  0.19647500  0.43141600  0.65778900  1
  C  C23  1  0.14321300  0.43646900  0.15593700  1
  C  C24  1  0.80275900  0.94138500  0.65806000  1
  C  C25  1  0.79202700  0.92646000  0.15446700  1
  C  C26  1  0.37512000  0.74611700  0.74597900  1
  C  C27  1  0.34721900  0.75688900  0.25492800  1
  C  C28  1  0.62830500  0.25533100  0.74969900  1
  C  C29  1  0.64078000  0.23550300  0.25641800  1
  C  C30  1  0.20539300  0.04860900  0.84352100  1
  C  C31  1  0.20521500  0.05688700  0.34803600  1
  C  C32  1  0.82228300  0.55724100  0.82917800  1
  C  C33  1  0.82875800  0.57240400  0.35403100  1
  C  C34  1  0.69574100  0.94532900  0.89745400  1
  C  C35  1  0.69674900  0.93543800  0.40101900  1
  C  C36  1  0.88982000  0.25712700  0.98719400  1
  C  C37  1  0.88673100  0.25909000  0.49917000  1
  C  C38  1  0.67361800  0.57506400  0.06222800  1
  C  C39  1  0.67964900  0.56336600  0.59505000  1
