# generated using pymatgen
data_Cu(NiC2)3
_symmetry_space_group_name_H-M   'P 1'
_cell_length_a   8.79406316
_cell_length_b   8.79406316
_cell_length_c   10.54130878
_cell_angle_alpha   87.56742646
_cell_angle_beta   87.56742646
_cell_angle_gamma   61.37491099
_symmetry_Int_Tables_number   1
_chemical_formula_structural   Cu(NiC2)3
_chemical_formula_sum   'Cu6 Ni18 C36'
_cell_volume   714.70439155
_cell_formula_units_Z   6
loop_
 _symmetry_equiv_pos_site_id
 _symmetry_equiv_pos_as_xyz
  1  'x, y, z'
loop_
 _atom_site_type_symbol
 _atom_site_label
 _atom_site_symmetry_multiplicity
 _atom_site_fract_x
 _atom_site_fract_y
 _atom_site_fract_z
 _atom_site_occupancy
  Ni  Ni0  1  0.20090800  0.79909200  0.25000000  1
  Ni  Ni1  1  0.79909200  0.20090800  0.75000000  1
  Ni  Ni2  1  0.67724600  0.37744100  0.44770300  1
  Ni  Ni3  1  0.62255900  0.32275400  0.05229700  1
  Ni  Ni4  1  0.32275400  0.62255900  0.55229700  1
  Ni  Ni5  1  0.37744100  0.67724600  0.94770300  1
  Ni  Ni6  1  0.72684900  0.00144300  0.25746400  1
  Ni  Ni7  1  0.99855700  0.27315100  0.24253600  1
  Ni  Ni8  1  0.27315100  0.99855700  0.74253600  1
  Ni  Ni9  1  0.00144300  0.72684900  0.75746400  1
  Ni  Ni10  1  0.34281400  0.06485100  0.07467900  1
  Ni  Ni11  1  0.93514900  0.65718600  0.42532100  1
  Ni  Ni12  1  0.65718600  0.93514900  0.92532100  1
  Ni  Ni13  1  0.06485100  0.34281400  0.57467900  1
  Ni  Ni14  1  0.42578900  0.89854100  0.44131200  1
  Ni  Ni15  1  0.10145900  0.57421100  0.05868800  1
  Ni  Ni16  1  0.57421100  0.10145900  0.55868800  1
  Ni  Ni17  1  0.89854100  0.42578900  0.94131200  1
  Cu  Cu18  1  0.00000000  0.00000000  0.50000000  1
  Cu  Cu19  1  0.00000000  0.00000000  0.00000000  1
  Cu  Cu20  1  0.66257000  0.66613800  0.19445900  1
  Cu  Cu21  1  0.33386200  0.33743000  0.30554100  1
  Cu  Cu22  1  0.33743000  0.33386200  0.80554100  1
  Cu  Cu23  1  0.66613800  0.66257000  0.69445900  1
  C  C24  1  0.76805800  0.08929200  0.42890500  1
  C  C25  1  0.91070800  0.23194200  0.07109500  1
  C  C26  1  0.23194200  0.91070800  0.57109500  1
  C  C27  1  0.08929200  0.76805800  0.92890500  1
  C  C28  1  0.43005400  0.42564400  0.42773800  1
  C  C29  1  0.57435600  0.56994600  0.07226200  1
  C  C30  1  0.56994600  0.57435600  0.57226200  1
  C  C31  1  0.42564400  0.43005400  0.92773800  1
  C  C32  1  0.54774400  0.23172200  0.20096700  1
  C  C33  1  0.76827800  0.45225600  0.29903300  1
  C  C34  1  0.45225600  0.76827800  0.79903300  1
  C  C35  1  0.23172200  0.54774400  0.70096700  1
  C  C36  1  0.43093000  0.12097800  0.40516100  1
  C  C37  1  0.87902200  0.56907000  0.09483900  1
  C  C38  1  0.44425800  0.75889400  0.29484800  1
  C  C39  1  0.56907000  0.87902200  0.59483900  1
  C  C40  1  0.74069200  0.77722300  0.31735700  1
  C  C41  1  0.22277700  0.25930900  0.18264300  1
  C  C42  1  0.25930900  0.22277700  0.68264300  1
  C  C43  1  0.77722300  0.74069200  0.81735700  1
  C  C44  1  0.58690400  0.88661900  0.09964300  1
  C  C45  1  0.11338100  0.41309600  0.40035700  1
  C  C46  1  0.41309600  0.11338100  0.90035700  1
  C  C47  1  0.88661900  0.58690400  0.59964300  1
  C  C48  1  0.04738000  0.09279300  0.84203500  1
  C  C49  1  0.90720700  0.95262000  0.65796500  1
  C  C50  1  0.95262000  0.90720700  0.15796500  1
  C  C51  1  0.09279300  0.04738000  0.34203500  1
  C  C52  1  0.90946500  0.23746900  0.55948600  1
  C  C53  1  0.76253100  0.09053500  0.94051400  1
  C  C54  1  0.09053500  0.76253100  0.44051400  1
  C  C55  1  0.23746900  0.90946500  0.05948600  1
  C  C56  1  0.75889400  0.44425800  0.79484800  1
  C  C57  1  0.55574200  0.24110600  0.70515200  1
  C  C58  1  0.24110600  0.55574200  0.20515200  1
  C  C59  1  0.12097800  0.43093000  0.90516100  1
