# generated using pymatgen
data_Cu4NiC12
_symmetry_space_group_name_H-M   'P 1'
_cell_length_a   7.29021900
_cell_length_b   4.60484300
_cell_length_c   9.35995876
_cell_angle_alpha   89.53537061
_cell_angle_beta   90.00000000
_cell_angle_gamma   90.00000000
_symmetry_Int_Tables_number   1
_chemical_formula_structural   Cu4NiC12
_chemical_formula_sum   'Cu8 Ni2 C24'
_cell_volume   314.20642235
_cell_formula_units_Z   2
loop_
 _symmetry_equiv_pos_site_id
 _symmetry_equiv_pos_as_xyz
  1  'x, y, z'
loop_
 _atom_site_type_symbol
 _atom_site_label
 _atom_site_symmetry_multiplicity
 _atom_site_fract_x
 _atom_site_fract_y
 _atom_site_fract_z
 _atom_site_occupancy
  C  C0  1  0.39549600  0.00428100  0.83473000  1
  C  C1  1  0.89549600  0.99571900  0.66527000  1
  C  C2  1  0.10450400  0.00428100  0.33473000  1
  C  C3  1  0.60450400  0.99571900  0.16527000  1
  Ni  Ni4  1  0.00000000  0.00000000  0.00000000  1
  Ni  Ni5  1  0.50000000  0.00000000  0.50000000  1
  Cu  Cu6  1  0.26760700  0.53983400  0.08086700  1
  Cu  Cu7  1  0.76760700  0.46016600  0.41913300  1
  Cu  Cu8  1  0.73239300  0.46016600  0.91913300  1
  Cu  Cu9  1  0.23239300  0.53983400  0.58086700  1
  Cu  Cu10  1  0.59857000  0.52781400  0.66176500  1
  Cu  Cu11  1  0.09857000  0.47218600  0.83823500  1
  Cu  Cu12  1  0.40143000  0.47218600  0.33823500  1
  Cu  Cu13  1  0.90143000  0.52781400  0.16176500  1
  C  C14  1  0.41074600  0.78531800  0.33423100  1
  C  C15  1  0.58925400  0.21468200  0.66576900  1
  C  C16  1  0.08717700  0.67708900  0.13800600  1
  C  C17  1  0.58717700  0.32291100  0.36199400  1
  C  C18  1  0.91282300  0.32291100  0.86199400  1
  C  C19  1  0.08925400  0.78531800  0.83423100  1
  C  C20  1  0.77777200  0.64077100  0.04699800  1
  C  C21  1  0.27777200  0.35922900  0.45300200  1
  C  C22  1  0.22222800  0.35922900  0.95300200  1
  C  C23  1  0.72222800  0.64077100  0.54699800  1
  C  C24  1  0.83440000  0.65660300  0.29999600  1
  C  C25  1  0.33440000  0.34339700  0.20000400  1
  C  C26  1  0.16560000  0.34339700  0.70000400  1
  C  C27  1  0.66560000  0.65660300  0.79999600  1
  C  C28  1  0.11171200  0.77105600  0.54241700  1
  C  C29  1  0.61171200  0.22894400  0.95758300  1
  C  C30  1  0.88828800  0.22894400  0.45758300  1
  C  C31  1  0.38828800  0.77105600  0.04241700  1
  C  C32  1  0.41282300  0.67708900  0.63800600  1
  C  C33  1  0.91074600  0.21468200  0.16576900  1
