# generated using pymatgen
data_Cu3Ni10C13
_symmetry_space_group_name_H-M   'P 1'
_cell_length_a   3.83729200
_cell_length_b   12.79385500
_cell_length_c   18.59661800
_cell_angle_alpha   90.00000000
_cell_angle_beta   90.00000000
_cell_angle_gamma   90.00000000
_symmetry_Int_Tables_number   1
_chemical_formula_structural   Cu3Ni10C13
_chemical_formula_sum   'Cu12 Ni40 C52'
_cell_volume   912.97785331
_cell_formula_units_Z   4
loop_
 _symmetry_equiv_pos_site_id
 _symmetry_equiv_pos_as_xyz
  1  'x, y, z'
loop_
 _atom_site_type_symbol
 _atom_site_label
 _atom_site_symmetry_multiplicity
 _atom_site_fract_x
 _atom_site_fract_y
 _atom_site_fract_z
 _atom_site_occupancy
  C  C0  1  0.60928300  0.43021400  0.02567900  1
  C  C1  1  0.89071700  0.56978600  0.52567900  1
  C  C2  1  0.39071700  0.93021400  0.47432100  1
  C  C3  1  0.10928300  0.06978600  0.97432100  1
  C  C4  1  0.16235500  0.28184800  0.51186800  1
  C  C5  1  0.33764500  0.71815200  0.01186800  1
  C  C6  1  0.83764500  0.78184800  0.98813200  1
  C  C7  1  0.66235500  0.21815200  0.48813200  1
  C  C8  1  0.66659100  0.08580400  0.05950400  1
  C  C9  1  0.83340900  0.91419600  0.55950400  1
  C  C10  1  0.33340900  0.58580400  0.44049600  1
  C  C11  1  0.16659100  0.41419600  0.94049600  1
  C  C12  1  0.36217700  0.15862200  0.44554700  1
  C  C13  1  0.13782300  0.84137800  0.94554700  1
  C  C14  1  0.63782300  0.65862200  0.05445300  1
  C  C15  1  0.86217700  0.34137800  0.55445300  1
  C  C16  1  0.41175300  0.43225700  0.25736600  1
  C  C17  1  0.08824700  0.56774300  0.75736600  1
  C  C18  1  0.58824700  0.93225700  0.24263400  1
  C  C19  1  0.91175300  0.06774300  0.74263400  1
  C  C20  1  0.40136400  0.30568800  0.28624000  1
  C  C21  1  0.09863600  0.69431200  0.78624000  1
  C  C22  1  0.59863600  0.80568800  0.21376000  1
  C  C23  1  0.90136400  0.19431200  0.71376000  1
  C  C24  1  0.33466900  0.46747400  0.47588500  1
  C  C25  1  0.16533100  0.53252600  0.97588500  1
  C  C26  1  0.66533100  0.96747400  0.02411500  1
  C  C27  1  0.83466900  0.03252600  0.52411500  1
  C  C28  1  0.31172900  0.14957800  0.62398900  1
  C  C29  1  0.18827100  0.85042200  0.12398900  1
  C  C30  1  0.68827100  0.64957800  0.87601100  1
  C  C31  1  0.81172900  0.35042200  0.37601100  1
  C  C32  1  0.27023900  0.14613300  0.75212600  1
  C  C33  1  0.22976100  0.85386700  0.25212600  1
  C  C34  1  0.72976100  0.64613300  0.74787400  1
  C  C35  1  0.77023900  0.35386700  0.24787400  1
  C  C36  1  0.28237800  0.46403900  0.08752300  1
  C  C37  1  0.21762200  0.53596100  0.58752300  1
  C  C38  1  0.71762200  0.96403900  0.41247700  1
  C  C39  1  0.78237800  0.03596100  0.91247700  1
  C  C40  1  0.28628000  0.34292200  0.05153000  1
  C  C41  1  0.21372000  0.65707800  0.55153000  1
  C  C42  1  0.71372000  0.84292200  0.44847000  1
  C  C43  1  0.78628000  0.15707800  0.94847000  1
  C  C44  1  0.31389000  0.02729500  0.65282700  1
  C  C45  1  0.18611000  0.97270500  0.15282700  1
  C  C46  1  0.68611000  0.52729500  0.84717300  1
  C  C47  1  0.81389000  0.47270500  0.34717300  1
  C  C48  1  0.01351600  0.62789500  0.25362100  1
  C  C49  1  0.48648400  0.37210500  0.75362100  1
  C  C50  1  0.98648400  0.12789500  0.24637900  1
  C  C51  1  0.51351600  0.87210500  0.74637900  1
  Ni  Ni52  1  0.09233600  0.13893700  0.35941400  1
  Ni  Ni53  1  0.40766400  0.86106300  0.85941400  1
  Ni  Ni54  1  0.90766400  0.63893700  0.14058600  1
  Ni  Ni55  1  0.59233600  0.36106300  0.64058600  1
  Ni  Ni56  1  0.03965400  0.22618600  0.14268700  1
  Ni  Ni57  1  0.46034600  0.77381400  0.64268700  1
  Ni  Ni58  1  0.96034600  0.72618600  0.35731300  1
  Ni  Ni59  1  0.53965400  0.27381400  0.85731300  1
  Ni  Ni60  1  0.06309700  0.12728400  0.71832100  1
  Ni  Ni61  1  0.43690300  0.87271600  0.21832100  1
  Ni  Ni62  1  0.93690300  0.62728400  0.78167900  1
  Ni  Ni63  1  0.56309700  0.37271600  0.28167900  1
  Ni  Ni64  1  0.03706800  0.63642000  0.32754400  1
  Ni  Ni65  1  0.46293200  0.36357900  0.82754400  1
  Ni  Ni66  1  0.96293200  0.13642100  0.17245600  1
  Ni  Ni67  1  0.53706800  0.86358000  0.67245600  1
  Ni  Ni68  1  0.34784600  0.42112900  0.04077300  1
  Ni  Ni69  1  0.15215400  0.57887100  0.54077300  1
  Ni  Ni70  1  0.65215400  0.92112900  0.45922700  1
  Ni  Ni71  1  0.84784600  0.07887100  0.95922700  1
  Ni  Ni72  1  0.13117000  0.19096400  0.29690700  1
  Ni  Ni73  1  0.36883000  0.80903600  0.79690700  1
  Ni  Ni74  1  0.86883000  0.69096400  0.20309300  1
  Ni  Ni75  1  0.63117000  0.30903600  0.70309300  1
  Ni  Ni76  1  0.16105800  0.09275500  0.64721800  1
  Ni  Ni77  1  0.33894200  0.90724500  0.14721800  1
  Ni  Ni78  1  0.83894200  0.59275500  0.85278200  1
  Ni  Ni79  1  0.66105800  0.40724500  0.35278200  1
  Ni  Ni80  1  0.13724300  0.53924600  0.22273500  1
  Ni  Ni81  1  0.36275700  0.46075400  0.72273500  1
  Ni  Ni82  1  0.86275700  0.03924600  0.27726500  1
  Ni  Ni83  1  0.63724300  0.96075400  0.77726500  1
  Ni  Ni84  1  0.60503700  0.04422700  0.01388000  1
  Ni  Ni85  1  0.89496300  0.95577300  0.51388000  1
  Ni  Ni86  1  0.39496300  0.54422700  0.48612000  1
  Ni  Ni87  1  0.10503700  0.45577300  0.98612000  1
  Ni  Ni88  1  0.06770200  0.54939800  0.15249900  1
  Ni  Ni89  1  0.43229800  0.45060200  0.65249900  1
  Ni  Ni90  1  0.93229800  0.04939800  0.34750100  1
  Ni  Ni91  1  0.56770200  0.95060200  0.84750100  1
  Cu  Cu92  1  0.46535200  0.16895100  0.49407000  1
  Cu  Cu93  1  0.03464800  0.83104900  0.99407000  1
  Cu  Cu94  1  0.53464800  0.66895100  0.00593000  1
  Cu  Cu95  1  0.96535200  0.33104900  0.50593000  1
  Cu  Cu96  1  0.11904500  0.30914000  0.17714400  1
  Cu  Cu97  1  0.38095500  0.69086000  0.67714400  1
  Cu  Cu98  1  0.88095500  0.80914000  0.32285600  1
  Cu  Cu99  1  0.61904500  0.19086000  0.82285600  1
  Cu  Cu100  1  0.02942000  0.22968800  0.07365000  1
  Cu  Cu101  1  0.47058000  0.77031200  0.57365000  1
  Cu  Cu102  1  0.97058000  0.72968800  0.42635000  1
  Cu  Cu103  1  0.52942000  0.27031200  0.92635000  1
