# generated using pymatgen
data_Cu5(NiC17)2
_symmetry_space_group_name_H-M   'P 1'
_cell_length_a   5.39710100
_cell_length_b   9.84178400
_cell_length_c   18.54128000
_cell_angle_alpha   90.00000000
_cell_angle_beta   90.00000000
_cell_angle_gamma   90.00000000
_symmetry_Int_Tables_number   1
_chemical_formula_structural   Cu5(NiC17)2
_chemical_formula_sum   'Cu10 Ni4 C68'
_cell_volume   984.85906594
_cell_formula_units_Z   2
loop_
 _symmetry_equiv_pos_site_id
 _symmetry_equiv_pos_as_xyz
  1  'x, y, z'
loop_
 _atom_site_type_symbol
 _atom_site_label
 _atom_site_symmetry_multiplicity
 _atom_site_fract_x
 _atom_site_fract_y
 _atom_site_fract_z
 _atom_site_occupancy
  Ni  Ni0  1  0.00000000  0.50000000  0.22957300  1
  Ni  Ni1  1  0.00000000  0.50000000  0.77042700  1
  Ni  Ni2  1  0.50000000  0.00000000  0.27042700  1
  Ni  Ni3  1  0.50000000  0.00000000  0.72957300  1
  Cu  Cu4  1  0.00000000  0.50000000  0.39309300  1
  Cu  Cu5  1  0.00000000  0.50000000  0.60690700  1
  Cu  Cu6  1  0.50000000  0.00000000  0.10690700  1
  Cu  Cu7  1  0.50000000  0.00000000  0.89309300  1
  Cu  Cu8  1  0.00000000  0.00000000  0.17798800  1
  Cu  Cu9  1  0.00000000  0.00000000  0.82201200  1
  Cu  Cu10  1  0.50000000  0.50000000  0.32201200  1
  Cu  Cu11  1  0.50000000  0.50000000  0.67798800  1
  Cu  Cu12  1  0.00000000  0.00000000  0.00000000  1
  Cu  Cu13  1  0.50000000  0.50000000  0.50000000  1
  C  C14  1  0.16033300  0.20395900  0.33050800  1
  C  C15  1  0.83966700  0.79604100  0.66949200  1
  C  C16  1  0.83966700  0.79604100  0.33050800  1
  C  C17  1  0.33966700  0.70395900  0.16949200  1
  C  C18  1  0.16033300  0.20395900  0.66949200  1
  C  C19  1  0.66033300  0.29604100  0.83050800  1
  C  C20  1  0.66033300  0.29604100  0.16949200  1
  C  C21  1  0.33966700  0.70395900  0.83050800  1
  C  C22  1  0.16353100  0.28024700  0.08420700  1
  C  C23  1  0.83646900  0.71975300  0.91579300  1
  C  C24  1  0.83646900  0.71975300  0.08420700  1
  C  C25  1  0.33646900  0.78024700  0.41579300  1
  C  C26  1  0.16353100  0.28024700  0.91579300  1
  C  C27  1  0.66353100  0.21975300  0.58420700  1
  C  C28  1  0.66353100  0.21975300  0.41579300  1
  C  C29  1  0.33646900  0.78024700  0.58420700  1
  C  C30  1  0.63761700  0.99585600  0.00000000  1
  C  C31  1  0.36238300  0.00414400  0.00000000  1
  C  C32  1  0.86238300  0.49585600  0.50000000  1
  C  C33  1  0.13761700  0.50414400  0.50000000  1
  C  C34  1  0.16902600  0.36960800  0.31886600  1
  C  C35  1  0.83097400  0.63039200  0.68113400  1
  C  C36  1  0.83097400  0.63039200  0.31886600  1
  C  C37  1  0.33097400  0.86960800  0.18113400  1
  C  C38  1  0.16902600  0.36960800  0.68113400  1
  C  C39  1  0.66902600  0.13039200  0.81886600  1
  C  C40  1  0.66902600  0.13039200  0.18113400  1
  C  C41  1  0.33097400  0.86960800  0.81886600  1
  C  C42  1  0.41364800  0.34051700  0.12283000  1
  C  C43  1  0.58635200  0.65948300  0.87717000  1
  C  C44  1  0.58635200  0.65948300  0.12283000  1
  C  C45  1  0.08635200  0.84051700  0.37717000  1
  C  C46  1  0.41364800  0.34051700  0.87717000  1
  C  C47  1  0.91364800  0.15948300  0.62283000  1
  C  C48  1  0.91364800  0.15948300  0.37717000  1
  C  C49  1  0.08635200  0.84051700  0.62283000  1
  C  C50  1  0.17802300  0.11558000  0.25698600  1
  C  C51  1  0.82197700  0.88442000  0.74301400  1
  C  C52  1  0.82197700  0.88442000  0.25698600  1
  C  C53  1  0.32197700  0.61558000  0.24301400  1
  C  C54  1  0.17802300  0.11558000  0.74301400  1
  C  C55  1  0.67802300  0.38442000  0.75698600  1
  C  C56  1  0.67802300  0.38442000  0.24301400  1
  C  C57  1  0.32197700  0.61558000  0.75698600  1
  C  C58  1  0.42149300  0.15361800  0.37290600  1
  C  C59  1  0.57850700  0.84638200  0.62709400  1
  C  C60  1  0.57850700  0.84638200  0.37290600  1
  C  C61  1  0.07850700  0.65361800  0.12709400  1
  C  C62  1  0.42149300  0.15361800  0.62709400  1
  C  C63  1  0.92149300  0.34638200  0.87290600  1
  C  C64  1  0.92149300  0.34638200  0.12709400  1
  C  C65  1  0.07850700  0.65361800  0.87290600  1
  C  C66  1  0.15591100  0.11488800  0.09136400  1
  C  C67  1  0.84408900  0.88511200  0.90863600  1
  C  C68  1  0.84408900  0.88511200  0.09136400  1
  C  C69  1  0.34408900  0.61488800  0.40863600  1
  C  C70  1  0.15591100  0.11488800  0.90863600  1
  C  C71  1  0.65591100  0.38511200  0.59136400  1
  C  C72  1  0.65591100  0.38511200  0.40863600  1
  C  C73  1  0.34408900  0.61488800  0.59136400  1
  C  C74  1  0.66196200  0.09575600  0.00000000  1
  C  C75  1  0.33803800  0.90424400  0.00000000  1
  C  C76  1  0.83803800  0.59575600  0.50000000  1
  C  C77  1  0.16196200  0.40424400  0.50000000  1
  C  C78  1  0.15530100  0.32888300  0.00000000  1
  C  C79  1  0.84469900  0.67111700  0.00000000  1
  C  C80  1  0.34469900  0.82888300  0.50000000  1
  C  C81  1  0.65530100  0.17111700  0.50000000  1
