# generated using pymatgen
data_Cu4NiC3
_symmetry_space_group_name_H-M   'P 1'
_cell_length_a   8.85578793
_cell_length_b   8.85578793
_cell_length_c   6.88186989
_cell_angle_alpha   73.35636942
_cell_angle_beta   73.35636942
_cell_angle_gamma   55.94914381
_symmetry_Int_Tables_number   1
_chemical_formula_structural   Cu4NiC3
_chemical_formula_sum   'Cu8 Ni2 C6'
_cell_volume   423.00264830
_cell_formula_units_Z   2
loop_
 _symmetry_equiv_pos_site_id
 _symmetry_equiv_pos_as_xyz
  1  'x, y, z'
loop_
 _atom_site_type_symbol
 _atom_site_label
 _atom_site_symmetry_multiplicity
 _atom_site_fract_x
 _atom_site_fract_y
 _atom_site_fract_z
 _atom_site_occupancy
  C  C0  1  0.12307200  0.87692800  0.75000000  1
  C  C1  1  0.87692800  0.12307200  0.25000000  1
  C  C2  1  0.12469900  0.37622400  0.73394300  1
  C  C3  1  0.62377600  0.87530100  0.76605700  1
  C  C4  1  0.87530100  0.62377600  0.26605700  1
  C  C5  1  0.37622400  0.12469900  0.23394300  1
  Ni  Ni6  1  0.62479500  0.37520500  0.75000000  1
  Ni  Ni7  1  0.37520500  0.62479500  0.25000000  1
  Cu  Cu8  1  0.00745100  0.80020000  0.50213500  1
  Cu  Cu9  1  0.19980000  0.99254800  0.99786500  1
  Cu  Cu10  1  0.99254800  0.19980000  0.49786500  1
  Cu  Cu11  1  0.80020000  0.00745200  0.00213500  1
  Cu  Cu12  1  0.23324200  0.55507500  0.96333600  1
  Cu  Cu13  1  0.44492500  0.76675800  0.53666400  1
  Cu  Cu14  1  0.76675800  0.44492500  0.03666400  1
  Cu  Cu15  1  0.55507500  0.23324200  0.46333600  1
