# generated using pymatgen
data_Cu3NiC4
_symmetry_space_group_name_H-M   'P 1'
_cell_length_a   7.51216700
_cell_length_b   7.69610200
_cell_length_c   9.36702241
_cell_angle_alpha   76.17989564
_cell_angle_beta   90.00000000
_cell_angle_gamma   90.00000000
_symmetry_Int_Tables_number   1
_chemical_formula_structural   Cu3NiC4
_chemical_formula_sum   'Cu12 Ni4 C16'
_cell_volume   525.87125746
_cell_formula_units_Z   4
loop_
 _symmetry_equiv_pos_site_id
 _symmetry_equiv_pos_as_xyz
  1  'x, y, z'
loop_
 _atom_site_type_symbol
 _atom_site_label
 _atom_site_symmetry_multiplicity
 _atom_site_fract_x
 _atom_site_fract_y
 _atom_site_fract_z
 _atom_site_occupancy
  C  C0  1  0.63059700  0.25940500  0.67905200  1
  C  C1  1  0.13059700  0.24059500  0.32094800  1
  C  C2  1  0.36940300  0.74059500  0.32094800  1
  C  C3  1  0.86940300  0.75940500  0.67905200  1
  C  C4  1  0.58538300  0.44127400  0.88395600  1
  C  C5  1  0.08538300  0.05872600  0.11604400  1
  C  C6  1  0.41461700  0.55872600  0.11604400  1
  C  C7  1  0.91461700  0.94127400  0.88395600  1
  C  C8  1  0.38500000  0.32315000  0.86207400  1
  C  C9  1  0.88500000  0.17685000  0.13792600  1
  C  C10  1  0.61500000  0.67685000  0.13792600  1
  C  C11  1  0.11500000  0.82315000  0.86207400  1
  C  C12  1  0.56874800  0.20545500  0.96444300  1
  C  C13  1  0.06874800  0.29454500  0.03555700  1
  C  C14  1  0.43125200  0.79454500  0.03555700  1
  C  C15  1  0.93125200  0.70545500  0.96444300  1
  Ni  Ni16  1  0.53012700  0.31425800  0.87129500  1
  Ni  Ni17  1  0.03012700  0.18574200  0.12870500  1
  Ni  Ni18  1  0.46987300  0.68574200  0.12870500  1
  Ni  Ni19  1  0.96987300  0.81425800  0.87129500  1
  Cu  Cu20  1  0.65342800  0.17412600  0.39329100  1
  Cu  Cu21  1  0.15342800  0.32587400  0.60670900  1
  Cu  Cu22  1  0.34657200  0.82587400  0.60670900  1
  Cu  Cu23  1  0.84657200  0.67412600  0.39329100  1
  Cu  Cu24  1  0.57048500  0.15352800  0.29408600  1
  Cu  Cu25  1  0.07048500  0.34647200  0.70591400  1
  Cu  Cu26  1  0.42951500  0.84647200  0.70591400  1
  Cu  Cu27  1  0.92951500  0.65352800  0.29408600  1
  Cu  Cu28  1  0.75091200  0.19341800  0.49218800  1
  Cu  Cu29  1  0.25091200  0.30658200  0.50781200  1
  Cu  Cu30  1  0.24908800  0.80658200  0.50781200  1
  Cu  Cu31  1  0.74908800  0.69341800  0.49218800  1
