# generated using pymatgen
data_Cu12Ni5C2
_symmetry_space_group_name_H-M   'P 1'
_cell_length_a   11.56444200
_cell_length_b   11.56444200
_cell_length_c   11.56444200
_cell_angle_alpha   90.00000000
_cell_angle_beta   90.00000000
_cell_angle_gamma   90.00000000
_symmetry_Int_Tables_number   1
_chemical_formula_structural   Cu12Ni5C2
_chemical_formula_sum   'Cu48 Ni20 C8'
_cell_volume   1546.58590172
_cell_formula_units_Z   4
loop_
 _symmetry_equiv_pos_site_id
 _symmetry_equiv_pos_as_xyz
  1  'x, y, z'
loop_
 _atom_site_type_symbol
 _atom_site_label
 _atom_site_symmetry_multiplicity
 _atom_site_fract_x
 _atom_site_fract_y
 _atom_site_fract_z
 _atom_site_occupancy
  C  C0  1  0.05826000  0.05826000  0.05826000  1
  C  C1  1  0.44174000  0.94174000  0.55826000  1
  C  C2  1  0.94174000  0.55826000  0.44174000  1
  C  C3  1  0.55826000  0.44174000  0.94174000  1
  C  C4  1  0.81251700  0.81251700  0.81251700  1
  C  C5  1  0.68748300  0.18748300  0.31251700  1
  C  C6  1  0.18748300  0.31251700  0.68748300  1
  C  C7  1  0.31251700  0.68748300  0.18748300  1
  Ni  Ni8  1  0.32270100  0.32270100  0.32270100  1
  Ni  Ni9  1  0.17729900  0.67729900  0.82270100  1
  Ni  Ni10  1  0.67729900  0.82270100  0.17729900  1
  Ni  Ni11  1  0.82270100  0.17729900  0.67729900  1
  Ni  Ni12  1  0.53861900  0.53861900  0.53861900  1
  Ni  Ni13  1  0.96138100  0.46138100  0.03861900  1
  Ni  Ni14  1  0.46138100  0.03861900  0.96138100  1
  Ni  Ni15  1  0.03861900  0.96138100  0.46138100  1
  Ni  Ni16  1  0.01677300  0.21664000  0.38394200  1
  Ni  Ni17  1  0.48322700  0.78336000  0.88394200  1
  Ni  Ni18  1  0.98322700  0.71664000  0.11605800  1
  Ni  Ni19  1  0.38394200  0.01677300  0.21664000  1
  Ni  Ni20  1  0.51677300  0.28336000  0.61605800  1
  Ni  Ni21  1  0.88394200  0.48322700  0.78336000  1
  Ni  Ni22  1  0.11605800  0.98322700  0.71664000  1
  Ni  Ni23  1  0.61605800  0.51677300  0.28336000  1
  Ni  Ni24  1  0.21664000  0.38394200  0.01677300  1
  Ni  Ni25  1  0.71664000  0.11605800  0.98322700  1
  Ni  Ni26  1  0.28336000  0.61605800  0.51677300  1
  Ni  Ni27  1  0.78336000  0.88394200  0.48322700  1
  Cu  Cu28  1  0.01163200  0.07466000  0.35928300  1
  Cu  Cu29  1  0.48836800  0.92534000  0.85928300  1
  Cu  Cu30  1  0.98836800  0.57466000  0.14071700  1
  Cu  Cu31  1  0.35928300  0.01163200  0.07466000  1
  Cu  Cu32  1  0.51163200  0.42534000  0.64071700  1
  Cu  Cu33  1  0.85928300  0.48836800  0.92534000  1
  Cu  Cu34  1  0.14071700  0.98836800  0.57466000  1
  Cu  Cu35  1  0.64071700  0.51163200  0.42534000  1
  Cu  Cu36  1  0.07466000  0.35928300  0.01163200  1
  Cu  Cu37  1  0.57466000  0.14071700  0.98836800  1
  Cu  Cu38  1  0.42534000  0.64071700  0.51163200  1
  Cu  Cu39  1  0.92534000  0.85928300  0.48836800  1
  Cu  Cu40  1  0.02252000  0.75926600  0.22796500  1
  Cu  Cu41  1  0.47748000  0.24073400  0.72796500  1
  Cu  Cu42  1  0.97748000  0.25926600  0.27203500  1
  Cu  Cu43  1  0.22796500  0.02252000  0.75926600  1
  Cu  Cu44  1  0.52252000  0.74073400  0.77203500  1
  Cu  Cu45  1  0.72796500  0.47748000  0.24073400  1
  Cu  Cu46  1  0.27203500  0.97748000  0.25926600  1
  Cu  Cu47  1  0.77203500  0.52252000  0.74073400  1
  Cu  Cu48  1  0.75926600  0.22796500  0.02252000  1
  Cu  Cu49  1  0.25926600  0.27203500  0.97748000  1
  Cu  Cu50  1  0.74073400  0.77203500  0.52252000  1
  Cu  Cu51  1  0.24073400  0.72796500  0.47748000  1
  Cu  Cu52  1  0.13785300  0.23970600  0.41403100  1
  Cu  Cu53  1  0.36214700  0.76029400  0.91403100  1
  Cu  Cu54  1  0.86214700  0.73970600  0.08596900  1
  Cu  Cu55  1  0.41403100  0.13785300  0.23970600  1
  Cu  Cu56  1  0.63785300  0.26029400  0.58596900  1
  Cu  Cu57  1  0.91403100  0.36214700  0.76029400  1
  Cu  Cu58  1  0.08596900  0.86214700  0.73970600  1
  Cu  Cu59  1  0.58596900  0.63785300  0.26029400  1
  Cu  Cu60  1  0.23970600  0.41403100  0.13785300  1
  Cu  Cu61  1  0.73970600  0.08596900  0.86214700  1
  Cu  Cu62  1  0.26029400  0.58596900  0.63785300  1
  Cu  Cu63  1  0.76029400  0.91403100  0.36214700  1
  Cu  Cu64  1  0.25662900  0.51984100  0.43904400  1
  Cu  Cu65  1  0.24337100  0.48015900  0.93904400  1
  Cu  Cu66  1  0.74337100  0.01984100  0.06095600  1
  Cu  Cu67  1  0.43904400  0.25662900  0.51984100  1
  Cu  Cu68  1  0.75662900  0.98015900  0.56095600  1
  Cu  Cu69  1  0.93904400  0.24337100  0.48015900  1
  Cu  Cu70  1  0.06095600  0.74337100  0.01984100  1
  Cu  Cu71  1  0.56095600  0.75662900  0.98015900  1
  Cu  Cu72  1  0.51984100  0.43904400  0.25662900  1
  Cu  Cu73  1  0.01984100  0.06095600  0.74337100  1
  Cu  Cu74  1  0.98015900  0.56095600  0.75662900  1
  Cu  Cu75  1  0.48015900  0.93904400  0.24337100  1
