# generated using pymatgen
data_CuNiC4
_symmetry_space_group_name_H-M   'P 1'
_cell_length_a   9.05010996
_cell_length_b   9.05010996
_cell_length_c   7.72606133
_cell_angle_alpha   70.59227809
_cell_angle_beta   70.59227809
_cell_angle_gamma   110.59770964
_symmetry_Int_Tables_number   1
_chemical_formula_structural   CuNiC4
_chemical_formula_sum   'Cu2 Ni2 C8'
_cell_volume   480.97460034
_cell_formula_units_Z   2
loop_
 _symmetry_equiv_pos_site_id
 _symmetry_equiv_pos_as_xyz
  1  'x, y, z'
loop_
 _atom_site_type_symbol
 _atom_site_label
 _atom_site_symmetry_multiplicity
 _atom_site_fract_x
 _atom_site_fract_y
 _atom_site_fract_z
 _atom_site_occupancy
  Ni  Ni0  1  0.63519600  0.36480400  0.75000000  1
  Ni  Ni1  1  0.36480400  0.63519600  0.25000000  1
  Cu  Cu2  1  0.00041900  0.99958100  0.25000000  1
  Cu  Cu3  1  0.99958100  0.00041900  0.75000000  1
  C  C4  1  0.64083900  0.76170400  0.73171400  1
  C  C5  1  0.94356700  0.29608100  0.41521800  1
  C  C6  1  0.29608100  0.94356700  0.91521800  1
  C  C7  1  0.23829600  0.35916100  0.76828600  1
  C  C8  1  0.76170400  0.64083900  0.23171400  1
  C  C9  1  0.70391900  0.05643300  0.08478200  1
  C  C10  1  0.05643300  0.70391900  0.58478200  1
  C  C11  1  0.35916100  0.23829600  0.26828600  1
