# generated using pymatgen
data_CuNiC7
_symmetry_space_group_name_H-M   'P 1'
_cell_length_a   6.42327408
_cell_length_b   11.16342491
_cell_length_c   11.56239471
_cell_angle_alpha   90.00000000
_cell_angle_beta   90.00000000
_cell_angle_gamma   90.00000000
_symmetry_Int_Tables_number   1
_chemical_formula_structural   CuNiC7
_chemical_formula_sum   'Cu8 Ni8 C56'
_cell_volume   829.09004421
_cell_formula_units_Z   8
loop_
 _symmetry_equiv_pos_site_id
 _symmetry_equiv_pos_as_xyz
  1  'x, y, z'
loop_
 _atom_site_type_symbol
 _atom_site_label
 _atom_site_symmetry_multiplicity
 _atom_site_fract_x
 _atom_site_fract_y
 _atom_site_fract_z
 _atom_site_occupancy
  Ni  Ni0  1  0.99462734  0.27726823  0.84286609  1
  Ni  Ni1  1  0.50537266  0.77726823  0.65713391  1
  Ni  Ni2  1  0.49462734  0.72273177  0.15713391  1
  Ni  Ni3  1  0.00537266  0.22273177  0.34286609  1
  Ni  Ni4  1  0.00537266  0.72273177  0.15713391  1
  Ni  Ni5  1  0.49462734  0.22273177  0.34286609  1
  Ni  Ni6  1  0.50537266  0.27726823  0.84286609  1
  Ni  Ni7  1  0.99462734  0.77726823  0.65713391  1
  Cu  Cu8  1  0.75000000  0.23049903  0.08631807  1
  Cu  Cu9  1  0.75000000  0.73049903  0.41368193  1
  Cu  Cu10  1  0.25000000  0.76950097  0.91368193  1
  Cu  Cu11  1  0.25000000  0.26950097  0.58631807  1
  Cu  Cu12  1  0.75000000  0.05573981  0.73060410  1
  Cu  Cu13  1  0.75000000  0.55573981  0.76939590  1
  Cu  Cu14  1  0.25000000  0.94426019  0.26939590  1
  Cu  Cu15  1  0.25000000  0.44426019  0.23060410  1
  C  C16  1  0.00000000  0.50000000  0.50000000  1
  C  C17  1  0.50000000  0.00000000  0.00000000  1
  C  C18  1  0.50000000  0.50000000  0.50000000  1
  C  C19  1  0.00000000  -0.00000000  0.00000000  1
  C  C20  1  -0.00000000  0.50000000  0.00000000  1
  C  C21  1  0.50000000  -0.00000000  0.50000000  1
  C  C22  1  0.50000000  0.50000000  0.00000000  1
  C  C23  1  0.00000000  -0.00000000  0.50000000  1
  C  C24  1  0.75000000  0.45807486  0.24119497  1
  C  C25  1  0.75000000  0.95807486  0.25880503  1
  C  C26  1  0.25000000  0.54192514  0.75880503  1
  C  C27  1  0.25000000  0.04192514  0.74119497  1
  C  C28  1  0.75000000  0.25389362  0.57691706  1
  C  C29  1  0.75000000  0.75389362  0.92308294  1
  C  C30  1  0.25000000  0.74610638  0.42308294  1
  C  C31  1  0.25000000  0.24610638  0.07691706  1
  C  C32  1  0.94948810  0.31933917  0.53381111  1
  C  C33  1  0.55051190  0.81933917  0.96618889  1
  C  C34  1  0.44948810  0.68066083  0.46618889  1
  C  C35  1  0.05051190  0.18066083  0.03381111  1
  C  C36  1  0.05051190  0.68066083  0.46618889  1
  C  C37  1  0.44948810  0.18066083  0.03381111  1
  C  C38  1  0.55051190  0.31933917  0.53381111  1
  C  C39  1  0.94948810  0.81933917  0.96618889  1
  C  C40  1  0.75000000  0.23644808  0.70810471  1
  C  C41  1  0.75000000  0.73644808  0.79189529  1
  C  C42  1  0.25000000  0.76355192  0.29189529  1
  C  C43  1  0.25000000  0.26355192  0.20810471  1
  C  C44  1  0.75000000  0.31972794  0.23785745  1
  C  C45  1  0.75000000  0.81972794  0.26214255  1
  C  C46  1  0.25000000  0.68027206  0.76214255  1
  C  C47  1  0.25000000  0.18027206  0.73785745  1
  C  C48  1  0.75000000  0.12678545  0.51729060  1
  C  C49  1  0.75000000  0.62678545  0.98270940  1
  C  C50  1  0.25000000  0.87321455  0.48270940  1
  C  C51  1  0.25000000  0.37321455  0.01729060  1
  C  C52  1  0.75000000  0.00676810  0.13218484  1
  C  C53  1  0.75000000  0.50676810  0.36781516  1
  C  C54  1  0.25000000  0.99323190  0.86781516  1
  C  C55  1  0.25000000  0.49323190  0.63218484  1
  C  C56  1  0.45068535  0.49312045  0.82090319  1
  C  C57  1  0.04931465  0.99312045  0.67909681  1
  C  C58  1  0.95068535  0.50687955  0.17909681  1
  C  C59  1  0.54931465  0.00687955  0.32090319  1
  C  C60  1  0.54931465  0.50687955  0.17909681  1
  C  C61  1  0.95068535  0.00687955  0.32090319  1
  C  C62  1  0.04931465  0.49312045  0.82090319  1
  C  C63  1  0.45068535  0.99312045  0.67909681  1
  C  C64  1  0.75000000  0.36959986  0.96957324  1
  C  C65  1  0.75000000  0.86959986  0.53042676  1
  C  C66  1  0.25000000  0.63040014  0.03042676  1
  C  C67  1  0.25000000  0.13040014  0.46957324  1
  C  C68  1  0.75000000  0.06244945  0.89294309  1
  C  C69  1  0.75000000  0.56244945  0.60705691  1
  C  C70  1  0.25000000  0.93755055  0.10705691  1
  C  C71  1  0.25000000  0.43755055  0.39294309  1
