# generated using pymatgen
data_CuNiC8
_symmetry_space_group_name_H-M   'P 1'
_cell_length_a   5.79279100
_cell_length_b   5.34880600
_cell_length_c   9.26442870
_cell_angle_alpha   55.09456789
_cell_angle_beta   90.00000000
_cell_angle_gamma   90.00000000
_symmetry_Int_Tables_number   1
_chemical_formula_structural   CuNiC8
_chemical_formula_sum   'Cu2 Ni2 C16'
_cell_volume   235.41216701
_cell_formula_units_Z   2
loop_
 _symmetry_equiv_pos_site_id
 _symmetry_equiv_pos_as_xyz
  1  'x, y, z'
loop_
 _atom_site_type_symbol
 _atom_site_label
 _atom_site_symmetry_multiplicity
 _atom_site_fract_x
 _atom_site_fract_y
 _atom_site_fract_z
 _atom_site_occupancy
  C  C0  1  0.92296800  0.73129900  0.74994900  1
  C  C1  1  0.42296800  0.26870100  0.75005100  1
  C  C2  1  0.07703200  0.26870100  0.25005100  1
  C  C3  1  0.57703200  0.73129900  0.24994900  1
  Ni  Ni4  1  0.50000000  0.00000000  0.50000000  1
  Ni  Ni5  1  0.00000000  0.00000000  0.00000000  1
  Cu  Cu6  1  0.50000000  0.50000000  0.00000000  1
  Cu  Cu7  1  0.00000000  0.50000000  0.50000000  1
  C  C8  1  0.31348000  0.36050900  0.44521600  1
  C  C9  1  0.81348000  0.63949100  0.05478400  1
  C  C10  1  0.67745500  0.25782200  0.94048200  1
  C  C11  1  0.17745500  0.74217800  0.55951800  1
  C  C12  1  0.68652000  0.63949100  0.55478400  1
  C  C13  1  0.18652000  0.36050900  0.94521600  1
  C  C14  1  0.32254500  0.74217800  0.05951800  1
  C  C15  1  0.82254500  0.25782200  0.44048200  1
  C  C16  1  0.46110900  0.13142900  0.25470100  1
  C  C17  1  0.96110900  0.86857100  0.24529900  1
  C  C18  1  0.53889100  0.86857100  0.74529900  1
  C  C19  1  0.03889100  0.13142900  0.75470100  1
