# generated using pymatgen
data_Cu3NiC16
_symmetry_space_group_name_H-M   'P 1'
_cell_length_a   6.30525201
_cell_length_b   6.30525201
_cell_length_c   6.30525203
_cell_angle_alpha   103.21228619
_cell_angle_beta   103.21228619
_cell_angle_gamma   103.21229696
_symmetry_Int_Tables_number   1
_chemical_formula_structural   Cu3NiC16
_chemical_formula_sum   'Cu3 Ni1 C16'
_cell_volume   226.91111895
_cell_formula_units_Z   1
loop_
 _symmetry_equiv_pos_site_id
 _symmetry_equiv_pos_as_xyz
  1  'x, y, z'
loop_
 _atom_site_type_symbol
 _atom_site_label
 _atom_site_symmetry_multiplicity
 _atom_site_fract_x
 _atom_site_fract_y
 _atom_site_fract_z
 _atom_site_occupancy
  Ni  Ni0  1  0.00000000  0.00000000  0.00000000  1
  Cu  Cu1  1  0.00000000  0.54803400  0.45196600  1
  Cu  Cu2  1  0.45196600  0.00000000  0.54803400  1
  Cu  Cu3  1  0.54803400  0.45196600  0.00000000  1
  C  C4  1  0.50000000  0.50000000  0.50000000  1
  C  C5  1  0.95042000  0.04958000  0.50000000  1
  C  C6  1  0.50000000  0.95042000  0.04958000  1
  C  C7  1  0.04958000  0.50000000  0.95042000  1
  C  C8  1  0.09073500  0.90926500  0.50000000  1
  C  C9  1  0.64045200  0.50000000  0.35954800  1
  C  C10  1  0.50000000  0.35954800  0.64045200  1
  C  C11  1  0.35954800  0.64045200  0.50000000  1
  C  C12  1  0.03039900  0.62753900  0.79918900  1
  C  C13  1  0.62753900  0.79918900  0.03039900  1
  C  C14  1  0.79918900  0.03039900  0.62753900  1
  C  C15  1  0.37246100  0.96960100  0.20081100  1
  C  C16  1  0.96960100  0.20081100  0.37246100  1
  C  C17  1  0.20081100  0.37246100  0.96960100  1
  C  C18  1  0.90926500  0.50000000  0.09073500  1
  C  C19  1  0.50000000  0.09073500  0.90926500  1
