# generated using pymatgen
data_Cu3NiC2
_symmetry_space_group_name_H-M   'P 1'
_cell_length_a   8.29319300
_cell_length_b   8.29319300
_cell_length_c   19.55417800
_cell_angle_alpha   90.00000000
_cell_angle_beta   90.00000000
_cell_angle_gamma   90.00000000
_symmetry_Int_Tables_number   1
_chemical_formula_structural   Cu3NiC2
_chemical_formula_sum   'Cu24 Ni8 C16'
_cell_volume   1344.87868066
_cell_formula_units_Z   8
loop_
 _symmetry_equiv_pos_site_id
 _symmetry_equiv_pos_as_xyz
  1  'x, y, z'
loop_
 _atom_site_type_symbol
 _atom_site_label
 _atom_site_symmetry_multiplicity
 _atom_site_fract_x
 _atom_site_fract_y
 _atom_site_fract_z
 _atom_site_occupancy
  C  C0  1  0.00000000  0.00000000  0.40135000  1
  C  C1  1  0.00000000  0.00000000  0.90135000  1
  C  C2  1  0.00000000  0.00000000  0.59912900  1
  C  C3  1  0.00000000  0.00000000  0.09912900  1
  C  C4  1  0.50000000  0.50000000  0.24247800  1
  C  C5  1  0.50000000  0.50000000  0.74247800  1
  C  C6  1  0.50000000  0.50000000  0.45298400  1
  C  C7  1  0.50000000  0.50000000  0.95298400  1
  Ni  Ni8  1  0.00000000  0.50000000  0.08899800  1
  Ni  Ni9  1  0.50000000  0.00000000  0.08899800  1
  Ni  Ni10  1  0.00000000  0.50000000  0.58899800  1
  Ni  Ni11  1  0.50000000  0.00000000  0.58899800  1
  Ni  Ni12  1  0.00000000  0.50000000  0.91214900  1
  Ni  Ni13  1  0.50000000  0.00000000  0.91214900  1
  Ni  Ni14  1  0.00000000  0.50000000  0.41214900  1
  Ni  Ni15  1  0.50000000  0.00000000  0.41214900  1
  C  C16  1  0.00249200  0.68538000  0.24981900  1
  C  C17  1  0.99750800  0.31462000  0.24981900  1
  C  C18  1  0.31462000  0.00249200  0.24981900  1
  C  C19  1  0.68538000  0.99750800  0.24981900  1
  C  C20  1  0.99750800  0.68538000  0.74981900  1
  C  C21  1  0.00249200  0.31462000  0.74981900  1
  C  C22  1  0.68538000  0.00249200  0.74981900  1
  C  C23  1  0.31462000  0.99750800  0.74981900  1
  Cu  Cu24  1  0.14994600  0.65772500  0.99979200  1
  Cu  Cu25  1  0.85005400  0.34227500  0.99979200  1
  Cu  Cu26  1  0.34227500  0.14994600  0.99979200  1
  Cu  Cu27  1  0.65772500  0.85005400  0.99979200  1
  Cu  Cu28  1  0.85005400  0.65772500  0.49979200  1
  Cu  Cu29  1  0.14994600  0.34227500  0.49979200  1
  Cu  Cu30  1  0.65772500  0.14994600  0.49979200  1
  Cu  Cu31  1  0.34227500  0.85005400  0.49979200  1
  Cu  Cu32  1  0.17083700  0.32276600  0.15522600  1
  Cu  Cu33  1  0.82916300  0.67723400  0.15522600  1
  Cu  Cu34  1  0.67723400  0.17083700  0.15522600  1
  Cu  Cu35  1  0.32276600  0.82916300  0.15522600  1
  Cu  Cu36  1  0.82916300  0.32276600  0.65522600  1
  Cu  Cu37  1  0.17083700  0.67723400  0.65522600  1
  Cu  Cu38  1  0.32276600  0.17083700  0.65522600  1
  Cu  Cu39  1  0.67723400  0.82916300  0.65522600  1
  Cu  Cu40  1  0.82531400  0.67468400  0.84562900  1
  Cu  Cu41  1  0.17468600  0.32531600  0.84562900  1
  Cu  Cu42  1  0.32531600  0.82531400  0.84562900  1
  Cu  Cu43  1  0.67468400  0.17468600  0.84562900  1
  Cu  Cu44  1  0.17468600  0.67468400  0.34562900  1
  Cu  Cu45  1  0.82531400  0.32531600  0.34562900  1
  Cu  Cu46  1  0.67468400  0.82531400  0.34562900  1
  Cu  Cu47  1  0.32531600  0.17468600  0.34562900  1
