# generated using pymatgen
data_Cu2NiC9
_symmetry_space_group_name_H-M   'P 1'
_cell_length_a   5.78839688
_cell_length_b   5.78839688
_cell_length_c   7.87729800
_cell_angle_alpha   90.00000000
_cell_angle_beta   90.00000000
_cell_angle_gamma   120.00001007
_symmetry_Int_Tables_number   1
_chemical_formula_structural   Cu2NiC9
_chemical_formula_sum   'Cu2 Ni1 C9'
_cell_volume   228.57275584
_cell_formula_units_Z   1
loop_
 _symmetry_equiv_pos_site_id
 _symmetry_equiv_pos_as_xyz
  1  'x, y, z'
loop_
 _atom_site_type_symbol
 _atom_site_label
 _atom_site_symmetry_multiplicity
 _atom_site_fract_x
 _atom_site_fract_y
 _atom_site_fract_z
 _atom_site_occupancy
  C  C0  1  0.00000000  0.00000000  0.50000000  1
  Ni  Ni1  1  0.00000000  0.00000000  0.00000000  1
  Cu  Cu2  1  0.33333300  0.66666700  0.22085100  1
  Cu  Cu3  1  0.66666700  0.33333300  0.77914900  1
  C  C4  1  0.83856400  0.16143600  0.84863700  1
  C  C5  1  0.83856400  0.67712700  0.84863700  1
  C  C6  1  0.32287300  0.16143600  0.84863700  1
  C  C7  1  0.67712700  0.83856400  0.15136300  1
  C  C8  1  0.33333300  0.66666700  0.44322400  1
  C  C9  1  0.66666700  0.33333300  0.55677600  1
  C  C10  1  0.16143600  0.32287300  0.15136300  1
  C  C11  1  0.16143600  0.83856400  0.15136300  1
