# generated using pymatgen
data_Cu3NiC
_symmetry_space_group_name_H-M   'P 1'
_cell_length_a   4.06082400
_cell_length_b   12.09677800
_cell_length_c   20.27762100
_cell_angle_alpha   90.00000000
_cell_angle_beta   90.00000000
_cell_angle_gamma   90.00000000
_symmetry_Int_Tables_number   1
_chemical_formula_structural   Cu3NiC
_chemical_formula_sum   'Cu24 Ni8 C8'
_cell_volume   996.09527335
_cell_formula_units_Z   8
loop_
 _symmetry_equiv_pos_site_id
 _symmetry_equiv_pos_as_xyz
  1  'x, y, z'
loop_
 _atom_site_type_symbol
 _atom_site_label
 _atom_site_symmetry_multiplicity
 _atom_site_fract_x
 _atom_site_fract_y
 _atom_site_fract_z
 _atom_site_occupancy
  C  C0  1  0.50000000  0.68219300  0.92106900  1
  C  C1  1  0.50000000  0.18219300  0.07893100  1
  C  C2  1  0.50000000  0.24683900  0.63812800  1
  C  C3  1  0.50000000  0.74683900  0.36187200  1
  C  C4  1  0.50000000  0.31573000  0.87949900  1
  C  C5  1  0.50000000  0.81573000  0.12050100  1
  C  C6  1  0.50000000  0.12750000  0.41847300  1
  C  C7  1  0.50000000  0.62750000  0.58152700  1
  Ni  Ni8  1  0.50000000  0.89607800  0.74464400  1
  Ni  Ni9  1  0.50000000  0.39607800  0.25535600  1
  Ni  Ni10  1  0.00000000  0.00612100  0.90663400  1
  Ni  Ni11  1  0.00000000  0.50612100  0.09336600  1
  Ni  Ni12  1  0.00000000  0.49876000  0.75140200  1
  Ni  Ni13  1  0.00000000  0.99876000  0.24859800  1
  Ni  Ni14  1  0.00000000  0.45354700  0.42435700  1
  Ni  Ni15  1  0.00000000  0.95354700  0.57564300  1
  Cu  Cu16  1  0.50000000  0.94021000  0.98312700  1
  Cu  Cu17  1  0.50000000  0.44021000  0.01687300  1
  Cu  Cu18  1  0.50000000  0.07826400  0.83256700  1
  Cu  Cu19  1  0.50000000  0.57826400  0.16743300  1
  Cu  Cu20  1  0.50000000  0.40277300  0.49190800  1
  Cu  Cu21  1  0.50000000  0.90277300  0.50809200  1
  Cu  Cu22  1  0.50000000  0.12074200  0.25847000  1
  Cu  Cu23  1  0.50000000  0.62074200  0.74153000  1
  Cu  Cu24  1  0.00000000  0.20215900  0.95708200  1
  Cu  Cu25  1  0.00000000  0.70215900  0.04291800  1
  Cu  Cu26  1  0.00000000  0.49428600  0.87832600  1
  Cu  Cu27  1  0.00000000  0.99428600  0.12167400  1
  Cu  Cu28  1  0.00000000  0.83112000  0.83776400  1
  Cu  Cu29  1  0.00000000  0.33112000  0.16223600  1
  Cu  Cu30  1  0.00000000  0.29588500  0.76851600  1
  Cu  Cu31  1  0.00000000  0.79588500  0.23148400  1
  Cu  Cu32  1  0.00000000  0.04856100  0.68234200  1
  Cu  Cu33  1  0.00000000  0.54856100  0.31765800  1
  Cu  Cu34  1  0.00000000  0.46449300  0.62770300  1
  Cu  Cu35  1  0.00000000  0.96449300  0.37229700  1
  Cu  Cu36  1  0.00000000  0.14845700  0.52305600  1
  Cu  Cu37  1  0.00000000  0.64845700  0.47694400  1
  Cu  Cu38  1  0.00000000  0.27148200  0.36173800  1
  Cu  Cu39  1  0.00000000  0.77148200  0.63826200  1
