# generated using pymatgen
data_Cu3Ni2C9
_symmetry_space_group_name_H-M   'P 1'
_cell_length_a   6.50605900
_cell_length_b   8.12126900
_cell_length_c   15.37178504
_cell_angle_alpha   90.74501166
_cell_angle_beta   102.01842940
_cell_angle_gamma   90.64022183
_symmetry_Int_Tables_number   1
_chemical_formula_structural   Cu3Ni2C9
_chemical_formula_sum   'Cu6 Ni4 C18'
_cell_volume   794.25582479
_cell_formula_units_Z   2
loop_
 _symmetry_equiv_pos_site_id
 _symmetry_equiv_pos_as_xyz
  1  'x, y, z'
loop_
 _atom_site_type_symbol
 _atom_site_label
 _atom_site_symmetry_multiplicity
 _atom_site_fract_x
 _atom_site_fract_y
 _atom_site_fract_z
 _atom_site_occupancy
  Ni  Ni0  1  0.55905100  0.62410200  0.11780500  1
  Ni  Ni1  1  0.21464100  0.93779700  0.43017400  1
  Ni  Ni2  1  0.44094900  0.37589800  0.88219500  1
  Ni  Ni3  1  0.78535900  0.06220300  0.56982600  1
  Cu  Cu4  1  0.32337600  0.28780200  0.63290800  1
  Cu  Cu5  1  0.97135200  0.62263400  0.96496600  1
  Cu  Cu6  1  0.65012500  0.95922000  0.29671000  1
  Cu  Cu7  1  0.34987500  0.04078000  0.70329000  1
  Cu  Cu8  1  0.02864800  0.37736600  0.03503400  1
  Cu  Cu9  1  0.67662400  0.71219800  0.36709200  1
  C  C10  1  0.12805400  0.20038800  0.94270100  1
  C  C11  1  0.80394300  0.53740100  0.28439800  1
  C  C12  1  0.46366600  0.86613500  0.60898000  1
  C  C13  1  0.70594000  0.31033000  0.05617400  1
  C  C14  1  0.36330200  0.64186900  0.38753300  1
  C  C15  1  0.03782800  0.96975500  0.72554200  1
  C  C16  1  0.24634200  0.42369800  0.16348000  1
  C  C17  1  0.91111300  0.75797400  0.49646500  1
  C  C18  1  0.58297400  0.07423300  0.82700500  1
  C  C19  1  0.87194600  0.79961200  0.05729900  1
  C  C20  1  0.53633400  0.13386500  0.39102000  1
  C  C21  1  0.19605700  0.46259900  0.71560200  1
  C  C22  1  0.29406000  0.68967000  0.94382600  1
  C  C23  1  0.96217200  0.03024500  0.27445800  1
  C  C24  1  0.63669800  0.35813100  0.61246700  1
  C  C25  1  0.75365800  0.57630200  0.83652000  1
  C  C26  1  0.41702600  0.92576700  0.17299500  1
  C  C27  1  0.08888700  0.24202600  0.50353500  1
