# generated using pymatgen
data_CuNiC10
_symmetry_space_group_name_H-M   'P 1'
_cell_length_a   7.34902065
_cell_length_b   7.34902065
_cell_length_c   5.18182400
_cell_angle_alpha   90.00000000
_cell_angle_beta   90.00000000
_cell_angle_gamma   102.56643405
_symmetry_Int_Tables_number   1
_chemical_formula_structural   CuNiC10
_chemical_formula_sum   'Cu1 Ni1 C10'
_cell_volume   273.15626379
_cell_formula_units_Z   1
loop_
 _symmetry_equiv_pos_site_id
 _symmetry_equiv_pos_as_xyz
  1  'x, y, z'
loop_
 _atom_site_type_symbol
 _atom_site_label
 _atom_site_symmetry_multiplicity
 _atom_site_fract_x
 _atom_site_fract_y
 _atom_site_fract_z
 _atom_site_occupancy
  Ni  Ni0  1  0.67048000  0.32952000  0.00000000  1
  Cu  Cu1  1  0.32967200  0.67032800  0.50000000  1
  C  C2  1  0.86055100  0.86262500  0.24951100  1
  C  C3  1  0.86055100  0.86262500  0.75048900  1
  C  C4  1  0.13737500  0.13944900  0.24951100  1
  C  C5  1  0.13737500  0.13944900  0.75048900  1
  C  C6  1  0.62422700  0.83058600  0.00000000  1
  C  C7  1  0.84237800  0.63021300  0.50000000  1
  C  C8  1  0.36978700  0.15762200  0.50000000  1
  C  C9  1  0.16941400  0.37577300  0.00000000  1
  C  C10  1  0.10541600  0.89458400  0.00000000  1
  C  C11  1  0.89277400  0.10722600  0.50000000  1
