# generated using pymatgen
data_CuNiC2
_symmetry_space_group_name_H-M   'P 1'
_cell_length_a   5.28954400
_cell_length_b   10.83495100
_cell_length_c   13.12858600
_cell_angle_alpha   90.00000000
_cell_angle_beta   90.00000000
_cell_angle_gamma   90.00000000
_symmetry_Int_Tables_number   1
_chemical_formula_structural   CuNiC2
_chemical_formula_sum   'Cu16 Ni16 C32'
_cell_volume   752.42486509
_cell_formula_units_Z   16
loop_
 _symmetry_equiv_pos_site_id
 _symmetry_equiv_pos_as_xyz
  1  'x, y, z'
loop_
 _atom_site_type_symbol
 _atom_site_label
 _atom_site_symmetry_multiplicity
 _atom_site_fract_x
 _atom_site_fract_y
 _atom_site_fract_z
 _atom_site_occupancy
  Ni  Ni0  1  0.65084400  0.95381300  0.44023300  1
  Ni  Ni1  1  0.15084400  0.54618700  0.55976700  1
  Ni  Ni2  1  0.34915600  0.45381300  0.05976700  1
  Ni  Ni3  1  0.84915600  0.04618700  0.94023300  1
  Ni  Ni4  1  0.34915600  0.04618700  0.55976700  1
  Ni  Ni5  1  0.84915600  0.45381300  0.44023300  1
  Ni  Ni6  1  0.65084400  0.54618700  0.94023300  1
  Ni  Ni7  1  0.15084400  0.95381300  0.05976700  1
  Ni  Ni8  1  0.81096100  0.29963400  0.30689600  1
  Ni  Ni9  1  0.31096100  0.20036600  0.69310400  1
  Ni  Ni10  1  0.18903900  0.79963400  0.19310400  1
  Ni  Ni11  1  0.68903900  0.70036600  0.80689600  1
  Ni  Ni12  1  0.18903900  0.70036600  0.69310400  1
  Ni  Ni13  1  0.68903900  0.79963400  0.30689600  1
  Ni  Ni14  1  0.81096100  0.20036600  0.80689600  1
  Ni  Ni15  1  0.31096100  0.29963400  0.19310400  1
  Cu  Cu16  1  0.62242800  0.04387300  0.18474100  1
  Cu  Cu17  1  0.12242800  0.45612700  0.81525900  1
  Cu  Cu18  1  0.37757200  0.54387300  0.31525900  1
  Cu  Cu19  1  0.87757200  0.95612700  0.68474100  1
  Cu  Cu20  1  0.37757200  0.95612700  0.81525900  1
  Cu  Cu21  1  0.87757200  0.54387300  0.18474100  1
  Cu  Cu22  1  0.62242800  0.45612700  0.68474100  1
  Cu  Cu23  1  0.12242800  0.04387300  0.31525900  1
  Cu  Cu24  1  0.81307400  0.29273100  0.06331500  1
  Cu  Cu25  1  0.31307400  0.20726900  0.93668500  1
  Cu  Cu26  1  0.18692600  0.79273100  0.43668500  1
  Cu  Cu27  1  0.68692600  0.70726900  0.56331500  1
  Cu  Cu28  1  0.18692600  0.70726900  0.93668500  1
  Cu  Cu29  1  0.68692600  0.79273100  0.06331500  1
  Cu  Cu30  1  0.81307400  0.20726900  0.56331500  1
  Cu  Cu31  1  0.31307400  0.29273100  0.43668500  1
  C  C32  1  0.72014600  0.47630100  0.30724000  1
  C  C33  1  0.22014600  0.02369900  0.69276000  1
  C  C34  1  0.27985400  0.97630100  0.19276000  1
  C  C35  1  0.77985400  0.52369900  0.80724000  1
  C  C36  1  0.27985400  0.52369900  0.69276000  1
  C  C37  1  0.77985400  0.97630100  0.30724000  1
  C  C38  1  0.72014600  0.02369900  0.80724000  1
  C  C39  1  0.22014600  0.47630100  0.19276000  1
  C  C40  1  0.68330900  0.29429200  0.44455700  1
  C  C41  1  0.18330900  0.20570800  0.55544300  1
  C  C42  1  0.31669100  0.79429200  0.05544300  1
  C  C43  1  0.81669100  0.70570800  0.94455700  1
  C  C44  1  0.31669100  0.70570800  0.55544300  1
  C  C45  1  0.81669100  0.79429200  0.44455700  1
  C  C46  1  0.68330900  0.20570800  0.94455700  1
  C  C47  1  0.18330900  0.29429200  0.05544300  1
  C  C48  1  0.70686500  0.46882600  0.06779900  1
  C  C49  1  0.20686500  0.03117400  0.93220100  1
  C  C50  1  0.29313500  0.96882600  0.43220100  1
  C  C51  1  0.79313500  0.53117400  0.56779900  1
  C  C52  1  0.29313500  0.53117400  0.93220100  1
  C  C53  1  0.79313500  0.96882600  0.06779900  1
  C  C54  1  0.70686500  0.03117400  0.56779900  1
  C  C55  1  0.20686500  0.46882600  0.43220100  1
  C  C56  1  0.64736200  0.22250000  0.18458500  1
  C  C57  1  0.14736200  0.27750000  0.81541500  1
  C  C58  1  0.35263800  0.72250000  0.31541500  1
  C  C59  1  0.85263800  0.77750000  0.68458500  1
  C  C60  1  0.35263800  0.77750000  0.81541500  1
  C  C61  1  0.85263800  0.72250000  0.18458500  1
  C  C62  1  0.64736200  0.27750000  0.68458500  1
  C  C63  1  0.14736200  0.22250000  0.31541500  1
