# generated using pymatgen
data_Cu4Ni5C6
_symmetry_space_group_name_H-M   'P 1'
_cell_length_a   12.70347500
_cell_length_b   7.78694200
_cell_length_c   14.79235314
_cell_angle_alpha   72.01972897
_cell_angle_beta   90.00000000
_cell_angle_gamma   90.00000000
_symmetry_Int_Tables_number   1
_chemical_formula_structural   Cu4Ni5C6
_chemical_formula_sum   'Cu16 Ni20 C24'
_cell_volume   1391.81537590
_cell_formula_units_Z   4
loop_
 _symmetry_equiv_pos_site_id
 _symmetry_equiv_pos_as_xyz
  1  'x, y, z'
loop_
 _atom_site_type_symbol
 _atom_site_label
 _atom_site_symmetry_multiplicity
 _atom_site_fract_x
 _atom_site_fract_y
 _atom_site_fract_z
 _atom_site_occupancy
  C  C0  1  0.50587500  0.46724800  0.65929300  1
  C  C1  1  0.99412500  0.46724800  0.15929300  1
  C  C2  1  0.49412500  0.53275200  0.34070700  1
  C  C3  1  0.00587500  0.53275200  0.84070700  1
  C  C4  1  0.54490700  0.69636500  0.55257600  1
  C  C5  1  0.95509300  0.69636500  0.05257600  1
  C  C6  1  0.45509300  0.30363500  0.44742400  1
  C  C7  1  0.04490700  0.30363500  0.94742400  1
  C  C8  1  0.36768900  0.08858400  0.04295500  1
  C  C9  1  0.13231100  0.08858400  0.54295500  1
  C  C10  1  0.63231100  0.91141600  0.95704500  1
  C  C11  1  0.86768900  0.91141600  0.45704500  1
  C  C12  1  0.42382200  0.67785200  0.69435900  1
  C  C13  1  0.07617800  0.67785200  0.19435900  1
  C  C14  1  0.57617800  0.32214800  0.30564100  1
  C  C15  1  0.92382200  0.32214800  0.80564100  1
  C  C16  1  0.29102900  0.50563800  0.02548300  1
  C  C17  1  0.20897100  0.50563800  0.52548300  1
  C  C18  1  0.70897100  0.49436200  0.97451700  1
  C  C19  1  0.79102900  0.49436200  0.47451700  1
  C  C20  1  0.26822000  0.01156400  0.23433600  1
  C  C21  1  0.23178000  0.01156400  0.73433600  1
  C  C22  1  0.73178000  0.98843600  0.76566400  1
  C  C23  1  0.76822000  0.98843600  0.26566400  1
  Ni  Ni24  1  0.47190200  0.81888900  0.59911900  1
  Ni  Ni25  1  0.02809800  0.81888900  0.09911900  1
  Ni  Ni26  1  0.52809800  0.18111100  0.40088100  1
  Ni  Ni27  1  0.97190200  0.18111100  0.90088100  1
  Ni  Ni28  1  0.25608800  0.43668000  0.78276100  1
  Ni  Ni29  1  0.24391200  0.43668000  0.28276100  1
  Ni  Ni30  1  0.74391200  0.56332000  0.21723900  1
  Ni  Ni31  1  0.75608800  0.56332000  0.71723900  1
  Ni  Ni32  1  0.31090900  0.37650400  0.25420200  1
  Ni  Ni33  1  0.18909100  0.37650400  0.75420200  1
  Ni  Ni34  1  0.68909100  0.62349600  0.74579800  1
  Ni  Ni35  1  0.81090900  0.62349600  0.24579800  1
  Ni  Ni36  1  0.34043300  0.28312300  0.99365700  1
  Ni  Ni37  1  0.15956700  0.28312300  0.49365700  1
  Ni  Ni38  1  0.65956700  0.71687700  0.00634300  1
  Ni  Ni39  1  0.84043300  0.71687700  0.50634300  1
  Ni  Ni40  1  0.34112800  0.97184500  0.14921000  1
  Ni  Ni41  1  0.15887200  0.97184500  0.64921000  1
  Ni  Ni42  1  0.65887200  0.02815500  0.85079000  1
  Ni  Ni43  1  0.84112800  0.02815500  0.35079000  1
  Cu  Cu44  1  0.18078400  0.51556000  0.98818700  1
  Cu  Cu45  1  0.31921600  0.51556000  0.48818700  1
  Cu  Cu46  1  0.81921600  0.48444000  0.01181300  1
  Cu  Cu47  1  0.68078400  0.48444000  0.51181300  1
  Cu  Cu48  1  0.36431900  0.63458700  0.96445500  1
  Cu  Cu49  1  0.13568100  0.63458700  0.46445500  1
  Cu  Cu50  1  0.63568100  0.36541300  0.03554500  1
  Cu  Cu51  1  0.86431900  0.36541300  0.53554500  1
  Cu  Cu52  1  0.15890400  0.95134500  0.22605100  1
  Cu  Cu53  1  0.34109600  0.95134500  0.72605100  1
  Cu  Cu54  1  0.84109600  0.04865500  0.77394900  1
  Cu  Cu55  1  0.65890400  0.04865500  0.27394900  1
  Cu  Cu56  1  0.32424500  0.93770600  0.32433700  1
  Cu  Cu57  1  0.17575500  0.93770600  0.82433700  1
  Cu  Cu58  1  0.67575500  0.06229400  0.67566300  1
  Cu  Cu59  1  0.82424500  0.06229400  0.17566300  1
