# generated using pymatgen
data_Cu5Ni2C25
_symmetry_space_group_name_H-M   'P 1'
_cell_length_a   5.13399300
_cell_length_b   5.90752915
_cell_length_c   10.06291326
_cell_angle_alpha   90.13689294
_cell_angle_beta   99.92508178
_cell_angle_gamma   106.38595366
_symmetry_Int_Tables_number   1
_chemical_formula_structural   Cu5Ni2C25
_chemical_formula_sum   'Cu5 Ni2 C25'
_cell_volume   288.00133477
_cell_formula_units_Z   1
loop_
 _symmetry_equiv_pos_site_id
 _symmetry_equiv_pos_as_xyz
  1  'x, y, z'
loop_
 _atom_site_type_symbol
 _atom_site_label
 _atom_site_symmetry_multiplicity
 _atom_site_fract_x
 _atom_site_fract_y
 _atom_site_fract_z
 _atom_site_occupancy
  C  C0  1  0.50116700  0.12519500  0.87222800  1
  C  C1  1  0.50437600  0.62915200  0.87244100  1
  C  C2  1  0.49219400  0.38118800  0.62163000  1
  C  C3  1  0.49718000  0.86956400  0.62308000  1
  C  C4  1  0.50780600  0.61881200  0.37837000  1
  C  C5  1  0.50282000  0.13043600  0.37692000  1
  C  C6  1  0.49883300  0.87480500  0.12777200  1
  C  C7  1  0.49562400  0.37084800  0.12755900  1
  C  C8  1  0.00000000  0.50000000  0.50000000  1
  Ni  Ni9  1  0.00000000  0.00000000  0.00000000  1
  Ni  Ni10  1  0.00000000  0.00000000  0.50000000  1
  Cu  Cu11  1  0.00000000  0.50000000  0.00000000  1
  Cu  Cu12  1  0.99604900  0.25669000  0.74359800  1
  Cu  Cu13  1  0.00557700  0.74615000  0.74459400  1
  Cu  Cu14  1  0.00395100  0.74331000  0.25640200  1
  Cu  Cu15  1  0.99442300  0.25385000  0.25540600  1
  C  C16  1  0.22454100  0.82001000  0.94028000  1
  C  C17  1  0.22146100  0.29068200  0.93507000  1
  C  C18  1  0.23167300  0.05936200  0.67739200  1
  C  C19  1  0.23448900  0.56667300  0.69758400  1
  C  C20  1  0.22662600  0.28703200  0.43633400  1
  C  C21  1  0.22010700  0.82131100  0.43035500  1
  C  C22  1  0.23088100  0.55539000  0.18002900  1
  C  C23  1  0.21978800  0.05840700  0.17824100  1
  C  C24  1  0.76911900  0.44461000  0.81997100  1
  C  C25  1  0.78021200  0.94159300  0.82175900  1
  C  C26  1  0.77337400  0.71296800  0.56366600  1
  C  C27  1  0.77989300  0.17868900  0.56964500  1
  C  C28  1  0.76832700  0.94063800  0.32260800  1
  C  C29  1  0.76551100  0.43332700  0.30241600  1
  C  C30  1  0.77545900  0.17999000  0.05972000  1
  C  C31  1  0.77853900  0.70931800  0.06493000  1
