# generated using pymatgen
data_CuNiC9
_symmetry_space_group_name_H-M   'P 1'
_cell_length_a   7.35737785
_cell_length_b   7.35737785
_cell_length_c   7.35737785
_cell_angle_alpha   119.92727393
_cell_angle_beta   119.84485746
_cell_angle_gamma   90.19746831
_symmetry_Int_Tables_number   1
_chemical_formula_structural   CuNiC9
_chemical_formula_sum   'Cu2 Ni2 C18'
_cell_volume   282.09693885
_cell_formula_units_Z   2
loop_
 _symmetry_equiv_pos_site_id
 _symmetry_equiv_pos_as_xyz
  1  'x, y, z'
loop_
 _atom_site_type_symbol
 _atom_site_label
 _atom_site_symmetry_multiplicity
 _atom_site_fract_x
 _atom_site_fract_y
 _atom_site_fract_z
 _atom_site_occupancy
  C  C0  1  0.50000000  0.50000000  0.00000000  1
  C  C1  1  0.00000000  0.00000000  0.00000000  1
  C  C2  1  0.00000000  0.50000000  0.00000000  1
  C  C3  1  0.00000000  0.00000000  0.50000000  1
  Ni  Ni4  1  0.50000000  0.50000000  0.50000000  1
  Ni  Ni5  1  0.50000000  0.00000000  0.00000000  1
  Cu  Cu6  1  0.00000000  0.50000000  0.50000000  1
  Cu  Cu7  1  0.50000000  0.00000000  0.50000000  1
  C  C8  1  0.86650700  0.59925900  0.26724700  1
  C  C9  1  0.16798800  0.90074100  0.26724700  1
  C  C10  1  0.19248700  0.82986000  0.78293700  1
  C  C11  1  0.45307700  0.67014000  0.36262700  1
  C  C12  1  0.45307700  0.09045000  0.78293700  1
  C  C13  1  0.19248700  0.40955000  0.36262700  1
  C  C14  1  0.80751300  0.59045000  0.63737300  1
  C  C15  1  0.54692300  0.90955000  0.21706300  1
  C  C16  1  0.54692300  0.32986000  0.63737300  1
  C  C17  1  0.80751300  0.17014000  0.21706300  1
  C  C18  1  0.41004300  0.25000000  0.16004300  1
  C  C19  1  0.13349300  0.40074100  0.73275300  1
  C  C20  1  0.83201200  0.09925900  0.73275300  1
  C  C21  1  0.58995700  0.75000000  0.83995700  1
