# generated using pymatgen
data_Cu2NiC16
_symmetry_space_group_name_H-M   'P 1'
_cell_length_a   5.59149105
_cell_length_b   5.57125502
_cell_length_c   9.91837641
_cell_angle_alpha   89.89300279
_cell_angle_beta   89.97422851
_cell_angle_gamma   60.09591569
_symmetry_Int_Tables_number   1
_chemical_formula_structural   Cu2NiC16
_chemical_formula_sum   'Cu2 Ni1 C16'
_cell_volume   267.83665056
_cell_formula_units_Z   1
loop_
 _symmetry_equiv_pos_site_id
 _symmetry_equiv_pos_as_xyz
  1  'x, y, z'
loop_
 _atom_site_type_symbol
 _atom_site_label
 _atom_site_symmetry_multiplicity
 _atom_site_fract_x
 _atom_site_fract_y
 _atom_site_fract_z
 _atom_site_occupancy
  Ni  Ni0  1  0.66630100  0.66761500  0.05523000  1
  Cu  Cu1  1  0.00144600  0.99869100  0.49499200  1
  Cu  Cu2  1  0.00063800  0.00056500  0.97158200  1
  C  C3  1  0.32783500  0.33594100  0.74238300  1
  C  C4  1  0.66714800  0.66704900  0.36487900  1
  C  C5  1  0.66708300  0.66515900  0.73462000  1
  C  C6  1  0.33331100  0.33387200  0.23577000  1
  C  C7  1  0.96623300  0.37200300  0.63214700  1
  C  C8  1  0.65875800  0.95778500  0.62580400  1
  C  C9  1  0.37643300  0.64866900  0.63365900  1
  C  C10  1  0.63553000  0.06542400  0.12636500  1
  C  C11  1  0.29973400  0.63949000  0.12826300  1
  C  C12  1  0.06344000  0.30221500  0.12643400  1
  C  C13  1  0.04003100  0.60918700  0.35571200  1
  C  C14  1  0.34918800  0.03789500  0.35383400  1
  C  C15  1  0.61232500  0.34882600  0.35473100  1
  C  C16  1  0.39967500  0.96706100  0.85344600  1
  C  C17  1  0.63844500  0.40434200  0.85967200  1
  C  C18  1  0.95894600  0.64070900  0.85672800  1
