# generated using pymatgen
data_Cu2NiC4
_symmetry_space_group_name_H-M   'P 1'
_cell_length_a   6.76508900
_cell_length_b   6.78808106
_cell_length_c   16.53310112
_cell_angle_alpha   87.53097666
_cell_angle_beta   87.63424266
_cell_angle_gamma   62.72913184
_symmetry_Int_Tables_number   1
_chemical_formula_structural   Cu2NiC4
_chemical_formula_sum   'Cu12 Ni6 C24'
_cell_volume   674.01930023
_cell_formula_units_Z   6
loop_
 _symmetry_equiv_pos_site_id
 _symmetry_equiv_pos_as_xyz
  1  'x, y, z'
loop_
 _atom_site_type_symbol
 _atom_site_label
 _atom_site_symmetry_multiplicity
 _atom_site_fract_x
 _atom_site_fract_y
 _atom_site_fract_z
 _atom_site_occupancy
  Ni  Ni0  1  0.84799300  0.34735500  0.04144900  1
  Ni  Ni1  1  0.14386500  0.65056900  0.33873300  1
  Ni  Ni2  1  0.32116400  0.82185600  0.19682800  1
  Ni  Ni3  1  0.83764800  0.34039900  0.66361000  1
  Ni  Ni4  1  0.99917000  0.50341900  0.50357500  1
  Ni  Ni5  1  0.64936500  0.15225900  0.80954200  1
  Cu  Cu6  1  0.84276600  0.83390500  0.16532900  1
  Cu  Cu7  1  0.51792200  0.02200500  0.37303900  1
  Cu  Cu8  1  0.50809900  0.00659800  0.99855800  1
  Cu  Cu9  1  0.33498800  0.34406600  0.16479800  1
  Cu  Cu10  1  0.49978300  0.50598700  0.49970200  1
  Cu  Cu11  1  0.16899700  0.67168900  0.71719200  1
  Cu  Cu12  1  0.00096400  0.00354300  0.50015200  1
  Cu  Cu13  1  0.14374800  0.15914900  0.83387100  1
  Cu  Cu14  1  0.82646600  0.32671500  0.28610600  1
  Cu  Cu15  1  0.65739000  0.64512700  0.83425000  1
  Cu  Cu16  1  0.48713600  0.98726000  0.61662200  1
  Cu  Cu17  1  0.13775600  0.63490500  0.96372100  1
  C  C18  1  0.71912300  0.66623000  0.07758600  1
  C  C19  1  0.48073400  0.97697100  0.23991800  1
  C  C20  1  0.16779600  0.21770900  0.07731900  1
  C  C21  1  0.67110800  0.17281100  0.07331900  1
  C  C22  1  0.27838900  0.38999200  0.42514100  1
  C  C23  1  0.01644900  0.51816000  0.25201500  1
  C  C24  1  0.16940200  0.66850900  0.58596900  1
  C  C25  1  0.45126700  0.52713700  0.26229500  1
  C  C26  1  0.86839400  0.78988500  0.42266900  1
  C  C27  1  0.19893200  0.69738200  0.10483500  1
  C  C28  1  0.34511600  0.84870500  0.42314200  1
  C  C29  1  0.02737300  0.94992800  0.26291900  1
  C  C30  1  0.95005500  0.05696500  0.74587700  1
  C  C31  1  0.66984900  0.17407600  0.58013400  1
  C  C32  1  0.11043500  0.21020700  0.57914300  1
  C  C33  1  0.54852700  0.45681300  0.74577500  1
  C  C34  1  0.85713900  0.35962100  0.91845400  1
  C  C35  1  0.82722000  0.32621300  0.41824900  1
  C  C36  1  0.98289100  0.47951800  0.74896100  1
  C  C37  1  0.71518800  0.61184700  0.58030900  1
  C  C38  1  0.31401900  0.80984700  0.91456100  1
  C  C39  1  0.80623600  0.87200600  0.89971100  1
  C  C40  1  0.49789600  0.00220200  0.74721600  1
  C  C41  1  0.37444200  0.30358800  0.89892600  1
