# generated using pymatgen
data_CuNi8C35
_symmetry_space_group_name_H-M   'P 1'
_cell_length_a   5.59076900
_cell_length_b   8.53485878
_cell_length_c   13.01129478
_cell_angle_alpha   89.55065815
_cell_angle_beta   89.06745602
_cell_angle_gamma   89.93938697
_symmetry_Int_Tables_number   1
_chemical_formula_structural   CuNi8C35
_chemical_formula_sum   'Cu1 Ni8 C35'
_cell_volume   620.75086563
_cell_formula_units_Z   1
loop_
 _symmetry_equiv_pos_site_id
 _symmetry_equiv_pos_as_xyz
  1  'x, y, z'
loop_
 _atom_site_type_symbol
 _atom_site_label
 _atom_site_symmetry_multiplicity
 _atom_site_fract_x
 _atom_site_fract_y
 _atom_site_fract_z
 _atom_site_occupancy
  C  C0  1  0.21969500  0.35661900  0.21758900  1
  C  C1  1  0.28063500  0.85708300  0.28188600  1
  C  C2  1  0.77991200  0.64440800  0.78189800  1
  C  C3  1  0.18518500  0.34243600  0.89141700  1
  C  C4  1  0.68505800  0.15664300  0.39218500  1
  C  C5  1  0.81293300  0.65616400  0.10920100  1
  C  C6  1  0.31569300  0.84391100  0.60918200  1
  Ni  Ni7  1  0.24300800  0.95562500  0.83797300  1
  Ni  Ni8  1  0.74332100  0.54767400  0.34021300  1
  Ni  Ni9  1  0.75652900  0.04805100  0.16007700  1
  Ni  Ni10  1  0.25670200  0.44752300  0.66025500  1
  Ni  Ni11  1  0.68773900  0.30855200  0.01544500  1
  Ni  Ni12  1  0.18784800  0.19038100  0.51780800  1
  Ni  Ni13  1  0.31127700  0.69186000  0.98330900  1
  Ni  Ni14  1  0.81252500  0.80856700  0.48427200  1
  Cu  Cu15  1  0.71335900  0.15101700  0.71804200  1
  C  C16  1  0.80367000  0.32501300  0.90768600  1
  C  C17  1  0.29988400  0.17492200  0.40939700  1
  C  C18  1  0.19457300  0.67618000  0.09089500  1
  C  C19  1  0.69590800  0.82248600  0.59139100  1
  C  C20  1  0.41594800  0.33242800  0.01838500  1
  C  C21  1  0.91514300  0.16676700  0.52305300  1
  C  C22  1  0.58356000  0.66903400  0.98175500  1
  C  C23  1  0.08455900  0.83149700  0.48184200  1
  C  C24  1  0.50991400  0.41424300  0.69820100  1
  C  C25  1  0.00875400  0.07683500  0.19773500  1
  C  C26  1  0.49145300  0.57644100  0.30182000  1
  C  C27  1  0.98864600  0.93217900  0.79995000  1
  C  C28  1  0.31123200  0.12752900  0.85365300  1
  C  C29  1  0.80343900  0.37388600  0.35545000  1
  C  C30  1  0.69558600  0.87511500  0.14534600  1
  C  C31  1  0.20293700  0.62228800  0.64717400  1
  C  C32  1  0.25910000  0.87299400  0.95095000  1
  C  C33  1  0.76294600  0.62722600  0.45255300  1
  C  C34  1  0.73738200  0.12715100  0.04678800  1
  C  C35  1  0.23702200  0.37241100  0.54697800  1
  C  C36  1  0.43367700  0.87747200  0.76781400  1
  C  C37  1  0.93463200  0.62299700  0.26844600  1
  C  C38  1  0.56618800  0.12464000  0.23125600  1
  C  C39  1  0.06241300  0.37166900  0.73069700  1
  C  C40  1  0.81093100  0.41074800  0.09681900  1
  C  C41  1  0.31869000  0.08865900  0.59814300  1
  C  C42  1  0.19052700  0.58785800  0.90238000  1
  C  C43  1  0.68986400  0.91281700  0.40269000  1
