# generated using pymatgen
data_Cu2Ni12C17
_symmetry_space_group_name_H-M   'P 1'
_cell_length_a   8.42518559
_cell_length_b   8.13312190
_cell_length_c   14.87105568
_cell_angle_alpha   82.08259702
_cell_angle_beta   86.24075417
_cell_angle_gamma   104.10605770
_symmetry_Int_Tables_number   1
_chemical_formula_structural   Cu2Ni12C17
_chemical_formula_sum   'Cu2 Ni12 C17'
_cell_volume   973.63601519
_cell_formula_units_Z   1
loop_
 _symmetry_equiv_pos_site_id
 _symmetry_equiv_pos_as_xyz
  1  'x, y, z'
loop_
 _atom_site_type_symbol
 _atom_site_label
 _atom_site_symmetry_multiplicity
 _atom_site_fract_x
 _atom_site_fract_y
 _atom_site_fract_z
 _atom_site_occupancy
  C  C0  1  0.88880900  0.79706200  0.69608900  1
  C  C1  1  0.89006400  0.29937800  0.69636000  1
  C  C2  1  0.10909000  0.19986300  0.31108000  1
  C  C3  1  0.10676700  0.69892200  0.31205000  1
  C  C4  1  0.62940100  0.69549300  0.84082600  1
  C  C5  1  0.63074500  0.19850900  0.84099200  1
  C  C6  1  0.38734100  0.30809000  0.15053900  1
  C  C7  1  0.38394200  0.80860800  0.15208500  1
  C  C8  1  0.73584200  0.94501000  0.95700300  1
  C  C9  1  0.72675700  0.44233600  0.96340300  1
  C  C10  1  0.26685100  0.05605600  0.03828700  1
  C  C11  1  0.26728000  0.55801700  0.03755600  1
  C  C12  1  0.06710800  0.07755600  0.75675700  1
  C  C13  1  0.92750800  0.42269400  0.23552900  1
  C  C14  1  0.92750500  0.92311400  0.23310800  1
  C  C15  1  0.50002800  0.54303700  0.50037100  1
  C  C16  1  0.49875600  0.04367000  0.50002600  1
  Ni  Ni17  1  0.47461500  0.95143600  0.66022200  1
  Ni  Ni18  1  0.48419400  0.45495500  0.66236500  1
  Ni  Ni19  1  0.51122100  0.04313000  0.33750700  1
  Ni  Ni20  1  0.51318500  0.54359200  0.33810000  1
  Ni  Ni21  1  0.79971800  0.17037000  0.09984100  1
  Ni  Ni22  1  0.79945300  0.68031900  0.09992700  1
  Ni  Ni23  1  0.19996900  0.81885800  0.91513300  1
  Ni  Ni24  1  0.20227200  0.32464500  0.91471900  1
  Ni  Ni25  1  0.78710700  0.07311600  0.49054900  1
  Ni  Ni26  1  0.79016000  0.57334900  0.49395600  1
  Ni  Ni27  1  0.20631800  0.92338300  0.50435300  1
  Ni  Ni28  1  0.20778200  0.42509400  0.50597500  1
  Cu  Cu29  1  0.49934300  0.75593900  0.49943100  1
  Cu  Cu30  1  0.49896800  0.25805100  0.49976200  1
