# generated using pymatgen
data_Cu2Ni15C2
_symmetry_space_group_name_H-M   'P 1'
_cell_length_a   6.38312728
_cell_length_b   6.38312728
_cell_length_c   6.38312752
_cell_angle_alpha   81.69925531
_cell_angle_beta   81.69925531
_cell_angle_gamma   81.69926407
_symmetry_Int_Tables_number   1
_chemical_formula_structural   Cu2Ni15C2
_chemical_formula_sum   'Cu2 Ni15 C2'
_cell_volume   252.62094539
_cell_formula_units_Z   1
loop_
 _symmetry_equiv_pos_site_id
 _symmetry_equiv_pos_as_xyz
  1  'x, y, z'
loop_
 _atom_site_type_symbol
 _atom_site_label
 _atom_site_symmetry_multiplicity
 _atom_site_fract_x
 _atom_site_fract_y
 _atom_site_fract_z
 _atom_site_occupancy
  C  C0  1  0.65538800  0.65538800  0.65538800  1
  C  C1  1  0.34461200  0.34461200  0.34461200  1
  Ni  Ni2  1  0.00000000  0.00000000  0.50000000  1
  Ni  Ni3  1  0.50000000  0.00000000  0.00000000  1
  Ni  Ni4  1  0.00000000  0.50000000  0.00000000  1
  Ni  Ni5  1  0.71033200  0.28966800  0.00000000  1
  Ni  Ni6  1  0.00000000  0.71033200  0.28966800  1
  Ni  Ni7  1  0.28966800  0.00000000  0.71033200  1
  Ni  Ni8  1  0.00000000  0.28966800  0.71033200  1
  Ni  Ni9  1  0.71033200  0.00000000  0.28966800  1
  Ni  Ni10  1  0.28966800  0.71033200  0.00000000  1
  Ni  Ni11  1  0.33948000  0.33948000  0.84471000  1
  Ni  Ni12  1  0.84471000  0.33948000  0.33948000  1
  Ni  Ni13  1  0.33948000  0.84471000  0.33948000  1
  Ni  Ni14  1  0.66052000  0.66052000  0.15529000  1
  Ni  Ni15  1  0.15529000  0.66052000  0.66052000  1
  Ni  Ni16  1  0.66052000  0.15529000  0.66052000  1
  Cu  Cu17  1  0.89842500  0.89842500  0.89842500  1
  Cu  Cu18  1  0.10157500  0.10157500  0.10157500  1
