# generated using pymatgen
data_Cu2Ni8C15
_symmetry_space_group_name_H-M   'P 1'
_cell_length_a   7.45841658
_cell_length_b   7.11735700
_cell_length_c   12.90008574
_cell_angle_alpha   90.00000000
_cell_angle_beta   89.81502784
_cell_angle_gamma   90.00000000
_symmetry_Int_Tables_number   1
_chemical_formula_structural   Cu2Ni8C15
_chemical_formula_sum   'Cu4 Ni16 C30'
_cell_volume   684.78733589
_cell_formula_units_Z   2
loop_
 _symmetry_equiv_pos_site_id
 _symmetry_equiv_pos_as_xyz
  1  'x, y, z'
loop_
 _atom_site_type_symbol
 _atom_site_label
 _atom_site_symmetry_multiplicity
 _atom_site_fract_x
 _atom_site_fract_y
 _atom_site_fract_z
 _atom_site_occupancy
  C  C0  1  0.87185400  0.60684100  0.16478400  1
  C  C1  1  0.12814600  0.10684100  0.33521600  1
  C  C2  1  0.12814600  0.39315900  0.83521600  1
  C  C3  1  0.87185400  0.89315900  0.66478400  1
  C  C4  1  0.00000000  0.50000000  0.50000000  1
  C  C5  1  0.00000000  0.00000000  0.00000000  1
  Ni  Ni6  1  0.30105500  0.64895800  0.95343800  1
  Ni  Ni7  1  0.69894500  0.14895800  0.54656200  1
  Ni  Ni8  1  0.69894500  0.35104200  0.04656200  1
  Ni  Ni9  1  0.30105500  0.85104200  0.45343800  1
  Ni  Ni10  1  0.45896800  0.81682900  0.17268600  1
  Ni  Ni11  1  0.54103200  0.31682900  0.32731400  1
  Ni  Ni12  1  0.54103200  0.18317100  0.82731400  1
  Ni  Ni13  1  0.45896800  0.68317100  0.67268600  1
  Ni  Ni14  1  0.27245100  0.70344900  0.36726900  1
  Ni  Ni15  1  0.72754900  0.20344900  0.13273100  1
  Ni  Ni16  1  0.35458700  0.37343700  0.36508700  1
  Ni  Ni17  1  0.64541300  0.87343700  0.13491300  1
  Ni  Ni18  1  0.64541300  0.62656300  0.63491300  1
  Ni  Ni19  1  0.35458700  0.12656300  0.86508700  1
  Ni  Ni20  1  0.72754900  0.29655100  0.63273100  1
  Ni  Ni21  1  0.27245100  0.79655100  0.86726900  1
  Cu  Cu22  1  0.74691600  0.77738800  0.37732000  1
  Cu  Cu23  1  0.25308400  0.27738800  0.12268000  1
  Cu  Cu24  1  0.25308400  0.22261200  0.62268000  1
  Cu  Cu25  1  0.74691600  0.72261200  0.87732000  1
  C  C26  1  0.16184700  0.11786300  0.53883300  1
  C  C27  1  0.83815300  0.88213700  0.46116700  1
  C  C28  1  0.59448000  0.83675700  0.91143500  1
  C  C29  1  0.16184700  0.38213700  0.03883300  1
  C  C30  1  0.40552000  0.16324300  0.08856500  1
  C  C31  1  0.59448000  0.66324300  0.41143500  1
  C  C32  1  0.23556800  0.67182200  0.88964300  1
  C  C33  1  0.76443200  0.17182200  0.61035700  1
  C  C34  1  0.76443200  0.32817800  0.11035700  1
  C  C35  1  0.23556800  0.82817800  0.38964300  1
  C  C36  1  0.89020700  0.99213100  0.85631800  1
  C  C37  1  0.10979300  0.49213100  0.64368200  1
  C  C38  1  0.10979300  0.00786900  0.14368200  1
  C  C39  1  0.89020700  0.50786900  0.35631800  1
  C  C40  1  0.91649500  0.55132800  0.63395100  1
  C  C41  1  0.08350500  0.05132800  0.86604900  1
  C  C42  1  0.08350500  0.44867200  0.36604900  1
  C  C43  1  0.91649500  0.94867200  0.13395100  1
  C  C44  1  0.57811200  0.76538200  0.16069500  1
  C  C45  1  0.42188800  0.26538200  0.33930500  1
  C  C46  1  0.42188800  0.23461800  0.83930500  1
  C  C47  1  0.57811200  0.73461800  0.66069500  1
  C  C48  1  0.40552000  0.33675700  0.58856500  1
  C  C49  1  0.83815300  0.61786300  0.96116700  1
