# generated using pymatgen
data_Cu2NiC15
_symmetry_space_group_name_H-M   'P 1'
_cell_length_a   7.12280607
_cell_length_b   8.92887409
_cell_length_c   9.37011208
_cell_angle_alpha   82.72239380
_cell_angle_beta   89.98160753
_cell_angle_gamma   75.75225265
_symmetry_Int_Tables_number   1
_chemical_formula_structural   Cu2NiC15
_chemical_formula_sum   'Cu2 Ni1 C15'
_cell_volume   572.64778252
_cell_formula_units_Z   1
loop_
 _symmetry_equiv_pos_site_id
 _symmetry_equiv_pos_as_xyz
  1  'x, y, z'
loop_
 _atom_site_type_symbol
 _atom_site_label
 _atom_site_symmetry_multiplicity
 _atom_site_fract_x
 _atom_site_fract_y
 _atom_site_fract_z
 _atom_site_occupancy
  Ni  Ni0  1  0.18820600  0.34378500  0.72724400  1
  Cu  Cu1  1  0.50391800  0.66011600  0.61981600  1
  Cu  Cu2  1  0.49086100  0.37018500  0.35421700  1
  C  C3  1  0.21858400  0.90556900  0.14024700  1
  C  C4  1  0.05105500  0.20361600  0.00479900  1
  C  C5  1  0.92764000  0.80167800  0.01805300  1
  C  C6  1  0.81270900  0.07980900  0.83885300  1
  C  C7  1  0.44968900  0.18236100  0.19487600  1
  C  C8  1  0.38790600  0.48300500  0.82403400  1
  C  C9  1  0.78891400  0.19729800  0.43086200  1
  C  C10  1  0.16102800  0.51471600  0.29116800  1
  C  C11  1  0.61600300  0.52233800  0.17958000  1
  C  C12  1  0.33162900  0.19939400  0.54901400  1
  C  C13  1  0.85508100  0.47430300  0.72035600  1
  C  C14  1  0.65841700  0.79545100  0.45260700  1
  C  C15  1  0.19152700  0.80128500  0.56486900  1
  C  C16  1  0.54920800  0.80380700  0.81314800  1
  C  C17  1  0.50280700  0.49699600  0.50482800  1
