# generated using pymatgen
data_Cu2Ni2C9
_symmetry_space_group_name_H-M   'P 1'
_cell_length_a   6.76590100
_cell_length_b   7.12165900
_cell_length_c   16.77601400
_cell_angle_alpha   90.00000000
_cell_angle_beta   90.00000000
_cell_angle_gamma   90.00000000
_symmetry_Int_Tables_number   1
_chemical_formula_structural   Cu2Ni2C9
_chemical_formula_sum   'Cu8 Ni8 C36'
_cell_volume   808.34283582
_cell_formula_units_Z   4
loop_
 _symmetry_equiv_pos_site_id
 _symmetry_equiv_pos_as_xyz
  1  'x, y, z'
loop_
 _atom_site_type_symbol
 _atom_site_label
 _atom_site_symmetry_multiplicity
 _atom_site_fract_x
 _atom_site_fract_y
 _atom_site_fract_z
 _atom_site_occupancy
  C  C0  1  0.86116400  0.42562000  0.22868100  1
  C  C1  1  0.13883600  0.92562000  0.27131900  1
  C  C2  1  0.36116400  0.07438000  0.77131900  1
  C  C3  1  0.63883600  0.57438000  0.72868100  1
  Ni  Ni4  1  0.11242900  0.71888200  0.07769300  1
  Ni  Ni5  1  0.88757100  0.21888200  0.42230700  1
  Ni  Ni6  1  0.61242900  0.78111800  0.92230700  1
  Ni  Ni7  1  0.38757100  0.28111800  0.57769300  1
  Ni  Ni8  1  0.82756800  0.08961500  0.73933100  1
  Ni  Ni9  1  0.17243200  0.58961500  0.76066900  1
  Ni  Ni10  1  0.32756800  0.41038500  0.26066900  1
  Ni  Ni11  1  0.67243200  0.91038500  0.23933100  1
  Cu  Cu12  1  0.28775600  0.61400400  0.07681000  1
  Cu  Cu13  1  0.71224400  0.11400400  0.42319000  1
  Cu  Cu14  1  0.78775600  0.88599600  0.92319000  1
  Cu  Cu15  1  0.21224400  0.38599600  0.57681000  1
  Cu  Cu16  1  0.87972300  0.12517700  0.65939000  1
  Cu  Cu17  1  0.12027700  0.62517700  0.84061000  1
  Cu  Cu18  1  0.37972300  0.37482300  0.34061000  1
  Cu  Cu19  1  0.62027700  0.87482300  0.15939000  1
  C  C20  1  0.94302600  0.59150800  0.10714200  1
  C  C21  1  0.05697400  0.09150800  0.39285800  1
  C  C22  1  0.44302600  0.90849200  0.89285800  1
  C  C23  1  0.55697400  0.40849200  0.60714200  1
  C  C24  1  0.14536100  0.89004600  0.13126100  1
  C  C25  1  0.85463900  0.39004600  0.36873900  1
  C  C26  1  0.64536100  0.60995400  0.86873900  1
  C  C27  1  0.35463900  0.10995400  0.63126100  1
  C  C28  1  0.05992300  0.77606900  0.99113600  1
  C  C29  1  0.94007700  0.27606900  0.50886400  1
  C  C30  1  0.55992300  0.72393100  0.00886400  1
  C  C31  1  0.44007700  0.22393100  0.49113600  1
  C  C32  1  0.01734600  0.07431200  0.78769600  1
  C  C33  1  0.98265400  0.57431200  0.71230400  1
  C  C34  1  0.51734600  0.42568800  0.21230400  1
  C  C35  1  0.48265400  0.92568800  0.28769600  1
  C  C36  1  0.69426800  0.91182800  0.74056600  1
  C  C37  1  0.30573200  0.41182800  0.75943400  1
  C  C38  1  0.19426800  0.58817200  0.25943400  1
  C  C39  1  0.80573200  0.08817200  0.24056600  1
  C  C40  1  0.31316900  0.75022400  0.73293300  1
  C  C41  1  0.68683100  0.25022400  0.76706700  1
  C  C42  1  0.81316900  0.74977600  0.26706700  1
  C  C43  1  0.18683100  0.24977600  0.23293300  1
  C  C44  1  0.39667700  0.27184000  0.96387100  1
  C  C45  1  0.60332300  0.77184000  0.53612900  1
  C  C46  1  0.89667700  0.22816000  0.03612900  1
  C  C47  1  0.10332300  0.72816000  0.46387100  1
  C  C48  1  0.93318400  0.28761500  0.96921500  1
  C  C49  1  0.06681600  0.78761500  0.53078500  1
  C  C50  1  0.43318400  0.21238500  0.03078500  1
  C  C51  1  0.56681600  0.71238500  0.46921500  1
