# generated using pymatgen
data_Cu5Ni4C21
_symmetry_space_group_name_H-M   'P 1'
_cell_length_a   4.75147778
_cell_length_b   19.52363817
_cell_length_c   7.57765437
_cell_angle_alpha   91.24548612
_cell_angle_beta   87.44502293
_cell_angle_gamma   83.67892000
_symmetry_Int_Tables_number   1
_chemical_formula_structural   Cu5Ni4C21
_chemical_formula_sum   'Cu10 Ni8 C42'
_cell_volume   697.73023510
_cell_formula_units_Z   2
loop_
 _symmetry_equiv_pos_site_id
 _symmetry_equiv_pos_as_xyz
  1  'x, y, z'
loop_
 _atom_site_type_symbol
 _atom_site_label
 _atom_site_symmetry_multiplicity
 _atom_site_fract_x
 _atom_site_fract_y
 _atom_site_fract_z
 _atom_site_occupancy
  C  C0  1  0.48934900  0.21205600  0.89924500  1
  C  C1  1  0.48615400  0.41234600  0.49781100  1
  Ni  Ni2  1  0.50235400  0.61959800  0.10608100  1
  Ni  Ni3  1  0.50396800  0.81944600  0.70616200  1
  Ni  Ni4  1  0.50598400  0.01907100  0.30581100  1
  Ni  Ni5  1  0.49941000  0.18082900  0.29539600  1
  Ni  Ni6  1  0.49754900  0.38060100  0.89575700  1
  Ni  Ni7  1  0.49490300  0.57995400  0.49350400  1
  Ni  Ni8  1  0.49603200  0.78009200  0.09357600  1
  Ni  Ni9  1  0.49554200  0.97969300  0.69386000  1
  Cu  Cu10  1  0.99393900  0.31810800  0.19457200  1
  Cu  Cu11  1  0.98907600  0.51684100  0.79675300  1
  Cu  Cu12  1  0.99381700  0.71699900  0.39830800  1
  Cu  Cu13  1  0.99389000  0.91672900  0.99873900  1
  Cu  Cu14  1  0.99889500  0.11808300  0.59619200  1
  Cu  Cu15  1  0.01076400  0.08257200  0.00328500  1
  Cu  Cu16  1  0.00777400  0.28403400  0.60174100  1
  Cu  Cu17  1  0.00351400  0.48436200  0.20006400  1
  Cu  Cu18  1  0.00690400  0.68277500  0.80138900  1
  Cu  Cu19  1  0.00657500  0.88268000  0.40212700  1
  C  C20  1  0.78933400  0.21015100  0.69540500  1
  C  C21  1  0.78499500  0.41026900  0.29426300  1
  C  C22  1  0.78110200  0.61046100  0.89866800  1
  C  C23  1  0.78246000  0.81037200  0.49985600  1
  C  C24  1  0.78512900  0.01017000  0.09960600  1
  C  C25  1  0.22384900  0.19031100  0.49943300  1
  C  C26  1  0.21895300  0.39037100  0.09905800  1
  C  C27  1  0.21433300  0.58996600  0.69960000  1
  C  C28  1  0.21732500  0.79013000  0.30029800  1
  C  C29  1  0.21805900  0.98996000  0.89978100  1
  C  C30  1  0.74668800  0.31234100  0.01867800  1
  C  C31  1  0.74448600  0.51316400  0.61749800  1
  C  C32  1  0.75012700  0.71591500  0.21900000  1
  C  C33  1  0.74934100  0.91590200  0.81977300  1
  C  C34  1  0.75270400  0.11504200  0.42004500  1
  C  C35  1  0.25384100  0.08376000  0.18230900  1
  C  C36  1  0.24767200  0.28662700  0.78067600  1
  C  C37  1  0.24264700  0.48741600  0.37960600  1
  C  C38  1  0.25088200  0.68454400  0.98041300  1
  C  C39  1  0.25033100  0.88437100  0.58112100  1
  C  C40  1  0.22336300  0.13210000  0.83694600  1
  C  C41  1  0.22062000  0.33286500  0.43537400  1
  C  C42  1  0.21200300  0.53021800  0.03112000  1
  C  C43  1  0.21455700  0.72962600  0.63230800  1
  C  C44  1  0.21377600  0.92937300  0.23247300  1
  C  C45  1  0.78972700  0.27297300  0.36902300  1
  C  C46  1  0.78065000  0.47123000  0.96690500  1
  C  C47  1  0.78487200  0.67087700  0.56722800  1
  C  C48  1  0.78451900  0.87071900  0.16739800  1
  C  C49  1  0.79374700  0.07259200  0.76918900  1
  C  C50  1  0.26646800  0.24276000  0.14009900  1
  C  C51  1  0.26396800  0.44275700  0.73873900  1
  C  C52  1  0.26727400  0.64247900  0.33373500  1
  C  C53  1  0.26685900  0.84185900  0.93323000  1
  C  C54  1  0.27088800  0.04223500  0.53482700  1
  C  C55  1  0.73755200  0.15578600  0.07398700  1
  C  C56  1  0.73385000  0.35652900  0.67292300  1
  C  C57  1  0.72872900  0.55866000  0.26558000  1
  C  C58  1  0.73336500  0.75818400  0.86663300  1
  C  C59  1  0.73256300  0.95806600  0.46682500  1
