# generated using pymatgen
data_CuNiC13
_symmetry_space_group_name_H-M   'P 1'
_cell_length_a   5.87090399
_cell_length_b   5.87090399
_cell_length_c   14.41616100
_cell_angle_alpha   90.00000000
_cell_angle_beta   90.00000000
_cell_angle_gamma   119.99999993
_symmetry_Int_Tables_number   1
_chemical_formula_structural   CuNiC13
_chemical_formula_sum   'Cu2 Ni2 C26'
_cell_volume   430.31869361
_cell_formula_units_Z   2
loop_
 _symmetry_equiv_pos_site_id
 _symmetry_equiv_pos_as_xyz
  1  'x, y, z'
loop_
 _atom_site_type_symbol
 _atom_site_label
 _atom_site_symmetry_multiplicity
 _atom_site_fract_x
 _atom_site_fract_y
 _atom_site_fract_z
 _atom_site_occupancy
  C  C0  1  0.66666700  0.33333300  0.59324500  1
  C  C1  1  0.33333300  0.66666700  0.40235800  1
  C  C2  1  0.33333300  0.66666700  0.09324500  1
  C  C3  1  0.66666700  0.33333300  0.90235800  1
  C  C4  1  0.00000000  0.00000000  0.75394900  1
  C  C5  1  0.00000000  0.00000000  0.25394900  1
  C  C6  1  0.00000000  0.00000000  0.49763800  1
  C  C7  1  0.00000000  0.00000000  0.99763800  1
  Ni  Ni8  1  0.66666700  0.33333300  0.35785500  1
  Ni  Ni9  1  0.33333300  0.66666700  0.85785500  1
  Cu  Cu10  1  0.33333300  0.66666700  0.65676400  1
  Cu  Cu11  1  0.66666700  0.33333300  0.15676400  1
  C  C12  1  0.48340100  0.96680100  0.74566400  1
  C  C13  1  0.48340100  0.51659900  0.74566400  1
  C  C14  1  0.03319900  0.51659900  0.74566400  1
  C  C15  1  0.51659900  0.03319900  0.24566400  1
  C  C16  1  0.51659900  0.48340100  0.24566400  1
  C  C17  1  0.96680100  0.48340100  0.24566400  1
  C  C18  1  0.17277100  0.34554200  0.58551300  1
  C  C19  1  0.17277100  0.82722900  0.58551300  1
  C  C20  1  0.65445800  0.82722900  0.58551300  1
  C  C21  1  0.82872100  0.65744300  0.41488600  1
  C  C22  1  0.82872100  0.17127900  0.41488600  1
  C  C23  1  0.34255700  0.17127900  0.41488600  1
  C  C24  1  0.82722900  0.65445800  0.08551300  1
  C  C25  1  0.82722900  0.17277100  0.08551300  1
  C  C26  1  0.34554200  0.17277100  0.08551300  1
  C  C27  1  0.17127900  0.34255700  0.91488600  1
  C  C28  1  0.17127900  0.82872100  0.91488600  1
  C  C29  1  0.65744300  0.82872100  0.91488600  1
