# generated using pymatgen
data_Cu(NiC4)2
_symmetry_space_group_name_H-M   'P 1'
_cell_length_a   5.00089485
_cell_length_b   4.92571751
_cell_length_c   19.72716783
_cell_angle_alpha   92.85674070
_cell_angle_beta   95.65375068
_cell_angle_gamma   59.53199440
_symmetry_Int_Tables_number   1
_chemical_formula_structural   Cu(NiC4)2
_chemical_formula_sum   'Cu4 Ni8 C32'
_cell_volume   416.79959875
_cell_formula_units_Z   4
loop_
 _symmetry_equiv_pos_site_id
 _symmetry_equiv_pos_as_xyz
  1  'x, y, z'
loop_
 _atom_site_type_symbol
 _atom_site_label
 _atom_site_symmetry_multiplicity
 _atom_site_fract_x
 _atom_site_fract_y
 _atom_site_fract_z
 _atom_site_occupancy
  C  C0  1  0.35964200  0.00178500  0.12478200  1
  C  C1  1  0.12418800  0.00144800  0.37493000  1
  C  C2  1  0.87525000  0.00131900  0.62511200  1
  C  C3  1  0.63798400  0.00238800  0.87522200  1
  C  C4  1  0.03560700  0.69102100  0.12429700  1
  C  C5  1  0.77442700  0.70175300  0.37493200  1
  C  C6  1  0.52445000  0.70076200  0.62511600  1
  C  C7  1  0.27463800  0.69089600  0.87557200  1
  Ni  Ni8  1  0.41752500  0.66407800  0.24999700  1
  Ni  Ni9  1  0.16787300  0.66439300  0.50004200  1
  Ni  Ni10  1  0.91807600  0.66430400  0.75002800  1
  Ni  Ni11  1  0.67038800  0.65848600  0.00003500  1
  Ni  Ni12  1  0.33462500  0.33045600  0.99999400  1
  Ni  Ni13  1  0.08990000  0.32019800  0.24993500  1
  Ni  Ni14  1  0.83998100  0.32029500  0.50002800  1
  Ni  Ni15  1  0.58983100  0.32028900  0.75004200  1
  Cu  Cu16  1  0.25040600  0.99971100  0.75042400  1
  Cu  Cu17  1  0.99967700  0.99997800  0.99997300  1
  Cu  Cu18  1  0.74993800  0.99921800  0.24951800  1
  Cu  Cu19  1  0.49987400  0.00003200  0.50003800  1
  C  C20  1  0.34628100  0.67116900  0.05215200  1
  C  C21  1  0.09173700  0.66825800  0.30180500  1
  C  C22  1  0.84197000  0.66875400  0.55204400  1
  C  C23  1  0.59178100  0.66926300  0.80228800  1
  C  C24  1  0.73873000  0.66924500  0.19768900  1
  C  C25  1  0.48936600  0.66896600  0.44805000  1
  C  C26  1  0.23965600  0.66857600  0.69818100  1
  C  C27  1  0.98275700  0.67187200  0.94776900  1
  C  C28  1  0.09139800  0.98607400  0.19571800  1
  C  C29  1  0.84170900  0.98649400  0.44583500  1
  C  C30  1  0.59166300  0.98632000  0.69595200  1
  C  C31  1  0.31959200  0.98907000  0.94896800  1
  C  C32  1  0.69106600  0.98940400  0.05097600  1
  C  C33  1  0.42204300  0.98608500  0.30403700  1
  C  C34  1  0.17205400  0.98638300  0.55425100  1
  C  C35  1  0.92241400  0.98618200  0.80425500  1
  C  C36  1  0.02770100  0.33454300  0.05034700  1
  C  C37  1  0.77466500  0.33334600  0.29939700  1
  C  C38  1  0.52499000  0.33392300  0.54974700  1
  C  C39  1  0.27531500  0.33400900  0.80000200  1
  C  C40  1  0.39047600  0.33406300  0.19995700  1
  C  C41  1  0.14133200  0.33400100  0.45035200  1
  C  C42  1  0.89164100  0.33376000  0.70056200  1
  C  C43  1  0.63649900  0.33520800  0.94964900  1
