# generated using pymatgen
data_Cu12Ni2C5
_symmetry_space_group_name_H-M   'P 1'
_cell_length_a   7.88300500
_cell_length_b   12.17179800
_cell_length_c   17.01182500
_cell_angle_alpha   90.00000000
_cell_angle_beta   90.00000000
_cell_angle_gamma   90.00000000
_symmetry_Int_Tables_number   1
_chemical_formula_structural   Cu12Ni2C5
_chemical_formula_sum   'Cu48 Ni8 C20'
_cell_volume   1632.29046920
_cell_formula_units_Z   4
loop_
 _symmetry_equiv_pos_site_id
 _symmetry_equiv_pos_as_xyz
  1  'x, y, z'
loop_
 _atom_site_type_symbol
 _atom_site_label
 _atom_site_symmetry_multiplicity
 _atom_site_fract_x
 _atom_site_fract_y
 _atom_site_fract_z
 _atom_site_occupancy
  C  C0  1  0.11849100  0.25000000  0.48677400  1
  C  C1  1  0.61849100  0.25000000  0.01322600  1
  C  C2  1  0.88150900  0.75000000  0.51322600  1
  C  C3  1  0.38150900  0.75000000  0.98677400  1
  C  C4  1  0.31134700  0.58485600  0.68633500  1
  C  C5  1  0.81134700  0.91514400  0.81366500  1
  C  C6  1  0.68865300  0.08485600  0.31366500  1
  C  C7  1  0.18865300  0.41514400  0.18633500  1
  C  C8  1  0.68865300  0.41514400  0.31366500  1
  C  C9  1  0.18865300  0.08485600  0.18633500  1
  C  C10  1  0.31134700  0.91514400  0.68633500  1
  C  C11  1  0.81134700  0.58485600  0.81366500  1
  C  C12  1  0.21281000  0.54894900  0.43498500  1
  C  C13  1  0.71281000  0.95105100  0.06501500  1
  C  C14  1  0.78719000  0.04894900  0.56501500  1
  C  C15  1  0.28719000  0.45105100  0.93498500  1
  C  C16  1  0.78719000  0.45105100  0.56501500  1
  C  C17  1  0.28719000  0.04894900  0.93498500  1
  C  C18  1  0.21281000  0.95105100  0.43498500  1
  C  C19  1  0.71281000  0.54894900  0.06501500  1
  Ni  Ni20  1  0.28529300  0.49029100  0.67906600  1
  Ni  Ni21  1  0.78529300  0.00970900  0.82093400  1
  Ni  Ni22  1  0.71470700  0.99029100  0.32093400  1
  Ni  Ni23  1  0.21470700  0.50970900  0.17906600  1
  Ni  Ni24  1  0.71470700  0.50970900  0.32093400  1
  Ni  Ni25  1  0.21470700  0.99029100  0.17906600  1
  Ni  Ni26  1  0.28529300  0.00970900  0.67906600  1
  Ni  Ni27  1  0.78529300  0.49029100  0.82093400  1
  Cu  Cu28  1  0.14368500  0.25000000  0.59189400  1
  Cu  Cu29  1  0.64368500  0.25000000  0.90810600  1
  Cu  Cu30  1  0.85631500  0.75000000  0.40810600  1
  Cu  Cu31  1  0.35631500  0.75000000  0.09189400  1
  Cu  Cu32  1  0.09445000  0.25000000  0.38146800  1
  Cu  Cu33  1  0.59445000  0.25000000  0.11853200  1
  Cu  Cu34  1  0.90555000  0.75000000  0.61853200  1
  Cu  Cu35  1  0.40555000  0.75000000  0.88146800  1
  Cu  Cu36  1  0.12126500  0.63163600  0.50183900  1
  Cu  Cu37  1  0.62126500  0.86836400  0.99816100  1
  Cu  Cu38  1  0.87873500  0.13163600  0.49816100  1
  Cu  Cu39  1  0.37873500  0.36836400  0.00183900  1
  Cu  Cu40  1  0.87873500  0.36836400  0.49816100  1
  Cu  Cu41  1  0.37873500  0.13163600  0.00183900  1
  Cu  Cu42  1  0.12126500  0.86836400  0.50183900  1
  Cu  Cu43  1  0.62126500  0.63163600  0.99816100  1
  Cu  Cu44  1  0.23280200  0.42742300  0.48266700  1
  Cu  Cu45  1  0.73280200  0.07257700  0.01733300  1
  Cu  Cu46  1  0.76719800  0.92742300  0.51733300  1
  Cu  Cu47  1  0.26719800  0.57257700  0.98266700  1
  Cu  Cu48  1  0.76719800  0.57257700  0.51733300  1
  Cu  Cu49  1  0.26719800  0.92742300  0.98266700  1
  Cu  Cu50  1  0.23280200  0.07257700  0.48266700  1
  Cu  Cu51  1  0.73280200  0.42742300  0.01733300  1
  Cu  Cu52  1  0.40400900  0.59523800  0.40958600  1
  Cu  Cu53  1  0.90400900  0.90476200  0.09041400  1
  Cu  Cu54  1  0.59599100  0.09523800  0.59041400  1
  Cu  Cu55  1  0.09599100  0.40476200  0.90958600  1
  Cu  Cu56  1  0.59599100  0.40476200  0.59041400  1
  Cu  Cu57  1  0.09599100  0.09523800  0.90958600  1
  Cu  Cu58  1  0.40400900  0.90476200  0.40958600  1
  Cu  Cu59  1  0.90400900  0.59523800  0.09041400  1
  Cu  Cu60  1  0.10025600  0.53810300  0.35228400  1
  Cu  Cu61  1  0.60025600  0.96189700  0.14771600  1
  Cu  Cu62  1  0.89974400  0.03810300  0.64771600  1
  Cu  Cu63  1  0.39974400  0.46189700  0.85228400  1
  Cu  Cu64  1  0.89974400  0.46189700  0.64771600  1
  Cu  Cu65  1  0.39974400  0.03810300  0.85228400  1
  Cu  Cu66  1  0.10025600  0.96189700  0.35228400  1
  Cu  Cu67  1  0.60025600  0.53810300  0.14771600  1
  Cu  Cu68  1  0.42256000  0.25000000  0.48022900  1
  Cu  Cu69  1  0.92256000  0.25000000  0.01977100  1
  Cu  Cu70  1  0.57744000  0.75000000  0.51977100  1
  Cu  Cu71  1  0.07744000  0.75000000  0.98022900  1
  Cu  Cu72  1  0.53597600  0.75000000  0.26884800  1
  Cu  Cu73  1  0.03597600  0.75000000  0.23115200  1
  Cu  Cu74  1  0.46402400  0.25000000  0.73115200  1
  Cu  Cu75  1  0.96402400  0.25000000  0.76884800  1
