# generated using pymatgen
data_Cu6NiC11
_symmetry_space_group_name_H-M   'P 1'
_cell_length_a   7.08480700
_cell_length_b   9.57208000
_cell_length_c   11.18143000
_cell_angle_alpha   90.00000000
_cell_angle_beta   90.00000000
_cell_angle_gamma   90.00000000
_symmetry_Int_Tables_number   1
_chemical_formula_structural   Cu6NiC11
_chemical_formula_sum   'Cu24 Ni4 C44'
_cell_volume   758.28365173
_cell_formula_units_Z   4
loop_
 _symmetry_equiv_pos_site_id
 _symmetry_equiv_pos_as_xyz
  1  'x, y, z'
loop_
 _atom_site_type_symbol
 _atom_site_label
 _atom_site_symmetry_multiplicity
 _atom_site_fract_x
 _atom_site_fract_y
 _atom_site_fract_z
 _atom_site_occupancy
  C  C0  1  0.89731400  0.00201600  0.47208200  1
  C  C1  1  0.10268600  0.99798400  0.97208200  1
  C  C2  1  0.60268600  0.50201600  0.97208200  1
  C  C3  1  0.39731400  0.49798400  0.47208200  1
  C  C4  1  0.35535600  0.77670400  0.33999800  1
  C  C5  1  0.64464400  0.22329600  0.83999800  1
  C  C6  1  0.14464400  0.27670400  0.83999800  1
  C  C7  1  0.85535600  0.72329600  0.33999800  1
  C  C8  1  0.28345700  0.98187500  0.61686900  1
  C  C9  1  0.71654300  0.01812500  0.11686900  1
  C  C10  1  0.21654300  0.48187500  0.11686900  1
  C  C11  1  0.78345700  0.51812500  0.61686900  1
  C  C12  1  0.45809800  0.23015700  0.62322600  1
  C  C13  1  0.54190200  0.76984300  0.12322600  1
  C  C14  1  0.04190200  0.73015700  0.12322600  1
  C  C15  1  0.95809800  0.26984300  0.62322600  1
  C  C16  1  0.25798400  0.04385500  0.27014300  1
  C  C17  1  0.74201600  0.95614500  0.77014300  1
  C  C18  1  0.24201600  0.54385500  0.77014300  1
  C  C19  1  0.75798400  0.45614500  0.27014300  1
  C  C20  1  0.34384500  0.16359200  0.17468900  1
  C  C21  1  0.65615500  0.83640800  0.67468900  1
  C  C22  1  0.15615500  0.66359200  0.67468900  1
  C  C23  1  0.84384500  0.33640800  0.17468900  1
  C  C24  1  0.31218600  0.20282800  0.32115300  1
  C  C25  1  0.68781400  0.79717200  0.82115300  1
  C  C26  1  0.18781400  0.70282800  0.82115300  1
  C  C27  1  0.81218600  0.29717200  0.32115300  1
  C  C28  1  0.48978600  0.09412200  0.28003000  1
  C  C29  1  0.51021400  0.90587800  0.78003000  1
  C  C30  1  0.01021400  0.59412200  0.78003000  1
  C  C31  1  0.98978600  0.40587800  0.28003000  1
  C  C32  1  0.24464300  0.78936100  0.40945300  1
  C  C33  1  0.75535700  0.21063900  0.90945300  1
  C  C34  1  0.25535700  0.28936100  0.90945300  1
  C  C35  1  0.74464300  0.71063900  0.40945300  1
  C  C36  1  0.17588400  0.96850800  0.68780900  1
  C  C37  1  0.82411600  0.03149200  0.18780900  1
  C  C38  1  0.32411600  0.46850800  0.18780900  1
  C  C39  1  0.67588400  0.53149200  0.68780900  1
  C  C40  1  0.55869800  0.21067300  0.54887100  1
  C  C41  1  0.44130200  0.78932700  0.04887100  1
  C  C42  1  0.94130200  0.71067300  0.04887100  1
  C  C43  1  0.05869800  0.28932700  0.54887100  1
  Ni  Ni44  1  0.35216300  0.12625400  0.26134600  1
  Ni  Ni45  1  0.64783700  0.87374600  0.76134600  1
  Ni  Ni46  1  0.14783700  0.62625400  0.76134600  1
  Ni  Ni47  1  0.85216300  0.37374600  0.26134600  1
  Cu  Cu48  1  0.14558900  0.89919600  0.39969200  1
  Cu  Cu49  1  0.85441100  0.10080400  0.89969200  1
  Cu  Cu50  1  0.35441100  0.39919600  0.89969200  1
  Cu  Cu51  1  0.64558900  0.60080400  0.39969200  1
  Cu  Cu52  1  0.23084700  0.69485700  0.48849800  1
  Cu  Cu53  1  0.76915300  0.30514300  0.98849800  1
  Cu  Cu54  1  0.26915300  0.19485700  0.98849800  1
  Cu  Cu55  1  0.73084700  0.80514300  0.48849800  1
  Cu  Cu56  1  0.00410500  0.96542800  0.65751600  1
  Cu  Cu57  1  0.99589500  0.03457200  0.15751600  1
  Cu  Cu58  1  0.49589500  0.46542800  0.15751600  1
  Cu  Cu59  1  0.50410500  0.53457200  0.65751600  1
  Cu  Cu60  1  0.24008300  0.95569300  0.79420700  1
  Cu  Cu61  1  0.75991700  0.04430700  0.29420700  1
  Cu  Cu62  1  0.25991700  0.45569300  0.29420700  1
  Cu  Cu63  1  0.74008300  0.54430700  0.79420700  1
  Cu  Cu64  1  0.65885100  0.10200200  0.55886000  1
  Cu  Cu65  1  0.34114900  0.89799800  0.05886000  1
  Cu  Cu66  1  0.84114900  0.60200200  0.05886000  1
  Cu  Cu67  1  0.15885100  0.39799800  0.55886000  1
  Cu  Cu68  1  0.56170400  0.29862500  0.46355800  1
  Cu  Cu69  1  0.43829600  0.70137500  0.96355800  1
  Cu  Cu70  1  0.93829600  0.79862500  0.96355800  1
  Cu  Cu71  1  0.06170400  0.20137500  0.46355800  1
