# generated using pymatgen
data_CuNiC8
_symmetry_space_group_name_H-M   'P 1'
_cell_length_a   10.08126200
_cell_length_b   5.71604500
_cell_length_c   9.68163113
_cell_angle_alpha   87.30159536
_cell_angle_beta   90.00000000
_cell_angle_gamma   90.00000000
_symmetry_Int_Tables_number   1
_chemical_formula_structural   CuNiC8
_chemical_formula_sum   'Cu4 Ni4 C32'
_cell_volume   557.28487185
_cell_formula_units_Z   4
loop_
 _symmetry_equiv_pos_site_id
 _symmetry_equiv_pos_as_xyz
  1  'x, y, z'
loop_
 _atom_site_type_symbol
 _atom_site_label
 _atom_site_symmetry_multiplicity
 _atom_site_fract_x
 _atom_site_fract_y
 _atom_site_fract_z
 _atom_site_occupancy
  C  C0  1  0.31541400  0.73490900  0.49896900  1
  C  C1  1  0.81541400  0.26509100  0.00103100  1
  C  C2  1  0.68458600  0.26509100  0.50103100  1
  C  C3  1  0.18458600  0.73490900  0.99896900  1
  Ni  Ni4  1  0.61073000  0.80372100  0.81089600  1
  Ni  Ni5  1  0.38927000  0.19627900  0.18910400  1
  Ni  Ni6  1  0.88927000  0.80372100  0.31089600  1
  Ni  Ni7  1  0.11073000  0.19627900  0.68910400  1
  Cu  Cu8  1  0.39904900  0.30377400  0.80967400  1
  Cu  Cu9  1  0.89904900  0.69622600  0.69032600  1
  Cu  Cu10  1  0.10095100  0.30377400  0.30967400  1
  Cu  Cu11  1  0.60095100  0.69622600  0.19032600  1
  C  C12  1  0.44423200  0.88200200  0.12042100  1
  C  C13  1  0.05497200  0.63265800  0.37319200  1
  C  C14  1  0.71038200  0.51614800  0.75190700  1
  C  C15  1  0.28961800  0.48385200  0.24809300  1
  C  C16  1  0.45773800  0.10759600  0.36713700  1
  C  C17  1  0.80644000  0.74248300  0.49515500  1
  C  C18  1  0.78073900  0.97730400  0.75000700  1
  C  C19  1  0.95773800  0.89240400  0.13286300  1
  C  C20  1  0.44502800  0.63265800  0.87319200  1
  C  C21  1  0.21038200  0.48385200  0.74809300  1
  C  C22  1  0.05576800  0.88200200  0.62042100  1
  C  C23  1  0.55576800  0.11799800  0.87957900  1
  C  C24  1  0.28073900  0.02269600  0.74999300  1
  C  C25  1  0.95888900  0.61046700  0.87807400  1
  C  C26  1  0.54226200  0.89240400  0.63286300  1
  C  C27  1  0.04226200  0.10759600  0.86713700  1
  C  C28  1  0.21926100  0.02269600  0.24999300  1
  C  C29  1  0.94423200  0.11799800  0.37957900  1
  C  C30  1  0.45888900  0.38953300  0.62192600  1
  C  C31  1  0.94502800  0.36734200  0.62680800  1
  C  C32  1  0.04111100  0.38953300  0.12192600  1
  C  C33  1  0.71926100  0.97730400  0.25000700  1
  C  C34  1  0.54111100  0.61046700  0.37807400  1
  C  C35  1  0.30644000  0.25751700  0.00484500  1
  C  C36  1  0.19356000  0.25751700  0.50484500  1
  C  C37  1  0.69356000  0.74248300  0.99515500  1
  C  C38  1  0.55497200  0.36734200  0.12680800  1
  C  C39  1  0.78961800  0.51614800  0.25190700  1
