# generated using pymatgen
data_CuNiC5
_symmetry_space_group_name_H-M   'P 1'
_cell_length_a   5.63248000
_cell_length_b   7.44783100
_cell_length_c   9.76307400
_cell_angle_alpha   90.00000000
_cell_angle_beta   90.00000000
_cell_angle_gamma   90.00000000
_symmetry_Int_Tables_number   1
_chemical_formula_structural   CuNiC5
_chemical_formula_sum   'Cu4 Ni4 C20'
_cell_volume   409.55860287
_cell_formula_units_Z   4
loop_
 _symmetry_equiv_pos_site_id
 _symmetry_equiv_pos_as_xyz
  1  'x, y, z'
loop_
 _atom_site_type_symbol
 _atom_site_label
 _atom_site_symmetry_multiplicity
 _atom_site_fract_x
 _atom_site_fract_y
 _atom_site_fract_z
 _atom_site_occupancy
  Ni  Ni0  1  0.25000000  0.65863400  0.08243800  1
  Ni  Ni1  1  0.75000000  0.84136600  0.58243800  1
  Ni  Ni2  1  0.75000000  0.34136600  0.91756200  1
  Ni  Ni3  1  0.25000000  0.15863400  0.41756200  1
  Cu  Cu4  1  0.75000000  0.49942900  0.30382800  1
  Cu  Cu5  1  0.75000000  0.99942900  0.19617200  1
  Cu  Cu6  1  0.25000000  0.00057100  0.80382800  1
  Cu  Cu7  1  0.25000000  0.50057100  0.69617200  1
  C  C8  1  0.25000000  0.22618600  0.08382000  1
  C  C9  1  0.75000000  0.77381400  0.91618000  1
  C  C10  1  0.25000000  0.72618600  0.41618000  1
  C  C11  1  0.75000000  0.27381400  0.58382000  1
  C  C12  1  0.25000000  0.51817300  0.42677900  1
  C  C13  1  0.75000000  0.48182700  0.57322100  1
  C  C14  1  0.25000000  0.01817300  0.07322100  1
  C  C15  1  0.75000000  0.98182700  0.92677900  1
  C  C16  1  0.52254700  0.71179700  0.83802400  1
  C  C17  1  0.02254700  0.28820300  0.16197600  1
  C  C18  1  0.97745300  0.21179700  0.66197600  1
  C  C19  1  0.47745300  0.78820300  0.33802400  1
  C  C20  1  0.47745300  0.28820300  0.16197600  1
  C  C21  1  0.97745300  0.71179700  0.83802400  1
  C  C22  1  0.02254700  0.78820300  0.33802400  1
  C  C23  1  0.52254700  0.21179700  0.66197600  1
  C  C24  1  0.75000000  0.19194900  0.43596300  1
  C  C25  1  0.25000000  0.80805100  0.56403700  1
  C  C26  1  0.75000000  0.69194900  0.06403700  1
  C  C27  1  0.25000000  0.30805100  0.93596300  1
