# generated using pymatgen
data_Cu(NiC)4
_symmetry_space_group_name_H-M   'P 1'
_cell_length_a   5.22345200
_cell_length_b   10.27480600
_cell_length_c   8.37497900
_cell_angle_alpha   90.00000000
_cell_angle_beta   90.00000000
_cell_angle_gamma   90.00000000
_symmetry_Int_Tables_number   1
_chemical_formula_structural   Cu(NiC)4
_chemical_formula_sum   'Cu4 Ni16 C16'
_cell_volume   449.48475401
_cell_formula_units_Z   4
loop_
 _symmetry_equiv_pos_site_id
 _symmetry_equiv_pos_as_xyz
  1  'x, y, z'
loop_
 _atom_site_type_symbol
 _atom_site_label
 _atom_site_symmetry_multiplicity
 _atom_site_fract_x
 _atom_site_fract_y
 _atom_site_fract_z
 _atom_site_occupancy
  Ni  Ni0  1  0.14894100  0.37073100  0.60847100  1
  Ni  Ni1  1  0.35105900  0.62926900  0.60847100  1
  Ni  Ni2  1  0.14894100  0.12926900  0.89152900  1
  Ni  Ni3  1  0.35105900  0.87073100  0.89152900  1
  Ni  Ni4  1  0.85105900  0.62926900  0.39152900  1
  Ni  Ni5  1  0.64894100  0.37073100  0.39152900  1
  Ni  Ni6  1  0.85105900  0.87073100  0.10847100  1
  Ni  Ni7  1  0.64894100  0.12926900  0.10847100  1
  Ni  Ni8  1  0.75000000  0.50000000  0.05423400  1
  Ni  Ni9  1  0.75000000  0.00000000  0.44576600  1
  Ni  Ni10  1  0.25000000  0.50000000  0.94576600  1
  Ni  Ni11  1  0.25000000  0.00000000  0.55423400  1
  Ni  Ni12  1  0.69200200  0.25000000  0.75000000  1
  Ni  Ni13  1  0.80799800  0.75000000  0.75000000  1
  Ni  Ni14  1  0.30799800  0.75000000  0.25000000  1
  Ni  Ni15  1  0.19200200  0.25000000  0.25000000  1
  Cu  Cu16  1  0.75000000  0.50000000  0.73400100  1
  Cu  Cu17  1  0.75000000  0.00000000  0.76599900  1
  Cu  Cu18  1  0.25000000  0.50000000  0.26599900  1
  Cu  Cu19  1  0.25000000  0.00000000  0.23400100  1
  C  C20  1  0.53559000  0.39984500  0.62714000  1
  C  C21  1  0.96441000  0.60015500  0.62714000  1
  C  C22  1  0.53559000  0.10015500  0.87286000  1
  C  C23  1  0.96441000  0.89984500  0.87286000  1
  C  C24  1  0.46441000  0.60015500  0.37286000  1
  C  C25  1  0.03559000  0.39984500  0.37286000  1
  C  C26  1  0.46441000  0.89984500  0.12714000  1
  C  C27  1  0.03559000  0.10015500  0.12714000  1
  C  C28  1  0.94602100  0.10729200  0.65165900  1
  C  C29  1  0.55397900  0.89270700  0.65165900  1
  C  C30  1  0.94602100  0.39270700  0.84834100  1
  C  C31  1  0.55397900  0.60729300  0.84834100  1
  C  C32  1  0.05397900  0.89270700  0.34834100  1
  C  C33  1  0.44602100  0.10729200  0.34834100  1
  C  C34  1  0.05397900  0.60729300  0.15165900  1
  C  C35  1  0.44602100  0.39270700  0.15165900  1
