# generated using pymatgen
data_Cu4Ni5C4
_symmetry_space_group_name_H-M   'P 1'
_cell_length_a   8.32457600
_cell_length_b   8.50035700
_cell_length_c   14.50298400
_cell_angle_alpha   90.00000000
_cell_angle_beta   90.00000000
_cell_angle_gamma   90.00000000
_symmetry_Int_Tables_number   1
_chemical_formula_structural   Cu4Ni5C4
_chemical_formula_sum   'Cu16 Ni20 C16'
_cell_volume   1026.25823758
_cell_formula_units_Z   4
loop_
 _symmetry_equiv_pos_site_id
 _symmetry_equiv_pos_as_xyz
  1  'x, y, z'
loop_
 _atom_site_type_symbol
 _atom_site_label
 _atom_site_symmetry_multiplicity
 _atom_site_fract_x
 _atom_site_fract_y
 _atom_site_fract_z
 _atom_site_occupancy
  C  C0  1  0.25000000  0.17425200  0.67003500  1
  C  C1  1  0.25000000  0.32574800  0.17003500  1
  C  C2  1  0.75000000  0.82574800  0.32996500  1
  C  C3  1  0.75000000  0.67425200  0.82996500  1
  C  C4  1  0.25000000  0.52665400  0.63907500  1
  C  C5  1  0.25000000  0.97334600  0.13907500  1
  C  C6  1  0.75000000  0.47334600  0.36092500  1
  C  C7  1  0.75000000  0.02665400  0.86092500  1
  C  C8  1  0.25000000  0.51276200  0.89768700  1
  C  C9  1  0.25000000  0.98723800  0.39768700  1
  C  C10  1  0.75000000  0.48723800  0.10231300  1
  C  C11  1  0.75000000  0.01276200  0.60231300  1
  Ni  Ni12  1  0.25000000  0.01499500  0.61861300  1
  Ni  Ni13  1  0.25000000  0.48500500  0.11861300  1
  Ni  Ni14  1  0.75000000  0.98500500  0.38138700  1
  Ni  Ni15  1  0.75000000  0.51499500  0.88138700  1
  Ni  Ni16  1  0.38655900  0.17738800  0.76660500  1
  Ni  Ni17  1  0.11344100  0.32261200  0.26660500  1
  Ni  Ni18  1  0.88655900  0.82261200  0.23339500  1
  Ni  Ni19  1  0.61344100  0.67738800  0.73339500  1
  Ni  Ni20  1  0.61344100  0.82261200  0.23339500  1
  Ni  Ni21  1  0.88655900  0.67738800  0.73339500  1
  Ni  Ni22  1  0.11344100  0.17738800  0.76660500  1
  Ni  Ni23  1  0.38655900  0.32261200  0.26660500  1
  Ni  Ni24  1  0.16999300  0.34447700  0.58962000  1
  Ni  Ni25  1  0.33000700  0.15552300  0.08962000  1
  Ni  Ni26  1  0.66999300  0.65552300  0.41038000  1
  Ni  Ni27  1  0.83000700  0.84447700  0.91038000  1
  Ni  Ni28  1  0.83000700  0.65552300  0.41038000  1
  Ni  Ni29  1  0.66999300  0.84447700  0.91038000  1
  Ni  Ni30  1  0.33000700  0.34447700  0.58962000  1
  Ni  Ni31  1  0.16999300  0.15552300  0.08962000  1
  C  C32  1  0.75000000  0.58087700  0.65847800  1
  C  C33  1  0.75000000  0.91912300  0.15847800  1
  C  C34  1  0.25000000  0.41912300  0.34152200  1
  C  C35  1  0.25000000  0.08087700  0.84152200  1
  Cu  Cu36  1  0.25000000  0.66296500  0.85235900  1
  Cu  Cu37  1  0.25000000  0.83703500  0.35235900  1
  Cu  Cu38  1  0.75000000  0.33703500  0.14764100  1
  Cu  Cu39  1  0.75000000  0.16296500  0.64764100  1
  Cu  Cu40  1  0.39943200  0.43641300  0.91879100  1
  Cu  Cu41  1  0.10056800  0.06358700  0.41879100  1
  Cu  Cu42  1  0.89943200  0.56358700  0.08120900  1
  Cu  Cu43  1  0.60056800  0.93641300  0.58120900  1
  Cu  Cu44  1  0.60056800  0.56358700  0.08120900  1
  Cu  Cu45  1  0.89943200  0.93641300  0.58120900  1
  Cu  Cu46  1  0.10056800  0.43641300  0.91879100  1
  Cu  Cu47  1  0.39943200  0.06358700  0.41879100  1
  Cu  Cu48  1  0.75000000  0.14887100  0.93189800  1
  Cu  Cu49  1  0.75000000  0.35112900  0.43189800  1
  Cu  Cu50  1  0.25000000  0.85112900  0.06810200  1
  Cu  Cu51  1  0.25000000  0.64887100  0.56810200  1
