# generated using pymatgen
data_Cu2NiC10
_symmetry_space_group_name_H-M   'P 1'
_cell_length_a   10.26396936
_cell_length_b   10.26396936
_cell_length_c   5.31022688
_cell_angle_alpha   89.96837921
_cell_angle_beta   89.96837921
_cell_angle_gamma   34.05489531
_symmetry_Int_Tables_number   1
_chemical_formula_structural   Cu2NiC10
_chemical_formula_sum   'Cu4 Ni2 C20'
_cell_volume   313.27201843
_cell_formula_units_Z   2
loop_
 _symmetry_equiv_pos_site_id
 _symmetry_equiv_pos_as_xyz
  1  'x, y, z'
loop_
 _atom_site_type_symbol
 _atom_site_label
 _atom_site_symmetry_multiplicity
 _atom_site_fract_x
 _atom_site_fract_y
 _atom_site_fract_z
 _atom_site_occupancy
  Ni  Ni0  1  0.34149700  0.65850300  0.75000000  1
  Ni  Ni1  1  0.65850300  0.34149700  0.25000000  1
  C  C2  1  0.72200800  0.04479400  0.76477100  1
  C  C3  1  0.95520600  0.27799200  0.73522900  1
  C  C4  1  0.27799200  0.95520600  0.23522900  1
  C  C5  1  0.04479400  0.72200800  0.26477100  1
  Cu  Cu6  1  0.56725900  0.87476000  0.73609600  1
  Cu  Cu7  1  0.12524000  0.43274100  0.76390400  1
  Cu  Cu8  1  0.43274100  0.12524000  0.26390400  1
  Cu  Cu9  1  0.87476000  0.56725900  0.23609600  1
  C  C10  1  0.81972000  0.03729000  0.43159500  1
  C  C11  1  0.96271000  0.18028000  0.06840500  1
  C  C12  1  0.18028000  0.96271000  0.56840500  1
  C  C13  1  0.03729000  0.81972000  0.93159500  1
  C  C14  1  0.56621600  0.31310700  0.90810900  1
  C  C15  1  0.68689300  0.43378400  0.59189100  1
  C  C16  1  0.43378400  0.68689300  0.09189100  1
  C  C17  1  0.31310700  0.56621600  0.40810900  1
  C  C18  1  0.71723600  0.92108400  0.05862800  1
  C  C19  1  0.07891600  0.28276400  0.44137200  1
  C  C20  1  0.16288600  0.44981900  0.13156100  1
  C  C21  1  0.55018100  0.83711400  0.36843900  1
  C  C22  1  0.83711400  0.55018100  0.86843900  1
  C  C23  1  0.44981900  0.16288600  0.63156100  1
  C  C24  1  0.92108400  0.71723600  0.55862800  1
  C  C25  1  0.28276400  0.07891600  0.94137200  1
