# generated using pymatgen
data_Cu4Ni2C3
_symmetry_space_group_name_H-M   'P 1'
_cell_length_a   6.46978600
_cell_length_b   8.73128600
_cell_length_c   14.59514000
_cell_angle_alpha   90.00000000
_cell_angle_beta   90.00000000
_cell_angle_gamma   90.00000000
_symmetry_Int_Tables_number   1
_chemical_formula_structural   Cu4Ni2C3
_chemical_formula_sum   'Cu32 Ni16 C24'
_cell_volume   824.47291888
_cell_formula_units_Z   8
loop_
 _symmetry_equiv_pos_site_id
 _symmetry_equiv_pos_as_xyz
  1  'x, y, z'
loop_
 _atom_site_type_symbol
 _atom_site_label
 _atom_site_symmetry_multiplicity
 _atom_site_fract_x
 _atom_site_fract_y
 _atom_site_fract_z
 _atom_site_occupancy
  C  C0  1  0.49560200  0.94509000  0.61557900  1
  C  C1  1  0.50439800  0.55491000  0.11557900  1
  C  C2  1  0.00439800  0.44509000  0.38442100  1
  C  C3  1  0.99560200  0.05491000  0.88442100  1
  C  C4  1  0.50439800  0.05491000  0.38442100  1
  C  C5  1  0.49560200  0.44509000  0.88442100  1
  C  C6  1  0.99560200  0.55491000  0.61557900  1
  C  C7  1  0.00439800  0.94509000  0.11557900  1
  C  C8  1  0.54991500  0.67554800  0.46013500  1
  C  C9  1  0.45008500  0.82445200  0.96013500  1
  C  C10  1  0.95008500  0.17554800  0.53986500  1
  C  C11  1  0.04991500  0.32445200  0.03986500  1
  C  C12  1  0.45008500  0.32445200  0.53986500  1
  C  C13  1  0.54991500  0.17554800  0.03986500  1
  C  C14  1  0.04991500  0.82445200  0.46013500  1
  C  C15  1  0.95008500  0.67554800  0.96013500  1
  C  C16  1  0.66097400  0.75489600  0.75563100  1
  C  C17  1  0.33902600  0.74510400  0.25563100  1
  C  C18  1  0.83902600  0.25489600  0.24436900  1
  C  C19  1  0.16097400  0.24510400  0.74436900  1
  C  C20  1  0.33902600  0.24510400  0.24436900  1
  C  C21  1  0.66097400  0.25489600  0.74436900  1
  C  C22  1  0.16097400  0.74510400  0.75563100  1
  C  C23  1  0.83902600  0.75489600  0.25563100  1
  Ni  Ni24  1  0.65680400  0.66525600  0.51865800  1
  Ni  Ni25  1  0.34319600  0.83474400  0.01865800  1
  Ni  Ni26  1  0.84319600  0.16525600  0.48134200  1
  Ni  Ni27  1  0.15680400  0.33474400  0.98134200  1
  Ni  Ni28  1  0.34319600  0.33474400  0.48134200  1
  Ni  Ni29  1  0.65680400  0.16525600  0.98134200  1
  Ni  Ni30  1  0.15680400  0.83474400  0.51865800  1
  Ni  Ni31  1  0.84319600  0.66525600  0.01865800  1
  Ni  Ni32  1  0.73206600  0.86744500  0.76914300  1
  Ni  Ni33  1  0.26793400  0.63255500  0.26914300  1
  Ni  Ni34  1  0.76793400  0.36744500  0.23085700  1
  Ni  Ni35  1  0.23206600  0.13255500  0.73085700  1
  Ni  Ni36  1  0.26793400  0.13255500  0.23085700  1
  Ni  Ni37  1  0.73206600  0.36744500  0.73085700  1
  Ni  Ni38  1  0.23206600  0.63255500  0.76914300  1
  Ni  Ni39  1  0.76793400  0.86744500  0.26914300  1
  Cu  Cu40  1  0.63602300  0.74642100  0.58986700  1
  Cu  Cu41  1  0.36397700  0.75357900  0.08986700  1
  Cu  Cu42  1  0.86397700  0.24642100  0.41013300  1
  Cu  Cu43  1  0.13602300  0.25357900  0.91013300  1
  Cu  Cu44  1  0.36397700  0.25357900  0.41013300  1
  Cu  Cu45  1  0.63602300  0.24642100  0.91013300  1
  Cu  Cu46  1  0.13602300  0.75357900  0.58986700  1
  Cu  Cu47  1  0.86397700  0.74642100  0.08986700  1
  Cu  Cu48  1  0.69838400  0.97848500  0.71480500  1
  Cu  Cu49  1  0.30161600  0.52151500  0.21480500  1
  Cu  Cu50  1  0.80161600  0.47848500  0.28519500  1
  Cu  Cu51  1  0.19838400  0.02151500  0.78519500  1
  Cu  Cu52  1  0.30161600  0.02151500  0.28519500  1
  Cu  Cu53  1  0.69838400  0.47848500  0.78519500  1
  Cu  Cu54  1  0.19838400  0.52151500  0.71480500  1
  Cu  Cu55  1  0.80161600  0.97848500  0.21480500  1
  Cu  Cu56  1  0.69786100  0.06704800  0.48972300  1
  Cu  Cu57  1  0.30213900  0.43295200  0.98972300  1
  Cu  Cu58  1  0.80213900  0.56704800  0.51027700  1
  Cu  Cu59  1  0.19786100  0.93295200  0.01027700  1
  Cu  Cu60  1  0.30213900  0.93295200  0.51027700  1
  Cu  Cu61  1  0.69786100  0.56704800  0.01027700  1
  Cu  Cu62  1  0.19786100  0.43295200  0.48972300  1
  Cu  Cu63  1  0.80213900  0.06704800  0.98972300  1
  Cu  Cu64  1  0.65466700  0.87353800  0.34042900  1
  Cu  Cu65  1  0.34533300  0.62646200  0.84042900  1
  Cu  Cu66  1  0.84533300  0.37353800  0.65957100  1
  Cu  Cu67  1  0.15466700  0.12646200  0.15957100  1
  Cu  Cu68  1  0.34533300  0.12646200  0.65957100  1
  Cu  Cu69  1  0.65466700  0.37353800  0.15957100  1
  Cu  Cu70  1  0.15466700  0.62646200  0.34042900  1
  Cu  Cu71  1  0.84533300  0.87353800  0.84042900  1
