# generated using pymatgen
data_Cu12Ni3C
_symmetry_space_group_name_H-M   'P 1'
_cell_length_a   7.57270700
_cell_length_b   7.58992920
_cell_length_c   10.37721102
_cell_angle_alpha   70.47261211
_cell_angle_beta   71.77757765
_cell_angle_gamma   72.39426660
_symmetry_Int_Tables_number   1
_chemical_formula_structural   Cu12Ni3C
_chemical_formula_sum   'Cu24 Ni6 C2'
_cell_volume   520.73040092
_cell_formula_units_Z   2
loop_
 _symmetry_equiv_pos_site_id
 _symmetry_equiv_pos_as_xyz
  1  'x, y, z'
loop_
 _atom_site_type_symbol
 _atom_site_label
 _atom_site_symmetry_multiplicity
 _atom_site_fract_x
 _atom_site_fract_y
 _atom_site_fract_z
 _atom_site_occupancy
  C  C0  1  0.32023200  0.34367500  0.26814500  1
  C  C1  1  0.67976800  0.65632500  0.73185500  1
  Ni  Ni2  1  0.27062300  0.17256700  0.07830900  1
  Ni  Ni3  1  0.72937700  0.82743300  0.92169100  1
  Ni  Ni4  1  0.69805500  0.12205300  0.24454600  1
  Ni  Ni5  1  0.30194500  0.87794700  0.75545400  1
  Ni  Ni6  1  0.34077300  0.62341900  0.38558500  1
  Ni  Ni7  1  0.65922700  0.37658100  0.61441500  1
  Cu  Cu8  1  0.26077000  0.35363200  0.05391500  1
  Cu  Cu9  1  0.73923000  0.64636800  0.94608500  1
  Cu  Cu10  1  0.27933300  0.07044700  0.20423900  1
  Cu  Cu11  1  0.72066700  0.92955300  0.79576100  1
  Cu  Cu12  1  0.27353100  0.10143300  0.98764300  1
  Cu  Cu13  1  0.72646900  0.89856700  0.01235700  1
  Cu  Cu14  1  0.64036800  0.25095600  0.13853300  1
  Cu  Cu15  1  0.35963200  0.74904400  0.86146700  1
  Cu  Cu16  1  0.56793200  0.09231200  0.35884600  1
  Cu  Cu17  1  0.43206800  0.90768800  0.64115400  1
  Cu  Cu18  1  0.86479900  0.03608800  0.23548500  1
  Cu  Cu19  1  0.13520100  0.96391200  0.76451500  1
  Cu  Cu20  1  0.19207700  0.55009100  0.42570500  1
  Cu  Cu21  1  0.80792300  0.44990900  0.57429500  1
  Cu  Cu22  1  0.46829000  0.57235300  0.27997500  1
  Cu  Cu23  1  0.53171000  0.42764700  0.72002500  1
  Cu  Cu24  1  0.36053900  0.72924400  0.44366600  1
  Cu  Cu25  1  0.63946100  0.27075600  0.55633400  1
  Cu  Cu26  1  0.93001300  0.60799900  0.21696600  1
  Cu  Cu27  1  0.06998700  0.39200100  0.78303400  1
  Cu  Cu28  1  0.11080700  0.19513400  0.42276800  1
  Cu  Cu29  1  0.88919300  0.80486600  0.57723200  1
  Cu  Cu30  1  0.06481600  0.68659500  0.15053300  1
  Cu  Cu31  1  0.93518400  0.31340500  0.84946700  1
