# generated using pymatgen
data_Cu7(NiC)2
_symmetry_space_group_name_H-M   'P 1'
_cell_length_a   6.66778234
_cell_length_b   6.66778234
_cell_length_c   6.54321906
_cell_angle_alpha   84.05487164
_cell_angle_beta   84.05487164
_cell_angle_gamma   98.01097102
_symmetry_Int_Tables_number   1
_chemical_formula_structural   Cu7(NiC)2
_chemical_formula_sum   'Cu7 Ni2 C2'
_cell_volume   284.45475308
_cell_formula_units_Z   1
loop_
 _symmetry_equiv_pos_site_id
 _symmetry_equiv_pos_as_xyz
  1  'x, y, z'
loop_
 _atom_site_type_symbol
 _atom_site_label
 _atom_site_symmetry_multiplicity
 _atom_site_fract_x
 _atom_site_fract_y
 _atom_site_fract_z
 _atom_site_occupancy
  C  C0  1  0.55465300  0.44534700  0.00000000  1
  C  C1  1  0.14716600  0.85283400  0.50000000  1
  Ni  Ni2  1  0.10443300  0.29412200  0.91128700  1
  Ni  Ni3  1  0.70587800  0.89556700  0.08871300  1
  Cu  Cu4  1  0.36147500  0.30750200  0.70999900  1
  Cu  Cu5  1  0.69249800  0.63852500  0.29000100  1
  Cu  Cu6  1  0.58309800  0.81988000  0.83233500  1
  Cu  Cu7  1  0.18012000  0.41690200  0.16766500  1
  Cu  Cu8  1  0.03193600  0.96806400  0.00000000  1
  Cu  Cu9  1  0.88271700  0.39905400  0.75825500  1
  Cu  Cu10  1  0.60094600  0.11728300  0.24174500  1
