# generated using pymatgen
data_CuNi14C
_symmetry_space_group_name_H-M   'P 1'
_cell_length_a   6.26259076
_cell_length_b   6.19974851
_cell_length_c   10.25721082
_cell_angle_alpha   90.00000000
_cell_angle_beta   90.00000000
_cell_angle_gamma   119.66861655
_symmetry_Int_Tables_number   1
_chemical_formula_structural   CuNi14C
_chemical_formula_sum   'Cu1 Ni14 C1'
_cell_volume   346.04180519
_cell_formula_units_Z   1
loop_
 _symmetry_equiv_pos_site_id
 _symmetry_equiv_pos_as_xyz
  1  'x, y, z'
loop_
 _atom_site_type_symbol
 _atom_site_label
 _atom_site_symmetry_multiplicity
 _atom_site_fract_x
 _atom_site_fract_y
 _atom_site_fract_z
 _atom_site_occupancy
  Ni  Ni0  1  0.16820625  0.33410262  0.62500000  1
  Ni  Ni1  1  0.16516877  0.83258389  0.62500000  1
  Ni  Ni2  1  0.66839027  0.33364029  0.12500000  1
  Ni  Ni3  1  0.66453390  0.33455290  0.62500000  1
  Ni  Ni4  1  0.66839027  0.83474897  0.12500000  1
  Ni  Ni5  1  0.66453390  0.82998000  0.62500000  1
  Ni  Ni6  1  0.33083381  0.15831386  0.36685282  1
  Ni  Ni7  1  0.33083381  0.15831386  0.88314718  1
  Ni  Ni8  1  0.33083381  0.67252095  0.36685282  1
  Ni  Ni9  1  0.33083381  0.67252095  0.88314718  1
  Ni  Ni10  1  0.83163391  0.16581745  0.38170787  1
  Ni  Ni11  1  0.83163391  0.16581745  0.86829213  1
  Ni  Ni12  1  0.84426315  0.67213207  0.36716589  1
  Ni  Ni13  1  0.84426315  0.67213207  0.88283411  1
  Cu  Cu14  1  0.15892636  0.32946268  0.12500000  1
  C  C15  1  0.16672093  0.83335997  0.12500000  1
