# generated using pymatgen
data_Cu(NiC9)2
_symmetry_space_group_name_H-M   'P 1'
_cell_length_a   8.80764092
_cell_length_b   8.80764092
_cell_length_c   6.97776015
_cell_angle_alpha   67.74983294
_cell_angle_beta   67.74983294
_cell_angle_gamma   36.88013396
_symmetry_Int_Tables_number   1
_chemical_formula_structural   Cu(NiC9)2
_chemical_formula_sum   'Cu1 Ni2 C18'
_cell_volume   297.85578403
_cell_formula_units_Z   1
loop_
 _symmetry_equiv_pos_site_id
 _symmetry_equiv_pos_as_xyz
  1  'x, y, z'
loop_
 _atom_site_type_symbol
 _atom_site_label
 _atom_site_symmetry_multiplicity
 _atom_site_fract_x
 _atom_site_fract_y
 _atom_site_fract_z
 _atom_site_occupancy
  C  C0  1  0.88206800  0.88206800  0.70651500  1
  C  C1  1  0.21575600  0.21575600  0.70649000  1
  C  C2  1  0.54912600  0.54912600  0.70539200  1
  C  C3  1  0.45087400  0.45087400  0.29460800  1
  C  C4  1  0.78424400  0.78424400  0.29351000  1
  C  C5  1  0.11793200  0.11793200  0.29348500  1
  Ni  Ni6  1  0.66556200  0.66556200  0.00000500  1
  Ni  Ni7  1  0.33443800  0.33443800  0.99999500  1
  Cu  Cu8  1  0.00000000  0.00000000  0.00000000  1
  C  C9  1  0.94577200  0.94577200  0.32530300  1
  C  C10  1  0.27921000  0.27921000  0.32580400  1
  C  C11  1  0.61217700  0.61217700  0.32591100  1
  C  C12  1  0.38782300  0.38782300  0.67408900  1
  C  C13  1  0.72079000  0.72079000  0.67419600  1
  C  C14  1  0.05422800  0.05422800  0.67469700  1
  C  C15  1  0.50000000  0.00000000  0.00000000  1
  C  C16  1  0.83424400  0.33104800  0.99992800  1
  C  C17  1  0.16575600  0.66895200  0.00007200  1
  C  C18  1  0.00000000  0.50000000  0.00000000  1
  C  C19  1  0.33104800  0.83424400  0.99992800  1
  C  C20  1  0.66895200  0.16575600  0.00007200  1
