# generated using pymatgen
data_Cu6Ni2C
_symmetry_space_group_name_H-M   'P 1'
_cell_length_a   6.15823582
_cell_length_b   8.50430886
_cell_length_c   11.98451100
_cell_angle_alpha   90.00000000
_cell_angle_beta   90.00000000
_cell_angle_gamma   108.60794229
_symmetry_Int_Tables_number   1
_chemical_formula_structural   Cu6Ni2C
_chemical_formula_sum   'Cu12 Ni4 C2'
_cell_volume   594.83651830
_cell_formula_units_Z   2
loop_
 _symmetry_equiv_pos_site_id
 _symmetry_equiv_pos_as_xyz
  1  'x, y, z'
loop_
 _atom_site_type_symbol
 _atom_site_label
 _atom_site_symmetry_multiplicity
 _atom_site_fract_x
 _atom_site_fract_y
 _atom_site_fract_z
 _atom_site_occupancy
  C  C0  1  0.50000000  0.00000000  0.00000000  1
  C  C1  1  0.00000000  0.50000000  0.50000000  1
  Ni  Ni2  1  0.83202700  0.72255300  0.18649300  1
  Ni  Ni3  1  0.66797300  0.77744700  0.68649300  1
  Ni  Ni4  1  0.33202700  0.22255300  0.31350700  1
  Ni  Ni5  1  0.16797300  0.27744700  0.81350700  1
  Cu  Cu6  1  0.79387100  0.00851100  0.16851900  1
  Cu  Cu7  1  0.54749900  0.73581000  0.89866600  1
  Cu  Cu8  1  0.31231200  0.77791800  0.57558500  1
  Cu  Cu9  1  0.68768800  0.22208200  0.42441500  1
  Cu  Cu10  1  0.45250100  0.26419000  0.10133400  1
  Cu  Cu11  1  0.04749900  0.23581000  0.60133400  1
  Cu  Cu12  1  0.81231200  0.27791800  0.92441500  1
  Cu  Cu13  1  0.18768800  0.72208200  0.07558500  1
  Cu  Cu14  1  0.95250100  0.76419000  0.39866600  1
  Cu  Cu15  1  0.20612900  0.99148900  0.83148100  1
  Cu  Cu16  1  0.29387100  0.50851100  0.33148100  1
  Cu  Cu17  1  0.70612900  0.49148900  0.66851900  1
