# generated using pymatgen
data_Cu6NiC2
_symmetry_space_group_name_H-M   'P 1'
_cell_length_a   9.21654500
_cell_length_b   7.57932500
_cell_length_c   8.29509304
_cell_angle_alpha   65.25717572
_cell_angle_beta   90.00000000
_cell_angle_gamma   90.00000000
_symmetry_Int_Tables_number   1
_chemical_formula_structural   Cu6NiC2
_chemical_formula_sum   'Cu24 Ni4 C8'
_cell_volume   526.25875365
_cell_formula_units_Z   4
loop_
 _symmetry_equiv_pos_site_id
 _symmetry_equiv_pos_as_xyz
  1  'x, y, z'
loop_
 _atom_site_type_symbol
 _atom_site_label
 _atom_site_symmetry_multiplicity
 _atom_site_fract_x
 _atom_site_fract_y
 _atom_site_fract_z
 _atom_site_occupancy
  C  C0  1  0.70376400  0.47031700  0.69636600  1
  C  C1  1  0.20376400  0.02968300  0.30363400  1
  C  C2  1  0.29623600  0.52968300  0.30363400  1
  C  C3  1  0.79623600  0.97031700  0.69636600  1
  C  C4  1  0.58933800  0.88999500  0.34690700  1
  C  C5  1  0.08933800  0.61000500  0.65309300  1
  C  C6  1  0.41066200  0.11000500  0.65309300  1
  C  C7  1  0.91066200  0.38999500  0.34690700  1
  Ni  Ni8  1  0.38611300  0.37205200  0.94902800  1
  Ni  Ni9  1  0.88611300  0.12794800  0.05097200  1
  Ni  Ni10  1  0.61388700  0.62794800  0.05097200  1
  Ni  Ni11  1  0.11388700  0.87205200  0.94902800  1
  Cu  Cu12  1  0.39196100  0.80563500  0.35542800  1
  Cu  Cu13  1  0.89196100  0.69436500  0.64457200  1
  Cu  Cu14  1  0.60803900  0.19436500  0.64457200  1
  Cu  Cu15  1  0.10803900  0.30563500  0.35542800  1
  Cu  Cu16  1  0.60881400  0.84818200  0.59295800  1
  Cu  Cu17  1  0.10881400  0.65181800  0.40704200  1
  Cu  Cu18  1  0.39118600  0.15181800  0.40704200  1
  Cu  Cu19  1  0.89118600  0.34818200  0.59295800  1
  Cu  Cu20  1  0.66523800  0.63773400  0.40544100  1
  Cu  Cu21  1  0.16523800  0.86226600  0.59455900  1
  Cu  Cu22  1  0.33476200  0.36226600  0.59455900  1
  Cu  Cu23  1  0.83476200  0.13773400  0.40544100  1
  Cu  Cu24  1  0.77621400  0.12487900  0.95564000  1
  Cu  Cu25  1  0.27621400  0.37512100  0.04436000  1
  Cu  Cu26  1  0.22378600  0.87512100  0.04436000  1
  Cu  Cu27  1  0.72378600  0.62487900  0.95564000  1
  Cu  Cu28  1  0.42847900  0.52924400  0.82776300  1
  Cu  Cu29  1  0.92847900  0.97075600  0.17223700  1
  Cu  Cu30  1  0.57152100  0.47075600  0.17223700  1
  Cu  Cu31  1  0.07152100  0.02924400  0.82776300  1
  Cu  Cu32  1  0.55335000  0.78760600  0.02209200  1
  Cu  Cu33  1  0.05335000  0.71239400  0.97790800  1
  Cu  Cu34  1  0.44665000  0.21239400  0.97790800  1
  Cu  Cu35  1  0.94665000  0.28760600  0.02209200  1
