# generated using pymatgen
data_CuNiC8
_symmetry_space_group_name_H-M   'P 1'
_cell_length_a   8.42103646
_cell_length_b   8.40512796
_cell_length_c   8.41893191
_cell_angle_alpha   90.00000000
_cell_angle_beta   90.00000000
_cell_angle_gamma   90.00000000
_symmetry_Int_Tables_number   1
_chemical_formula_structural   CuNiC8
_chemical_formula_sum   'Cu4 Ni4 C32'
_cell_volume   595.89106611
_cell_formula_units_Z   4
loop_
 _symmetry_equiv_pos_site_id
 _symmetry_equiv_pos_as_xyz
  1  'x, y, z'
loop_
 _atom_site_type_symbol
 _atom_site_label
 _atom_site_symmetry_multiplicity
 _atom_site_fract_x
 _atom_site_fract_y
 _atom_site_fract_z
 _atom_site_occupancy
  C  C0  1  -0.00000000  -0.00000000  -0.00000000  1
  C  C1  1  0.50000000  0.50000000  0.50000000  1
  C  C2  1  0.50000000  -0.00000000  0.50000000  1
  C  C3  1  -0.00000000  0.50000000  0.00000000  1
  Ni  Ni4  1  -0.00000000  0.50000000  0.50000000  1
  Ni  Ni5  1  0.50000000  0.50000000  0.00000000  1
  Ni  Ni6  1  0.50000000  -0.00000000  -0.00000000  1
  Ni  Ni7  1  -0.00000000  -0.00000000  0.50000000  1
  Cu  Cu8  1  0.75000000  0.75000000  0.75000000  1
  Cu  Cu9  1  0.25000000  0.25000000  0.75000000  1
  Cu  Cu10  1  0.25000000  0.75000000  0.25000000  1
  Cu  Cu11  1  0.75000000  0.25000000  0.25000000  1
  C  C12  1  0.25000000  0.25000000  0.25000000  1
  C  C13  1  0.75000000  0.75000000  0.25000000  1
  C  C14  1  0.75000000  0.25000000  0.75000000  1
  C  C15  1  0.25000000  0.75000000  0.75000000  1
  C  C16  1  0.01682257  0.19548230  0.28090879  1
  C  C17  1  0.98317743  0.80451770  0.28090879  1
  C  C18  1  0.98317743  0.19548230  0.71909121  1
  C  C19  1  0.01682257  0.80451770  0.71909121  1
  C  C20  1  0.30180245  0.01693949  0.21272179  1
  C  C21  1  0.30180245  0.98306051  0.78727821  1
  C  C22  1  0.69819755  0.98306051  0.21272179  1
  C  C23  1  0.69819755  0.01693949  0.78727821  1
  C  C24  1  0.22387399  0.27535626  0.01455321  1
  C  C25  1  0.77612601  0.27535626  0.98544679  1
  C  C26  1  0.22387399  0.72464374  0.98544679  1
  C  C27  1  0.77612601  0.72464374  0.01455321  1
  C  C28  1  0.48317743  0.30451770  0.21909121  1
  C  C29  1  0.51682257  0.69548230  0.21909121  1
  C  C30  1  0.51682257  0.30451770  0.78090879  1
  C  C31  1  0.48317743  0.69548230  0.78090879  1
  C  C32  1  0.19819755  0.48306051  0.28727821  1
  C  C33  1  0.19819755  0.51693949  0.71272179  1
  C  C34  1  0.80180245  0.51693949  0.28727821  1
  C  C35  1  0.80180245  0.48306051  0.71272179  1
  C  C36  1  0.27612601  0.22464374  0.48544679  1
  C  C37  1  0.72387399  0.22464374  0.51455321  1
  C  C38  1  0.27612601  0.77535626  0.51455321  1
  C  C39  1  0.72387399  0.77535626  0.48544679  1
