# generated using pymatgen
data_Cu2NiC5
_symmetry_space_group_name_H-M   'P 1'
_cell_length_a   3.92110100
_cell_length_b   5.98238800
_cell_length_c   14.38171000
_cell_angle_alpha   90.00000000
_cell_angle_beta   90.00000000
_cell_angle_gamma   90.00000000
_symmetry_Int_Tables_number   1
_chemical_formula_structural   Cu2NiC5
_chemical_formula_sum   'Cu4 Ni2 C10'
_cell_volume   337.35964645
_cell_formula_units_Z   2
loop_
 _symmetry_equiv_pos_site_id
 _symmetry_equiv_pos_as_xyz
  1  'x, y, z'
loop_
 _atom_site_type_symbol
 _atom_site_label
 _atom_site_symmetry_multiplicity
 _atom_site_fract_x
 _atom_site_fract_y
 _atom_site_fract_z
 _atom_site_occupancy
  Ni  Ni0  1  0.50000000  0.63447500  0.00000000  1
  Ni  Ni1  1  0.00000000  0.36552500  0.50000000  1
  Cu  Cu2  1  0.00000000  0.08258000  0.84766200  1
  Cu  Cu3  1  0.50000000  0.91742000  0.65233800  1
  Cu  Cu4  1  0.50000000  0.91742000  0.34766200  1
  Cu  Cu5  1  0.00000000  0.08258000  0.15233800  1
  C  C6  1  0.50000000  0.07366300  0.50000000  1
  C  C7  1  0.00000000  0.92633700  0.00000000  1
  C  C8  1  0.50000000  0.88056800  0.81959900  1
  C  C9  1  0.00000000  0.11943200  0.68040100  1
  C  C10  1  0.50000000  0.88056800  0.18040100  1
  C  C11  1  0.00000000  0.11943200  0.31959900  1
  C  C12  1  0.00000000  0.42346300  0.10956500  1
  C  C13  1  0.50000000  0.57653700  0.39043500  1
  C  C14  1  0.50000000  0.57653700  0.60956500  1
  C  C15  1  0.00000000  0.42346300  0.89043500  1
