# generated using pymatgen
data_Cu13NiC6
_symmetry_space_group_name_H-M   'P 1'
_cell_length_a   7.31159600
_cell_length_b   10.63801800
_cell_length_c   14.30589600
_cell_angle_alpha   90.00000000
_cell_angle_beta   90.00000000
_cell_angle_gamma   90.00000000
_symmetry_Int_Tables_number   1
_chemical_formula_structural   Cu13NiC6
_chemical_formula_sum   'Cu52 Ni4 C24'
_cell_volume   1112.72532108
_cell_formula_units_Z   4
loop_
 _symmetry_equiv_pos_site_id
 _symmetry_equiv_pos_as_xyz
  1  'x, y, z'
loop_
 _atom_site_type_symbol
 _atom_site_label
 _atom_site_symmetry_multiplicity
 _atom_site_fract_x
 _atom_site_fract_y
 _atom_site_fract_z
 _atom_site_occupancy
  C  C0  1  0.00000000  0.00000000  0.00000000  1
  C  C1  1  0.50000000  0.50000000  0.50000000  1
  C  C2  1  0.50000000  0.00000000  0.00000000  1
  C  C3  1  0.00000000  0.50000000  0.50000000  1
  C  C4  1  0.75000000  0.24581800  0.13631700  1
  C  C5  1  0.75000000  0.25418200  0.63631700  1
  C  C6  1  0.25000000  0.75418200  0.86368300  1
  C  C7  1  0.25000000  0.74581800  0.36368300  1
  C  C8  1  0.75000000  0.72839300  0.10328100  1
  C  C9  1  0.75000000  0.77160700  0.60328100  1
  C  C10  1  0.25000000  0.27160700  0.89671900  1
  C  C11  1  0.25000000  0.22839300  0.39671900  1
  C  C12  1  0.63763100  0.00949700  0.39532800  1
  C  C13  1  0.86236900  0.49050300  0.89532800  1
  C  C14  1  0.13763100  0.99050300  0.60467200  1
  C  C15  1  0.36236900  0.50949700  0.10467200  1
  C  C16  1  0.36236900  0.99050300  0.60467200  1
  C  C17  1  0.13763100  0.50949700  0.10467200  1
  C  C18  1  0.86236900  0.00949700  0.39532800  1
  C  C19  1  0.63763100  0.49050300  0.89532800  1
  C  C20  1  0.75000000  0.07338600  0.30953700  1
  C  C21  1  0.75000000  0.42661400  0.80953700  1
  C  C22  1  0.25000000  0.92661400  0.69046300  1
  C  C23  1  0.25000000  0.57338600  0.19046300  1
  Ni  Ni24  1  0.75000000  0.00148700  0.35751100  1
  Ni  Ni25  1  0.75000000  0.49851300  0.85751100  1
  Ni  Ni26  1  0.25000000  0.99851300  0.64248900  1
  Ni  Ni27  1  0.25000000  0.50148700  0.14248900  1
  Cu  Cu28  1  0.75000000  0.00661100  0.95167600  1
  Cu  Cu29  1  0.75000000  0.49338900  0.45167600  1
  Cu  Cu30  1  0.25000000  0.99338900  0.04832400  1
  Cu  Cu31  1  0.25000000  0.50661100  0.54832400  1
  Cu  Cu32  1  0.92008500  0.12618000  0.11347800  1
  Cu  Cu33  1  0.57991500  0.37382000  0.61347800  1
  Cu  Cu34  1  0.42008500  0.87382000  0.88652200  1
  Cu  Cu35  1  0.07991500  0.62618000  0.38652200  1
  Cu  Cu36  1  0.07991500  0.87382000  0.88652200  1
  Cu  Cu37  1  0.42008500  0.62618000  0.38652200  1
  Cu  Cu38  1  0.57991500  0.12618000  0.11347800  1
  Cu  Cu39  1  0.92008500  0.37382000  0.61347800  1
  Cu  Cu40  1  0.75000000  0.28876900  0.01774500  1
  Cu  Cu41  1  0.75000000  0.21123100  0.51774500  1
  Cu  Cu42  1  0.25000000  0.71123100  0.98225500  1
  Cu  Cu43  1  0.25000000  0.78876900  0.48225500  1
  Cu  Cu44  1  0.92315900  0.35133300  0.16426200  1
  Cu  Cu45  1  0.57684100  0.14866700  0.66426200  1
  Cu  Cu46  1  0.42315900  0.64866700  0.83573800  1
  Cu  Cu47  1  0.07684100  0.85133300  0.33573800  1
  Cu  Cu48  1  0.07684100  0.64866700  0.83573800  1
  Cu  Cu49  1  0.42315900  0.85133300  0.33573800  1
  Cu  Cu50  1  0.57684100  0.35133300  0.16426200  1
  Cu  Cu51  1  0.92315900  0.14866700  0.66426200  1
  Cu  Cu52  1  0.75000000  0.19176900  0.25620700  1
  Cu  Cu53  1  0.75000000  0.30823100  0.75620700  1
  Cu  Cu54  1  0.25000000  0.80823100  0.74379300  1
  Cu  Cu55  1  0.25000000  0.69176900  0.24379300  1
  Cu  Cu56  1  0.92293700  0.85014900  0.09979400  1
  Cu  Cu57  1  0.57706300  0.64985100  0.59979400  1
  Cu  Cu58  1  0.42293700  0.14985100  0.90020600  1
  Cu  Cu59  1  0.07706300  0.35014900  0.40020600  1
  Cu  Cu60  1  0.07706300  0.14985100  0.90020600  1
  Cu  Cu61  1  0.42293700  0.35014900  0.40020600  1
  Cu  Cu62  1  0.57706300  0.85014900  0.09979400  1
  Cu  Cu63  1  0.92293700  0.64985100  0.59979400  1
  Cu  Cu64  1  0.75000000  0.72605000  0.98022700  1
  Cu  Cu65  1  0.75000000  0.77395000  0.48022700  1
  Cu  Cu66  1  0.25000000  0.27395000  0.01977300  1
  Cu  Cu67  1  0.25000000  0.22605000  0.51977300  1
  Cu  Cu68  1  0.92256000  0.61057100  0.10341400  1
  Cu  Cu69  1  0.57744000  0.88942900  0.60341400  1
  Cu  Cu70  1  0.42256000  0.38942900  0.89658600  1
  Cu  Cu71  1  0.07744000  0.11057100  0.39658600  1
  Cu  Cu72  1  0.07744000  0.38942900  0.89658600  1
  Cu  Cu73  1  0.42256000  0.11057100  0.39658600  1
  Cu  Cu74  1  0.57744000  0.61057100  0.10341400  1
  Cu  Cu75  1  0.92256000  0.88942900  0.60341400  1
  Cu  Cu76  1  0.75000000  0.73585900  0.22412600  1
  Cu  Cu77  1  0.75000000  0.76414100  0.72412600  1
  Cu  Cu78  1  0.25000000  0.26414100  0.77587400  1
  Cu  Cu79  1  0.25000000  0.23585900  0.27587400  1
