# generated using pymatgen
data_Cu(Ni3C2)4
_symmetry_space_group_name_H-M   'P 1'
_cell_length_a   10.16641641
_cell_length_b   10.16641641
_cell_length_c   7.49607000
_cell_angle_alpha   90.00000000
_cell_angle_beta   90.00000000
_cell_angle_gamma   120.00000270
_symmetry_Int_Tables_number   1
_chemical_formula_structural   Cu(Ni3C2)4
_chemical_formula_sum   'Cu2 Ni24 C16'
_cell_volume   670.96527140
_cell_formula_units_Z   2
loop_
 _symmetry_equiv_pos_site_id
 _symmetry_equiv_pos_as_xyz
  1  'x, y, z'
loop_
 _atom_site_type_symbol
 _atom_site_label
 _atom_site_symmetry_multiplicity
 _atom_site_fract_x
 _atom_site_fract_y
 _atom_site_fract_z
 _atom_site_occupancy
  C  C0  1  0.75202400  0.75860100  0.25000000  1
  C  C1  1  0.00657700  0.24797600  0.25000000  1
  C  C2  1  0.75860100  0.00657700  0.75000000  1
  C  C3  1  0.99342300  0.75202400  0.75000000  1
  C  C4  1  0.24797600  0.24139900  0.75000000  1
  C  C5  1  0.24139900  0.99342300  0.25000000  1
  C  C6  1  0.33333300  0.66666700  0.49941600  1
  C  C7  1  0.66666700  0.33333300  0.99941600  1
  C  C8  1  0.66666700  0.33333300  0.50058400  1
  C  C9  1  0.33333300  0.66666700  0.00058400  1
  C  C10  1  0.63087500  0.02989900  0.25000000  1
  C  C11  1  0.97010100  0.60097600  0.25000000  1
  C  C12  1  0.60097600  0.63087500  0.75000000  1
  C  C13  1  0.36912500  0.97010100  0.75000000  1
  C  C14  1  0.02989900  0.39902400  0.75000000  1
  C  C15  1  0.39902400  0.36912500  0.25000000  1
  Ni  Ni16  1  0.67835400  0.51414500  0.75000000  1
  Ni  Ni17  1  0.46993000  0.87466400  0.75000000  1
  Ni  Ni18  1  0.34249800  0.25155200  0.43357900  1
  Ni  Ni19  1  0.09094600  0.34249800  0.93357900  1
  Ni  Ni20  1  0.25155200  0.90905400  0.93357900  1
  Ni  Ni21  1  0.74844800  0.09094600  0.43357900  1
  Ni  Ni22  1  0.90905400  0.65750200  0.43357900  1
  Ni  Ni23  1  0.65750200  0.74844800  0.93357900  1
  Ni  Ni24  1  0.65750200  0.74844800  0.56642100  1
  Ni  Ni25  1  0.90905400  0.65750200  0.06642100  1
  Ni  Ni26  1  0.74844800  0.09094600  0.06642100  1
  Ni  Ni27  1  0.25155200  0.90905400  0.56642100  1
  Ni  Ni28  1  0.12533600  0.59526600  0.75000000  1
  Ni  Ni29  1  0.34249800  0.25155200  0.06642100  1
  Ni  Ni30  1  0.40473400  0.53007000  0.75000000  1
  Ni  Ni31  1  0.87466400  0.40473400  0.25000000  1
  Ni  Ni32  1  0.32164600  0.48585500  0.25000000  1
  Ni  Ni33  1  0.83579100  0.32164600  0.75000000  1
  Ni  Ni34  1  0.48585500  0.16420900  0.75000000  1
  Ni  Ni35  1  0.51414500  0.83579100  0.25000000  1
  Ni  Ni36  1  0.16420900  0.67835400  0.25000000  1
  Ni  Ni37  1  0.09094600  0.34249800  0.56642100  1
  Ni  Ni38  1  0.59526600  0.46993000  0.25000000  1
  Ni  Ni39  1  0.53007000  0.12533600  0.25000000  1
  Cu  Cu40  1  0.00000000  0.00000000  0.25000000  1
  Cu  Cu41  1  0.00000000  0.00000000  0.75000000  1
