# generated using pymatgen
data_Cu2Ni2C5
_symmetry_space_group_name_H-M   'P 1'
_cell_length_a   3.48067974
_cell_length_b   3.48067974
_cell_length_c   23.19752600
_cell_angle_alpha   90.00000000
_cell_angle_beta   90.00000000
_cell_angle_gamma   119.99999502
_symmetry_Int_Tables_number   1
_chemical_formula_structural   Cu2Ni2C5
_chemical_formula_sum   'Cu4 Ni4 C10'
_cell_volume   243.38872401
_cell_formula_units_Z   2
loop_
 _symmetry_equiv_pos_site_id
 _symmetry_equiv_pos_as_xyz
  1  'x, y, z'
loop_
 _atom_site_type_symbol
 _atom_site_label
 _atom_site_symmetry_multiplicity
 _atom_site_fract_x
 _atom_site_fract_y
 _atom_site_fract_z
 _atom_site_occupancy
  Ni  Ni0  1  0.33333300  0.66666700  0.55685900  1
  Ni  Ni1  1  0.66666700  0.33333300  0.05685900  1
  Ni  Ni2  1  0.66666700  0.33333300  0.81794900  1
  Ni  Ni3  1  0.33333300  0.66666700  0.31794900  1
  Cu  Cu4  1  0.00000000  0.00000000  0.68707500  1
  Cu  Cu5  1  0.00000000  0.00000000  0.18707500  1
  Cu  Cu6  1  0.33333300  0.66666700  0.93890800  1
  Cu  Cu7  1  0.66666700  0.33333300  0.43890800  1
  C  C8  1  0.66666700  0.33333300  0.53465300  1
  C  C9  1  0.33333300  0.66666700  0.03465300  1
  C  C10  1  0.33333300  0.66666700  0.64318700  1
  C  C11  1  0.66666700  0.33333300  0.14318700  1
  C  C12  1  0.66666700  0.33333300  0.73267300  1
  C  C13  1  0.33333300  0.66666700  0.23267300  1
  C  C14  1  0.33333300  0.66666700  0.84377700  1
  C  C15  1  0.66666700  0.33333300  0.34377700  1
  C  C16  1  0.66666700  0.33333300  0.94292000  1
  C  C17  1  0.33333300  0.66666700  0.44292000  1
