# generated using pymatgen
data_Cu2Ni2C17
_symmetry_space_group_name_H-M   'P 1'
_cell_length_a   7.84953900
_cell_length_b   10.70101300
_cell_length_c   10.70552599
_cell_angle_alpha   60.08670371
_cell_angle_beta   90.00000000
_cell_angle_gamma   90.00000000
_symmetry_Int_Tables_number   1
_chemical_formula_structural   Cu2Ni2C17
_chemical_formula_sum   'Cu4 Ni4 C34'
_cell_volume   779.44676453
_cell_formula_units_Z   2
loop_
 _symmetry_equiv_pos_site_id
 _symmetry_equiv_pos_as_xyz
  1  'x, y, z'
loop_
 _atom_site_type_symbol
 _atom_site_label
 _atom_site_symmetry_multiplicity
 _atom_site_fract_x
 _atom_site_fract_y
 _atom_site_fract_z
 _atom_site_occupancy
  C  C0  1  0.00000000  0.00637600  0.22879500  1
  C  C1  1  0.00000000  0.23310600  0.76969300  1
  C  C2  1  0.00000000  0.75548000  0.01550300  1
  C  C3  1  0.50000000  0.98918100  0.77171500  1
  C  C4  1  0.50000000  0.77198500  0.23611100  1
  C  C5  1  0.50000000  0.23460000  0.99899000  1
  C  C6  1  0.75037900  0.33340400  0.32581700  1
  C  C7  1  0.25060400  0.66272200  0.66620400  1
  C  C8  1  0.74939600  0.66272200  0.66620400  1
  C  C9  1  0.24962100  0.33340400  0.32581700  1
  Ni  Ni10  1  0.00000000  0.61879500  0.41549800  1
  Ni  Ni11  1  0.00000000  0.41699500  0.96367700  1
  Ni  Ni12  1  0.50000000  0.03378900  0.38274000  1
  Ni  Ni13  1  0.50000000  0.58561100  0.03445800  1
  Cu  Cu14  1  0.74985400  0.00186500  0.99223300  1
  Cu  Cu15  1  0.25014600  0.00186500  0.99223300  1
  Cu  Cu16  1  0.00000000  0.96405400  0.62066500  1
  Cu  Cu17  1  0.50000000  0.37904400  0.58354100  1
  C  C18  1  0.15549200  0.91856400  0.71316800  1
  C  C19  1  0.17727700  0.72859100  0.36542500  1
  C  C20  1  0.17803200  0.36515300  0.90639300  1
  C  C21  1  0.67805700  0.09141600  0.27379100  1
  C  C22  1  0.65535500  0.28616100  0.63112800  1
  C  C23  1  0.67743900  0.63504600  0.09421000  1
  C  C24  1  0.32194300  0.09141600  0.27379100  1
  C  C25  1  0.34464500  0.28616100  0.63112800  1
  C  C26  1  0.32256100  0.63504600  0.09421000  1
  C  C27  1  0.84450800  0.91856400  0.71316800  1
  C  C28  1  0.82272300  0.72859100  0.36542500  1
  C  C29  1  0.82196800  0.36515300  0.90639300  1
  C  C30  1  0.00000000  0.12450500  0.52348300  1
  C  C31  1  0.00000000  0.50555100  0.34383200  1
  C  C32  1  0.00000000  0.34186800  0.14877000  1
  C  C33  1  0.50000000  0.84890300  0.49417100  1
  C  C34  1  0.50000000  0.47673100  0.64648200  1
  C  C35  1  0.50000000  0.66071000  0.84903100  1
  C  C36  1  0.00000000  0.52309400  0.60226500  1
  C  C37  1  0.00000000  0.60400000  0.87318300  1
  C  C38  1  0.00000000  0.88933700  0.53328000  1
  C  C39  1  0.50000000  0.46667000  0.42205100  1
  C  C40  1  0.50000000  0.39884200  0.12614300  1
  C  C41  1  0.50000000  0.12492900  0.47918500  1
