# generated using pymatgen
data_Cu2Ni3C13
_symmetry_space_group_name_H-M   'P 1'
_cell_length_a   2.99669600
_cell_length_b   7.79319387
_cell_length_c   12.40044296
_cell_angle_alpha   97.09121474
_cell_angle_beta   83.05998183
_cell_angle_gamma   90.00000000
_symmetry_Int_Tables_number   1
_chemical_formula_structural   Cu2Ni3C13
_chemical_formula_sum   'Cu2 Ni3 C13'
_cell_volume   285.24439750
_cell_formula_units_Z   1
loop_
 _symmetry_equiv_pos_site_id
 _symmetry_equiv_pos_as_xyz
  1  'x, y, z'
loop_
 _atom_site_type_symbol
 _atom_site_label
 _atom_site_symmetry_multiplicity
 _atom_site_fract_x
 _atom_site_fract_y
 _atom_site_fract_z
 _atom_site_occupancy
  Ni  Ni0  1  0.99662400  0.99002700  0.00675200  1
  Ni  Ni1  1  0.58513400  0.78529400  0.82973200  1
  Ni  Ni2  1  0.41266500  0.29215900  0.17467000  1
  Cu  Cu3  1  0.17791700  0.59651500  0.64416500  1
  Cu  Cu4  1  0.79676700  0.44706500  0.40646700  1
  C  C5  1  0.38635300  0.79685000  0.22729500  1
  C  C6  1  0.40068600  0.58388500  0.19862800  1
  C  C7  1  0.62346700  0.56484900  0.75306700  1
  C  C8  1  0.73210800  0.57450300  0.53578300  1
  C  C9  1  0.25769400  0.16885600  0.48461300  1
  C  C10  1  0.03259000  0.75897600  0.93481900  1
  C  C11  1  0.96147900  0.23024000  0.07704200  1
  C  C12  1  0.12882200  0.84074200  0.74235500  1
  C  C13  1  0.86006900  0.30265200  0.27986300  1
  C  C14  1  0.54086400  0.02109200  0.91827100  1
  C  C15  1  0.43469400  0.93701000  0.13061300  1
  C  C16  1  0.84546100  0.85844700  0.30907900  1
  C  C17  1  0.20890800  0.14613800  0.58218500  1
