# generated using pymatgen
data_Cu6NiC2
_symmetry_space_group_name_H-M   'P 1'
_cell_length_a   6.02099800
_cell_length_b   8.00655400
_cell_length_c   11.36229100
_cell_angle_alpha   90.00000000
_cell_angle_beta   90.00000000
_cell_angle_gamma   90.00000000
_symmetry_Int_Tables_number   1
_chemical_formula_structural   Cu6NiC2
_chemical_formula_sum   'Cu24 Ni4 C8'
_cell_volume   547.74702551
_cell_formula_units_Z   4
loop_
 _symmetry_equiv_pos_site_id
 _symmetry_equiv_pos_as_xyz
  1  'x, y, z'
loop_
 _atom_site_type_symbol
 _atom_site_label
 _atom_site_symmetry_multiplicity
 _atom_site_fract_x
 _atom_site_fract_y
 _atom_site_fract_z
 _atom_site_occupancy
  C  C0  1  0.74619200  0.66010800  0.31762000  1
  C  C1  1  0.24619200  0.33989200  0.68238000  1
  C  C2  1  0.24619200  0.83989200  0.81762000  1
  C  C3  1  0.74619200  0.16010800  0.18238000  1
  C  C4  1  0.99370300  0.01429500  0.49575900  1
  C  C5  1  0.49370300  0.98570500  0.50424100  1
  C  C6  1  0.49370300  0.48570500  0.99575900  1
  C  C7  1  0.99370300  0.51429500  0.00424100  1
  Ni  Ni8  1  0.25278800  0.95292800  0.27953200  1
  Ni  Ni9  1  0.75278800  0.04707200  0.72046800  1
  Ni  Ni10  1  0.75278800  0.54707200  0.77953200  1
  Ni  Ni11  1  0.25278800  0.45292800  0.22046800  1
  Cu  Cu12  1  0.06075000  0.94837200  0.33594400  1
  Cu  Cu13  1  0.56075000  0.05162800  0.66405600  1
  Cu  Cu14  1  0.56075000  0.55162800  0.83594400  1
  Cu  Cu15  1  0.06075000  0.44837200  0.16405600  1
  Cu  Cu16  1  0.44154600  0.94196400  0.33849100  1
  Cu  Cu17  1  0.94154600  0.05803600  0.66150900  1
  Cu  Cu18  1  0.94154600  0.55803600  0.83849100  1
  Cu  Cu19  1  0.44154600  0.44196400  0.16150900  1
  Cu  Cu20  1  0.25685000  0.96330900  0.16879300  1
  Cu  Cu21  1  0.75685000  0.03669100  0.83120700  1
  Cu  Cu22  1  0.75685000  0.53669100  0.66879300  1
  Cu  Cu23  1  0.25685000  0.46330900  0.33120700  1
  Cu  Cu24  1  0.25356800  0.10588800  0.51520300  1
  Cu  Cu25  1  0.75356800  0.89411200  0.48479700  1
  Cu  Cu26  1  0.75356800  0.39411200  0.01520300  1
  Cu  Cu27  1  0.25356800  0.60588800  0.98479700  1
  Cu  Cu28  1  0.30628000  0.77075800  0.55852100  1
  Cu  Cu29  1  0.80628000  0.22924200  0.44147900  1
  Cu  Cu30  1  0.80628000  0.72924200  0.05852100  1
  Cu  Cu31  1  0.30628000  0.27075800  0.94147900  1
  Cu  Cu32  1  0.35032300  0.12145700  0.96862500  1
  Cu  Cu33  1  0.85032300  0.87854300  0.03137500  1
  Cu  Cu34  1  0.85032300  0.37854300  0.46862500  1
  Cu  Cu35  1  0.35032300  0.62145700  0.53137500  1
