# generated using pymatgen
data_Cu2NiC10
_symmetry_space_group_name_H-M   'P 1'
_cell_length_a   9.15850281
_cell_length_b   9.15850281
_cell_length_c   5.22457808
_cell_angle_alpha   74.42005791
_cell_angle_beta   74.42005791
_cell_angle_gamma   112.86653501
_symmetry_Int_Tables_number   1
_chemical_formula_structural   Cu2NiC10
_chemical_formula_sum   'Cu4 Ni2 C20'
_cell_volume   352.94782169
_cell_formula_units_Z   2
loop_
 _symmetry_equiv_pos_site_id
 _symmetry_equiv_pos_as_xyz
  1  'x, y, z'
loop_
 _atom_site_type_symbol
 _atom_site_label
 _atom_site_symmetry_multiplicity
 _atom_site_fract_x
 _atom_site_fract_y
 _atom_site_fract_z
 _atom_site_occupancy
  C  C0  1  0.45820800  0.69863700  0.19291000  1
  C  C1  1  0.69863700  0.45820800  0.19291000  1
  C  C2  1  0.20039600  0.95891400  0.67582200  1
  C  C3  1  0.95891400  0.20039600  0.67582200  1
  Ni  Ni4  1  0.66446500  0.07759900  0.36204900  1
  Ni  Ni5  1  0.07759900  0.66446500  0.36204900  1
  Cu  Cu6  1  0.84254500  0.84254500  0.35250900  1
  Cu  Cu7  1  0.52779200  0.10559700  0.91854400  1
  Cu  Cu8  1  0.10559700  0.52779200  0.91854400  1
  Cu  Cu9  1  0.33349800  0.33349800  0.98848300  1
  C  C10  1  0.37554000  0.90707500  0.93465200  1
  C  C11  1  0.90707500  0.37554000  0.93465200  1
  C  C12  1  0.75615300  0.94785100  0.55028800  1
  C  C13  1  0.94785100  0.75615300  0.55028800  1
  C  C14  1  0.49969400  0.49969400  0.01929400  1
  C  C15  1  0.71684000  0.22606300  0.56424400  1
  C  C16  1  0.22606300  0.71684000  0.56424400  1
  C  C17  1  0.42766600  0.24124200  0.77282300  1
  C  C18  1  0.24124200  0.42766600  0.77282300  1
  C  C19  1  0.67234000  0.67234000  0.33560700  1
  C  C20  1  0.17563400  0.17563400  0.34373700  1
  C  C21  1  0.51572900  0.15662100  0.24174300  1
  C  C22  1  0.15662100  0.51572900  0.24174300  1
  C  C23  1  0.99831000  0.99831000  0.99233900  1
  C  C24  1  0.65518700  0.99600300  0.07854000  1
  C  C25  1  0.99600300  0.65518700  0.07854000  1
