# generated using pymatgen
data_Cu4Ni2C
_symmetry_space_group_name_H-M   'P 1'
_cell_length_a   7.46717664
_cell_length_b   7.46717664
_cell_length_c   7.46717664
_cell_angle_alpha   130.32859615
_cell_angle_beta   130.32859615
_cell_angle_gamma   72.88199360
_symmetry_Int_Tables_number   1
_chemical_formula_structural   Cu4Ni2C
_chemical_formula_sum   'Cu4 Ni2 C1'
_cell_volume   236.35982304
_cell_formula_units_Z   1
loop_
 _symmetry_equiv_pos_site_id
 _symmetry_equiv_pos_as_xyz
  1  'x, y, z'
loop_
 _atom_site_type_symbol
 _atom_site_label
 _atom_site_symmetry_multiplicity
 _atom_site_fract_x
 _atom_site_fract_y
 _atom_site_fract_z
 _atom_site_occupancy
  C  C0  1  0.00000000  0.00000000  0.00000000  1
  Ni  Ni1  1  0.25000000  0.75000000  0.50000000  1
  Ni  Ni2  1  0.50000000  0.50000000  0.00000000  1
  Cu  Cu3  1  0.60881900  0.13685400  0.02185800  1
  Cu  Cu4  1  0.41303800  0.39118100  0.52803400  1
  Cu  Cu5  1  0.86314600  0.88500400  0.47196600  1
  Cu  Cu6  1  0.11499600  0.58696200  0.97814200  1
