# generated using pymatgen
data_CuNi2C7
_symmetry_space_group_name_H-M   'P 1'
_cell_length_a   5.56264971
_cell_length_b   9.49067245
_cell_length_c   5.46793996
_cell_angle_alpha   72.02119101
_cell_angle_beta   59.73614893
_cell_angle_gamma   73.07661975
_symmetry_Int_Tables_number   1
_chemical_formula_structural   CuNi2C7
_chemical_formula_sum   'Cu2 Ni4 C14'
_cell_volume   233.90473542
_cell_formula_units_Z   2
loop_
 _symmetry_equiv_pos_site_id
 _symmetry_equiv_pos_as_xyz
  1  'x, y, z'
loop_
 _atom_site_type_symbol
 _atom_site_label
 _atom_site_symmetry_multiplicity
 _atom_site_fract_x
 _atom_site_fract_y
 _atom_site_fract_z
 _atom_site_occupancy
  C  C0  1  0.13500900  0.62461600  0.12287100  1
  C  C1  1  0.61235800  0.12430700  0.62550600  1
  Ni  Ni2  1  0.24534300  0.24905100  0.25155400  1
  Ni  Ni3  1  0.98388400  0.00062600  0.00529800  1
  Ni  Ni4  1  0.75353700  0.74901600  0.74685100  1
  Ni  Ni5  1  0.51462400  0.50095800  0.49300900  1
  Cu  Cu6  1  0.36771000  0.87485300  0.37410000  1
  Cu  Cu7  1  0.88647100  0.37422500  0.87435900  1
  C  C8  1  0.89120900  0.37827100  0.45477400  1
  C  C9  1  0.33385200  0.87687600  0.97547900  1
  C  C10  1  0.30260400  0.37575300  0.87090100  1
  C  C11  1  0.77813100  0.87557800  0.37563000  1
  C  C12  1  0.48492200  0.37793400  0.29792600  1
  C  C13  1  0.94603100  0.87897500  0.78418600  1
  C  C14  1  0.18537300  0.12127700  0.62566700  1
  C  C15  1  0.70064000  0.63144500  0.13170000  1
  C  C16  1  0.03484600  0.12799900  0.17635800  1
  C  C17  1  0.57523400  0.61709700  0.69956100  1
  C  C18  1  0.61043900  0.11912800  0.06192200  1
  C  C19  1  0.15777900  0.62201600  0.55234900  1
