# generated using pymatgen
data_Cu4NiC20
_symmetry_space_group_name_H-M   'P 1'
_cell_length_a   3.92991801
_cell_length_b   3.92987801
_cell_length_c   39.46156300
_cell_angle_alpha   90.00000581
_cell_angle_beta   90.00000000
_cell_angle_gamma   89.99023176
_symmetry_Int_Tables_number   1
_chemical_formula_structural   Cu4NiC20
_chemical_formula_sum   'Cu8 Ni2 C40'
_cell_volume   609.44825322
_cell_formula_units_Z   2
loop_
 _symmetry_equiv_pos_site_id
 _symmetry_equiv_pos_as_xyz
  1  'x, y, z'
loop_
 _atom_site_type_symbol
 _atom_site_label
 _atom_site_symmetry_multiplicity
 _atom_site_fract_x
 _atom_site_fract_y
 _atom_site_fract_z
 _atom_site_occupancy
  Ni  Ni0  1  0.49999900  0.50000000  0.05000300  1
  Ni  Ni1  1  0.50000000  0.50000000  0.54988000  1
  Cu  Cu2  1  0.50000100  0.50000000  0.15147100  1
  Cu  Cu3  1  0.50000000  0.49999900  0.65138100  1
  Cu  Cu4  1  0.50000100  0.50000000  0.44856900  1
  Cu  Cu5  1  0.49999900  0.50000000  0.94865800  1
  Cu  Cu6  1  0.50000000  0.50000000  0.25048700  1
  Cu  Cu7  1  0.50000000  0.49999900  0.75042100  1
  Cu  Cu8  1  0.50000100  0.50000000  0.34958100  1
  Cu  Cu9  1  0.49999900  0.50000000  0.84960500  1
  C  C10  1  0.99999900  0.00000000  0.80000300  1
  C  C11  1  0.00000100  0.00000000  0.99874500  1
  C  C12  1  0.00000000  0.99999900  0.60119000  1
  C  C13  1  0.99999900  0.00000000  0.70090500  1
  C  C14  1  0.99999900  0.00000000  0.89907300  1
  C  C15  1  0.00000100  0.00000100  0.29999500  1
  C  C16  1  0.00000000  0.00000000  0.49864600  1
  C  C17  1  0.99999900  0.99999900  0.10134100  1
  C  C18  1  0.00000000  0.00000000  0.20101000  1
  C  C19  1  0.00000100  0.00000100  0.39899900  1
  C  C20  1  0.00000000  0.00000000  0.05006800  1
  C  C21  1  0.00000000  0.00000000  0.54994500  1
  C  C22  1  0.00000000  0.00000000  0.15273200  1
  C  C23  1  0.00000000  0.00000000  0.65264000  1
  C  C24  1  0.00000000  0.00000100  0.44728300  1
  C  C25  1  0.00000000  0.00000100  0.94732600  1
  C  C26  1  0.00000100  0.00000000  0.25034000  1
  C  C27  1  0.00000000  0.00000000  0.75030600  1
  C  C28  1  0.00000000  0.00000100  0.34961700  1
  C  C29  1  0.00000000  0.00000000  0.84971900  1
  C  C30  1  0.00000000  0.50000000  0.29998200  1
  C  C31  1  0.00000000  0.49999900  0.80002800  1
  C  C32  1  0.50000100  0.00000100  0.29998200  1
  C  C33  1  0.50000000  0.99999900  0.80002800  1
  C  C34  1  0.00000100  0.50000000  0.49647200  1
  C  C35  1  0.99999900  0.50000000  0.99660100  1
  C  C36  1  0.00000000  0.50000000  0.10353200  1
  C  C37  1  0.00000000  0.50000000  0.60341400  1
  C  C38  1  0.50000000  0.00000000  0.49647200  1
  C  C39  1  0.50000000  0.00000000  0.99660100  1
  C  C40  1  0.50000000  0.00000000  0.10353200  1
  C  C41  1  0.50000000  0.00000000  0.60341300  1
  C  C42  1  0.00000100  0.50000000  0.20151900  1
  C  C43  1  0.00000000  0.50000000  0.70144300  1
  C  C44  1  0.00000000  0.50000000  0.39845000  1
  C  C45  1  0.00000000  0.50000100  0.89858800  1
  C  C46  1  0.50000000  0.00000000  0.20151900  1
  C  C47  1  0.50000000  0.00000000  0.70144300  1
  C  C48  1  0.50000000  0.00000000  0.39845100  1
  C  C49  1  0.50000000  0.00000000  0.89858900  1
