# generated using pymatgen
data_CuNiC14
_symmetry_space_group_name_H-M   'P 1'
_cell_length_a   7.33542800
_cell_length_b   7.33542800
_cell_length_c   14.92919100
_cell_angle_alpha   90.00000000
_cell_angle_beta   90.00000000
_cell_angle_gamma   90.00000000
_symmetry_Int_Tables_number   1
_chemical_formula_structural   CuNiC14
_chemical_formula_sum   'Cu4 Ni4 C56'
_cell_volume   803.31743279
_cell_formula_units_Z   4
loop_
 _symmetry_equiv_pos_site_id
 _symmetry_equiv_pos_as_xyz
  1  'x, y, z'
loop_
 _atom_site_type_symbol
 _atom_site_label
 _atom_site_symmetry_multiplicity
 _atom_site_fract_x
 _atom_site_fract_y
 _atom_site_fract_z
 _atom_site_occupancy
  Ni  Ni0  1  0.50000000  0.50000000  0.50000000  1
  Ni  Ni1  1  0.00000000  0.00000000  0.50000000  1
  Ni  Ni2  1  0.00000000  0.00000000  0.00000000  1
  Ni  Ni3  1  0.50000000  0.50000000  0.00000000  1
  Cu  Cu4  1  0.50000000  0.00000000  0.56741100  1
  Cu  Cu5  1  0.00000000  0.50000000  0.93258900  1
  Cu  Cu6  1  0.00000000  0.50000000  0.43258900  1
  Cu  Cu7  1  0.50000000  0.00000000  0.06741100  1
  C  C8  1  0.15795900  0.24009000  0.64521100  1
  C  C9  1  0.84204100  0.75991000  0.64521100  1
  C  C10  1  0.24009000  0.15795900  0.85478900  1
  C  C11  1  0.74009000  0.34204100  0.64521100  1
  C  C12  1  0.25991000  0.65795900  0.64521100  1
  C  C13  1  0.34204100  0.74009000  0.85478900  1
  C  C14  1  0.65795900  0.25991000  0.85478900  1
  C  C15  1  0.75991000  0.84204100  0.85478900  1
  C  C16  1  0.34204100  0.25991000  0.35478900  1
  C  C17  1  0.65795900  0.74009000  0.35478900  1
  C  C18  1  0.25991000  0.34204100  0.14521100  1
  C  C19  1  0.75991000  0.15795900  0.35478900  1
  C  C20  1  0.24009000  0.84204100  0.35478900  1
  C  C21  1  0.15795900  0.75991000  0.14521100  1
  C  C22  1  0.84204100  0.24009000  0.14521100  1
  C  C23  1  0.74009000  0.65795900  0.14521100  1
  C  C24  1  0.22942900  0.08578800  0.57575700  1
  C  C25  1  0.77057100  0.91421200  0.57575700  1
  C  C26  1  0.08578800  0.22942900  0.92424300  1
  C  C27  1  0.58578800  0.27057100  0.57575700  1
  C  C28  1  0.41421200  0.72942900  0.57575700  1
  C  C29  1  0.27057100  0.58578800  0.92424300  1
  C  C30  1  0.72942900  0.41421200  0.92424300  1
  C  C31  1  0.91421200  0.77057100  0.92424300  1
  C  C32  1  0.27057100  0.41421200  0.42424300  1
  C  C33  1  0.72942900  0.58578800  0.42424300  1
  C  C34  1  0.41421200  0.27057100  0.07575700  1
  C  C35  1  0.91421200  0.22942900  0.42424300  1
  C  C36  1  0.08578800  0.77057100  0.42424300  1
  C  C37  1  0.22942900  0.91421200  0.07575700  1
  C  C38  1  0.77057100  0.08578800  0.07575700  1
  C  C39  1  0.25215900  0.06069900  0.37390600  1
  C  C40  1  0.58578800  0.72942900  0.07575700  1
  C  C41  1  0.75215900  0.56069900  0.62609400  1
  C  C42  1  0.43930100  0.24784100  0.87390600  1
  C  C43  1  0.93930100  0.25215900  0.62609400  1
  C  C44  1  0.06069900  0.74784100  0.62609400  1
  C  C45  1  0.25215900  0.93930100  0.87390600  1
  C  C46  1  0.74784100  0.06069900  0.87390600  1
  C  C47  1  0.56069900  0.75215900  0.87390600  1
  C  C48  1  0.69104500  0.69104500  0.25000000  1
  C  C49  1  0.80895500  0.19104500  0.25000000  1
  C  C50  1  0.19104500  0.80895500  0.25000000  1
  C  C51  1  0.30895500  0.30895500  0.25000000  1
  C  C52  1  0.80895500  0.80895500  0.75000000  1
  C  C53  1  0.69104500  0.30895500  0.75000000  1
  C  C54  1  0.30895500  0.69104500  0.75000000  1
  C  C55  1  0.19104500  0.19104500  0.75000000  1
  C  C56  1  0.93930100  0.74784100  0.12609400  1
  C  C57  1  0.75215900  0.43930100  0.12609400  1
  C  C58  1  0.24784100  0.56069900  0.12609400  1
  C  C59  1  0.43930100  0.75215900  0.37390600  1
  C  C60  1  0.56069900  0.24784100  0.37390600  1
  C  C61  1  0.06069900  0.25215900  0.12609400  1
  C  C62  1  0.74784100  0.93930100  0.37390600  1
  C  C63  1  0.24784100  0.43930100  0.62609400  1
