# generated using pymatgen
data_Cu2NiC8
_symmetry_space_group_name_H-M   'P 1'
_cell_length_a   6.94004445
_cell_length_b   6.94004445
_cell_length_c   6.63327428
_cell_angle_alpha   69.84076760
_cell_angle_beta   69.84076760
_cell_angle_gamma   77.87067865
_symmetry_Int_Tables_number   1
_chemical_formula_structural   Cu2NiC8
_chemical_formula_sum   'Cu4 Ni2 C16'
_cell_volume   280.02429159
_cell_formula_units_Z   2
loop_
 _symmetry_equiv_pos_site_id
 _symmetry_equiv_pos_as_xyz
  1  'x, y, z'
loop_
 _atom_site_type_symbol
 _atom_site_label
 _atom_site_symmetry_multiplicity
 _atom_site_fract_x
 _atom_site_fract_y
 _atom_site_fract_z
 _atom_site_occupancy
  C  C0  1  0.20092200  0.79907800  0.00000000  1
  C  C1  1  0.79907800  0.20092200  0.00000000  1
  Ni  Ni2  1  0.30360000  0.69640000  0.50000000  1
  Ni  Ni3  1  0.69640000  0.30360000  0.50000000  1
  Cu  Cu4  1  0.21637500  0.21637500  0.48823800  1
  Cu  Cu5  1  0.78362500  0.78362500  0.51176200  1
  Cu  Cu6  1  0.30463700  0.30463700  0.92163300  1
  Cu  Cu7  1  0.69536300  0.69536300  0.07836700  1
  C  C8  1  0.05423500  0.72643400  0.39729500  1
  C  C9  1  0.27356600  0.94576500  0.60270500  1
  C  C10  1  0.94576500  0.27356600  0.60270500  1
  C  C11  1  0.72643400  0.05423500  0.39729500  1
  C  C12  1  0.63624300  0.63624300  0.45141600  1
  C  C13  1  0.36375700  0.36375700  0.54858400  1
  C  C14  1  0.86842300  0.86842300  0.03245800  1
  C  C15  1  0.13157700  0.13157700  0.96754200  1
  C  C16  1  0.78252900  0.42933200  0.16730200  1
  C  C17  1  0.57066800  0.21747100  0.83269800  1
  C  C18  1  0.42933200  0.78252900  0.16730200  1
  C  C19  1  0.21747100  0.57066800  0.83269800  1
  C  C20  1  0.68903800  0.68903800  0.80800300  1
  C  C21  1  0.31096200  0.31096200  0.19199700  1
