# generated using pymatgen
data_CuNiC4
_symmetry_space_group_name_H-M   'P 1'
_cell_length_a   5.40527748
_cell_length_b   5.40527748
_cell_length_c   5.40527748
_cell_angle_alpha   103.63325796
_cell_angle_beta   103.63325796
_cell_angle_gamma   121.91006629
_symmetry_Int_Tables_number   1
_chemical_formula_structural   CuNiC4
_chemical_formula_sum   'Cu1 Ni1 C4'
_cell_volume   117.20060050
_cell_formula_units_Z   1
loop_
 _symmetry_equiv_pos_site_id
 _symmetry_equiv_pos_as_xyz
  1  'x, y, z'
loop_
 _atom_site_type_symbol
 _atom_site_label
 _atom_site_symmetry_multiplicity
 _atom_site_fract_x
 _atom_site_fract_y
 _atom_site_fract_z
 _atom_site_occupancy
  C  C0  1  0.40413100  0.90413100  0.80826200  1
  C  C1  1  0.09586900  0.59586900  0.19173800  1
  C  C2  1  0.59586900  0.40413100  0.50000000  1
  C  C3  1  0.90413100  0.09586900  0.50000000  1
  Ni  Ni4  1  0.50000000  0.50000000  0.00000000  1
  Cu  Cu5  1  0.00000000  0.00000000  0.00000000  1
