# generated using pymatgen
data_Cu4NiC3
_symmetry_space_group_name_H-M   'P 1'
_cell_length_a   10.25600900
_cell_length_b   10.40609400
_cell_length_c   12.29614300
_cell_angle_alpha   90.00000000
_cell_angle_beta   90.00000000
_cell_angle_gamma   90.00000000
_symmetry_Int_Tables_number   1
_chemical_formula_structural   Cu4NiC3
_chemical_formula_sum   'Cu16 Ni4 C12'
_cell_volume   1312.30578444
_cell_formula_units_Z   4
loop_
 _symmetry_equiv_pos_site_id
 _symmetry_equiv_pos_as_xyz
  1  'x, y, z'
loop_
 _atom_site_type_symbol
 _atom_site_label
 _atom_site_symmetry_multiplicity
 _atom_site_fract_x
 _atom_site_fract_y
 _atom_site_fract_z
 _atom_site_occupancy
  C  C0  1  0.53983500  0.70227200  0.04430200  1
  C  C1  1  0.03983500  0.79772800  0.45569800  1
  C  C2  1  0.46016500  0.29772800  0.54430200  1
  C  C3  1  0.96016500  0.20227200  0.95569800  1
  C  C4  1  0.46016500  0.29772800  0.95569800  1
  C  C5  1  0.96016500  0.20227200  0.54430200  1
  C  C6  1  0.53983500  0.70227200  0.45569800  1
  C  C7  1  0.03983500  0.79772800  0.04430200  1
  C  C8  1  0.34923600  0.09409500  0.25000000  1
  C  C9  1  0.84923600  0.40590500  0.25000000  1
  C  C10  1  0.65076400  0.90590500  0.75000000  1
  C  C11  1  0.15076400  0.59409500  0.75000000  1
  Ni  Ni12  1  0.27250900  0.52173800  0.25000000  1
  Ni  Ni13  1  0.77250900  0.97826200  0.25000000  1
  Ni  Ni14  1  0.72749100  0.47826200  0.75000000  1
  Ni  Ni15  1  0.22749100  0.02173800  0.75000000  1
  Cu  Cu16  1  0.29005000  0.74738800  0.25000000  1
  Cu  Cu17  1  0.79005000  0.75261200  0.25000000  1
  Cu  Cu18  1  0.70995000  0.25261200  0.75000000  1
  Cu  Cu19  1  0.20995000  0.24738800  0.75000000  1
  Cu  Cu20  1  0.48290600  0.42828400  0.25000000  1
  Cu  Cu21  1  0.98290600  0.07171600  0.25000000  1
  Cu  Cu22  1  0.51709400  0.57171600  0.75000000  1
  Cu  Cu23  1  0.01709400  0.92828400  0.75000000  1
  Cu  Cu24  1  0.16258500  0.45829300  0.09064100  1
  Cu  Cu25  1  0.66258500  0.04170700  0.40935900  1
  Cu  Cu26  1  0.83741500  0.54170700  0.59064100  1
  Cu  Cu27  1  0.33741500  0.95829300  0.90935900  1
  Cu  Cu28  1  0.83741500  0.54170700  0.90935900  1
  Cu  Cu29  1  0.33741500  0.95829300  0.59064100  1
  Cu  Cu30  1  0.16258500  0.45829300  0.40935900  1
  Cu  Cu31  1  0.66258500  0.04170700  0.09064100  1
