# generated using pymatgen
data_Cu4Ni3C13
_symmetry_space_group_name_H-M   'P 1'
_cell_length_a   5.95951573
_cell_length_b   5.95951573
_cell_length_c   11.19933665
_cell_angle_alpha   81.88480341
_cell_angle_beta   81.88480341
_cell_angle_gamma   104.41891251
_symmetry_Int_Tables_number   1
_chemical_formula_structural   Cu4Ni3C13
_chemical_formula_sum   'Cu8 Ni6 C26'
_cell_volume   374.86375316
_cell_formula_units_Z   2
loop_
 _symmetry_equiv_pos_site_id
 _symmetry_equiv_pos_as_xyz
  1  'x, y, z'
loop_
 _atom_site_type_symbol
 _atom_site_label
 _atom_site_symmetry_multiplicity
 _atom_site_fract_x
 _atom_site_fract_y
 _atom_site_fract_z
 _atom_site_occupancy
  C  C0  1  0.96394200  0.03605800  0.75000000  1
  C  C1  1  0.03605800  0.96394200  0.25000000  1
  Ni  Ni2  1  0.69530000  0.19501800  0.02818600  1
  Ni  Ni3  1  0.30470000  0.80498200  0.97181400  1
  Ni  Ni4  1  0.80498200  0.30470000  0.47181400  1
  Ni  Ni5  1  0.19501800  0.69530000  0.52818600  1
  Ni  Ni6  1  0.41162200  0.58837800  0.75000000  1
  Ni  Ni7  1  0.58837800  0.41162200  0.25000000  1
  Cu  Cu8  1  0.49297600  0.12062100  0.72223100  1
  Cu  Cu9  1  0.50702400  0.87937900  0.27776900  1
  Cu  Cu10  1  0.87937900  0.50702400  0.77776900  1
  Cu  Cu11  1  0.12062100  0.49297600  0.22223100  1
  Cu  Cu12  1  0.71984400  0.77691400  0.50474800  1
  Cu  Cu13  1  0.28015600  0.22308600  0.49525200  1
  Cu  Cu14  1  0.22308600  0.28015600  0.99525200  1
  Cu  Cu15  1  0.77691400  0.71984400  0.00474800  1
  C  C16  1  0.19302100  0.99732000  0.56349500  1
  C  C17  1  0.80697900  0.00268000  0.43650500  1
  C  C18  1  0.00268000  0.80697900  0.93650500  1
  C  C19  1  0.99732000  0.19302100  0.06349500  1
  C  C20  1  0.42237800  0.89567300  0.79484300  1
  C  C21  1  0.57762200  0.10432700  0.20515700  1
  C  C22  1  0.10432700  0.57762200  0.70515700  1
  C  C23  1  0.89567300  0.42237800  0.29484300  1
  C  C24  1  0.69905600  0.17983400  0.63850700  1
  C  C25  1  0.30094400  0.82016600  0.36149300  1
  C  C26  1  0.82016600  0.30094400  0.86149300  1
  C  C27  1  0.17983400  0.69905600  0.13850700  1
  C  C28  1  0.63067800  0.86995600  0.99676800  1
  C  C29  1  0.36932200  0.13004400  0.00323200  1
  C  C30  1  0.13004400  0.36932200  0.50323200  1
  C  C31  1  0.86995600  0.63067800  0.49676800  1
  C  C32  1  0.35320100  0.26874600  0.74145500  1
  C  C33  1  0.64679900  0.73125400  0.25854500  1
  C  C34  1  0.73125400  0.64679900  0.75854500  1
  C  C35  1  0.26874600  0.35320100  0.24145500  1
  C  C36  1  0.49374900  0.69787100  0.57367400  1
  C  C37  1  0.50625100  0.30212900  0.42632600  1
  C  C38  1  0.30212900  0.50625100  0.92632600  1
  C  C39  1  0.69787100  0.49374900  0.07367400  1
