# generated using pymatgen
data_Cu3Ni5C32
_symmetry_space_group_name_H-M   'P 1'
_cell_length_a   7.77616930
_cell_length_b   7.77616930
_cell_length_c   7.77140523
_cell_angle_alpha   89.99016140
_cell_angle_beta   89.99016140
_cell_angle_gamma   89.98589118
_symmetry_Int_Tables_number   1
_chemical_formula_structural   Cu3Ni5C32
_chemical_formula_sum   'Cu3 Ni5 C32'
_cell_volume   469.92758988
_cell_formula_units_Z   1
loop_
 _symmetry_equiv_pos_site_id
 _symmetry_equiv_pos_as_xyz
  1  'x, y, z'
loop_
 _atom_site_type_symbol
 _atom_site_label
 _atom_site_symmetry_multiplicity
 _atom_site_fract_x
 _atom_site_fract_y
 _atom_site_fract_z
 _atom_site_occupancy
  Ni  Ni0  1  0.25033200  0.74962500  0.74954000  1
  Ni  Ni1  1  0.74960500  0.74960500  0.74954300  1
  Ni  Ni2  1  0.25038300  0.25038300  0.74960600  1
  Ni  Ni3  1  0.74962500  0.25033200  0.74954000  1
  Ni  Ni4  1  0.25037100  0.25037100  0.25046000  1
  Cu  Cu5  1  0.25056300  0.74947100  0.25065000  1
  Cu  Cu6  1  0.74940100  0.74940100  0.25064300  1
  Cu  Cu7  1  0.74947100  0.25056300  0.25065000  1
  C  C8  1  0.50071900  0.50071900  0.49793500  1
  C  C9  1  0.99925500  0.50072000  0.00222600  1
  C  C10  1  0.50068300  0.50068300  0.00202500  1
  C  C11  1  0.99934600  0.50069800  0.49788100  1
  C  C12  1  0.99929300  0.99929300  0.00215200  1
  C  C13  1  0.50072000  0.99925500  0.00222600  1
  C  C14  1  0.99927100  0.99927100  0.49779800  1
  C  C15  1  0.50069800  0.99934600  0.49788100  1
  C  C16  1  0.99936800  0.74935100  0.00586900  1
  C  C17  1  0.50061500  0.75120000  0.00590700  1
  C  C18  1  0.99935100  0.75117300  0.49409500  1
  C  C19  1  0.50062700  0.74795400  0.49384200  1
  C  C20  1  0.99728300  0.25067700  0.00389900  1
  C  C21  1  0.50275300  0.24878100  0.00393300  1
  C  C22  1  0.99724700  0.24879200  0.49612200  1
  C  C23  1  0.50287800  0.25209600  0.49597000  1
  C  C24  1  0.99943200  0.50054100  0.75122900  1
  C  C25  1  0.50055800  0.50055800  0.74789400  1
  C  C26  1  0.99745100  0.50255900  0.24882700  1
  C  C27  1  0.50269600  0.50269600  0.25203600  1
  C  C28  1  0.99942800  0.99942800  0.74930600  1
  C  C29  1  0.50054100  0.99943200  0.75122900  1
  C  C30  1  0.99745400  0.99745400  0.25062400  1
  C  C31  1  0.50255900  0.99745100  0.24882700  1
  C  C32  1  0.24878100  0.50275300  0.00393300  1
  C  C33  1  0.75120000  0.50061500  0.00590700  1
  C  C34  1  0.25209600  0.50287800  0.49597000  1
  C  C35  1  0.74795400  0.50062700  0.49384200  1
  C  C36  1  0.25067700  0.99728300  0.00389900  1
  C  C37  1  0.74935100  0.99936800  0.00586900  1
  C  C38  1  0.24879200  0.99724700  0.49612200  1
  C  C39  1  0.75117300  0.99935100  0.49409500  1
