# generated using pymatgen
data_CuNiC4
_symmetry_space_group_name_H-M   'P 1'
_cell_length_a   7.97362034
_cell_length_b   7.97362034
_cell_length_c   7.97362034
_cell_angle_alpha   149.49308888
_cell_angle_beta   135.06187875
_cell_angle_gamma   55.28895705
_symmetry_Int_Tables_number   1
_chemical_formula_structural   CuNiC4
_chemical_formula_sum   'Cu1 Ni1 C4'
_cell_volume   180.61762933
_cell_formula_units_Z   1
loop_
 _symmetry_equiv_pos_site_id
 _symmetry_equiv_pos_as_xyz
  1  'x, y, z'
loop_
 _atom_site_type_symbol
 _atom_site_label
 _atom_site_symmetry_multiplicity
 _atom_site_fract_x
 _atom_site_fract_y
 _atom_site_fract_z
 _atom_site_occupancy
  Ni  Ni0  1  0.13850200  0.13850200  0.00000000  1
  Cu  Cu1  1  0.86289000  0.86289000  0.00000000  1
  C  C2  1  0.70487100  0.20487100  0.50000000  1
  C  C3  1  0.29663100  0.79663100  0.50000000  1
  C  C4  1  0.75081300  0.49855300  0.25226000  1
  C  C5  1  0.24629400  0.49855300  0.74774000  1
