# generated using pymatgen
data_CuNi16C7
_symmetry_space_group_name_H-M   'P 1'
_cell_length_a   7.99692200
_cell_length_b   10.55458568
_cell_length_c   10.87121361
_cell_angle_alpha   104.54294021
_cell_angle_beta   98.93865870
_cell_angle_gamma   104.75725234
_symmetry_Int_Tables_number   1
_chemical_formula_structural   CuNi16C7
_chemical_formula_sum   'Cu2 Ni32 C14'
_cell_volume   834.96542413
_cell_formula_units_Z   2
loop_
 _symmetry_equiv_pos_site_id
 _symmetry_equiv_pos_as_xyz
  1  'x, y, z'
loop_
 _atom_site_type_symbol
 _atom_site_label
 _atom_site_symmetry_multiplicity
 _atom_site_fract_x
 _atom_site_fract_y
 _atom_site_fract_z
 _atom_site_occupancy
  C  C0  1  0.37945200  0.00196800  0.66695100  1
  C  C1  1  0.62054800  0.99803200  0.33304900  1
  C  C2  1  0.65188200  0.35255500  0.03200000  1
  C  C3  1  0.34811800  0.64744500  0.96800000  1
  C  C4  1  0.18401000  0.61404000  0.35589100  1
  C  C5  1  0.81599000  0.38596000  0.64410900  1
  C  C6  1  0.35652700  0.25604000  0.32404700  1
  C  C7  1  0.64347300  0.74396000  0.67595200  1
  C  C8  1  0.22923100  0.02091400  0.01338700  1
  C  C9  1  0.77076900  0.97908600  0.98661300  1
  C  C10  1  0.09589900  0.29280500  0.00492800  1
  C  C11  1  0.90410100  0.70719500  0.99507200  1
  C  C12  1  0.09944100  0.93570700  0.28617000  1
  C  C13  1  0.90055900  0.06429300  0.71383000  1
  Ni  Ni14  1  0.21246100  0.21853700  0.12656100  1
  Ni  Ni15  1  0.78753900  0.78146300  0.87343900  1
  Ni  Ni16  1  0.83757000  0.16111000  0.06402100  1
  Ni  Ni17  1  0.16243000  0.83889000  0.93597900  1
  Ni  Ni18  1  0.71569800  0.63006200  0.04541200  1
  Ni  Ni19  1  0.28430200  0.36993800  0.95458800  1
  Ni  Ni20  1  0.13864100  0.13476000  0.34308600  1
  Ni  Ni21  1  0.86135900  0.86524000  0.65691400  1
  Ni  Ni22  1  0.10018700  0.77106400  0.67673400  1
  Ni  Ni23  1  0.89981300  0.22893600  0.32326600  1
  Ni  Ni24  1  0.56622500  0.66723400  0.29241000  1
  Ni  Ni25  1  0.43377500  0.33276600  0.70759000  1
  Ni  Ni26  1  0.32117500  0.41178200  0.38966800  1
  Ni  Ni27  1  0.67882500  0.58821800  0.61033200  1
  Ni  Ni28  1  0.40522100  0.08910900  0.94876800  1
  Ni  Ni29  1  0.59477900  0.91089100  0.05123200  1
  Ni  Ni30  1  0.08243300  0.75780000  0.15768800  1
  Ni  Ni31  1  0.91756700  0.24220000  0.84231200  1
  Ni  Ni32  1  0.32418600  0.03441800  0.18895700  1
  Ni  Ni33  1  0.67581400  0.96558200  0.81104300  1
  Ni  Ni34  1  0.05189100  0.43176200  0.10702900  1
  Ni  Ni35  1  0.94810900  0.56823800  0.89297100  1
  Ni  Ni36  1  0.30950100  0.37069600  0.66531100  1
  Ni  Ni37  1  0.69049900  0.62930400  0.33468900  1
  Ni  Ni38  1  0.73357100  0.08234100  0.59920200  1
  Ni  Ni39  1  0.26642900  0.91765900  0.40079800  1
  Ni  Ni40  1  0.50525700  0.23350600  0.44757400  1
  Ni  Ni41  1  0.49474300  0.76649400  0.55242600  1
  Ni  Ni42  1  0.03647000  0.06374100  0.90736200  1
  Ni  Ni43  1  0.96353000  0.93625900  0.09263800  1
  Ni  Ni44  1  0.09426400  0.10908300  0.66022600  1
  Ni  Ni45  1  0.90573600  0.89091700  0.33977400  1
  Cu  Cu46  1  0.55348200  0.31953900  0.24218800  1
  Cu  Cu47  1  0.44651800  0.68046100  0.75781200  1
