# generated using pymatgen
data_Cu(NiC)4
_symmetry_space_group_name_H-M   'P 1'
_cell_length_a   5.37297791
_cell_length_b   5.40002124
_cell_length_c   8.62026693
_cell_angle_alpha   67.96267729
_cell_angle_beta   80.32000316
_cell_angle_gamma   69.85693797
_symmetry_Int_Tables_number   1
_chemical_formula_structural   Cu(NiC)4
_chemical_formula_sum   'Cu2 Ni8 C8'
_cell_volume   217.43886482
_cell_formula_units_Z   2
loop_
 _symmetry_equiv_pos_site_id
 _symmetry_equiv_pos_as_xyz
  1  'x, y, z'
loop_
 _atom_site_type_symbol
 _atom_site_label
 _atom_site_symmetry_multiplicity
 _atom_site_fract_x
 _atom_site_fract_y
 _atom_site_fract_z
 _atom_site_occupancy
  Ni  Ni0  1  0.73622500  0.62075500  0.22021900  1
  Ni  Ni1  1  0.26377500  0.37924500  0.77978100  1
  Ni  Ni2  1  0.73340700  0.26350900  0.00119400  1
  Ni  Ni3  1  0.26659300  0.73649100  0.99880600  1
  Ni  Ni4  1  0.73801700  0.46588800  0.58489600  1
  Ni  Ni5  1  0.26198300  0.53411200  0.41510400  1
  Ni  Ni6  1  0.25183800  0.94275900  0.58483800  1
  Ni  Ni7  1  0.74816200  0.05724100  0.41516200  1
  Cu  Cu8  1  0.74671100  0.84301900  0.79314400  1
  Cu  Cu9  1  0.25328900  0.15698100  0.20685600  1
  C  C10  1  0.98012400  0.68879200  0.60798500  1
  C  C11  1  0.01987600  0.31120800  0.39201500  1
  C  C12  1  0.84584900  0.85317700  0.98349300  1
  C  C13  1  0.15415100  0.14682300  0.01650700  1
  C  C14  1  0.50663400  0.60727900  0.79437300  1
  C  C15  1  0.49336600  0.39272000  0.20562700  1
  C  C16  1  0.50253000  0.82419100  0.38348800  1
  C  C17  1  0.49747000  0.17580900  0.61651200  1
