# generated using pymatgen
data_Cu2NiC2
_symmetry_space_group_name_H-M   'P 1'
_cell_length_a   6.77694610
_cell_length_b   6.77694610
_cell_length_c   5.56832800
_cell_angle_alpha   90.00000000
_cell_angle_beta   90.00000000
_cell_angle_gamma   131.45295563
_symmetry_Int_Tables_number   1
_chemical_formula_structural   Cu2NiC2
_chemical_formula_sum   'Cu4 Ni2 C4'
_cell_volume   191.67445545
_cell_formula_units_Z   2
loop_
 _symmetry_equiv_pos_site_id
 _symmetry_equiv_pos_as_xyz
  1  'x, y, z'
loop_
 _atom_site_type_symbol
 _atom_site_label
 _atom_site_symmetry_multiplicity
 _atom_site_fract_x
 _atom_site_fract_y
 _atom_site_fract_z
 _atom_site_occupancy
  C  C0  1  0.34979100  0.65020900  0.50000000  1
  C  C1  1  0.84279800  0.15720200  0.00000000  1
  C  C2  1  0.15783200  0.84216800  0.00000000  1
  C  C3  1  0.65723800  0.34276200  0.50000000  1
  Ni  Ni4  1  0.49765700  0.50234300  0.00000000  1
  Ni  Ni5  1  0.00235900  0.99764100  0.50000000  1
  Cu  Cu6  1  0.50502900  0.00886600  0.75650700  1
  Cu  Cu7  1  0.99113500  0.49497100  0.24349300  1
  Cu  Cu8  1  0.99113500  0.49497100  0.75650700  1
  Cu  Cu9  1  0.50502900  0.00886600  0.24349300  1
