# generated using pymatgen
data_Cu7NiC28
_symmetry_space_group_name_H-M   'P 1'
_cell_length_a   11.01918154
_cell_length_b   11.07944988
_cell_length_c   17.98106335
_cell_angle_alpha   108.25479584
_cell_angle_beta   107.98706479
_cell_angle_gamma   89.23116183
_symmetry_Int_Tables_number   1
_chemical_formula_structural   Cu7NiC28
_chemical_formula_sum   'Cu28 Ni4 C112'
_cell_volume   1974.42161516
_cell_formula_units_Z   4
loop_
 _symmetry_equiv_pos_site_id
 _symmetry_equiv_pos_as_xyz
  1  'x, y, z'
loop_
 _atom_site_type_symbol
 _atom_site_label
 _atom_site_symmetry_multiplicity
 _atom_site_fract_x
 _atom_site_fract_y
 _atom_site_fract_z
 _atom_site_occupancy
  Ni  Ni0  1  0.30930670  0.06337694  0.11871478  1
  Ni  Ni1  1  0.31099236  0.56105363  0.11731106  1
  Ni  Ni2  1  0.80937939  0.05823952  0.11907188  1
  Ni  Ni3  1  0.05549943  0.80476295  0.11487715  1
  Cu  Cu4  1  0.30838295  0.06099208  0.61438163  1
  Cu  Cu5  1  0.30991986  0.55873661  0.61386219  1
  Cu  Cu6  1  0.80629678  0.06209156  0.61319572  1
  Cu  Cu7  1  0.80562900  0.55883216  0.11161467  1
  Cu  Cu8  1  0.80738461  0.55757379  0.61369657  1
  Cu  Cu9  1  0.19840236  0.44169127  0.39136908  1
  Cu  Cu10  1  0.19292120  0.44016228  0.88392236  1
  Cu  Cu11  1  0.19630037  0.93881909  0.39199036  1
  Cu  Cu12  1  0.19523484  0.94165320  0.88468393  1
  Cu  Cu13  1  0.69188022  0.43958952  0.38744314  1
  Cu  Cu14  1  0.69195509  0.43804519  0.88371875  1
  Cu  Cu15  1  0.69417205  0.94314023  0.38637968  1
  Cu  Cu16  1  0.69087264  0.93941231  0.88524532  1
  Cu  Cu17  1  0.05663373  0.30136664  0.10840588  1
  Cu  Cu18  1  0.05603098  0.30272236  0.61381942  1
  Cu  Cu19  1  0.05684661  0.80536443  0.61436515  1
  Cu  Cu20  1  0.55445624  0.30337020  0.11158168  1
  Cu  Cu21  1  0.55974612  0.30479444  0.61367611  1
  Cu  Cu22  1  0.55937967  0.80393567  0.11267503  1
  Cu  Cu23  1  0.55780148  0.80570018  0.61440465  1
  Cu  Cu24  1  0.44480589  0.20242661  0.39148750  1
  Cu  Cu25  1  0.44425654  0.19264121  0.88410051  1
  Cu  Cu26  1  0.44596054  0.69851632  0.39040785  1
  Cu  Cu27  1  0.44207888  0.69699679  0.88388734  1
  Cu  Cu28  1  0.94634096  0.19647984  0.39027205  1
  Cu  Cu29  1  0.94374965  0.19333933  0.88349668  1
  Cu  Cu30  1  0.94488291  0.70159192  0.39061820  1
  Cu  Cu31  1  0.94161991  0.69432256  0.88315014  1
  C  C32  1  0.99104469  0.99196861  0.98200069  1
  C  C33  1  0.00384818  0.00355700  0.50288295  1
  C  C34  1  0.99327372  0.49305180  0.98637669  1
  C  C35  1  0.00701574  0.50375580  0.50835995  1
  C  C36  1  0.49686895  0.99782102  0.99340595  1
  C  C37  1  0.50202547  0.00257473  0.50175818  1
  C  C38  1  0.49588129  0.49406912  0.98727192  1
  C  C39  1  0.50052279  0.50088323  0.50296186  1
  C  C40  1  0.24363575  0.24492451  0.99061374  1
  C  C41  1  0.25675216  0.25636779  0.51096873  1
  C  C42  1  0.24643687  0.74821046  0.98997118  1
  C  C43  1  0.25631014  0.75536688  0.51044980  1
  C  C44  1  0.74846523  0.24572038  0.99060300  1
  C  C45  1  0.75175822  0.25147536  0.50093951  1
  C  C46  1  0.74531688  0.74567752  0.98968887  1
  C  C47  1  0.75582864  0.75479248  0.50772597  1
  C  C48  1  0.11844531  0.09498121  0.25747947  1
  C  C49  1  0.10752529  0.58665059  0.25089284  1
  C  C50  1  0.62195037  0.59510798  0.25325712  1
  C  C51  1  0.86321340  0.40657834  0.25044348  1
  C  C52  1  0.11359816  0.09848284  0.74860008  1
  C  C53  1  0.11473413  0.59870334  0.74843274  1
  C  C54  1  0.61807886  0.10367571  0.25336171  1
  C  C55  1  0.61517048  0.09824357  0.74906810  1
  C  C56  1  0.61281211  0.59865739  0.74872597  1
  C  C57  1  0.35734896  0.40751199  0.25347342  1
  C  C58  1  0.36353491  0.40068540  0.74926754  1
  C  C59  1  0.37148293  0.90315087  0.25566247  1
  C  C60  1  0.36295145  0.89998920  0.74872802  1
  C  C61  1  0.86244316  0.39994530  0.74877856  1
  C  C62  1  0.86206962  0.88772695  0.25340723  1
  C  C63  1  0.86242798  0.90010129  0.74732446  1
  C  C64  1  0.12844140  0.12814459  0.49566128  1
  C  C65  1  0.11563997  0.11853457  0.99022961  1
  C  C66  1  0.13326010  0.63222854  0.49600033  1
  C  C67  1  0.11045928  0.61293840  0.98917905  1
  C  C68  1  0.63159170  0.13422822  0.49681218  1
  C  C69  1  0.61392736  0.11460425  0.99320527  1
  C  C70  1  0.63354448  0.63403054  0.49585843  1
  C  C71  1  0.61289840  0.61264782  0.99188975  1
  C  C72  1  0.13189785  0.36716723  0.99697360  1
  C  C73  1  0.12374067  0.38385916  0.50667470  1
  C  C74  1  0.12947714  0.86762269  0.99669609  1
  C  C75  1  0.12106126  0.88378767  0.50647759  1
  C  C76  1  0.63620535  0.36809109  0.00321574  1
  C  C77  1  0.62297866  0.38714189  0.50491870  1
  C  C78  1  0.62860282  0.86290689  0.99903310  1
  C  C79  1  0.62184263  0.88629350  0.50664654  1
  C  C80  1  0.38016133  0.11769284  0.49728816  1
  C  C81  1  0.36665598  0.13272176  0.99327151  1
  C  C82  1  0.38405583  0.61929082  0.49803083  1
  C  C83  1  0.36494388  0.63044803  0.99166000  1
  C  C84  1  0.88011134  0.11436338  0.49779528  1
  C  C85  1  0.86648368  0.12718714  0.99140375  1
  C  C86  1  0.88192193  0.61259828  0.49474198  1
  C  C87  1  0.85997369  0.62457200  0.99112970  1
  C  C88  1  0.38705596  0.38482475  0.99924827  1
  C  C89  1  0.37760222  0.37710474  0.50927440  1
  C  C90  1  0.38347098  0.88431576  0.99867757  1
  C  C91  1  0.37031981  0.87208264  0.50707794  1
  C  C92  1  0.88514255  0.38400366  0.00078387  1
  C  C93  1  0.87258267  0.36990125  0.50583266  1
  C  C94  1  0.87719598  0.87825765  0.99676825  1
  C  C95  1  0.87131823  0.87157509  0.50792028  1
  C  C96  1  0.08483675  0.10724323  0.15642560  1
  C  C97  1  0.07629229  0.08520510  0.63764381  1
  C  C98  1  0.07438309  0.58281761  0.14504934  1
  C  C99  1  0.07495956  0.58505594  0.63512067  1
  C  C100  1  0.57190106  0.08802391  0.14097787  1
  C  C101  1  0.57530146  0.08673549  0.63687530  1
  C  C102  1  0.58756550  0.59763795  0.14909860  1
  C  C103  1  0.57587397  0.58630668  0.63778293  1
  C  C104  1  0.43577902  0.41849976  0.36496745  1
  C  C105  1  0.43940634  0.41164523  0.86074833  1
  C  C106  1  0.43949243  0.91484443  0.36740913  1
  C  C107  1  0.43733484  0.91595404  0.86091459  1
  C  C108  1  0.93917517  0.40202169  0.35414303  1
  C  C109  1  0.93585771  0.41229271  0.86052175  1
  C  C110  1  0.93771935  0.91397978  0.36578309  1
  C  C111  1  0.93620601  0.91346701  0.85821736  1
  C  C112  1  0.32629447  0.31961253  0.14038533  1
  C  C113  1  0.32370956  0.30223299  0.63811788  1
  C  C114  1  0.33199887  0.81649562  0.14214255  1
  C  C115  1  0.32485930  0.80030066  0.63660636  1
  C  C116  1  0.83337135  0.31222821  0.14278264  1
  C  C117  1  0.82376422  0.30372140  0.63731463  1
  C  C118  1  0.81867460  0.80126243  0.14076261  1
  C  C119  1  0.82465513  0.79866157  0.63598175  1
  C  C120  1  0.19636234  0.20822023  0.35669366  1
  C  C121  1  0.18929407  0.19650751  0.86026656  1
  C  C122  1  0.19066166  0.69735766  0.35271151  1
  C  C123  1  0.18885824  0.69869109  0.86114067  1
  C  C124  1  0.69427597  0.19864570  0.36522240  1
  C  C125  1  0.68848390  0.19754024  0.86301038  1
  C  C126  1  0.69559902  0.70388196  0.35680126  1
  C  C127  1  0.68581978  0.69547217  0.86059051  1
  C  C128  1  0.46457178  0.05224848  0.26270351  1
  C  C129  1  0.45053489  0.04993634  0.74835994  1
  C  C130  1  0.46349066  0.54876663  0.26034151  1
  C  C131  1  0.44976839  0.55198690  0.74890536  1
  C  C132  1  0.96630043  0.04628338  0.26051120  1
  C  C133  1  0.94979218  0.05180248  0.74755379  1
  C  C134  1  0.93480822  0.56653945  0.25304491  1
  C  C135  1  0.95058570  0.55074635  0.74886053  1
  C  C136  1  0.17885340  0.42812204  0.25063211  1
  C  C137  1  0.19889556  0.44494156  0.74834499  1
  C  C138  1  0.20537661  0.95443588  0.25912310  1
  C  C139  1  0.19606232  0.93916777  0.74882477  1
  C  C140  1  0.69004047  0.43302396  0.25037943  1
  C  C141  1  0.69677892  0.44091310  0.74919650  1
  C  C142  1  0.70181497  0.94679379  0.24969567  1
  C  C143  1  0.69910156  0.94441304  0.75022803  1
