# generated using pymatgen
data_CuNiC10
_symmetry_space_group_name_H-M   'P 1'
_cell_length_a   5.61875463
_cell_length_b   11.08236283
_cell_length_c   5.61779014
_cell_angle_alpha   75.31229590
_cell_angle_beta   89.99828380
_cell_angle_gamma   90.00249321
_symmetry_Int_Tables_number   1
_chemical_formula_structural   CuNiC10
_chemical_formula_sum   'Cu2 Ni2 C20'
_cell_volume   338.38343315
_cell_formula_units_Z   2
loop_
 _symmetry_equiv_pos_site_id
 _symmetry_equiv_pos_as_xyz
  1  'x, y, z'
loop_
 _atom_site_type_symbol
 _atom_site_label
 _atom_site_symmetry_multiplicity
 _atom_site_fract_x
 _atom_site_fract_y
 _atom_site_fract_z
 _atom_site_occupancy
  C  C0  1  0.99999200  0.38351900  0.30829900  1
  C  C1  1  0.49998000  0.38354600  0.80831800  1
  C  C2  1  0.50000100  0.63451800  0.18267700  1
  C  C3  1  0.99996600  0.63448400  0.68266600  1
  C  C4  1  0.49999600  0.96189800  0.01907100  1
  C  C5  1  0.99999800  0.96216300  0.51890600  1
  Ni  Ni6  1  0.49996800  0.19501700  0.40250700  1
  Ni  Ni7  1  0.99998500  0.19501200  0.90251900  1
  Cu  Cu8  1  0.00000400  0.78855100  0.10569200  1
  Cu  Cu9  1  0.49997900  0.78859200  0.60570300  1
  C  C10  1  0.50002300  0.01594600  0.49189700  1
  C  C11  1  0.99998500  0.01592700  0.99194400  1
  C  C12  1  0.00003400  0.60302300  0.19863100  1
  C  C13  1  0.50002500  0.60306400  0.69862900  1
  C  C14  1  0.50002200  0.39113100  0.30422500  1
  C  C15  1  0.00001400  0.39111200  0.80423700  1
  C  C16  1  0.76328100  0.80787000  0.85969900  1
  C  C17  1  0.23672600  0.80787200  0.33248600  1
  C  C18  1  0.73650100  0.80777900  0.35952700  1
  C  C19  1  0.26352400  0.80779900  0.83269600  1
  C  C20  1  0.74978400  0.20530400  0.64745800  1
  C  C21  1  0.25010900  0.20530400  0.14736100  1
  C  C22  1  0.75027100  0.20529800  0.14751500  1
  C  C23  1  0.24983100  0.20526800  0.64733600  1
