# generated using pymatgen
data_CuNi4C21
_symmetry_space_group_name_H-M   'P 1'
_cell_length_a   3.86232300
_cell_length_b   3.93779100
_cell_length_c   23.74873700
_cell_angle_alpha   90.00000000
_cell_angle_beta   90.00000000
_cell_angle_gamma   90.00000000
_symmetry_Int_Tables_number   1
_chemical_formula_structural   CuNi4C21
_chemical_formula_sum   'Cu1 Ni4 C21'
_cell_volume   361.19503378
_cell_formula_units_Z   1
loop_
 _symmetry_equiv_pos_site_id
 _symmetry_equiv_pos_as_xyz
  1  'x, y, z'
loop_
 _atom_site_type_symbol
 _atom_site_label
 _atom_site_symmetry_multiplicity
 _atom_site_fract_x
 _atom_site_fract_y
 _atom_site_fract_z
 _atom_site_occupancy
  Ni  Ni0  1  0.50000000  0.50000000  0.83949200  1
  Ni  Ni1  1  0.50000000  0.50000000  0.34076600  1
  Ni  Ni2  1  0.50000000  0.50000000  0.16050800  1
  Ni  Ni3  1  0.50000000  0.50000000  0.65923400  1
  C  C4  1  0.50000000  0.50000000  0.00000000  1
  Cu  Cu5  1  0.50000000  0.50000000  0.50000000  1
  C  C6  1  0.00000000  0.00000000  0.92296300  1
  C  C7  1  0.00000000  0.00000000  0.42766900  1
  C  C8  1  0.00000000  0.00000000  0.07703700  1
  C  C9  1  0.00000000  0.00000000  0.57233100  1
  C  C10  1  0.00000000  0.00000000  0.74958400  1
  C  C11  1  0.00000000  0.00000000  0.25041600  1
  C  C12  1  0.00000000  0.00000000  0.82859100  1
  C  C13  1  0.00000000  0.00000000  0.32970600  1
  C  C14  1  0.00000000  0.00000000  0.17140900  1
  C  C15  1  0.00000000  0.00000000  0.67029400  1
  C  C16  1  0.00000000  0.50000000  0.74926000  1
  C  C17  1  0.00000000  0.50000000  0.25074000  1
  C  C18  1  0.00000000  0.50000000  0.93457800  1
  C  C19  1  0.00000000  0.50000000  0.44085400  1
  C  C20  1  0.00000000  0.50000000  0.06542200  1
  C  C21  1  0.00000000  0.50000000  0.55914600  1
  C  C22  1  0.50000000  0.00000000  0.93544200  1
  C  C23  1  0.50000000  0.00000000  0.44161900  1
  C  C24  1  0.50000000  0.00000000  0.06455800  1
  C  C25  1  0.50000000  0.00000000  0.55838100  1
