# generated using pymatgen
data_Cu2Ni3C8
_symmetry_space_group_name_H-M   'P 1'
_cell_length_a   9.69530700
_cell_length_b   5.83946700
_cell_length_c   10.33905522
_cell_angle_alpha   87.03601619
_cell_angle_beta   90.00000000
_cell_angle_gamma   90.00000000
_symmetry_Int_Tables_number   1
_chemical_formula_structural   Cu2Ni3C8
_chemical_formula_sum   'Cu8 Ni12 C32'
_cell_volume   584.56694789
_cell_formula_units_Z   4
loop_
 _symmetry_equiv_pos_site_id
 _symmetry_equiv_pos_as_xyz
  1  'x, y, z'
loop_
 _atom_site_type_symbol
 _atom_site_label
 _atom_site_symmetry_multiplicity
 _atom_site_fract_x
 _atom_site_fract_y
 _atom_site_fract_z
 _atom_site_occupancy
  Ni  Ni0  1  0.86464100  0.61503600  0.03463600  1
  Ni  Ni1  1  0.36464100  0.38496400  0.46536400  1
  Ni  Ni2  1  0.13535900  0.38496400  0.96536400  1
  Ni  Ni3  1  0.63535900  0.61503600  0.53463600  1
  Ni  Ni4  1  0.86343600  0.85797500  0.28423200  1
  Ni  Ni5  1  0.36343600  0.14202500  0.21576800  1
  Ni  Ni6  1  0.13656400  0.14202500  0.71576800  1
  Ni  Ni7  1  0.63656400  0.85797500  0.78423200  1
  Ni  Ni8  1  0.62340300  0.13703900  0.05821400  1
  Ni  Ni9  1  0.12340300  0.86296100  0.44178600  1
  Ni  Ni10  1  0.87659700  0.13703900  0.55821400  1
  Ni  Ni11  1  0.37659700  0.86296100  0.94178600  1
  Cu  Cu12  1  0.84458700  0.13184400  0.88192300  1
  Cu  Cu13  1  0.34458700  0.86815600  0.61807700  1
  Cu  Cu14  1  0.15541300  0.86815600  0.11807700  1
  Cu  Cu15  1  0.65541300  0.13184400  0.38192300  1
  Cu  Cu16  1  0.94302000  0.62409400  0.70492200  1
  Cu  Cu17  1  0.44302000  0.37590600  0.79507800  1
  Cu  Cu18  1  0.05698000  0.37590600  0.29507800  1
  Cu  Cu19  1  0.55698000  0.62409400  0.20492200  1
  C  C20  1  0.00807300  0.38326500  0.13449600  1
  C  C21  1  0.50807300  0.61673500  0.36550400  1
  C  C22  1  0.99192700  0.61673500  0.86550400  1
  C  C23  1  0.49192700  0.38326500  0.63449600  1
  C  C24  1  0.49598400  0.38339000  0.13227200  1
  C  C25  1  0.99598400  0.61661000  0.36772800  1
  C  C26  1  0.50401600  0.61661000  0.86772800  1
  C  C27  1  0.00401600  0.38339000  0.63227200  1
  C  C28  1  0.73478300  0.63045200  0.19488100  1
  C  C29  1  0.23478300  0.36954800  0.30511900  1
  C  C30  1  0.26521700  0.36954800  0.80511900  1
  C  C31  1  0.76521700  0.63045200  0.69488100  1
  C  C32  1  0.98876200  0.12693500  0.37769000  1
  C  C33  1  0.48876200  0.87306500  0.12231000  1
  C  C34  1  0.01123800  0.87306500  0.62231000  1
  C  C35  1  0.51123800  0.12693500  0.87769000  1
  C  C36  1  0.52121700  0.86907200  0.61804300  1
  C  C37  1  0.02121700  0.13092800  0.88195700  1
  C  C38  1  0.47878300  0.13092800  0.38195700  1
  C  C39  1  0.97878300  0.86907200  0.11804300  1
  C  C40  1  0.77521400  0.11295800  0.72927900  1
  C  C41  1  0.27521400  0.88704200  0.77072100  1
  C  C42  1  0.22478600  0.88704200  0.27072100  1
  C  C43  1  0.72478600  0.11295800  0.22927900  1
  C  C44  1  0.75424500  0.89450700  0.95382300  1
  C  C45  1  0.25424500  0.10549300  0.54617700  1
  C  C46  1  0.73225700  0.34274600  0.46709200  1
  C  C47  1  0.74575500  0.89450700  0.45382300  1
  C  C48  1  0.76774300  0.34274600  0.96709200  1
  C  C49  1  0.26774300  0.65725400  0.53290800  1
  C  C50  1  0.23225700  0.65725400  0.03290800  1
  C  C51  1  0.24575500  0.10549300  0.04617700  1
