# generated using pymatgen
data_Cu9Ni2C11
_symmetry_space_group_name_H-M   'P 1'
_cell_length_a   6.44583584
_cell_length_b   14.72362573
_cell_length_c   19.05499378
_cell_angle_alpha   90.00000000
_cell_angle_beta   90.00000000
_cell_angle_gamma   90.00000000
_symmetry_Int_Tables_number   1
_chemical_formula_structural   Cu9Ni2C11
_chemical_formula_sum   'Cu72 Ni16 C88'
_cell_volume   1808.43465786
_cell_formula_units_Z   8
loop_
 _symmetry_equiv_pos_site_id
 _symmetry_equiv_pos_as_xyz
  1  'x, y, z'
loop_
 _atom_site_type_symbol
 _atom_site_label
 _atom_site_symmetry_multiplicity
 _atom_site_fract_x
 _atom_site_fract_y
 _atom_site_fract_z
 _atom_site_occupancy
  C  C0  1  0.70427948  0.25000000  0.74816015  1
  C  C1  1  0.20427948  0.25000000  0.75183985  1
  C  C2  1  0.29572052  0.75000000  0.25183985  1
  C  C3  1  0.79572052  0.75000000  0.24816015  1
  C  C4  1  0.67104584  0.25000000  0.33679595  1
  C  C5  1  0.17104584  0.25000000  0.16320405  1
  C  C6  1  0.32895416  0.75000000  0.66320405  1
  C  C7  1  0.82895416  0.75000000  0.83679595  1
  C  C8  1  0.49958021  0.25000000  0.02784099  1
  C  C9  1  -0.00041979  0.25000000  0.47215901  1
  C  C10  1  0.50041979  0.75000000  0.97215901  1
  C  C11  1  0.00041979  0.75000000  0.52784099  1
  Ni  Ni12  1  0.54887394  0.06076904  0.10709812  1
  Ni  Ni13  1  0.04887394  0.43923096  0.39290188  1
  Ni  Ni14  1  0.45112606  0.56076904  0.89290188  1
  Ni  Ni15  1  0.95112606  0.93923096  0.60709812  1
  Ni  Ni16  1  0.45112606  0.93923096  0.89290188  1
  Ni  Ni17  1  0.95112606  0.56076904  0.60709812  1
  Ni  Ni18  1  0.54887394  0.43923096  0.10709812  1
  Ni  Ni19  1  0.04887394  0.06076904  0.39290188  1
  Ni  Ni20  1  0.72482798  0.08124658  0.96167206  1
  Ni  Ni21  1  0.22482798  0.41875342  0.53832794  1
  Ni  Ni22  1  0.27517202  0.58124658  0.03832794  1
  Ni  Ni23  1  0.77517202  0.91875342  0.46167206  1
  Ni  Ni24  1  0.27517202  0.91875342  0.03832794  1
  Ni  Ni25  1  0.77517202  0.58124658  0.46167206  1
  Ni  Ni26  1  0.72482798  0.41875342  0.96167206  1
  Ni  Ni27  1  0.22482798  0.08124658  0.53832794  1
  Cu  Cu28  1  0.81722361  0.51566383  0.05230527  1
  Cu  Cu29  1  0.31722361  0.98433617  0.44769473  1
  Cu  Cu30  1  0.18277639  0.01566383  0.94769473  1
  Cu  Cu31  1  0.68277639  0.48433617  0.55230527  1
  Cu  Cu32  1  0.18277639  0.48433617  0.94769473  1
  Cu  Cu33  1  0.68277639  0.01566383  0.55230527  1
  Cu  Cu34  1  0.81722361  0.98433617  0.05230527  1
  Cu  Cu35  1  0.31722361  0.51566383  0.44769473  1
  Cu  Cu36  1  0.71304671  0.02177382  0.37098429  1
  Cu  Cu37  1  0.21304671  0.47822618  0.12901571  1
  Cu  Cu38  1  0.28695329  0.52177382  0.62901571  1
  Cu  Cu39  1  0.78695329  0.97822618  0.87098429  1
  Cu  Cu40  1  0.28695329  0.97822618  0.62901571  1
  Cu  Cu41  1  0.78695329  0.52177382  0.87098429  1
  Cu  Cu42  1  0.71304671  0.47822618  0.37098429  1
  Cu  Cu43  1  0.21304671  0.02177382  0.12901571  1
  Cu  Cu44  1  0.57898661  0.58653624  0.19360240  1
  Cu  Cu45  1  0.07898661  0.91346376  0.30639760  1
  Cu  Cu46  1  0.42101339  0.08653624  0.80639760  1
  Cu  Cu47  1  0.92101339  0.41346376  0.69360240  1
  Cu  Cu48  1  0.42101339  0.41346376  0.80639760  1
  Cu  Cu49  1  0.92101339  0.08653624  0.69360240  1
  Cu  Cu50  1  0.57898661  0.91346376  0.19360240  1
  Cu  Cu51  1  0.07898661  0.58653624  0.30639760  1
  Cu  Cu52  1  0.52409905  0.66328175  0.14169445  1
  Cu  Cu53  1  0.02409905  0.83671825  0.35830555  1
  Cu  Cu54  1  0.47590095  0.16328175  0.85830555  1
  Cu  Cu55  1  0.97590095  0.33671825  0.64169445  1
  Cu  Cu56  1  0.47590095  0.33671825  0.85830555  1
  Cu  Cu57  1  0.97590095  0.16328175  0.64169445  1
  Cu  Cu58  1  0.52409905  0.83671825  0.14169445  1
  Cu  Cu59  1  0.02409905  0.66328175  0.35830555  1
  Cu  Cu60  1  0.54487444  0.69710448  0.37620379  1
  Cu  Cu61  1  0.04487444  0.80289552  0.12379621  1
  Cu  Cu62  1  0.45512556  0.19710448  0.62379621  1
  Cu  Cu63  1  0.95512556  0.30289552  0.87620379  1
  Cu  Cu64  1  0.45512556  0.30289552  0.62379621  1
  Cu  Cu65  1  0.95512556  0.19710448  0.87620379  1
  Cu  Cu66  1  0.54487444  0.80289552  0.37620379  1
  Cu  Cu67  1  0.04487444  0.69710448  0.12379621  1
  Cu  Cu68  1  0.57580189  0.19689813  0.49499635  1
  Cu  Cu69  1  0.07580189  0.30310187  0.00500365  1
  Cu  Cu70  1  0.42419811  0.69689813  0.50500365  1
  Cu  Cu71  1  0.92419811  0.80310187  0.99499635  1
  Cu  Cu72  1  0.42419811  0.80310187  0.50500365  1
  Cu  Cu73  1  0.92419811  0.69689813  0.99499635  1
  Cu  Cu74  1  0.57580189  0.30310187  0.49499635  1
  Cu  Cu75  1  0.07580189  0.19689813  0.00500365  1
  Cu  Cu76  1  0.59306509  0.06687119  0.26155413  1
  Cu  Cu77  1  0.09306509  0.43312881  0.23844587  1
  Cu  Cu78  1  0.40693491  0.56687119  0.73844587  1
  Cu  Cu79  1  0.90693491  0.93312881  0.76155413  1
  Cu  Cu80  1  0.40693491  0.93312881  0.73844587  1
  Cu  Cu81  1  0.90693491  0.56687119  0.76155413  1
  Cu  Cu82  1  0.59306509  0.43312881  0.26155413  1
  Cu  Cu83  1  0.09306509  0.06687119  0.23844587  1
  Cu  Cu84  1  0.91734130  0.06493406  0.18207157  1
  Cu  Cu85  1  0.41734130  0.43506594  0.31792843  1
  Cu  Cu86  1  0.08265870  0.56493406  0.81792843  1
  Cu  Cu87  1  0.58265870  0.93506594  0.68207157  1
  Cu  Cu88  1  0.08265870  0.93506594  0.81792843  1
  Cu  Cu89  1  0.58265870  0.56493406  0.68207157  1
  Cu  Cu90  1  0.91734130  0.43506594  0.18207157  1
  Cu  Cu91  1  0.41734130  0.06493406  0.31792843  1
  Cu  Cu92  1  0.71882647  0.19854434  0.18967772  1
  Cu  Cu93  1  0.21882647  0.30145566  0.31032228  1
  Cu  Cu94  1  0.28117353  0.69854434  0.81032228  1
  Cu  Cu95  1  0.78117353  0.80145566  0.68967772  1
  Cu  Cu96  1  0.28117353  0.80145566  0.81032228  1
  Cu  Cu97  1  0.78117353  0.69854434  0.68967772  1
  Cu  Cu98  1  0.71882647  0.30145566  0.18967772  1
  Cu  Cu99  1  0.21882647  0.19854434  0.31032228  1
  C  C100  1  0.71152643  0.03540807  0.04248445  1
  C  C101  1  0.21152643  0.46459193  0.45751555  1
  C  C102  1  0.28847357  0.53540807  0.95751555  1
  C  C103  1  0.78847357  0.96459193  0.54248445  1
  C  C104  1  0.28847357  0.96459193  0.95751555  1
  C  C105  1  0.78847357  0.53540807  0.54248445  1
  C  C106  1  0.71152643  0.46459193  0.04248445  1
  C  C107  1  0.21152643  0.03540807  0.45751555  1
  C  C108  1  0.83137039  0.00116766  0.40514393  1
  C  C109  1  0.33137039  0.49883234  0.09485607  1
  C  C110  1  0.16862961  0.50116766  0.59485607  1
  C  C111  1  0.66862961  0.99883234  0.90514393  1
  C  C112  1  0.16862961  0.99883234  0.59485607  1
  C  C113  1  0.66862961  0.50116766  0.90514393  1
  C  C114  1  0.83137039  0.49883234  0.40514393  1
  C  C115  1  0.33137039  0.00116766  0.09485607  1
  C  C116  1  0.65151953  0.03259974  0.17581629  1
  C  C117  1  0.15151953  0.46740026  0.32418371  1
  C  C118  1  0.34848047  0.53259974  0.82418371  1
  C  C119  1  0.84848047  0.96740026  0.67581629  1
  C  C120  1  0.34848047  0.96740026  0.82418371  1
  C  C121  1  0.84848047  0.53259974  0.67581629  1
  C  C122  1  0.65151953  0.46740026  0.17581629  1
  C  C123  1  0.15151953  0.03259974  0.32418371  1
  C  C124  1  0.99282215  0.16168508  0.39382344  1
  C  C125  1  0.49282215  0.33831492  0.10617656  1
  C  C126  1  0.00717785  0.66168508  0.60617656  1
  C  C127  1  0.50717785  0.83831492  0.89382344  1
  C  C128  1  0.00717785  0.83831492  0.60617656  1
  C  C129  1  0.50717785  0.66168508  0.89382344  1
  C  C130  1  0.99282215  0.33831492  0.39382344  1
  C  C131  1  0.49282215  0.16168508  0.10617656  1
  C  C132  1  0.55386766  0.15375634  0.95781801  1
  C  C133  1  0.05386766  0.34624366  0.54218199  1
  C  C134  1  0.44613234  0.65375634  0.04218199  1
  C  C135  1  0.94613234  0.84624366  0.45781801  1
  C  C136  1  0.44613234  0.84624366  0.04218199  1
  C  C137  1  0.94613234  0.65375634  0.45781801  1
  C  C138  1  0.55386766  0.34624366  0.95781801  1
  C  C139  1  0.05386766  0.15375634  0.54218199  1
  C  C140  1  0.55373304  0.60986469  0.44661166  1
  C  C141  1  0.05373304  0.89013531  0.05338834  1
  C  C142  1  0.44626696  0.10986469  0.55338834  1
  C  C143  1  0.94626696  0.39013531  0.94661166  1
  C  C144  1  0.44626696  0.39013531  0.55338834  1
  C  C145  1  0.94626696  0.10986469  0.94661166  1
  C  C146  1  0.55373304  0.89013531  0.44661166  1
  C  C147  1  0.05373304  0.60986469  0.05338834  1
  C  C148  1  0.54749406  0.65216056  0.19198622  1
  C  C149  1  0.04749406  0.84783944  0.30801378  1
  C  C150  1  0.45250594  0.15216056  0.80801378  1
  C  C151  1  0.95250594  0.34783944  0.69198622  1
  C  C152  1  0.45250594  0.34783944  0.80801378  1
  C  C153  1  0.95250594  0.15216056  0.69198622  1
  C  C154  1  0.54749406  0.84783944  0.19198622  1
  C  C155  1  0.04749406  0.65216056  0.30801378  1
  C  C156  1  0.95455982  0.25000000  0.84425207  1
  C  C157  1  0.45455982  0.25000000  0.65574793  1
  C  C158  1  0.04544018  0.75000000  0.15574793  1
  C  C159  1  0.54544018  0.75000000  0.34425207  1
  C  C160  1  0.63270561  0.25000000  0.46956233  1
  C  C161  1  0.13270561  0.25000000  0.03043767  1
  C  C162  1  0.36729439  0.75000000  0.53043767  1
  C  C163  1  0.86729439  0.75000000  0.96956233  1
  C  C164  1  0.56346487  0.08393535  0.31097574  1
  C  C165  1  0.06346487  0.41606465  0.18902426  1
  C  C166  1  0.43653513  0.58393535  0.68902426  1
  C  C167  1  0.93653513  0.91606465  0.81097574  1
  C  C168  1  0.43653513  0.91606465  0.68902426  1
  C  C169  1  0.93653513  0.58393535  0.81097574  1
  C  C170  1  0.56346487  0.41606465  0.31097574  1
  C  C171  1  0.06346487  0.08393535  0.18902426  1
  C  C172  1  0.78887398  0.25000000  0.21194996  1
  C  C173  1  0.28887398  0.25000000  0.28805004  1
  C  C174  1  0.21112602  0.75000000  0.78805004  1
  C  C175  1  0.71112602  0.75000000  0.71194996  1
