# generated using pymatgen
data_Cu6Ni2C3
_symmetry_space_group_name_H-M   'P 1'
_cell_length_a   10.06769502
_cell_length_b   10.06769502
_cell_length_c   12.43697168
_cell_angle_alpha   91.39791596
_cell_angle_beta   91.39791596
_cell_angle_gamma   59.47335666
_symmetry_Int_Tables_number   1
_chemical_formula_structural   Cu6Ni2C3
_chemical_formula_sum   'Cu24 Ni8 C12'
_cell_volume   1085.43704007
_cell_formula_units_Z   4
loop_
 _symmetry_equiv_pos_site_id
 _symmetry_equiv_pos_as_xyz
  1  'x, y, z'
loop_
 _atom_site_type_symbol
 _atom_site_label
 _atom_site_symmetry_multiplicity
 _atom_site_fract_x
 _atom_site_fract_y
 _atom_site_fract_z
 _atom_site_occupancy
  C  C0  1  0.48561600  0.10773000  0.87323500  1
  C  C1  1  0.51438400  0.89227000  0.12676500  1
  C  C2  1  0.89227000  0.51438400  0.62676500  1
  C  C3  1  0.10773000  0.48561600  0.37323500  1
  C  C4  1  0.60250900  0.81192400  0.92274000  1
  C  C5  1  0.39749100  0.18807600  0.07726000  1
  C  C6  1  0.18807600  0.39749100  0.57726000  1
  C  C7  1  0.81192400  0.60250900  0.42274000  1
  C  C8  1  0.31184400  0.01589900  0.96296200  1
  C  C9  1  0.68815600  0.98410100  0.03703800  1
  C  C10  1  0.98410100  0.68815600  0.53703800  1
  C  C11  1  0.01589900  0.31184400  0.46296200  1
  Ni  Ni12  1  0.41181700  0.58818300  0.75000000  1
  Ni  Ni13  1  0.58818300  0.41181700  0.25000000  1
  Ni  Ni14  1  0.66365900  0.11909900  0.49359000  1
  Ni  Ni15  1  0.33634100  0.88090100  0.50641000  1
  Ni  Ni16  1  0.88090100  0.33634100  0.00641000  1
  Ni  Ni17  1  0.11909900  0.66365900  0.99359000  1
  Ni  Ni18  1  0.81124500  0.18875500  0.75000000  1
  Ni  Ni19  1  0.18875500  0.81124500  0.25000000  1
  Cu  Cu20  1  0.40624000  0.93420500  0.77156000  1
  Cu  Cu21  1  0.59376000  0.06579500  0.22844000  1
  Cu  Cu22  1  0.06579500  0.59376000  0.72844000  1
  Cu  Cu23  1  0.93420500  0.40624000  0.27156000  1
  Cu  Cu24  1  0.45509000  0.26785200  0.69095400  1
  Cu  Cu25  1  0.54491000  0.73214800  0.30904600  1
  Cu  Cu26  1  0.73214800  0.54491000  0.80904600  1
  Cu  Cu27  1  0.26785200  0.45509000  0.19095400  1
  Cu  Cu28  1  0.76655300  0.90810300  0.84100600  1
  Cu  Cu29  1  0.23344700  0.09189700  0.15899400  1
  Cu  Cu30  1  0.09189700  0.23344700  0.65899400  1
  Cu  Cu31  1  0.90810300  0.76655300  0.34100600  1
  Cu  Cu32  1  0.57404600  0.26882000  0.98468200  1
  Cu  Cu33  1  0.42595400  0.73118000  0.01531800  1
  Cu  Cu34  1  0.73118000  0.42595400  0.51531800  1
  Cu  Cu35  1  0.26882000  0.57404600  0.48468200  1
  Cu  Cu36  1  0.69806400  0.79471400  0.57746400  1
  Cu  Cu37  1  0.30193600  0.20528600  0.42253600  1
  Cu  Cu38  1  0.20528600  0.30193600  0.92253600  1
  Cu  Cu39  1  0.79471400  0.69806400  0.07746400  1
  Cu  Cu40  1  0.05644000  0.03866300  0.89629000  1
  Cu  Cu41  1  0.94356000  0.96133700  0.10371000  1
  Cu  Cu42  1  0.96133700  0.94356000  0.60371000  1
  Cu  Cu43  1  0.03866300  0.05644000  0.39629000  1
