# generated using pymatgen
data_Cu5NiC6
_symmetry_space_group_name_H-M   'P 1'
_cell_length_a   6.88704500
_cell_length_b   8.55276200
_cell_length_c   11.20373500
_cell_angle_alpha   90.00000000
_cell_angle_beta   90.00000000
_cell_angle_gamma   90.00000000
_symmetry_Int_Tables_number   1
_chemical_formula_structural   Cu5NiC6
_chemical_formula_sum   'Cu20 Ni4 C24'
_cell_volume   659.93647947
_cell_formula_units_Z   4
loop_
 _symmetry_equiv_pos_site_id
 _symmetry_equiv_pos_as_xyz
  1  'x, y, z'
loop_
 _atom_site_type_symbol
 _atom_site_label
 _atom_site_symmetry_multiplicity
 _atom_site_fract_x
 _atom_site_fract_y
 _atom_site_fract_z
 _atom_site_occupancy
  C  C0  1  0.95929700  0.09110200  0.24622100  1
  C  C1  1  0.54070300  0.40889800  0.74622100  1
  C  C2  1  0.45929700  0.90889800  0.75377900  1
  C  C3  1  0.04070300  0.59110200  0.25377900  1
  C  C4  1  0.04070300  0.90889800  0.75377900  1
  C  C5  1  0.45929700  0.59110200  0.25377900  1
  C  C6  1  0.54070300  0.09110200  0.24622100  1
  C  C7  1  0.95929700  0.40889800  0.74622100  1
  C  C8  1  0.25000000  0.78267500  0.48174600  1
  C  C9  1  0.25000000  0.71732500  0.98174600  1
  C  C10  1  0.75000000  0.21732500  0.51825400  1
  C  C11  1  0.75000000  0.28267500  0.01825400  1
  C  C12  1  0.00000000  0.50000000  0.50000000  1
  C  C13  1  0.50000000  0.00000000  0.00000000  1
  C  C14  1  0.50000000  0.50000000  0.50000000  1
  C  C15  1  0.00000000  0.00000000  0.00000000  1
  C  C16  1  0.25000000  0.18159600  0.54034700  1
  C  C17  1  0.25000000  0.31840400  0.04034700  1
  C  C18  1  0.75000000  0.81840400  0.45965300  1
  C  C19  1  0.75000000  0.68159600  0.95965300  1
  C  C20  1  0.25000000  0.04064600  0.37386100  1
  C  C21  1  0.25000000  0.45935400  0.87386100  1
  C  C22  1  0.75000000  0.95935400  0.62613900  1
  C  C23  1  0.75000000  0.54064600  0.12613900  1
  Ni  Ni24  1  0.25000000  0.63174500  0.72472300  1
  Ni  Ni25  1  0.25000000  0.86825500  0.22472300  1
  Ni  Ni26  1  0.75000000  0.36825500  0.27527700  1
  Ni  Ni27  1  0.75000000  0.13174500  0.77527700  1
  Cu  Cu28  1  0.75000000  0.47605100  0.57631800  1
  Cu  Cu29  1  0.75000000  0.02394900  0.07631800  1
  Cu  Cu30  1  0.25000000  0.52394900  0.42368200  1
  Cu  Cu31  1  0.25000000  0.97605100  0.92368200  1
  Cu  Cu32  1  0.06482000  0.27521400  0.56840700  1
  Cu  Cu33  1  0.43518000  0.22478600  0.06840700  1
  Cu  Cu34  1  0.56482000  0.72478600  0.43159300  1
  Cu  Cu35  1  0.93518000  0.77521400  0.93159300  1
  Cu  Cu36  1  0.93518000  0.72478600  0.43159300  1
  Cu  Cu37  1  0.56482000  0.77521400  0.93159300  1
  Cu  Cu38  1  0.43518000  0.27521400  0.56840700  1
  Cu  Cu39  1  0.06482000  0.22478600  0.06840700  1
  Cu  Cu40  1  0.25000000  0.15256200  0.39406000  1
  Cu  Cu41  1  0.25000000  0.34743800  0.89406000  1
  Cu  Cu42  1  0.75000000  0.84743800  0.60594000  1
  Cu  Cu43  1  0.75000000  0.65256200  0.10594000  1
  Cu  Cu44  1  0.25000000  0.01765800  0.59680400  1
  Cu  Cu45  1  0.25000000  0.48234200  0.09680400  1
  Cu  Cu46  1  0.75000000  0.98234200  0.40319600  1
  Cu  Cu47  1  0.75000000  0.51765800  0.90319600  1
