# generated using pymatgen
data_Cu(NiC8)3
_symmetry_space_group_name_H-M   'P 1'
_cell_length_a   5.54550730
_cell_length_b   5.54550730
_cell_length_c   14.08362500
_cell_angle_alpha   90.00000000
_cell_angle_beta   90.00000000
_cell_angle_gamma   119.99999168
_symmetry_Int_Tables_number   1
_chemical_formula_structural   Cu(NiC8)3
_chemical_formula_sum   'Cu1 Ni3 C24'
_cell_volume   375.08326169
_cell_formula_units_Z   1
loop_
 _symmetry_equiv_pos_site_id
 _symmetry_equiv_pos_as_xyz
  1  'x, y, z'
loop_
 _atom_site_type_symbol
 _atom_site_label
 _atom_site_symmetry_multiplicity
 _atom_site_fract_x
 _atom_site_fract_y
 _atom_site_fract_z
 _atom_site_occupancy
  C  C0  1  0.33333300  0.66666700  0.25117700  1
  C  C1  1  0.33333300  0.66666700  0.74930900  1
  Ni  Ni2  1  0.66666700  0.33333300  0.91878300  1
  Ni  Ni3  1  0.00000000  0.00000000  0.08151700  1
  Ni  Ni4  1  0.00000000  0.00000000  0.58031200  1
  Cu  Cu5  1  0.66666700  0.33333300  0.41586900  1
  C  C6  1  0.33333300  0.66666700  0.00058400  1
  C  C7  1  0.33333300  0.66666700  0.49917400  1
  C  C8  1  0.66666700  0.33333300  0.13769800  1
  C  C9  1  0.66666700  0.33333300  0.63352000  1
  C  C10  1  0.00000000  0.00000000  0.36457000  1
  C  C11  1  0.00000000  0.00000000  0.86501200  1
  C  C12  1  0.66666700  0.33333300  0.25362400  1
  C  C13  1  0.66666700  0.33333300  0.74837800  1
  C  C14  1  0.00000000  0.00000000  0.25008100  1
  C  C15  1  0.00000000  0.00000000  0.75017600  1
  C  C16  1  0.50867100  0.49132900  0.09013100  1
  C  C17  1  0.50842700  0.49157300  0.58676400  1
  C  C18  1  0.50867100  0.01734200  0.09013100  1
  C  C19  1  0.50842700  0.01685400  0.58676400  1
  C  C20  1  0.98265800  0.49132900  0.09013100  1
  C  C21  1  0.98314600  0.49157300  0.58676400  1
  C  C22  1  0.15845900  0.84154100  0.41136300  1
  C  C23  1  0.15847200  0.84152800  0.91181100  1
  C  C24  1  0.15845900  0.31691800  0.41136300  1
  C  C25  1  0.15847200  0.31694300  0.91181100  1
  C  C26  1  0.68308200  0.84154100  0.41136300  1
  C  C27  1  0.68305700  0.84152800  0.91181100  1
