# generated using pymatgen
data_Cu2NiC16
_symmetry_space_group_name_H-M   'P 1'
_cell_length_a   10.00288996
_cell_length_b   10.00288996
_cell_length_c   5.05183300
_cell_angle_alpha   90.00000000
_cell_angle_beta   90.00000000
_cell_angle_gamma   90.14059241
_symmetry_Int_Tables_number   1
_chemical_formula_structural   Cu2NiC16
_chemical_formula_sum   'Cu4 Ni2 C32'
_cell_volume   505.47381252
_cell_formula_units_Z   2
loop_
 _symmetry_equiv_pos_site_id
 _symmetry_equiv_pos_as_xyz
  1  'x, y, z'
loop_
 _atom_site_type_symbol
 _atom_site_label
 _atom_site_symmetry_multiplicity
 _atom_site_fract_x
 _atom_site_fract_y
 _atom_site_fract_z
 _atom_site_occupancy
  Ni  Ni0  1  0.50000000  0.00000000  0.50000000  1
  Ni  Ni1  1  0.00000000  0.50000000  0.50000000  1
  Cu  Cu2  1  0.50000000  0.50000000  0.50000000  1
  Cu  Cu3  1  0.00000000  0.00000000  0.50000000  1
  Cu  Cu4  1  0.25000000  0.25000000  0.50000000  1
  Cu  Cu5  1  0.75000000  0.75000000  0.50000000  1
  C  C6  1  0.98162800  0.24937000  0.99780800  1
  C  C7  1  0.01837200  0.75063000  0.00219200  1
  C  C8  1  0.48162800  0.74937000  0.00219200  1
  C  C9  1  0.51837200  0.25063000  0.99780800  1
  C  C10  1  0.25063000  0.51837200  0.00219200  1
  C  C11  1  0.74937000  0.48162800  0.99780800  1
  C  C12  1  0.75063000  0.01837200  0.99780800  1
  C  C13  1  0.24937000  0.98162800  0.00219200  1
  C  C14  1  0.32303400  0.07397700  0.25224700  1
  C  C15  1  0.67029900  0.55822200  0.26509400  1
  C  C16  1  0.82970100  0.94177800  0.26509400  1
  C  C17  1  0.17696600  0.42602300  0.25224700  1
  C  C18  1  0.67696600  0.92602300  0.74775300  1
  C  C19  1  0.32970100  0.44177800  0.73490600  1
  C  C20  1  0.17029900  0.05822200  0.73490600  1
  C  C21  1  0.82303400  0.57397700  0.74775300  1
  C  C22  1  0.42602300  0.17696600  0.74775300  1
  C  C23  1  0.94177800  0.82970100  0.73490600  1
  C  C24  1  0.55822200  0.67029900  0.73490600  1
  C  C25  1  0.07397700  0.32303400  0.74775300  1
  C  C26  1  0.57397700  0.82303400  0.25224700  1
  C  C27  1  0.05822200  0.17029900  0.26509400  1
  C  C28  1  0.44177800  0.32970100  0.26509400  1
  C  C29  1  0.92602300  0.67696600  0.25224700  1
  C  C30  1  0.86987500  0.36987500  0.15052600  1
  C  C31  1  0.12191400  0.87808600  0.17096500  1
  C  C32  1  0.37808600  0.62191400  0.17096500  1
  C  C33  1  0.63012500  0.13012500  0.15052600  1
  C  C34  1  0.13012500  0.63012500  0.84947400  1
  C  C35  1  0.87808600  0.12191400  0.82903500  1
  C  C36  1  0.62191400  0.37808600  0.82903500  1
  C  C37  1  0.36987500  0.86987500  0.84947400  1
