# generated using pymatgen
data_CuNiC5
_symmetry_space_group_name_H-M   'P 1'
_cell_length_a   10.77604300
_cell_length_b   5.56873900
_cell_length_c   8.58657924
_cell_angle_alpha   71.30174600
_cell_angle_beta   90.00000000
_cell_angle_gamma   90.00000000
_symmetry_Int_Tables_number   1
_chemical_formula_structural   CuNiC5
_chemical_formula_sum   'Cu4 Ni4 C20'
_cell_volume   488.07576390
_cell_formula_units_Z   4
loop_
 _symmetry_equiv_pos_site_id
 _symmetry_equiv_pos_as_xyz
  1  'x, y, z'
loop_
 _atom_site_type_symbol
 _atom_site_label
 _atom_site_symmetry_multiplicity
 _atom_site_fract_x
 _atom_site_fract_y
 _atom_site_fract_z
 _atom_site_occupancy
  Ni  Ni0  1  0.99253200  0.49848500  0.77680800  1
  Ni  Ni1  1  0.49253200  0.50151500  0.72319200  1
  Ni  Ni2  1  0.00746800  0.50151500  0.22319200  1
  Ni  Ni3  1  0.50746800  0.49848500  0.27680800  1
  Cu  Cu4  1  0.75778900  0.09053600  0.60840600  1
  Cu  Cu5  1  0.25778900  0.90946400  0.89159400  1
  Cu  Cu6  1  0.24221100  0.90946400  0.39159400  1
  Cu  Cu7  1  0.74221100  0.09053600  0.10840600  1
  C  C8  1  0.89157300  0.39423200  0.61074800  1
  C  C9  1  0.39157300  0.60576800  0.88925200  1
  C  C10  1  0.10842700  0.60576800  0.38925200  1
  C  C11  1  0.60842700  0.39423200  0.11074800  1
  C  C12  1  0.60318700  0.36345300  0.48903400  1
  C  C13  1  0.10318700  0.63654700  0.01096600  1
  C  C14  1  0.39681300  0.63654700  0.51096600  1
  C  C15  1  0.89681300  0.36345300  0.98903400  1
  C  C16  1  0.42574700  0.16234400  0.79239400  1
  C  C17  1  0.92574700  0.83765600  0.70760600  1
  C  C18  1  0.57425300  0.83765600  0.20760600  1
  C  C19  1  0.07425300  0.16234400  0.29239400  1
  C  C20  1  0.12750800  0.26189400  0.81906800  1
  C  C21  1  0.62750800  0.73810600  0.68093200  1
  C  C22  1  0.87249200  0.73810600  0.18093200  1
  C  C23  1  0.37249200  0.26189400  0.31906800  1
  C  C24  1  0.68769500  0.17696700  0.83540900  1
  C  C25  1  0.18769500  0.82303300  0.66459100  1
  C  C26  1  0.31230500  0.82303300  0.16459100  1
  C  C27  1  0.81230500  0.17696700  0.33540900  1
