# generated using pymatgen
data_Cu4NiC
_symmetry_space_group_name_H-M   'P 1'
_cell_length_a   7.87921000
_cell_length_b   10.67746700
_cell_length_c   15.20665156
_cell_angle_alpha   88.62847647
_cell_angle_beta   90.00000000
_cell_angle_gamma   90.00000000
_symmetry_Int_Tables_number   1
_chemical_formula_structural   Cu4NiC
_chemical_formula_sum   'Cu64 Ni16 C16'
_cell_volume   1278.96915073
_cell_formula_units_Z   16
loop_
 _symmetry_equiv_pos_site_id
 _symmetry_equiv_pos_as_xyz
  1  'x, y, z'
loop_
 _atom_site_type_symbol
 _atom_site_label
 _atom_site_symmetry_multiplicity
 _atom_site_fract_x
 _atom_site_fract_y
 _atom_site_fract_z
 _atom_site_occupancy
  C  C0  1  0.49019400  0.34555500  0.88960200  1
  C  C1  1  0.99019400  0.15444500  0.11039800  1
  C  C2  1  0.50980600  0.65444500  0.11039800  1
  C  C3  1  0.00980600  0.84555500  0.88960200  1
  C  C4  1  0.01066800  0.34705700  0.89389400  1
  C  C5  1  0.51066800  0.15294300  0.10610600  1
  C  C6  1  0.98933200  0.65294300  0.10610600  1
  C  C7  1  0.48933200  0.84705700  0.89389400  1
  C  C8  1  0.51089800  0.59485200  0.60882800  1
  C  C9  1  0.01089800  0.90514800  0.39117200  1
  C  C10  1  0.48910200  0.40514800  0.39117200  1
  C  C11  1  0.98910200  0.09485200  0.60882800  1
  C  C12  1  0.99668600  0.59778800  0.61354200  1
  C  C13  1  0.49668600  0.90221200  0.38645800  1
  C  C14  1  0.00331400  0.40221200  0.38645800  1
  C  C15  1  0.50331400  0.09778800  0.61354200  1
  Ni  Ni16  1  0.76729400  0.35912900  0.70458600  1
  Ni  Ni17  1  0.26729400  0.14087100  0.29541400  1
  Ni  Ni18  1  0.23270600  0.64087100  0.29541400  1
  Ni  Ni19  1  0.73270600  0.85912900  0.70458600  1
  Ni  Ni20  1  0.26156500  0.59951600  0.79762600  1
  Ni  Ni21  1  0.76156500  0.90048400  0.20237400  1
  Ni  Ni22  1  0.73843500  0.40048400  0.20237400  1
  Ni  Ni23  1  0.23843500  0.09951600  0.79762600  1
  Ni  Ni24  1  0.75741400  0.59262600  0.92736100  1
  Ni  Ni25  1  0.25741400  0.90737400  0.07263900  1
  Ni  Ni26  1  0.24258600  0.40737400  0.07263900  1
  Ni  Ni27  1  0.74258600  0.09262600  0.92736100  1
  Ni  Ni28  1  0.25696800  0.33625600  0.57185700  1
  Ni  Ni29  1  0.75696800  0.16374400  0.42814300  1
  Ni  Ni30  1  0.74303200  0.66374400  0.42814300  1
  Ni  Ni31  1  0.24303200  0.83625600  0.57185700  1
  Cu  Cu32  1  0.77200300  0.48293800  0.65150800  1
  Cu  Cu33  1  0.27200300  0.01706200  0.34849200  1
  Cu  Cu34  1  0.22799700  0.51706200  0.34849200  1
  Cu  Cu35  1  0.72799700  0.98293800  0.65150800  1
  Cu  Cu36  1  0.76532400  0.25343300  0.64360400  1
  Cu  Cu37  1  0.26532400  0.24656700  0.35639600  1
  Cu  Cu38  1  0.23467600  0.74656700  0.35639600  1
  Cu  Cu39  1  0.73467600  0.75343300  0.64360400  1
  Cu  Cu40  1  0.60773200  0.36432600  0.75555300  1
  Cu  Cu41  1  0.10773200  0.13567400  0.24444700  1
  Cu  Cu42  1  0.39226800  0.63567400  0.24444700  1
  Cu  Cu43  1  0.89226800  0.86432600  0.75555300  1
  Cu  Cu44  1  0.92452400  0.35136600  0.75814200  1
  Cu  Cu45  1  0.42452400  0.14863400  0.24185800  1
  Cu  Cu46  1  0.07547600  0.64863400  0.24185800  1
  Cu  Cu47  1  0.57547600  0.85136600  0.75814200  1
  Cu  Cu48  1  0.26051800  0.71084400  0.85653400  1
  Cu  Cu49  1  0.76051800  0.78915600  0.14346600  1
  Cu  Cu50  1  0.73948200  0.28915600  0.14346600  1
  Cu  Cu51  1  0.23948200  0.21084400  0.85653400  1
  Cu  Cu52  1  0.09785800  0.59957000  0.74906100  1
  Cu  Cu53  1  0.59785800  0.90043000  0.25093900  1
  Cu  Cu54  1  0.90214200  0.40043000  0.25093900  1
  Cu  Cu55  1  0.40214200  0.09957000  0.74906100  1
  Cu  Cu56  1  0.26795400  0.48088900  0.85231800  1
  Cu  Cu57  1  0.76795400  0.01911100  0.14768200  1
  Cu  Cu58  1  0.73204600  0.51911100  0.14768200  1
  Cu  Cu59  1  0.23204600  0.98088900  0.85231800  1
  Cu  Cu60  1  0.41512100  0.61040100  0.74226400  1
  Cu  Cu61  1  0.91512100  0.88959900  0.25773600  1
  Cu  Cu62  1  0.58487900  0.38959900  0.25773600  1
  Cu  Cu63  1  0.08487900  0.11040100  0.74226400  1
  Cu  Cu64  1  0.75529200  0.62264700  0.83415400  1
  Cu  Cu65  1  0.25529200  0.87735300  0.16584600  1
  Cu  Cu66  1  0.24470800  0.37735300  0.16584600  1
  Cu  Cu67  1  0.74470800  0.12264700  0.83415400  1
  Cu  Cu68  1  0.77586900  0.45508300  0.94777500  1
  Cu  Cu69  1  0.27586900  0.04491700  0.05222500  1
  Cu  Cu70  1  0.22413100  0.54491700  0.05222500  1
  Cu  Cu71  1  0.72413100  0.95508300  0.94777500  1
  Cu  Cu72  1  0.90860100  0.66146100  0.96693000  1
  Cu  Cu73  1  0.40860100  0.83853900  0.03307000  1
  Cu  Cu74  1  0.09139900  0.33853900  0.03307000  1
  Cu  Cu75  1  0.59139900  0.16146100  0.96693000  1
  Cu  Cu76  1  0.59700600  0.63780100  0.96924900  1
  Cu  Cu77  1  0.09700600  0.86219900  0.03075100  1
  Cu  Cu78  1  0.40299400  0.36219900  0.03075100  1
  Cu  Cu79  1  0.90299400  0.13780100  0.96924900  1
  Cu  Cu80  1  0.25371400  0.37203600  0.66300300  1
  Cu  Cu81  1  0.75371400  0.12796400  0.33699700  1
  Cu  Cu82  1  0.74628600  0.62796400  0.33699700  1
  Cu  Cu83  1  0.24628600  0.87203600  0.66300300  1
  Cu  Cu84  1  0.09814700  0.37869400  0.52638800  1
  Cu  Cu85  1  0.59814700  0.12130600  0.47361200  1
  Cu  Cu86  1  0.90185300  0.62130600  0.47361200  1
  Cu  Cu87  1  0.40185300  0.87869400  0.52638800  1
  Cu  Cu88  1  0.41193300  0.39552500  0.52936400  1
  Cu  Cu89  1  0.91193300  0.10447500  0.47063600  1
  Cu  Cu90  1  0.58806700  0.60447500  0.47063600  1
  Cu  Cu91  1  0.08806700  0.89552500  0.52936400  1
  Cu  Cu92  1  0.26844200  0.19467700  0.56260300  1
  Cu  Cu93  1  0.76844200  0.30532300  0.43739700  1
  Cu  Cu94  1  0.73155800  0.80532300  0.43739700  1
  Cu  Cu95  1  0.23155800  0.69467700  0.56260300  1
