# generated using pymatgen
data_Cu6NiC
_symmetry_space_group_name_H-M   'P 1'
_cell_length_a   5.07039400
_cell_length_b   6.33036300
_cell_length_c   11.03255400
_cell_angle_alpha   90.00000000
_cell_angle_beta   90.00000000
_cell_angle_gamma   90.00000000
_symmetry_Int_Tables_number   1
_chemical_formula_structural   Cu6NiC
_chemical_formula_sum   'Cu12 Ni2 C2'
_cell_volume   354.11668019
_cell_formula_units_Z   2
loop_
 _symmetry_equiv_pos_site_id
 _symmetry_equiv_pos_as_xyz
  1  'x, y, z'
loop_
 _atom_site_type_symbol
 _atom_site_label
 _atom_site_symmetry_multiplicity
 _atom_site_fract_x
 _atom_site_fract_y
 _atom_site_fract_z
 _atom_site_occupancy
  C  C0  1  0.00000000  0.50000000  0.33222600  1
  C  C1  1  0.00000000  0.00000000  0.83222600  1
  Ni  Ni2  1  0.50000000  0.50000000  0.16554900  1
  Ni  Ni3  1  0.50000000  0.00000000  0.66554900  1
  Cu  Cu4  1  0.00000000  0.25457100  0.08479000  1
  Cu  Cu5  1  0.00000000  0.74542900  0.08479000  1
  Cu  Cu6  1  0.00000000  0.00000000  0.33322200  1
  Cu  Cu7  1  0.50000000  0.74562300  0.41738200  1
  Cu  Cu8  1  0.50000000  0.25437700  0.41738200  1
  Cu  Cu9  1  0.50000000  0.00000000  0.16465800  1
  Cu  Cu10  1  0.00000000  0.75457100  0.58479000  1
  Cu  Cu11  1  0.00000000  0.24542900  0.58479000  1
  Cu  Cu12  1  0.00000000  0.50000000  0.83322200  1
  Cu  Cu13  1  0.50000000  0.24562300  0.91738200  1
  Cu  Cu14  1  0.50000000  0.75437700  0.91738200  1
  Cu  Cu15  1  0.50000000  0.50000000  0.66465800  1
