# generated using pymatgen
data_CuNiC10
_symmetry_space_group_name_H-M   'P 1'
_cell_length_a   8.90054995
_cell_length_b   10.69609196
_cell_length_c   11.31194409
_cell_angle_alpha   61.63952937
_cell_angle_beta   67.13853158
_cell_angle_gamma   69.10552877
_symmetry_Int_Tables_number   1
_chemical_formula_structural   CuNiC10
_chemical_formula_sum   'Cu6 Ni6 C60'
_cell_volume   853.31838520
_cell_formula_units_Z   6
loop_
 _symmetry_equiv_pos_site_id
 _symmetry_equiv_pos_as_xyz
  1  'x, y, z'
loop_
 _atom_site_type_symbol
 _atom_site_label
 _atom_site_symmetry_multiplicity
 _atom_site_fract_x
 _atom_site_fract_y
 _atom_site_fract_z
 _atom_site_occupancy
  C  C0  1  0.59784600  0.89222900  0.88723500  1
  C  C1  1  0.40215400  0.10777100  0.11276500  1
  C  C2  1  0.59937600  0.70994900  0.92153900  1
  C  C3  1  0.40062400  0.29005100  0.07846100  1
  C  C4  1  0.45103800  0.85910700  0.83620300  1
  C  C5  1  0.54896200  0.14089300  0.16379700  1
  C  C6  1  0.80594500  0.02106400  0.54682900  1
  C  C7  1  0.19405500  0.97893600  0.45317100  1
  C  C8  1  0.58355900  0.04248500  0.60944900  1
  C  C9  1  0.41644100  0.95751500  0.39055100  1
  C  C10  1  0.70001400  0.94541000  0.49691900  1
  C  C11  1  0.29998600  0.05459000  0.50308100  1
  C  C12  1  0.90947100  0.66756200  0.78772000  1
  C  C13  1  0.09052900  0.33243800  0.21228000  1
  C  C14  1  0.92555000  0.74942200  0.60437200  1
  C  C15  1  0.07445000  0.25057800  0.39562800  1
  C  C16  1  0.78187600  0.63135900  0.72112400  1
  C  C17  1  0.21812400  0.36864100  0.27887600  1
  C  C18  1  0.34732400  0.40572500  0.57139600  1
  C  C19  1  0.65267600  0.59427500  0.42860400  1
  C  C20  1  0.33658800  0.23268100  0.59201000  1
  C  C21  1  0.66341200  0.76731900  0.40799000  1
  C  C22  1  0.17951200  0.39030600  0.53494200  1
  C  C23  1  0.82048800  0.60969400  0.46505800  1
  C  C24  1  0.55861000  0.40822600  0.32862500  1
  C  C25  1  0.44139000  0.59177400  0.67137500  1
  C  C26  1  0.65961600  0.53782500  0.17168400  1
  C  C27  1  0.34038400  0.46217500  0.82831600  1
  C  C28  1  0.51638800  0.45982100  0.16809100  1
  C  C29  1  0.48361200  0.54017900  0.83190900  1
  C  C30  1  0.35087100  0.73055100  0.31486100  1
  C  C31  1  0.64912900  0.26944900  0.68513900  1
  C  C32  1  0.13489500  0.73210500  0.40203900  1
  C  C33  1  0.86510500  0.26789500  0.59796100  1
  C  C34  1  0.24102400  0.64728900  0.28015800  1
  C  C35  1  0.75897600  0.35271100  0.71984200  1
  C  C36  1  0.21883300  0.09684300  0.90788200  1
  C  C37  1  0.78116700  0.90315700  0.09211800  1
  C  C38  1  0.97198000  0.03519000  0.23663100  1
  C  C39  1  0.02802000  0.96481000  0.76336900  1
  C  C40  1  0.90735100  0.36627800  0.98149800  1
  C  C41  1  0.09264900  0.63372200  0.01850200  1
  C  C42  1  0.27318400  0.90618000  0.06378700  1
  C  C43  1  0.72681600  0.09382000  0.93621300  1
  C  C44  1  0.77826800  0.19074800  0.27994300  1
  C  C45  1  0.22173200  0.80925200  0.72005700  1
  C  C46  1  0.05044400  0.40415500  0.78489600  1
  C  C47  1  0.94955600  0.59584500  0.21510400  1
  C  C48  1  0.52024100  0.81750800  0.91403400  1
  C  C49  1  0.47975900  0.18249200  0.08596600  1
  C  C50  1  0.69196800  0.03604500  0.52111200  1
  C  C51  1  0.30803200  0.96395500  0.47888800  1
  C  C52  1  0.90387200  0.65231800  0.70025900  1
  C  C53  1  0.09612800  0.34768200  0.29974100  1
  C  C54  1  0.26260300  0.33421300  0.60431900  1
  C  C55  1  0.73739700  0.66578700  0.39568100  1
  C  C56  1  0.61423400  0.43767000  0.21628300  1
  C  C57  1  0.38576600  0.56233000  0.78371700  1
  C  C58  1  0.22952600  0.73971000  0.30340200  1
  C  C59  1  0.77047400  0.26029000  0.69659800  1
  Ni  Ni60  1  0.18091500  0.87889600  0.19280400  1
  Ni  Ni61  1  0.81908500  0.12110400  0.80719600  1
  Ni  Ni62  1  0.75296000  0.32289100  0.18436400  1
  Ni  Ni63  1  0.24704000  0.67710900  0.81563600  1
  Ni  Ni64  1  0.16703900  0.30114100  0.75083000  1
  Ni  Ni65  1  0.83296100  0.69885900  0.24917000  1
  Cu  Cu66  1  0.40640500  0.79676200  0.04967500  1
  Cu  Cu67  1  0.59359500  0.20323800  0.95032500  1
  Cu  Cu68  1  0.66485200  0.17192600  0.40665400  1
  Cu  Cu69  1  0.33514800  0.82807400  0.59334600  1
  Cu  Cu70  1  0.03477200  0.53462500  0.67513600  1
  Cu  Cu71  1  0.96522800  0.46537500  0.32486400  1
