# generated using pymatgen
data_Cu2Ni3C13
_symmetry_space_group_name_H-M   'P 1'
_cell_length_a   6.52333704
_cell_length_b   7.74590543
_cell_length_c   9.04156404
_cell_angle_alpha   99.11638926
_cell_angle_beta   90.01298656
_cell_angle_gamma   114.90748703
_symmetry_Int_Tables_number   1
_chemical_formula_structural   Cu2Ni3C13
_chemical_formula_sum   'Cu4 Ni6 C26'
_cell_volume   407.99011938
_cell_formula_units_Z   2
loop_
 _symmetry_equiv_pos_site_id
 _symmetry_equiv_pos_as_xyz
  1  'x, y, z'
loop_
 _atom_site_type_symbol
 _atom_site_label
 _atom_site_symmetry_multiplicity
 _atom_site_fract_x
 _atom_site_fract_y
 _atom_site_fract_z
 _atom_site_occupancy
  C  C0  1  0.25204900  0.50407200  0.74680000  1
  C  C1  1  0.75202900  0.50405800  0.24679100  1
  C  C2  1  0.24967100  0.00591400  0.24996500  1
  C  C3  1  0.25646300  0.00595000  0.74993300  1
  C  C4  1  0.74984700  0.00604800  0.74995600  1
  C  C5  1  0.75614900  0.00601900  0.24982700  1
  Ni  Ni6  1  0.10994800  0.21951700  0.42214300  1
  Ni  Ni7  1  0.60966800  0.21948600  0.92198300  1
  Ni  Ni8  1  0.38769200  0.77602700  0.07823300  1
  Ni  Ni9  1  0.88805100  0.77623100  0.57824000  1
  Ni  Ni10  1  0.49293700  0.98632500  0.00933100  1
  Ni  Ni11  1  0.99326200  0.98653000  0.50928700  1
  Cu  Cu12  1  0.14892800  0.29762900  0.05441100  1
  Cu  Cu13  1  0.64892400  0.29763100  0.55433800  1
  Cu  Cu14  1  0.35530800  0.71055100  0.43830000  1
  Cu  Cu15  1  0.85535800  0.71064600  0.93837700  1
  C  C16  1  0.07583400  0.15127500  0.88122000  1
  C  C17  1  0.57563100  0.15114100  0.38118200  1
  C  C18  1  0.43083600  0.86188100  0.60877100  1
  C  C19  1  0.93115200  0.86201400  0.10885000  1
  C  C20  1  0.03963700  0.07896400  0.38566300  1
  C  C21  1  0.53920000  0.07893500  0.88556400  1
  C  C22  1  0.45912600  0.91877200  0.10939400  1
  C  C23  1  0.95948600  0.91894400  0.60949300  1
  C  C24  1  0.26023200  0.52068400  0.02048500  1
  C  C25  1  0.76047000  0.52067000  0.52039800  1
  C  C26  1  0.24455800  0.48899600  0.47429700  1
  C  C27  1  0.74433200  0.48909900  0.97439200  1
  C  C28  1  0.41347500  0.25181700  0.64800200  1
  C  C29  1  0.91333600  0.25166000  0.14804400  1
  C  C30  1  0.83862400  0.25182600  0.64809200  1
  C  C31  1  0.33865900  0.25202000  0.14828400  1
  C  C32  1  0.08889200  0.75407300  0.84268200  1
  C  C33  1  0.58906200  0.75426400  0.34272800  1
  C  C34  1  0.66514200  0.75434500  0.84288900  1
  C  C35  1  0.16503100  0.75399000  0.34265400  1
