# generated using pymatgen
data_CuNiC13
_symmetry_space_group_name_H-M   'P 1'
_cell_length_a   6.00372133
_cell_length_b   6.00372133
_cell_length_c   14.84284400
_cell_angle_alpha   90.00000000
_cell_angle_beta   90.00000000
_cell_angle_gamma   119.99999266
_symmetry_Int_Tables_number   1
_chemical_formula_structural   CuNiC13
_chemical_formula_sum   'Cu2 Ni2 C26'
_cell_volume   463.32831195
_cell_formula_units_Z   2
loop_
 _symmetry_equiv_pos_site_id
 _symmetry_equiv_pos_as_xyz
  1  'x, y, z'
loop_
 _atom_site_type_symbol
 _atom_site_label
 _atom_site_symmetry_multiplicity
 _atom_site_fract_x
 _atom_site_fract_y
 _atom_site_fract_z
 _atom_site_occupancy
  C  C0  1  0.33333300  0.66666700  0.59741100  1
  C  C1  1  0.66666700  0.33333300  0.40199200  1
  C  C2  1  0.66666700  0.33333300  0.09741100  1
  C  C3  1  0.33333300  0.66666700  0.90199200  1
  C  C4  1  0.00000000  0.00000000  0.25031500  1
  C  C5  1  0.00000000  0.00000000  0.75031500  1
  C  C6  1  0.00000000  0.00000000  0.49891000  1
  C  C7  1  0.00000000  0.00000000  0.99891000  1
  Ni  Ni8  1  0.33333300  0.66666700  0.33434000  1
  Ni  Ni9  1  0.66666700  0.33333300  0.83434000  1
  Cu  Cu10  1  0.66666700  0.33333300  0.66444900  1
  Cu  Cu11  1  0.33333300  0.66666700  0.16444900  1
  C  C12  1  0.17832700  0.35665500  0.08957900  1
  C  C13  1  0.64334500  0.82167300  0.08957900  1
  C  C14  1  0.17832700  0.82167300  0.08957900  1
  C  C15  1  0.82234200  0.64468400  0.91163700  1
  C  C16  1  0.35531600  0.17765800  0.91163700  1
  C  C17  1  0.82234200  0.17765800  0.91163700  1
  C  C18  1  0.82167300  0.64334500  0.58957900  1
  C  C19  1  0.35665500  0.17832700  0.58957900  1
  C  C20  1  0.82167300  0.17832700  0.58957900  1
  C  C21  1  0.17765800  0.35531600  0.41163700  1
  C  C22  1  0.64468400  0.82234200  0.41163700  1
  C  C23  1  0.17765800  0.82234200  0.41163700  1
  C  C24  1  0.48933500  0.51066500  0.24965000  1
  C  C25  1  0.48933500  0.97866900  0.24965000  1
  C  C26  1  0.02133100  0.51066500  0.24965000  1
  C  C27  1  0.51066500  0.48933500  0.74965000  1
  C  C28  1  0.51066500  0.02133100  0.74965000  1
  C  C29  1  0.97866900  0.48933500  0.74965000  1
