# generated using pymatgen
data_CuNi2C11
_symmetry_space_group_name_H-M   'P 1'
_cell_length_a   7.05026809
_cell_length_b   7.05026809
_cell_length_c   7.05026754
_cell_angle_alpha   60.04553974
_cell_angle_beta   60.04553974
_cell_angle_gamma   60.04553538
_symmetry_Int_Tables_number   1
_chemical_formula_structural   CuNi2C11
_chemical_formula_sum   'Cu1 Ni2 C11'
_cell_volume   248.05609191
_cell_formula_units_Z   1
loop_
 _symmetry_equiv_pos_site_id
 _symmetry_equiv_pos_as_xyz
  1  'x, y, z'
loop_
 _atom_site_type_symbol
 _atom_site_label
 _atom_site_symmetry_multiplicity
 _atom_site_fract_x
 _atom_site_fract_y
 _atom_site_fract_z
 _atom_site_occupancy
  Ni  Ni0  1  0.00495500  0.00495500  0.00495500  1
  Ni  Ni1  1  0.62514600  0.62514600  0.62514600  1
  C  C2  1  0.48862600  0.00358800  0.00358800  1
  C  C3  1  0.00358800  0.00358800  0.48862600  1
  C  C4  1  0.00358800  0.48862600  0.00358800  1
  Cu  Cu5  1  0.37491400  0.37491400  0.37491400  1
  C  C6  1  0.22527000  0.75808900  0.75808900  1
  C  C7  1  0.75808900  0.75808900  0.22527000  1
  C  C8  1  0.75808900  0.22527000  0.75808900  1
  C  C9  1  0.75787500  0.75787500  0.75787500  1
  C  C10  1  0.77403300  0.24224500  0.24224500  1
  C  C11  1  0.24224500  0.24224500  0.77403300  1
  C  C12  1  0.24224500  0.77403300  0.24224500  1
  C  C13  1  0.24133700  0.24133700  0.24133700  1
