# generated using pymatgen
data_Cu6NiC2
_symmetry_space_group_name_H-M   'P 1'
_cell_length_a   6.76529100
_cell_length_b   7.06698351
_cell_length_c   7.49368504
_cell_angle_alpha   63.92200622
_cell_angle_beta   67.04529437
_cell_angle_gamma   70.45446551
_symmetry_Int_Tables_number   1
_chemical_formula_structural   Cu6NiC2
_chemical_formula_sum   'Cu12 Ni2 C4'
_cell_volume   290.49890858
_cell_formula_units_Z   2
loop_
 _symmetry_equiv_pos_site_id
 _symmetry_equiv_pos_as_xyz
  1  'x, y, z'
loop_
 _atom_site_type_symbol
 _atom_site_label
 _atom_site_symmetry_multiplicity
 _atom_site_fract_x
 _atom_site_fract_y
 _atom_site_fract_z
 _atom_site_occupancy
  C  C0  1  0.00000000  0.00000000  0.50000000  1
  C  C1  1  0.50000000  0.50000000  0.00000000  1
  C  C2  1  0.78723700  0.79676300  0.98711600  1
  C  C3  1  0.21276300  0.20323700  0.01288400  1
  Ni  Ni4  1  0.87091100  0.35629000  0.38350000  1
  Ni  Ni5  1  0.12908900  0.64371000  0.61650000  1
  Cu  Cu6  1  0.75968200  0.95357200  0.50722400  1
  Cu  Cu7  1  0.24031800  0.04642800  0.49277600  1
  Cu  Cu8  1  0.57444600  0.77797200  0.91586900  1
  Cu  Cu9  1  0.42555400  0.22202800  0.08413100  1
  Cu  Cu10  1  0.88063700  0.01228600  0.77345700  1
  Cu  Cu11  1  0.11936300  0.98771400  0.22654300  1
  Cu  Cu12  1  0.51177100  0.55884200  0.74173700  1
  Cu  Cu13  1  0.48822900  0.44115800  0.25826300  1
  Cu  Cu14  1  0.67247400  0.90292700  0.17217300  1
  Cu  Cu15  1  0.32752600  0.09707300  0.82782700  1
  Cu  Cu16  1  0.77559800  0.38824500  0.89879500  1
  Cu  Cu17  1  0.22440200  0.61175500  0.10120500  1
