# generated using pymatgen
data_Cu4Ni2C
_symmetry_space_group_name_H-M   'P 1'
_cell_length_a   7.43353630
_cell_length_b   7.43353630
_cell_length_c   7.43353630
_cell_angle_alpha   150.45309685
_cell_angle_beta   150.45309685
_cell_angle_gamma   42.27671052
_symmetry_Int_Tables_number   1
_chemical_formula_structural   Cu4Ni2C
_chemical_formula_sum   'Cu4 Ni2 C1'
_cell_volume   99.64758867
_cell_formula_units_Z   1
loop_
 _symmetry_equiv_pos_site_id
 _symmetry_equiv_pos_as_xyz
  1  'x, y, z'
loop_
 _atom_site_type_symbol
 _atom_site_label
 _atom_site_symmetry_multiplicity
 _atom_site_fract_x
 _atom_site_fract_y
 _atom_site_fract_z
 _atom_site_occupancy
  C  C0  1  0.00000000  0.00000000  0.00000000  1
  Ni  Ni1  1  0.33335300  0.33335300  0.00000000  1
  Ni  Ni2  1  0.66664700  0.66664700  0.00000000  1
  Cu  Cu3  1  0.13212300  0.13212300  0.00000000  1
  Cu  Cu4  1  0.86787700  0.86787700  0.00000000  1
  Cu  Cu5  1  0.50000000  0.00000000  0.50000000  1
  Cu  Cu6  1  0.00000000  0.50000000  0.50000000  1
