# generated using pymatgen
data_Cu2Ni4C5
_symmetry_space_group_name_H-M   'P 1'
_cell_length_a   3.56736900
_cell_length_b   8.11147800
_cell_length_c   18.11457900
_cell_angle_alpha   90.00000000
_cell_angle_beta   90.00000000
_cell_angle_gamma   90.00000000
_symmetry_Int_Tables_number   1
_chemical_formula_structural   Cu2Ni4C5
_chemical_formula_sum   'Cu4 Ni8 C10'
_cell_volume   524.17496363
_cell_formula_units_Z   2
loop_
 _symmetry_equiv_pos_site_id
 _symmetry_equiv_pos_as_xyz
  1  'x, y, z'
loop_
 _atom_site_type_symbol
 _atom_site_label
 _atom_site_symmetry_multiplicity
 _atom_site_fract_x
 _atom_site_fract_y
 _atom_site_fract_z
 _atom_site_occupancy
  C  C0  1  0.00000000  0.11715300  0.41456000  1
  C  C1  1  0.00000000  0.88284700  0.58544000  1
  C  C2  1  0.00000000  0.38284700  0.91456000  1
  C  C3  1  0.00000000  0.61715300  0.08544000  1
  C  C4  1  0.00000000  0.24334700  0.22028900  1
  C  C5  1  0.00000000  0.75665300  0.77971100  1
  C  C6  1  0.00000000  0.25665300  0.72028900  1
  C  C7  1  0.00000000  0.74334700  0.27971100  1
  C  C8  1  0.00000000  0.00000000  0.00000000  1
  C  C9  1  0.00000000  0.50000000  0.50000000  1
  Ni  Ni10  1  0.50000000  0.42400700  0.35119600  1
  Ni  Ni11  1  0.50000000  0.57599300  0.64880400  1
  Ni  Ni12  1  0.50000000  0.07599300  0.85119600  1
  Ni  Ni13  1  0.50000000  0.92400700  0.14880400  1
  Ni  Ni14  1  0.50000000  0.29190700  0.06621200  1
  Ni  Ni15  1  0.50000000  0.70809300  0.93378800  1
  Ni  Ni16  1  0.50000000  0.20809300  0.56621200  1
  Ni  Ni17  1  0.50000000  0.79190700  0.43378800  1
  Cu  Cu18  1  0.50000000  0.02522400  0.30334200  1
  Cu  Cu19  1  0.50000000  0.97477600  0.69665800  1
  Cu  Cu20  1  0.50000000  0.47477600  0.80334200  1
  Cu  Cu21  1  0.50000000  0.52522400  0.19665800  1
