# generated using pymatgen
data_Cu14NiC
_symmetry_space_group_name_H-M   'P 1'
_cell_length_a   6.53908674
_cell_length_b   6.28840581
_cell_length_c   10.44646584
_cell_angle_alpha   90.00000000
_cell_angle_beta   90.00000000
_cell_angle_gamma   118.73977074
_symmetry_Int_Tables_number   1
_chemical_formula_structural   Cu14NiC
_chemical_formula_sum   'Cu14 Ni1 C1'
_cell_volume   376.64641355
_cell_formula_units_Z   1
loop_
 _symmetry_equiv_pos_site_id
 _symmetry_equiv_pos_as_xyz
  1  'x, y, z'
loop_
 _atom_site_type_symbol
 _atom_site_label
 _atom_site_symmetry_multiplicity
 _atom_site_fract_x
 _atom_site_fract_y
 _atom_site_fract_z
 _atom_site_occupancy
  C  C0  1  0.16023688  0.33011794  0.12500000  1
  Ni  Ni1  1  0.17573871  0.83786886  0.12500000  1
  Cu  Cu2  1  0.16510277  0.33255088  0.62500000  1
  Cu  Cu3  1  0.16134980  0.83067440  0.62500000  1
  Cu  Cu4  1  0.66255538  0.32948622  0.12500000  1
  Cu  Cu5  1  0.66387602  0.33360979  0.62500000  1
  Cu  Cu6  1  0.66255538  0.83306817  0.12500000  1
  Cu  Cu7  1  0.66387602  0.83026523  0.62500000  1
  Cu  Cu8  1  0.33636344  0.16491474  0.38059256  1
  Cu  Cu9  1  0.33636344  0.16491474  0.86940744  1
  Cu  Cu10  1  0.33636344  0.67144971  0.38059256  1
  Cu  Cu11  1  0.33636344  0.67144971  0.86940744  1
  Cu  Cu12  1  0.83058150  0.16529125  0.38327022  1
  Cu  Cu13  1  0.83058150  0.16529125  0.86672978  1
  Cu  Cu14  1  0.83904614  0.66952357  0.36923053  1
  Cu  Cu15  1  0.83904614  0.66952357  0.88076947  1
