# generated using pymatgen
data_CuNi2C9
_symmetry_space_group_name_H-M   'P 1'
_cell_length_a   14.10344575
_cell_length_b   14.10344575
_cell_length_c   14.10344575
_cell_angle_alpha   157.59011549
_cell_angle_beta   156.35854558
_cell_angle_gamma   32.80142723
_symmetry_Int_Tables_number   1
_chemical_formula_structural   CuNi2C9
_chemical_formula_sum   'Cu2 Ni4 C18'
_cell_volume   428.49558207
_cell_formula_units_Z   2
loop_
 _symmetry_equiv_pos_site_id
 _symmetry_equiv_pos_as_xyz
  1  'x, y, z'
loop_
 _atom_site_type_symbol
 _atom_site_label
 _atom_site_symmetry_multiplicity
 _atom_site_fract_x
 _atom_site_fract_y
 _atom_site_fract_z
 _atom_site_occupancy
  Ni  Ni0  1  0.78045900  0.72083400  0.87674500  1
  Ni  Ni1  1  0.15591100  0.27916600  0.05962500  1
  Ni  Ni2  1  0.65591100  0.59628600  0.87674500  1
  Ni  Ni3  1  0.28045900  0.40371400  0.05962500  1
  Cu  Cu4  1  0.51242100  0.50000000  0.01242100  1
  Cu  Cu5  1  0.01242100  0.00000000  0.01242100  1
  C  C6  1  0.43438100  0.92409500  0.51068500  1
  C  C7  1  0.58659100  0.07590500  0.51028700  1
  C  C8  1  0.08659100  0.57630400  0.51068500  1
  C  C9  1  0.93438100  0.42369600  0.51028700  1
  C  C10  1  0.99176900  0.55274400  0.04451300  1
  C  C11  1  0.49176900  0.44725600  0.43902600  1
  C  C12  1  0.20078000  0.19332700  0.49867100  1
  C  C13  1  0.30534400  0.80667300  0.00745300  1
  C  C14  1  0.80534400  0.79789100  0.49867100  1
  C  C15  1  0.70078000  0.20210900  0.00745300  1
  C  C16  1  0.72879100  0.69623100  0.52620300  1
  C  C17  1  0.82997200  0.30376900  0.03256000  1
  C  C18  1  0.32997200  0.29741200  0.52620300  1
  C  C19  1  0.22879100  0.70258800  0.03256000  1
  C  C20  1  0.92756200  0.37678400  0.59757200  1
  C  C21  1  0.22078700  0.62321600  0.55077800  1
  C  C22  1  0.72078700  0.17001000  0.59757200  1
  C  C23  1  0.42756200  0.82999000  0.55077800  1
