# generated using pymatgen
data_Cu2Ni2C5
_symmetry_space_group_name_H-M   'P 1'
_cell_length_a   3.56281600
_cell_length_b   3.56281600
_cell_length_c   8.68480700
_cell_angle_alpha   90.00000000
_cell_angle_beta   90.00000000
_cell_angle_gamma   90.00000000
_symmetry_Int_Tables_number   1
_chemical_formula_structural   Cu2Ni2C5
_chemical_formula_sum   'Cu2 Ni2 C5'
_cell_volume   110.24196855
_cell_formula_units_Z   1
loop_
 _symmetry_equiv_pos_site_id
 _symmetry_equiv_pos_as_xyz
  1  'x, y, z'
loop_
 _atom_site_type_symbol
 _atom_site_label
 _atom_site_symmetry_multiplicity
 _atom_site_fract_x
 _atom_site_fract_y
 _atom_site_fract_z
 _atom_site_occupancy
  Ni  Ni0  1  0.50000000  0.50000000  0.26352100  1
  Ni  Ni1  1  0.50000000  0.50000000  0.73647900  1
  Cu  Cu2  1  0.00000000  0.00000000  0.00000000  1
  Cu  Cu3  1  0.00000000  0.00000000  0.50000000  1
  C  C4  1  0.50000000  0.00000000  0.13973800  1
  C  C5  1  0.50000000  0.00000000  0.86026200  1
  C  C6  1  0.50000000  0.50000000  0.50000000  1
  C  C7  1  0.00000000  0.50000000  0.13973800  1
  C  C8  1  0.00000000  0.50000000  0.86026200  1
