# generated using pymatgen
data_CuNiC
_symmetry_space_group_name_H-M   'P 1'
_cell_length_a   7.67524400
_cell_length_b   4.36500400
_cell_length_c   6.94978000
_cell_angle_alpha   90.00000000
_cell_angle_beta   90.00000000
_cell_angle_gamma   90.00000000
_symmetry_Int_Tables_number   1
_chemical_formula_structural   CuNiC
_chemical_formula_sum   'Cu4 Ni4 C4'
_cell_volume   232.83480125
_cell_formula_units_Z   4
loop_
 _symmetry_equiv_pos_site_id
 _symmetry_equiv_pos_as_xyz
  1  'x, y, z'
loop_
 _atom_site_type_symbol
 _atom_site_label
 _atom_site_symmetry_multiplicity
 _atom_site_fract_x
 _atom_site_fract_y
 _atom_site_fract_z
 _atom_site_occupancy
  Ni  Ni0  1  0.54702900  0.25000000  0.84752800  1
  Ni  Ni1  1  0.04702900  0.25000000  0.65247200  1
  Ni  Ni2  1  0.45297100  0.75000000  0.15247200  1
  Ni  Ni3  1  0.95297100  0.75000000  0.34752800  1
  Cu  Cu4  1  0.64438800  0.25000000  0.41257300  1
  Cu  Cu5  1  0.14438800  0.25000000  0.08742700  1
  Cu  Cu6  1  0.35561200  0.75000000  0.58742700  1
  Cu  Cu7  1  0.85561200  0.75000000  0.91257300  1
  C  C8  1  0.82769900  0.25000000  0.10827500  1
  C  C9  1  0.32769900  0.25000000  0.39172500  1
  C  C10  1  0.17230100  0.75000000  0.89172500  1
  C  C11  1  0.67230100  0.75000000  0.60827500  1
