# generated using pymatgen
data_Cu3NiC
_symmetry_space_group_name_H-M   'P 1'
_cell_length_a   4.17542600
_cell_length_b   4.17542600
_cell_length_c   5.58511320
_cell_angle_alpha   111.95013933
_cell_angle_beta   111.95013933
_cell_angle_gamma   90.00000000
_symmetry_Int_Tables_number   1
_chemical_formula_structural   Cu3NiC
_chemical_formula_sum   'Cu3 Ni1 C1'
_cell_volume   82.65420294
_cell_formula_units_Z   1
loop_
 _symmetry_equiv_pos_site_id
 _symmetry_equiv_pos_as_xyz
  1  'x, y, z'
loop_
 _atom_site_type_symbol
 _atom_site_label
 _atom_site_symmetry_multiplicity
 _atom_site_fract_x
 _atom_site_fract_y
 _atom_site_fract_z
 _atom_site_occupancy
  C  C0  1  0.00247700  0.00247700  0.00495400  1
  Ni  Ni1  1  0.66396000  0.66396000  0.32792000  1
  Cu  Cu2  1  0.42464100  0.42464100  0.84928200  1
  Cu  Cu3  1  0.76196100  0.26196100  0.52392200  1
  Cu  Cu4  1  0.26196100  0.76196100  0.52392200  1
