# generated using pymatgen
data_Cu(NiC2)3
_symmetry_space_group_name_H-M   'P 1'
_cell_length_a   7.10310600
_cell_length_b   7.13850360
_cell_length_c   7.24246844
_cell_angle_alpha   98.91744569
_cell_angle_beta   109.66300822
_cell_angle_gamma   99.66816315
_symmetry_Int_Tables_number   1
_chemical_formula_structural   Cu(NiC2)3
_chemical_formula_sum   'Cu1 Ni3 C6'
_cell_volume   331.93992106
_cell_formula_units_Z   1
loop_
 _symmetry_equiv_pos_site_id
 _symmetry_equiv_pos_as_xyz
  1  'x, y, z'
loop_
 _atom_site_type_symbol
 _atom_site_label
 _atom_site_symmetry_multiplicity
 _atom_site_fract_x
 _atom_site_fract_y
 _atom_site_fract_z
 _atom_site_occupancy
  Ni  Ni0  1  0.00000000  0.50000000  0.00000000  1
  Ni  Ni1  1  0.50000000  0.00000000  0.00000000  1
  Ni  Ni2  1  0.00000000  0.00000000  0.50000000  1
  Cu  Cu3  1  0.00000000  0.00000000  0.00000000  1
  C  C4  1  0.01571900  0.78405200  0.77896900  1
  C  C5  1  0.98428100  0.21594800  0.22103100  1
  C  C6  1  0.80724900  0.79855600  0.08321900  1
  C  C7  1  0.19275100  0.20144400  0.91678100  1
  C  C8  1  0.75756400  0.07857600  0.79757900  1
  C  C9  1  0.24243600  0.92142400  0.20242100  1
