# generated using pymatgen
data_Cu5Ni5C4
_symmetry_space_group_name_H-M   'P 1'
_cell_length_a   6.67422400
_cell_length_b   7.67475700
_cell_length_c   16.78201200
_cell_angle_alpha   90.00000000
_cell_angle_beta   90.00000000
_cell_angle_gamma   90.00000000
_symmetry_Int_Tables_number   1
_chemical_formula_structural   Cu5Ni5C4
_chemical_formula_sum   'Cu20 Ni20 C16'
_cell_volume   859.62579553
_cell_formula_units_Z   4
loop_
 _symmetry_equiv_pos_site_id
 _symmetry_equiv_pos_as_xyz
  1  'x, y, z'
loop_
 _atom_site_type_symbol
 _atom_site_label
 _atom_site_symmetry_multiplicity
 _atom_site_fract_x
 _atom_site_fract_y
 _atom_site_fract_z
 _atom_site_occupancy
  C  C0  1  0.24759000  0.11234300  0.13136100  1
  C  C1  1  0.75241000  0.88765700  0.86863900  1
  C  C2  1  0.74759000  0.38765700  0.86863900  1
  C  C3  1  0.75241000  0.88765700  0.63136100  1
  C  C4  1  0.25241000  0.61234300  0.13136100  1
  C  C5  1  0.24759000  0.11234300  0.36863900  1
  C  C6  1  0.25241000  0.61234300  0.36863900  1
  C  C7  1  0.74759000  0.38765700  0.63136100  1
  C  C8  1  0.22151200  0.13933500  0.63618000  1
  C  C9  1  0.77848800  0.86066500  0.36382000  1
  C  C10  1  0.72151200  0.36066500  0.36382000  1
  C  C11  1  0.77848800  0.86066500  0.13618000  1
  C  C12  1  0.27848800  0.63933500  0.63618000  1
  C  C13  1  0.22151200  0.13933500  0.86382000  1
  C  C14  1  0.27848800  0.63933500  0.86382000  1
  C  C15  1  0.72151200  0.36066500  0.13618000  1
  Ni  Ni16  1  0.53422900  0.17260300  0.13218200  1
  Ni  Ni17  1  0.46577100  0.82739700  0.86781800  1
  Ni  Ni18  1  0.03422900  0.32739700  0.86781800  1
  Ni  Ni19  1  0.46577100  0.82739700  0.63218200  1
  Ni  Ni20  1  0.96577100  0.67260300  0.13218200  1
  Ni  Ni21  1  0.53422900  0.17260300  0.36781800  1
  Ni  Ni22  1  0.96577100  0.67260300  0.36781800  1
  Ni  Ni23  1  0.03422900  0.32739700  0.63218200  1
  Ni  Ni24  1  0.53837900  0.55132200  0.13950200  1
  Ni  Ni25  1  0.46162100  0.44867800  0.86049800  1
  Ni  Ni26  1  0.03837900  0.94867800  0.86049800  1
  Ni  Ni27  1  0.46162100  0.44867800  0.63950200  1
  Ni  Ni28  1  0.96162100  0.05132200  0.13950200  1
  Ni  Ni29  1  0.53837900  0.55132200  0.36049800  1
  Ni  Ni30  1  0.96162100  0.05132200  0.36049800  1
  Ni  Ni31  1  0.03837900  0.94867800  0.63950200  1
  Ni  Ni32  1  0.77663300  0.35214700  0.25000000  1
  Ni  Ni33  1  0.22336700  0.64785300  0.75000000  1
  Ni  Ni34  1  0.27663300  0.14785300  0.75000000  1
  Ni  Ni35  1  0.72336700  0.85214700  0.25000000  1
  Cu  Cu36  1  0.23168900  0.11072500  0.02001700  1
  Cu  Cu37  1  0.76831100  0.88927500  0.97998300  1
  Cu  Cu38  1  0.73168900  0.38927500  0.97998300  1
  Cu  Cu39  1  0.76831100  0.88927500  0.52001700  1
  Cu  Cu40  1  0.26831100  0.61072500  0.02001700  1
  Cu  Cu41  1  0.23168900  0.11072500  0.47998300  1
  Cu  Cu42  1  0.26831100  0.61072500  0.47998300  1
  Cu  Cu43  1  0.73168900  0.38927500  0.52001700  1
  Cu  Cu44  1  0.17746900  0.36290800  0.13492600  1
  Cu  Cu45  1  0.82253100  0.63709200  0.86507400  1
  Cu  Cu46  1  0.67746900  0.13709200  0.86507400  1
  Cu  Cu47  1  0.82253100  0.63709200  0.63492600  1
  Cu  Cu48  1  0.32253100  0.86290800  0.13492600  1
  Cu  Cu49  1  0.17746900  0.36290800  0.36507400  1
  Cu  Cu50  1  0.32253100  0.86290800  0.36507400  1
  Cu  Cu51  1  0.67746900  0.13709200  0.63492600  1
  Cu  Cu52  1  0.25563000  0.11475700  0.25000000  1
  Cu  Cu53  1  0.74437000  0.88524300  0.75000000  1
  Cu  Cu54  1  0.75563000  0.38524300  0.75000000  1
  Cu  Cu55  1  0.24437000  0.61475700  0.25000000  1
