# generated using pymatgen
data_Cu2NiC12
_symmetry_space_group_name_H-M   'P 1'
_cell_length_a   6.68146602
_cell_length_b   6.62708444
_cell_length_c   6.66953126
_cell_angle_alpha   55.65812577
_cell_angle_beta   54.29029874
_cell_angle_gamma   55.56416920
_symmetry_Int_Tables_number   1
_chemical_formula_structural   Cu2NiC12
_chemical_formula_sum   'Cu2 Ni1 C12'
_cell_volume   185.29857865
_cell_formula_units_Z   1
loop_
 _symmetry_equiv_pos_site_id
 _symmetry_equiv_pos_as_xyz
  1  'x, y, z'
loop_
 _atom_site_type_symbol
 _atom_site_label
 _atom_site_symmetry_multiplicity
 _atom_site_fract_x
 _atom_site_fract_y
 _atom_site_fract_z
 _atom_site_occupancy
  Ni  Ni0  1  0.50000000  0.50000000  0.50000000  1
  Cu  Cu1  1  0.65252100  0.64663900  0.65383200  1
  Cu  Cu2  1  0.34747900  0.35336100  0.34616800  1
  C  C3  1  0.00000000  0.50000000  0.00000000  1
  C  C4  1  0.00000000  0.00000000  0.00000000  1
  C  C5  1  0.50000000  0.00000000  0.00000000  1
  C  C6  1  0.00000000  0.00000000  0.50000000  1
  C  C7  1  0.24569200  0.72285500  0.76040900  1
  C  C8  1  0.23994700  0.27653800  0.75384100  1
  C  C9  1  0.22738500  0.76522500  0.22578600  1
  C  C10  1  0.21753400  0.22696300  0.21839600  1
  C  C11  1  0.76005300  0.72346200  0.24615900  1
  C  C12  1  0.75430800  0.27714500  0.23959100  1
  C  C13  1  0.77261500  0.23477500  0.77421400  1
  C  C14  1  0.78246600  0.77303700  0.78160400  1
