# generated using pymatgen
data_Cu4Ni9C20
_symmetry_space_group_name_H-M   'P 1'
_cell_length_a   4.81917500
_cell_length_b   10.36622586
_cell_length_c   13.89962821
_cell_angle_alpha   101.60375927
_cell_angle_beta   90.00000000
_cell_angle_gamma   90.00000000
_symmetry_Int_Tables_number   1
_chemical_formula_structural   Cu4Ni9C20
_chemical_formula_sum   'Cu8 Ni18 C40'
_cell_volume   680.18727287
_cell_formula_units_Z   2
loop_
 _symmetry_equiv_pos_site_id
 _symmetry_equiv_pos_as_xyz
  1  'x, y, z'
loop_
 _atom_site_type_symbol
 _atom_site_label
 _atom_site_symmetry_multiplicity
 _atom_site_fract_x
 _atom_site_fract_y
 _atom_site_fract_z
 _atom_site_occupancy
  Ni  Ni0  1  0.48681300  0.64239700  0.17468000  1
  Ni  Ni1  1  0.51318700  0.35760300  0.82532000  1
  Ni  Ni2  1  0.98681300  0.85760300  0.82532000  1
  Ni  Ni3  1  0.01318700  0.14239700  0.17468000  1
  Ni  Ni4  1  0.99089700  0.75102700  0.38764300  1
  Ni  Ni5  1  0.00910300  0.24897300  0.61235700  1
  Ni  Ni6  1  0.49089700  0.74897300  0.61235700  1
  Ni  Ni7  1  0.50910300  0.25102700  0.38764300  1
  Ni  Ni8  1  0.99935100  0.44791600  0.27426500  1
  Ni  Ni9  1  0.00064900  0.55208400  0.72573500  1
  Ni  Ni10  1  0.49935100  0.05208400  0.72573500  1
  Ni  Ni11  1  0.50064900  0.94791600  0.27426500  1
  Ni  Ni12  1  0.00000000  0.50000000  0.50000000  1
  Ni  Ni13  1  0.50000000  0.00000000  0.50000000  1
  Ni  Ni14  1  0.98230800  0.37682400  0.04359700  1
  Ni  Ni15  1  0.01769200  0.62317600  0.95640300  1
  Ni  Ni16  1  0.48230800  0.12317600  0.95640300  1
  Ni  Ni17  1  0.51769200  0.87682400  0.04359700  1
  Cu  Cu18  1  0.43001800  0.67811600  0.83378400  1
  Cu  Cu19  1  0.56998200  0.32188400  0.16621600  1
  Cu  Cu20  1  0.93001800  0.82188400  0.16621600  1
  Cu  Cu21  1  0.06998200  0.17811600  0.83378400  1
  Cu  Cu22  1  0.42473300  0.56634000  0.39091800  1
  Cu  Cu23  1  0.57526700  0.43366000  0.60908200  1
  Cu  Cu24  1  0.92473300  0.93366000  0.60908200  1
  Cu  Cu25  1  0.07526700  0.06634000  0.39091800  1
  C  C26  1  0.37748700  0.47760700  0.02708800  1
  C  C27  1  0.62251300  0.52239300  0.97291200  1
  C  C28  1  0.87748700  0.02239300  0.97291200  1
  C  C29  1  0.12251300  0.97760700  0.02708800  1
  C  C30  1  0.22396800  0.91959700  0.38718100  1
  C  C31  1  0.77603200  0.08040300  0.61281900  1
  C  C32  1  0.72396800  0.58040300  0.61281900  1
  C  C33  1  0.27603200  0.41959700  0.38718100  1
  C  C34  1  0.76376900  0.56512300  0.38855300  1
  C  C35  1  0.23623100  0.43487700  0.61144700  1
  C  C36  1  0.26376900  0.93487700  0.61144700  1
  C  C37  1  0.73623100  0.06512300  0.38855300  1
  C  C38  1  0.24273600  0.54263600  0.05821300  1
  C  C39  1  0.75726400  0.45736400  0.94178700  1
  C  C40  1  0.74273600  0.95736400  0.94178700  1
  C  C41  1  0.25726400  0.04263600  0.05821300  1
  C  C42  1  0.27390800  0.61413100  0.29660200  1
  C  C43  1  0.72609200  0.38586900  0.70339800  1
  C  C44  1  0.77390800  0.88586900  0.70339800  1
  C  C45  1  0.22609200  0.11413100  0.29660200  1
  C  C46  1  0.27695500  0.65794400  0.48859600  1
  C  C47  1  0.72304500  0.34205600  0.51140400  1
  C  C48  1  0.77695500  0.84205600  0.51140400  1
  C  C49  1  0.22304500  0.15794400  0.48859600  1
  C  C50  1  0.78399300  0.72537400  0.06977200  1
  C  C51  1  0.21600700  0.27462600  0.93022800  1
  C  C52  1  0.28399300  0.77462600  0.93022800  1
  C  C53  1  0.71600700  0.22537400  0.06977200  1
  C  C54  1  0.71323200  0.46787500  0.16430000  1
  C  C55  1  0.28676800  0.53212500  0.83570000  1
  C  C56  1  0.21323200  0.03212500  0.83570000  1
  C  C57  1  0.78676800  0.96787500  0.16430000  1
  C  C58  1  0.26910900  0.82160600  0.16461000  1
  C  C59  1  0.73089100  0.17839400  0.83539000  1
  C  C60  1  0.76910900  0.67839400  0.83539000  1
  C  C61  1  0.23089100  0.32160600  0.16461000  1
  C  C62  1  0.77746900  0.77931200  0.26227200  1
  C  C63  1  0.22253100  0.22068800  0.73772800  1
  C  C64  1  0.27746900  0.72068800  0.73772800  1
  C  C65  1  0.72253100  0.27931200  0.26227200  1
