# generated using pymatgen
data_Cu4(Ni2C3)5
_symmetry_space_group_name_H-M   'P 1'
_cell_length_a   9.00252547
_cell_length_b   9.00252547
_cell_length_c   9.00252547
_cell_angle_alpha   109.56864952
_cell_angle_beta   109.56864952
_cell_angle_gamma   109.27653810
_symmetry_Int_Tables_number   1
_chemical_formula_structural   Cu4(Ni2C3)5
_chemical_formula_sum   'Cu4 Ni10 C15'
_cell_volume   561.65215016
_cell_formula_units_Z   1
loop_
 _symmetry_equiv_pos_site_id
 _symmetry_equiv_pos_as_xyz
  1  'x, y, z'
loop_
 _atom_site_type_symbol
 _atom_site_label
 _atom_site_symmetry_multiplicity
 _atom_site_fract_x
 _atom_site_fract_y
 _atom_site_fract_z
 _atom_site_occupancy
  C  C0  1  0.77629700  0.77629700  0.00000000  1
  C  C1  1  0.22370300  0.22370300  0.00000000  1
  Ni  Ni2  1  0.50000000  0.75016100  0.25016100  1
  Ni  Ni3  1  0.24983900  0.50000000  0.74983900  1
  Ni  Ni4  1  0.75000000  0.25000000  0.50000000  1
  Ni  Ni5  1  0.75016100  0.50000000  0.25016100  1
  Ni  Ni6  1  0.50000000  0.24983900  0.74983900  1
  Ni  Ni7  1  0.25000000  0.75000000  0.50000000  1
  Ni  Ni8  1  0.00000000  0.77756400  0.77756400  1
  Ni  Ni9  1  0.77756400  0.00000000  0.77756400  1
  Ni  Ni10  1  0.00000000  0.22243600  0.22243600  1
  Ni  Ni11  1  0.22243600  0.00000000  0.22243600  1
  Cu  Cu12  1  0.45716300  0.45716300  0.45216900  1
  Cu  Cu13  1  0.00499400  0.00499400  0.54783100  1
  Cu  Cu14  1  0.99500600  0.54283700  0.00000000  1
  Cu  Cu15  1  0.54283700  0.99500600  0.00000000  1
  C  C16  1  0.00000000  0.00000000  0.00000000  1
  C  C17  1  0.51929900  0.51929900  0.77072000  1
  C  C18  1  0.76837000  0.51871400  0.51797000  1
  C  C19  1  0.51871400  0.76837000  0.51797000  1
  C  C20  1  0.74857900  0.74857900  0.22928000  1
  C  C21  1  0.00074300  0.25039900  0.48203000  1
  C  C22  1  0.25039900  0.00074300  0.48203000  1
  C  C23  1  0.25142000  0.48070100  0.00000000  1
  C  C24  1  0.99925700  0.48128600  0.24965600  1
  C  C25  1  0.74960100  0.23163000  0.75034400  1
  C  C26  1  0.48070100  0.25142000  0.00000000  1
  C  C27  1  0.23163000  0.74960100  0.75034400  1
  C  C28  1  0.48128600  0.99925700  0.24965600  1
