# generated using pymatgen
data_Cu2Ni2C45
_symmetry_space_group_name_H-M   'P 1'
_cell_length_a   5.49058068
_cell_length_b   9.05577903
_cell_length_c   12.58533953
_cell_angle_alpha   88.55852708
_cell_angle_beta   77.41117332
_cell_angle_gamma   83.28537927
_symmetry_Int_Tables_number   1
_chemical_formula_structural   Cu2Ni2C45
_chemical_formula_sum   'Cu2 Ni2 C45'
_cell_volume   606.52897057
_cell_formula_units_Z   1
loop_
 _symmetry_equiv_pos_site_id
 _symmetry_equiv_pos_as_xyz
  1  'x, y, z'
loop_
 _atom_site_type_symbol
 _atom_site_label
 _atom_site_symmetry_multiplicity
 _atom_site_fract_x
 _atom_site_fract_y
 _atom_site_fract_z
 _atom_site_occupancy
  C  C0  1  0.08569800  0.65284300  0.40758800  1
  C  C1  1  0.50960500  0.34680400  0.40711100  1
  C  C2  1  0.91675600  0.34602300  0.59225700  1
  C  C3  1  0.49291700  0.65287200  0.59278900  1
  C  C4  1  0.91985700  0.63742900  0.74410100  1
  C  C5  1  0.65863000  0.32489100  0.11917900  1
  C  C6  1  0.33385700  0.36227600  0.74417300  1
  C  C7  1  0.07996600  0.36355500  0.25526900  1
  C  C8  1  0.34016900  0.67410400  0.88140800  1
  C  C9  1  0.30914800  0.00059200  0.38007300  1
  C  C10  1  0.22231300  0.67409500  0.11895300  1
  C  C11  1  0.00207200  0.99970400  0.00013900  1
  C  C12  1  0.43054100  0.99932000  0.14217600  1
  C  C13  1  0.77818900  0.32398000  0.88059100  1
  C  C14  1  0.66313400  0.63804800  0.25530400  1
  C  C15  1  0.57423300  0.99799000  0.85559200  1
  C  C16  1  0.68595800  0.00201200  0.61877200  1
  Ni  Ni17  1  0.23783700  0.29032800  0.99959500  1
  Ni  Ni18  1  0.76309300  0.70968300  0.99971400  1
  Cu  Cu19  1  0.86488200  0.99997500  0.27118500  1
  Cu  Cu20  1  0.13464200  0.99949100  0.72829200  1
  C  C21  1  0.70003900  0.41749700  0.24861000  1
  C  C22  1  0.10681000  0.38897400  0.42144200  1
  C  C23  1  0.94059700  0.34142200  0.00023100  1
  C  C24  1  0.28983400  0.10714900  0.99916100  1
  C  C25  1  0.89592300  0.61112300  0.57957500  1
  C  C26  1  0.29713300  0.58307700  0.75157700  1
  C  C27  1  0.97527100  0.10268900  0.61160100  1
  C  C28  1  0.02486000  0.89600600  0.38734700  1
  C  C29  1  0.71572300  0.89257600  0.99870300  1
  C  C30  1  0.13421600  0.89652000  0.14778700  1
  C  C31  1  0.30749900  0.35624400  0.10826200  1
  C  C32  1  0.04891300  0.58452900  0.24914100  1
  C  C33  1  0.40978700  0.89652900  0.61155900  1
  C  C34  1  0.71933400  0.10376800  0.14806600  1
  C  C35  1  0.58370200  0.64511700  0.10842500  1
  C  C36  1  0.05916900  0.65640800  0.00032600  1
  C  C37  1  0.28276000  0.89572400  0.85052200  1
  C  C38  1  0.86600300  0.10449400  0.85009600  1
  C  C39  1  0.58774400  0.10320700  0.38774700  1
  C  C40  1  0.11514100  0.14615400  0.27676200  1
  C  C41  1  0.87800500  0.85383000  0.72774900  1
  C  C42  1  0.41517400  0.35708800  0.89134500  1
  C  C43  1  0.39188100  0.14620900  0.72353000  1
  C  C44  1  0.52833600  0.38941000  0.57861300  1
  C  C45  1  0.69238300  0.64227600  0.89164900  1
  C  C46  1  0.60700700  0.85547600  0.27439700  1
  C  C47  1  0.94971600  0.41774100  0.75184300  1
  C  C48  1  0.47458500  0.61163600  0.42147500  1
