# generated using pymatgen
data_Cu3(NiC7)2
_symmetry_space_group_name_H-M   'P 1'
_cell_length_a   4.67359600
_cell_length_b   5.54428600
_cell_length_c   18.73220000
_cell_angle_alpha   90.00000000
_cell_angle_beta   90.00000000
_cell_angle_gamma   90.00000000
_symmetry_Int_Tables_number   1
_chemical_formula_structural   Cu3(NiC7)2
_chemical_formula_sum   'Cu6 Ni4 C28'
_cell_volume   485.38413716
_cell_formula_units_Z   2
loop_
 _symmetry_equiv_pos_site_id
 _symmetry_equiv_pos_as_xyz
  1  'x, y, z'
loop_
 _atom_site_type_symbol
 _atom_site_label
 _atom_site_symmetry_multiplicity
 _atom_site_fract_x
 _atom_site_fract_y
 _atom_site_fract_z
 _atom_site_occupancy
  C  C0  1  0.00981200  0.24099200  0.35136400  1
  C  C1  1  0.00981200  0.75900800  0.64863600  1
  C  C2  1  0.00981200  0.24099200  0.14863600  1
  C  C3  1  0.00981200  0.75900800  0.85136400  1
  Ni  Ni4  1  0.20284600  0.00000000  0.50000000  1
  Ni  Ni5  1  0.20284600  0.00000000  0.00000000  1
  Ni  Ni6  1  0.01418500  0.73896500  0.25000000  1
  Ni  Ni7  1  0.01418500  0.26103500  0.75000000  1
  Cu  Cu8  1  0.81951900  0.50000000  0.50000000  1
  Cu  Cu9  1  0.81951900  0.50000000  0.00000000  1
  Cu  Cu10  1  0.50776600  0.75113100  0.36923300  1
  Cu  Cu11  1  0.50776600  0.24886900  0.63076700  1
  Cu  Cu12  1  0.50776600  0.75113100  0.13076700  1
  Cu  Cu13  1  0.50776600  0.24886900  0.86923300  1
  C  C14  1  0.00399300  0.26119200  0.48036100  1
  C  C15  1  0.00399300  0.73880800  0.51963900  1
  C  C16  1  0.00399300  0.26119200  0.01963900  1
  C  C17  1  0.00399300  0.73880800  0.98036100  1
  C  C18  1  0.63685500  0.54170500  0.42590700  1
  C  C19  1  0.63685500  0.45829500  0.57409300  1
  C  C20  1  0.63685500  0.54170500  0.07409300  1
  C  C21  1  0.63685500  0.45829500  0.92590700  1
  C  C22  1  0.37386300  0.97255300  0.41729700  1
  C  C23  1  0.37386300  0.02744700  0.58270300  1
  C  C24  1  0.37386300  0.97255300  0.08270300  1
  C  C25  1  0.37386300  0.02744700  0.91729700  1
  C  C26  1  0.26053700  0.61012600  0.32433200  1
  C  C27  1  0.26053700  0.38987400  0.67566800  1
  C  C28  1  0.26053700  0.61012600  0.17566800  1
  C  C29  1  0.26053700  0.38987400  0.82433200  1
  C  C30  1  0.76941800  0.86751900  0.32354700  1
  C  C31  1  0.76941800  0.13248100  0.67645300  1
  C  C32  1  0.76941800  0.86751900  0.17645300  1
  C  C33  1  0.76941800  0.13248100  0.82354700  1
  C  C34  1  0.18601100  0.04919900  0.25000000  1
  C  C35  1  0.18601100  0.95080100  0.75000000  1
  C  C36  1  0.83295200  0.43376500  0.25000000  1
  C  C37  1  0.83295200  0.56623500  0.75000000  1
