# generated using pymatgen
data_CuNi5C7
_symmetry_space_group_name_H-M   'P 1'
_cell_length_a   5.14114734
_cell_length_b   5.14114734
_cell_length_c   17.88586700
_cell_angle_alpha   90.00000000
_cell_angle_beta   90.00000000
_cell_angle_gamma   146.41252718
_symmetry_Int_Tables_number   1
_chemical_formula_structural   CuNi5C7
_chemical_formula_sum   'Cu2 Ni10 C14'
_cell_volume   261.52888865
_cell_formula_units_Z   2
loop_
 _symmetry_equiv_pos_site_id
 _symmetry_equiv_pos_as_xyz
  1  'x, y, z'
loop_
 _atom_site_type_symbol
 _atom_site_label
 _atom_site_symmetry_multiplicity
 _atom_site_fract_x
 _atom_site_fract_y
 _atom_site_fract_z
 _atom_site_occupancy
  Ni  Ni0  1  0.70883200  0.29116800  0.57089900  1
  Ni  Ni1  1  0.53778100  0.46221900  0.14922500  1
  Ni  Ni2  1  0.00000000  0.00000000  0.50000000  1
  Ni  Ni3  1  0.00000000  0.00000000  0.00000000  1
  Ni  Ni4  1  0.46221900  0.53778100  0.85077500  1
  Ni  Ni5  1  0.29116800  0.70883200  0.42910100  1
  Ni  Ni6  1  0.29116800  0.70883200  0.07089900  1
  Ni  Ni7  1  0.70883200  0.29116800  0.92910100  1
  Ni  Ni8  1  0.46221900  0.53778100  0.64922500  1
  Ni  Ni9  1  0.53778100  0.46221900  0.35077500  1
  Cu  Cu10  1  0.20956100  0.79043900  0.75000000  1
  Cu  Cu11  1  0.79043900  0.20956100  0.25000000  1
  C  C12  1  0.35718200  0.64281800  0.95585300  1
  C  C13  1  0.64281800  0.35718200  0.04414700  1
  C  C14  1  0.64281800  0.35718200  0.45585300  1
  C  C15  1  0.35718200  0.64281800  0.54414700  1
  C  C16  1  0.81801200  0.18198800  0.82743200  1
  C  C17  1  0.18198800  0.81801200  0.17256800  1
  C  C18  1  0.18198800  0.81801200  0.32743200  1
  C  C19  1  0.81801200  0.18198800  0.67256800  1
  C  C20  1  0.08991700  0.91008300  0.88584500  1
  C  C21  1  0.91008300  0.08991700  0.11415500  1
  C  C22  1  0.91008300  0.08991700  0.38584500  1
  C  C23  1  0.08991700  0.91008300  0.61415500  1
  C  C24  1  0.55471000  0.44529000  0.75000000  1
  C  C25  1  0.44529000  0.55471000  0.25000000  1
