# generated using pymatgen
data_Cu2NiC
_symmetry_space_group_name_H-M   'P 1'
_cell_length_a   9.55678341
_cell_length_b   9.55678341
_cell_length_c   9.55678347
_cell_angle_alpha   111.15157254
_cell_angle_beta   111.15157254
_cell_angle_gamma   111.15156178
_symmetry_Int_Tables_number   1
_chemical_formula_structural   Cu2NiC
_chemical_formula_sum   'Cu12 Ni6 C6'
_cell_volume   626.64130696
_cell_formula_units_Z   6
loop_
 _symmetry_equiv_pos_site_id
 _symmetry_equiv_pos_as_xyz
  1  'x, y, z'
loop_
 _atom_site_type_symbol
 _atom_site_label
 _atom_site_symmetry_multiplicity
 _atom_site_fract_x
 _atom_site_fract_y
 _atom_site_fract_z
 _atom_site_occupancy
  C  C0  1  0.25000000  0.70247700  0.79752300  1
  C  C1  1  0.79752300  0.25000000  0.70247700  1
  C  C2  1  0.70247700  0.79752300  0.25000000  1
  C  C3  1  0.75000000  0.29752300  0.20247700  1
  C  C4  1  0.20247700  0.75000000  0.29752300  1
  C  C5  1  0.29752300  0.20247700  0.75000000  1
  Ni  Ni6  1  0.25000000  0.36429900  0.13570100  1
  Ni  Ni7  1  0.13570100  0.25000000  0.36429900  1
  Ni  Ni8  1  0.36429900  0.13570100  0.25000000  1
  Ni  Ni9  1  0.75000000  0.63570100  0.86429900  1
  Ni  Ni10  1  0.86429900  0.75000000  0.63570100  1
  Ni  Ni11  1  0.63570100  0.86429900  0.75000000  1
  Cu  Cu12  1  0.86859000  0.63141000  0.75000000  1
  Cu  Cu13  1  0.63141000  0.75000000  0.86859000  1
  Cu  Cu14  1  0.75000000  0.86859000  0.63141000  1
  Cu  Cu15  1  0.13141000  0.36859000  0.25000000  1
  Cu  Cu16  1  0.36859000  0.25000000  0.13141000  1
  Cu  Cu17  1  0.25000000  0.13141000  0.36859000  1
  Cu  Cu18  1  0.52304500  0.97695500  0.75000000  1
  Cu  Cu19  1  0.97695500  0.75000000  0.52304500  1
  Cu  Cu20  1  0.75000000  0.52304500  0.97695500  1
  Cu  Cu21  1  0.47695500  0.02304500  0.25000000  1
  Cu  Cu22  1  0.02304500  0.25000000  0.47695500  1
  Cu  Cu23  1  0.25000000  0.47695500  0.02304500  1
