# generated using pymatgen
data_CuNiC5
_symmetry_space_group_name_H-M   'P 1'
_cell_length_a   6.27906678
_cell_length_b   6.23841683
_cell_length_c   10.73910315
_cell_angle_alpha   89.39106042
_cell_angle_beta   73.03886335
_cell_angle_gamma   59.73495196
_symmetry_Int_Tables_number   1
_chemical_formula_structural   CuNiC5
_chemical_formula_sum   'Cu4 Ni4 C20'
_cell_volume   342.75719461
_cell_formula_units_Z   4
loop_
 _symmetry_equiv_pos_site_id
 _symmetry_equiv_pos_as_xyz
  1  'x, y, z'
loop_
 _atom_site_type_symbol
 _atom_site_label
 _atom_site_symmetry_multiplicity
 _atom_site_fract_x
 _atom_site_fract_y
 _atom_site_fract_z
 _atom_site_occupancy
  C  C0  1  0.10748400  0.22459600  0.07135500  1
  C  C1  1  0.09759900  0.72184400  0.57177600  1
  C  C2  1  0.90243300  0.27838400  0.42819400  1
  C  C3  1  0.89240500  0.77553900  0.92863100  1
  Ni  Ni4  1  0.00869300  0.77266600  0.22959300  1
  Ni  Ni5  1  0.99143800  0.22713600  0.77017800  1
  Ni  Ni6  1  0.50919900  0.73002000  0.27051500  1
  Ni  Ni7  1  0.49049600  0.26996800  0.72941900  1
  Cu  Cu8  1  0.50998900  0.74704300  0.74957200  1
  Cu  Cu9  1  0.50033800  0.00011200  0.49982700  1
  Cu  Cu10  1  0.49028400  0.25245500  0.25076900  1
  Cu  Cu11  1  0.49982200  0.50025700  0.99986600  1
  C  C12  1  0.23245100  0.41837200  0.14454300  1
  C  C13  1  0.25397800  0.91749600  0.63462500  1
  C  C14  1  0.69376900  0.42271200  0.13376400  1
  C  C15  1  0.70725700  0.91705900  0.64377900  1
  C  C16  1  0.29250400  0.08295100  0.35632900  1
  C  C17  1  0.30561300  0.57706900  0.86632700  1
  C  C18  1  0.74671200  0.08216800  0.36548600  1
  C  C19  1  0.76775900  0.58163800  0.85555600  1
  C  C20  1  0.23905400  0.65323300  0.36003100  1
  C  C21  1  0.24880300  0.14978600  0.85947900  1
  C  C22  1  0.23609600  0.87836500  0.13565700  1
  C  C23  1  0.25043200  0.37561800  0.63564900  1
  C  C24  1  0.75106700  0.85031100  0.14046800  1
  C  C25  1  0.76095600  0.34680500  0.64002900  1
  C  C26  1  0.74946700  0.62457300  0.36420500  1
  C  C27  1  0.76390600  0.12182600  0.86437700  1
