# generated using pymatgen
data_Cu2Ni
_symmetry_space_group_name_H-M   'P 1'
_cell_length_a   6.99919300
_cell_length_b   17.53294300
_cell_length_c   6.35510179
_cell_angle_alpha   90.00000000
_cell_angle_beta   104.12266364
_cell_angle_gamma   90.00000000
_symmetry_Int_Tables_number   1
_chemical_formula_structural   Cu2Ni
_chemical_formula_sum   'Cu16 Ni8'
_cell_volume   756.30425469
_cell_formula_units_Z   8
loop_
 _symmetry_equiv_pos_site_id
 _symmetry_equiv_pos_as_xyz
  1  'x, y, z'
loop_
 _atom_site_type_symbol
 _atom_site_label
 _atom_site_symmetry_multiplicity
 _atom_site_fract_x
 _atom_site_fract_y
 _atom_site_fract_z
 _atom_site_occupancy
  Ni  Ni0  1  0.11749700  0.06467900  0.11973900  1
  Ni  Ni1  1  0.88250300  0.56467900  0.38026100  1
  Ni  Ni2  1  0.88250300  0.93532100  0.88026100  1
  Ni  Ni3  1  0.11749700  0.43532100  0.61973900  1
  Ni  Ni4  1  0.35034300  0.19477300  0.34692300  1
  Ni  Ni5  1  0.64965700  0.69477300  0.15307700  1
  Ni  Ni6  1  0.64965700  0.80522700  0.65307700  1
  Ni  Ni7  1  0.35034300  0.30522700  0.84692300  1
  Cu  Cu8  1  0.01428600  0.18072900  0.22483700  1
  Cu  Cu9  1  0.98571400  0.68072900  0.27516300  1
  Cu  Cu10  1  0.98571400  0.81927100  0.77516300  1
  Cu  Cu11  1  0.01428600  0.31927100  0.72483700  1
  Cu  Cu12  1  0.47675900  0.30207200  0.22006800  1
  Cu  Cu13  1  0.52324100  0.80207200  0.27993200  1
  Cu  Cu14  1  0.52324100  0.69792800  0.77993200  1
  Cu  Cu15  1  0.47675900  0.19792800  0.72006800  1
  Cu  Cu16  1  0.45377700  0.07852100  0.24735400  1
  Cu  Cu17  1  0.54622300  0.57852100  0.25264600  1
  Cu  Cu18  1  0.54622300  0.92147900  0.75264600  1
  Cu  Cu19  1  0.45377700  0.42147900  0.74735400  1
  Cu  Cu20  1  0.00303800  0.45644300  0.25239300  1
  Cu  Cu21  1  0.99696200  0.95644300  0.24760700  1
  Cu  Cu22  1  0.99696200  0.54355700  0.74760700  1
  Cu  Cu23  1  0.00303800  0.04355700  0.75239300  1
