# generated using pymatgen
data_Cu6Ni2C
_symmetry_space_group_name_H-M   'P 1'
_cell_length_a   8.02957629
_cell_length_b   8.02957629
_cell_length_c   8.02957591
_cell_angle_alpha   90.09237648
_cell_angle_beta   90.09237648
_cell_angle_gamma   90.09237532
_symmetry_Int_Tables_number   1
_chemical_formula_structural   Cu6Ni2C
_chemical_formula_sum   'Cu24 Ni8 C4'
_cell_volume   517.69762224
_cell_formula_units_Z   4
loop_
 _symmetry_equiv_pos_site_id
 _symmetry_equiv_pos_as_xyz
  1  'x, y, z'
loop_
 _atom_site_type_symbol
 _atom_site_label
 _atom_site_symmetry_multiplicity
 _atom_site_fract_x
 _atom_site_fract_y
 _atom_site_fract_z
 _atom_site_occupancy
  C  C0  1  0.50000000  0.50000000  0.50000000  1
  C  C1  1  0.50000000  0.00000000  0.00000000  1
  C  C2  1  0.00000000  0.00000000  0.50000000  1
  C  C3  1  0.00000000  0.50000000  0.00000000  1
  Ni  Ni4  1  0.65316100  0.85262000  0.34737000  1
  Ni  Ni5  1  0.34683900  0.14738000  0.65263000  1
  Ni  Ni6  1  0.15092500  0.15092500  0.15092500  1
  Ni  Ni7  1  0.85262000  0.34737000  0.65316100  1
  Ni  Ni8  1  0.34737000  0.65316100  0.85262000  1
  Ni  Ni9  1  0.84907500  0.84907500  0.84907500  1
  Ni  Ni10  1  0.14738000  0.65263000  0.34683900  1
  Ni  Ni11  1  0.65263000  0.34683900  0.14738000  1
  Cu  Cu12  1  0.02204400  0.21115500  0.21984400  1
  Cu  Cu13  1  0.78566100  0.47698900  0.71419800  1
  Cu  Cu14  1  0.28655100  0.72113700  0.98131800  1
  Cu  Cu15  1  0.97795600  0.78884500  0.78015600  1
  Cu  Cu16  1  0.21433900  0.52301100  0.28580200  1
  Cu  Cu17  1  0.71344900  0.27886300  0.01868200  1
  Cu  Cu18  1  0.21984400  0.02204400  0.21115500  1
  Cu  Cu19  1  0.79122000  0.27942800  0.52345000  1
  Cu  Cu20  1  0.47698900  0.71419800  0.78566100  1
  Cu  Cu21  1  0.78015600  0.97795600  0.78884500  1
  Cu  Cu22  1  0.20878000  0.72057200  0.47655000  1
  Cu  Cu23  1  0.52301100  0.28580200  0.21433900  1
  Cu  Cu24  1  0.21115500  0.21984400  0.02204400  1
  Cu  Cu25  1  0.98131800  0.28655100  0.72113700  1
  Cu  Cu26  1  0.27942800  0.52345000  0.79122000  1
  Cu  Cu27  1  0.78884500  0.78015600  0.97795600  1
  Cu  Cu28  1  0.01868200  0.71344900  0.27886300  1
  Cu  Cu29  1  0.72057200  0.47655000  0.20878000  1
  Cu  Cu30  1  0.72113700  0.98131800  0.28655100  1
  Cu  Cu31  1  0.71419800  0.78566100  0.47698900  1
  Cu  Cu32  1  0.52345000  0.79122000  0.27942800  1
  Cu  Cu33  1  0.27886300  0.01868200  0.71344900  1
  Cu  Cu34  1  0.28580200  0.21433900  0.52301100  1
  Cu  Cu35  1  0.47655000  0.20878000  0.72057200  1
