# generated using pymatgen
data_CuNi2C5
_symmetry_space_group_name_H-M   'P 1'
_cell_length_a   7.02975300
_cell_length_b   12.57602700
_cell_length_c   19.73263500
_cell_angle_alpha   90.00000000
_cell_angle_beta   90.00000000
_cell_angle_gamma   90.00000000
_symmetry_Int_Tables_number   1
_chemical_formula_structural   CuNi2C5
_chemical_formula_sum   'Cu12 Ni24 C60'
_cell_volume   1744.49050324
_cell_formula_units_Z   12
loop_
 _symmetry_equiv_pos_site_id
 _symmetry_equiv_pos_as_xyz
  1  'x, y, z'
loop_
 _atom_site_type_symbol
 _atom_site_label
 _atom_site_symmetry_multiplicity
 _atom_site_fract_x
 _atom_site_fract_y
 _atom_site_fract_z
 _atom_site_occupancy
  Ni  Ni0  1  0.18344800  0.10978200  0.94916400  1
  Ni  Ni1  1  0.31655200  0.60978200  0.55083600  1
  Ni  Ni2  1  0.68344800  0.89021800  0.55083600  1
  Ni  Ni3  1  0.81655200  0.39021800  0.94916400  1
  Ni  Ni4  1  0.81655200  0.89021800  0.05083600  1
  Ni  Ni5  1  0.68344800  0.39021800  0.44916400  1
  Ni  Ni6  1  0.31655200  0.10978200  0.44916400  1
  Ni  Ni7  1  0.18344800  0.60978200  0.05083600  1
  Ni  Ni8  1  0.30436500  0.84550000  0.90569000  1
  Ni  Ni9  1  0.19563500  0.34550000  0.59431000  1
  Ni  Ni10  1  0.80436500  0.15450000  0.59431000  1
  Ni  Ni11  1  0.69563500  0.65450000  0.90569000  1
  Ni  Ni12  1  0.69563500  0.15450000  0.09431000  1
  Ni  Ni13  1  0.80436500  0.65450000  0.40569000  1
  Ni  Ni14  1  0.19563500  0.84550000  0.40569000  1
  Ni  Ni15  1  0.30436500  0.34550000  0.09431000  1
  Ni  Ni16  1  0.97344400  0.00661100  0.79119200  1
  Ni  Ni17  1  0.52655600  0.50661100  0.70880800  1
  Ni  Ni18  1  0.47344400  0.99338900  0.70880800  1
  Ni  Ni19  1  0.02655600  0.49338900  0.79119200  1
  Ni  Ni20  1  0.02655600  0.99338900  0.20880800  1
  Ni  Ni21  1  0.47344400  0.49338900  0.29119200  1
  Ni  Ni22  1  0.52655600  0.00661100  0.29119200  1
  Ni  Ni23  1  0.97344400  0.50661100  0.20880800  1
  Cu  Cu24  1  0.50000000  0.75000000  0.75743200  1
  Cu  Cu25  1  0.00000000  0.25000000  0.74256800  1
  Cu  Cu26  1  0.50000000  0.25000000  0.24256800  1
  Cu  Cu27  1  0.00000000  0.75000000  0.25743200  1
  Cu  Cu28  1  0.35198600  0.96546700  0.08108500  1
  Cu  Cu29  1  0.14801400  0.46546700  0.41891500  1
  Cu  Cu30  1  0.85198600  0.03453300  0.41891500  1
  Cu  Cu31  1  0.64801400  0.53453300  0.08108500  1
  Cu  Cu32  1  0.64801400  0.03453300  0.91891500  1
  Cu  Cu33  1  0.85198600  0.53453300  0.58108500  1
  Cu  Cu34  1  0.14801400  0.96546700  0.58108500  1
  Cu  Cu35  1  0.35198600  0.46546700  0.91891500  1
  C  C36  1  0.50000000  0.25000000  0.80720400  1
  C  C37  1  0.00000000  0.75000000  0.69279600  1
  C  C38  1  0.50000000  0.75000000  0.19279600  1
  C  C39  1  0.00000000  0.25000000  0.30720400  1
  C  C40  1  0.21770600  0.97338400  0.01675800  1
  C  C41  1  0.28229400  0.47338400  0.48324200  1
  C  C42  1  0.71770600  0.02661600  0.48324200  1
  C  C43  1  0.78229400  0.52661600  0.01675800  1
  C  C44  1  0.78229400  0.02661600  0.98324200  1
  C  C45  1  0.71770600  0.52661600  0.51675800  1
  C  C46  1  0.28229400  0.97338400  0.51675800  1
  C  C47  1  0.21770600  0.47338400  0.98324200  1
  C  C48  1  0.48702700  0.11305600  0.93673000  1
  C  C49  1  0.01297300  0.61305600  0.56327000  1
  C  C50  1  0.98702700  0.88694400  0.56327000  1
  C  C51  1  0.51297300  0.38694400  0.93673000  1
  C  C52  1  0.51297300  0.88694400  0.06327000  1
  C  C53  1  0.98702700  0.38694400  0.43673000  1
  C  C54  1  0.01297300  0.11305600  0.43673000  1
  C  C55  1  0.48702700  0.61305600  0.06327000  1
  C  C56  1  0.15027500  0.98234400  0.87949400  1
  C  C57  1  0.34972500  0.48234400  0.62050600  1
  C  C58  1  0.65027500  0.01765600  0.62050600  1
  C  C59  1  0.84972500  0.51765600  0.87949400  1
  C  C60  1  0.84972500  0.01765600  0.12050600  1
  C  C61  1  0.65027500  0.51765600  0.37949400  1
  C  C62  1  0.34972500  0.98234400  0.37949400  1
  C  C63  1  0.15027500  0.48234400  0.12050600  1
  C  C64  1  0.57353500  0.92037600  0.90312900  1
  C  C65  1  0.92646500  0.42037600  0.59687100  1
  C  C66  1  0.07353500  0.07962400  0.59687100  1
  C  C67  1  0.42646500  0.57962400  0.90312900  1
  C  C68  1  0.42646500  0.07962400  0.09687100  1
  C  C69  1  0.07353500  0.57962400  0.40312900  1
  C  C70  1  0.92646500  0.92037600  0.40312900  1
  C  C71  1  0.57353500  0.42037600  0.09687100  1
  C  C72  1  0.34293200  0.80473400  0.80140500  1
  C  C73  1  0.15706800  0.30473400  0.69859500  1
  C  C74  1  0.84293200  0.19526600  0.69859500  1
  C  C75  1  0.65706800  0.69526600  0.80140500  1
  C  C76  1  0.65706800  0.19526600  0.19859500  1
  C  C77  1  0.84293200  0.69526600  0.30140500  1
  C  C78  1  0.15706800  0.80473400  0.30140500  1
  C  C79  1  0.34293200  0.30473400  0.19859500  1
  C  C80  1  0.09312900  0.16308100  0.78764600  1
  C  C81  1  0.40687100  0.66308100  0.71235400  1
  C  C82  1  0.59312900  0.83691900  0.71235400  1
  C  C83  1  0.90687100  0.33691900  0.78764600  1
  C  C84  1  0.90687100  0.83691900  0.21235400  1
  C  C85  1  0.59312900  0.33691900  0.28764600  1
  C  C86  1  0.40687100  0.16308100  0.28764600  1
  C  C87  1  0.09312900  0.66308100  0.21235400  1
  C  C88  1  0.76510200  0.07639200  0.85863400  1
  C  C89  1  0.73489800  0.57639200  0.64136600  1
  C  C90  1  0.26510200  0.92360800  0.64136600  1
  C  C91  1  0.23489800  0.42360800  0.85863400  1
  C  C92  1  0.23489800  0.92360800  0.14136600  1
  C  C93  1  0.26510200  0.42360800  0.35863400  1
  C  C94  1  0.73489800  0.07639200  0.35863400  1
  C  C95  1  0.76510200  0.57639200  0.14136600  1
