# generated using pymatgen
data_Cu5Ni24
_symmetry_space_group_name_H-M   'P 1'
_cell_length_a   8.35996146
_cell_length_b   8.35996146
_cell_length_c   8.35996146
_cell_angle_alpha   109.47122063
_cell_angle_beta   109.47122063
_cell_angle_gamma   109.47122063
_symmetry_Int_Tables_number   1
_chemical_formula_structural   Cu5Ni24
_chemical_formula_sum   'Cu5 Ni24'
_cell_volume   449.77046715
_cell_formula_units_Z   1
loop_
 _symmetry_equiv_pos_site_id
 _symmetry_equiv_pos_as_xyz
  1  'x, y, z'
loop_
 _atom_site_type_symbol
 _atom_site_label
 _atom_site_symmetry_multiplicity
 _atom_site_fract_x
 _atom_site_fract_y
 _atom_site_fract_z
 _atom_site_occupancy
  Ni  Ni0  1  0.31542600  0.31542600  0.71677100  1
  Ni  Ni1  1  0.40134500  0.68457400  0.00000000  1
  Ni  Ni2  1  0.68457400  0.40134500  0.00000000  1
  Ni  Ni3  1  0.59865500  0.28322900  0.59865500  1
  Ni  Ni4  1  0.40134500  0.00000000  0.68457400  1
  Ni  Ni5  1  0.00000000  0.40134500  0.68457400  1
  Ni  Ni6  1  0.28322900  0.59865500  0.59865500  1
  Ni  Ni7  1  0.71677100  0.31542600  0.31542600  1
  Ni  Ni8  1  0.31542600  0.71677100  0.31542600  1
  Ni  Ni9  1  0.68457400  0.00000000  0.40134500  1
  Ni  Ni10  1  0.00000000  0.68457400  0.40134500  1
  Ni  Ni11  1  0.59865500  0.59865500  0.28322900  1
  Ni  Ni12  1  0.80650400  0.80650400  0.18197700  1
  Ni  Ni13  1  0.37547400  0.19349600  0.00000000  1
  Ni  Ni14  1  0.19349600  0.37547400  0.00000000  1
  Ni  Ni15  1  0.62452600  0.81802300  0.62452600  1
  Ni  Ni16  1  0.37547400  0.00000000  0.19349600  1
  Ni  Ni17  1  0.00000000  0.37547400  0.19349600  1
  Ni  Ni18  1  0.81802300  0.62452600  0.62452600  1
  Ni  Ni19  1  0.18197700  0.80650400  0.80650400  1
  Ni  Ni20  1  0.80650400  0.18197700  0.80650400  1
  Ni  Ni21  1  0.19349600  0.00000000  0.37547400  1
  Ni  Ni22  1  0.00000000  0.19349600  0.37547400  1
  Ni  Ni23  1  0.62452600  0.62452600  0.81802300  1
  Cu  Cu24  1  0.00000000  0.00000000  0.00000000  1
  Cu  Cu25  1  0.00000000  0.00000000  0.64144800  1
  Cu  Cu26  1  0.64144800  0.00000000  0.00000000  1
  Cu  Cu27  1  0.00000000  0.64144800  0.00000000  1
  Cu  Cu28  1  0.35855200  0.35855200  0.35855200  1
