# generated using pymatgen
data_Cu2NiC6
_symmetry_space_group_name_H-M   'P 1'
_cell_length_a   12.94915870
_cell_length_b   12.94915870
_cell_length_c   8.16615600
_cell_angle_alpha   90.00000000
_cell_angle_beta   90.00000000
_cell_angle_gamma   143.21124221
_symmetry_Int_Tables_number   1
_chemical_formula_structural   Cu2NiC6
_chemical_formula_sum   'Cu4 Ni2 C12'
_cell_volume   820.03195955
_cell_formula_units_Z   2
loop_
 _symmetry_equiv_pos_site_id
 _symmetry_equiv_pos_as_xyz
  1  'x, y, z'
loop_
 _atom_site_type_symbol
 _atom_site_label
 _atom_site_symmetry_multiplicity
 _atom_site_fract_x
 _atom_site_fract_y
 _atom_site_fract_z
 _atom_site_occupancy
  Ni  Ni0  1  0.00000000  0.00000000  0.50000000  1
  Ni  Ni1  1  0.50000000  0.50000000  0.00000000  1
  Cu  Cu2  1  0.16797300  0.83202700  0.00000000  1
  Cu  Cu3  1  0.33202700  0.66797300  0.50000000  1
  Cu  Cu4  1  0.83202700  0.16797300  0.00000000  1
  Cu  Cu5  1  0.66797300  0.33202700  0.50000000  1
  C  C6  1  0.66645400  0.84034000  0.24928400  1
  C  C7  1  0.51676700  0.01676700  0.75000000  1
  C  C8  1  0.65966000  0.83354600  0.74928400  1
  C  C9  1  0.16645400  0.34034000  0.25071600  1
  C  C10  1  0.84034000  0.66645400  0.24928400  1
  C  C11  1  0.98323300  0.48323300  0.25000000  1
  C  C12  1  0.01676700  0.51676700  0.75000000  1
  C  C13  1  0.83354600  0.65966000  0.74928400  1
  C  C14  1  0.15966000  0.33354600  0.75071600  1
  C  C15  1  0.34034000  0.16645400  0.25071600  1
  C  C16  1  0.48323300  0.98323300  0.25000000  1
  C  C17  1  0.33354600  0.15966000  0.75071600  1
