# generated using pymatgen
data_Cu6Ni9C
_symmetry_space_group_name_H-M   'P 1'
_cell_length_a   9.07549600
_cell_length_b   9.07549600
_cell_length_c   9.37207720
_cell_angle_alpha   118.95859564
_cell_angle_beta   118.95858866
_cell_angle_gamma   90.00000000
_symmetry_Int_Tables_number   1
_chemical_formula_structural   Cu6Ni9C
_chemical_formula_sum   'Cu6 Ni9 C1'
_cell_volume   562.57824607
_cell_formula_units_Z   1
loop_
 _symmetry_equiv_pos_site_id
 _symmetry_equiv_pos_as_xyz
  1  'x, y, z'
loop_
 _atom_site_type_symbol
 _atom_site_label
 _atom_site_symmetry_multiplicity
 _atom_site_fract_x
 _atom_site_fract_y
 _atom_site_fract_z
 _atom_site_occupancy
  C  C0  1  0.00000000  0.00000000  0.00000000  1
  Ni  Ni1  1  0.50000000  0.50000000  0.00000000  1
  Ni  Ni2  1  0.79604000  0.31459200  0.31432100  1
  Ni  Ni3  1  0.51828100  0.99972900  0.31432100  1
  Ni  Ni4  1  0.99972900  0.79604000  0.31432100  1
  Ni  Ni5  1  0.31459200  0.51828100  0.31432100  1
  Ni  Ni6  1  0.20396000  0.68540800  0.68567900  1
  Ni  Ni7  1  0.48171900  0.00027100  0.68567900  1
  Ni  Ni8  1  0.00027100  0.20396000  0.68567900  1
  Ni  Ni9  1  0.68540800  0.48171900  0.68567900  1
  Cu  Cu10  1  0.23735800  0.23735800  0.47471500  1
  Cu  Cu11  1  0.76264200  0.76264200  0.52528500  1
  Cu  Cu12  1  0.84850900  0.32502500  0.00000000  1
  Cu  Cu13  1  0.15149100  0.67497500  0.00000000  1
  Cu  Cu14  1  0.67497500  0.84850900  0.00000000  1
  Cu  Cu15  1  0.32502500  0.15149100  0.00000000  1
