# generated using pymatgen
data_Cu7NiC8
_symmetry_space_group_name_H-M   'P 1'
_cell_length_a   10.27301200
_cell_length_b   12.49934600
_cell_length_c   5.07103600
_cell_angle_alpha   90.00000000
_cell_angle_beta   90.00000000
_cell_angle_gamma   90.00000000
_symmetry_Int_Tables_number   1
_chemical_formula_structural   Cu7NiC8
_chemical_formula_sum   'Cu28 Ni4 C32'
_cell_volume   651.15110100
_cell_formula_units_Z   4
loop_
 _symmetry_equiv_pos_site_id
 _symmetry_equiv_pos_as_xyz
  1  'x, y, z'
loop_
 _atom_site_type_symbol
 _atom_site_label
 _atom_site_symmetry_multiplicity
 _atom_site_fract_x
 _atom_site_fract_y
 _atom_site_fract_z
 _atom_site_occupancy
  C  C0  1  0.65431200  0.99803500  0.70154600  1
  C  C1  1  0.15431200  0.50196500  0.79845400  1
  C  C2  1  0.34568800  0.49803500  0.29845400  1
  C  C3  1  0.84568800  0.00196500  0.20154600  1
  C  C4  1  0.34568800  0.00196500  0.29845400  1
  C  C5  1  0.84568800  0.49803500  0.20154600  1
  C  C6  1  0.65431200  0.50196500  0.70154600  1
  C  C7  1  0.15431200  0.99803500  0.79845400  1
  C  C8  1  0.40008800  0.13179200  0.78426200  1
  C  C9  1  0.90008800  0.36820800  0.71573800  1
  C  C10  1  0.59991200  0.63179200  0.21573800  1
  C  C11  1  0.09991200  0.86820800  0.28426200  1
  C  C12  1  0.59991200  0.86820800  0.21573800  1
  C  C13  1  0.09991200  0.63179200  0.28426200  1
  C  C14  1  0.40008800  0.36820800  0.78426200  1
  C  C15  1  0.90008800  0.13179200  0.71573800  1
  C  C16  1  0.59916200  0.25000000  0.43857700  1
  C  C17  1  0.09916200  0.25000000  0.06142300  1
  C  C18  1  0.40083800  0.75000000  0.56142300  1
  C  C19  1  0.90083800  0.75000000  0.93857700  1
  C  C20  1  0.58778600  0.18344000  0.15239300  1
  C  C21  1  0.08778600  0.31656000  0.34760700  1
  C  C22  1  0.41221400  0.68344000  0.84760700  1
  C  C23  1  0.91221400  0.81656000  0.65239300  1
  C  C24  1  0.41221400  0.81656000  0.84760700  1
  C  C25  1  0.91221400  0.68344000  0.65239300  1
  C  C26  1  0.58778600  0.31656000  0.15239300  1
  C  C27  1  0.08778600  0.18344000  0.34760700  1
  C  C28  1  0.72714300  0.25000000  0.23031800  1
  C  C29  1  0.22714300  0.25000000  0.26968200  1
  C  C30  1  0.27285700  0.75000000  0.76968200  1
  C  C31  1  0.77285700  0.75000000  0.73031800  1
  Ni  Ni32  1  0.62687700  0.25000000  0.24349900  1
  Ni  Ni33  1  0.12687700  0.25000000  0.25650100  1
  Ni  Ni34  1  0.37312300  0.75000000  0.75650100  1
  Ni  Ni35  1  0.87312300  0.75000000  0.74349900  1
  Cu  Cu36  1  0.54265400  0.11595000  0.69538300  1
  Cu  Cu37  1  0.04265400  0.38405000  0.80461700  1
  Cu  Cu38  1  0.45734600  0.61595000  0.30461700  1
  Cu  Cu39  1  0.95734600  0.88405000  0.19538300  1
  Cu  Cu40  1  0.45734600  0.88405000  0.30461700  1
  Cu  Cu41  1  0.95734600  0.61595000  0.19538300  1
  Cu  Cu42  1  0.54265400  0.38405000  0.69538300  1
  Cu  Cu43  1  0.04265400  0.11595000  0.80461700  1
  Cu  Cu44  1  0.30694200  0.05241200  0.63880000  1
  Cu  Cu45  1  0.80694200  0.44758800  0.86120000  1
  Cu  Cu46  1  0.69305800  0.55241200  0.36120000  1
  Cu  Cu47  1  0.19305800  0.94758800  0.13880000  1
  Cu  Cu48  1  0.69305800  0.94758800  0.36120000  1
  Cu  Cu49  1  0.19305800  0.55241200  0.13880000  1
  Cu  Cu50  1  0.30694200  0.44758800  0.63880000  1
  Cu  Cu51  1  0.80694200  0.05241200  0.86120000  1
  Cu  Cu52  1  0.39018700  0.11963500  0.08775300  1
  Cu  Cu53  1  0.89018700  0.38036500  0.41224700  1
  Cu  Cu54  1  0.60981300  0.61963500  0.91224700  1
  Cu  Cu55  1  0.10981300  0.88036500  0.58775300  1
  Cu  Cu56  1  0.60981300  0.88036500  0.91224700  1
  Cu  Cu57  1  0.10981300  0.61963500  0.58775300  1
  Cu  Cu58  1  0.39018700  0.38036500  0.08775300  1
  Cu  Cu59  1  0.89018700  0.11963500  0.41224700  1
  Cu  Cu60  1  0.35525600  0.25000000  0.70353500  1
  Cu  Cu61  1  0.85525600  0.25000000  0.79646500  1
  Cu  Cu62  1  0.64474400  0.75000000  0.29646500  1
  Cu  Cu63  1  0.14474400  0.75000000  0.20353500  1
