# generated using pymatgen
data_CuNi2C
_symmetry_space_group_name_H-M   'P 1'
_cell_length_a   4.77769500
_cell_length_b   9.03121400
_cell_length_c   10.88714900
_cell_angle_alpha   90.00000000
_cell_angle_beta   90.00000000
_cell_angle_gamma   90.00000000
_symmetry_Int_Tables_number   1
_chemical_formula_structural   CuNi2C
_chemical_formula_sum   'Cu4 Ni8 C4'
_cell_volume   469.76290718
_cell_formula_units_Z   4
loop_
 _symmetry_equiv_pos_site_id
 _symmetry_equiv_pos_as_xyz
  1  'x, y, z'
loop_
 _atom_site_type_symbol
 _atom_site_label
 _atom_site_symmetry_multiplicity
 _atom_site_fract_x
 _atom_site_fract_y
 _atom_site_fract_z
 _atom_site_occupancy
  C  C0  1  0.25000000  0.23141500  0.89113000  1
  C  C1  1  0.25000000  0.73141500  0.60887000  1
  C  C2  1  0.75000000  0.76858500  0.10887000  1
  C  C3  1  0.75000000  0.26858500  0.39113000  1
  Ni  Ni4  1  0.75000000  0.13232700  0.09897100  1
  Ni  Ni5  1  0.75000000  0.63232700  0.40102900  1
  Ni  Ni6  1  0.25000000  0.86767300  0.90102900  1
  Ni  Ni7  1  0.25000000  0.36767300  0.59897100  1
  Ni  Ni8  1  0.75000000  0.05109600  0.67929200  1
  Ni  Ni9  1  0.75000000  0.55109600  0.82070800  1
  Ni  Ni10  1  0.25000000  0.94890400  0.32070800  1
  Ni  Ni11  1  0.25000000  0.44890400  0.17929200  1
  Cu  Cu12  1  0.75000000  0.35153600  0.84745400  1
  Cu  Cu13  1  0.75000000  0.85153600  0.65254600  1
  Cu  Cu14  1  0.25000000  0.64846400  0.15254600  1
  Cu  Cu15  1  0.25000000  0.14846400  0.34745400  1
