# generated using pymatgen
data_CuNi2C3
_symmetry_space_group_name_H-M   'P 1'
_cell_length_a   5.17948329
_cell_length_b   5.49404410
_cell_length_c   4.94425300
_cell_angle_alpha   90.00000000
_cell_angle_beta   90.00000000
_cell_angle_gamma   122.03019644
_symmetry_Int_Tables_number   1
_chemical_formula_structural   CuNi2C3
_chemical_formula_sum   'Cu2 Ni4 C6'
_cell_volume   119.27698146
_cell_formula_units_Z   2
loop_
 _symmetry_equiv_pos_site_id
 _symmetry_equiv_pos_as_xyz
  1  'x, y, z'
loop_
 _atom_site_type_symbol
 _atom_site_label
 _atom_site_symmetry_multiplicity
 _atom_site_fract_x
 _atom_site_fract_y
 _atom_site_fract_z
 _atom_site_occupancy
  Ni  Ni0  1  0.35907900  0.39014600  0.52363400  1
  Ni  Ni1  1  0.64092100  0.03106700  0.52363400  1
  Ni  Ni2  1  0.64092100  0.60985400  0.02363400  1
  Ni  Ni3  1  0.35907900  0.96893300  0.02363400  1
  Cu  Cu4  1  0.00000000  0.64048900  0.43753500  1
  Cu  Cu5  1  0.00000000  0.35951100  0.93753500  1
  C  C6  1  0.32406100  0.26932700  0.88460500  1
  C  C7  1  0.67593900  0.94526700  0.88460500  1
  C  C8  1  0.67593900  0.73067300  0.38460500  1
  C  C9  1  0.32406100  0.05473300  0.38460500  1
  C  C10  1  0.00000000  0.71205800  0.83398700  1
  C  C11  1  0.00000000  0.28794200  0.33398700  1
