# generated using pymatgen
data_CuNiC6
_symmetry_space_group_name_H-M   'P 1'
_cell_length_a   15.03263501
_cell_length_b   15.02858627
_cell_length_c   3.81128455
_cell_angle_alpha   82.77658194
_cell_angle_beta   82.65583348
_cell_angle_gamma   14.56758458
_symmetry_Int_Tables_number   1
_chemical_formula_structural   CuNiC6
_chemical_formula_sum   'Cu2 Ni2 C12'
_cell_volume   214.78725920
_cell_formula_units_Z   2
loop_
 _symmetry_equiv_pos_site_id
 _symmetry_equiv_pos_as_xyz
  1  'x, y, z'
loop_
 _atom_site_type_symbol
 _atom_site_label
 _atom_site_symmetry_multiplicity
 _atom_site_fract_x
 _atom_site_fract_y
 _atom_site_fract_z
 _atom_site_occupancy
  Ni  Ni0  1  0.59177400  0.57859300  0.42140700  1
  Ni  Ni1  1  0.42140700  0.40822600  0.59177400  1
  Cu  Cu2  1  0.70406500  0.70262500  0.29737500  1
  Cu  Cu3  1  0.29737500  0.29593500  0.70406500  1
  C  C4  1  0.04358400  0.95641600  0.04358400  1
  C  C5  1  0.15010000  0.14677800  0.85322200  1
  C  C6  1  0.85322200  0.84990000  0.15010000  1
  C  C7  1  0.65327900  0.64910700  0.85019100  1
  C  C8  1  0.15257600  0.14980900  0.35089300  1
  C  C9  1  0.35089300  0.34672100  0.15257600  1
  C  C10  1  0.85019100  0.84742400  0.65327900  1
  C  C11  1  0.22130700  0.22050500  0.77949500  1
  C  C12  1  0.77949500  0.77869300  0.22130700  1
  C  C13  1  0.47922900  0.52077100  0.47922900  1
  C  C14  1  0.07108300  0.07158000  0.92842000  1
  C  C15  1  0.92842000  0.92891700  0.07108300  1
