# generated using pymatgen
data_CuNiC8
_symmetry_space_group_name_H-M   'P 1'
_cell_length_a   6.16705231
_cell_length_b   6.23042065
_cell_length_c   6.16705231
_cell_angle_alpha   60.33588078
_cell_angle_beta   90.00000000
_cell_angle_gamma   119.66411922
_symmetry_Int_Tables_number   1
_chemical_formula_structural   CuNiC8
_chemical_formula_sum   'Cu1 Ni1 C8'
_cell_volume   169.24210386
_cell_formula_units_Z   1
loop_
 _symmetry_equiv_pos_site_id
 _symmetry_equiv_pos_as_xyz
  1  'x, y, z'
loop_
 _atom_site_type_symbol
 _atom_site_label
 _atom_site_symmetry_multiplicity
 _atom_site_fract_x
 _atom_site_fract_y
 _atom_site_fract_z
 _atom_site_occupancy
  Ni  Ni0  1  0.75000000  0.50000000  0.75000000  1
  Cu  Cu1  1  0.50000000  -0.00000000  0.50000000  1
  C  C2  1  0.25000000  0.50000000  0.25000000  1
  C  C3  1  -0.00000000  0.00000000  -0.00000000  1
  C  C4  1  0.76249361  0.52498722  0.23750639  1
  C  C5  1  0.23750639  0.47501278  0.76249361  1
  C  C6  1  0.88300102  0.05719977  0.65637551  1
  C  C7  1  0.17419875  0.05719977  0.28642472  1
  C  C8  1  0.28642472  0.94280023  0.88300102  1
  C  C9  1  0.65637551  0.94280023  0.17419875  1
