# generated using pymatgen
data_Cu4Ni2C23
_symmetry_space_group_name_H-M   'P 1'
_cell_length_a   5.53541028
_cell_length_b   5.53541028
_cell_length_c   13.71159998
_cell_angle_alpha   78.35475578
_cell_angle_beta   78.35475578
_cell_angle_gamma   59.99999669
_symmetry_Int_Tables_number   1
_chemical_formula_structural   Cu4Ni2C23
_chemical_formula_sum   'Cu4 Ni2 C23'
_cell_volume   353.82561182
_cell_formula_units_Z   1
loop_
 _symmetry_equiv_pos_site_id
 _symmetry_equiv_pos_as_xyz
  1  'x, y, z'
loop_
 _atom_site_type_symbol
 _atom_site_label
 _atom_site_symmetry_multiplicity
 _atom_site_fract_x
 _atom_site_fract_y
 _atom_site_fract_z
 _atom_site_occupancy
  Ni  Ni0  1  0.36087300  0.36087300  0.91738100  1
  Ni  Ni1  1  0.63912700  0.63912700  0.08261900  1
  Cu  Cu2  1  0.08700300  0.08700300  0.73899000  1
  Cu  Cu3  1  0.91299700  0.91299700  0.26101000  1
  Cu  Cu4  1  0.18722300  0.18722300  0.43833000  1
  Cu  Cu5  1  0.81277700  0.81277700  0.56167000  1
  C  C6  1  0.00000000  0.00000000  0.00000000  1
  C  C7  1  0.44960500  0.44960500  0.65118500  1
  C  C8  1  0.55039500  0.55039500  0.34881500  1
  C  C9  1  0.27685200  0.27685200  0.16944500  1
  C  C10  1  0.72314800  0.72314800  0.83055500  1
  C  C11  1  0.91589300  0.41689200  0.25032200  1
  C  C12  1  0.41689200  0.41689200  0.25032200  1
  C  C13  1  0.41689200  0.91589300  0.25032200  1
  C  C14  1  0.08410700  0.58310800  0.74967800  1
  C  C15  1  0.58310800  0.58310800  0.74967800  1
  C  C16  1  0.58310800  0.08410700  0.74967800  1
  C  C17  1  0.36016000  0.86181800  0.91620400  1
  C  C18  1  0.86181800  0.86181800  0.91620400  1
  C  C19  1  0.86181800  0.36016000  0.91620400  1
  C  C20  1  0.63984000  0.13818200  0.08379600  1
  C  C21  1  0.13818200  0.13818200  0.08379600  1
  C  C22  1  0.13818200  0.63984000  0.08379600  1
  C  C23  1  0.81751100  0.29780000  0.58688800  1
  C  C24  1  0.29780000  0.29780000  0.58688800  1
  C  C25  1  0.29780000  0.81751100  0.58688800  1
  C  C26  1  0.18248900  0.70220000  0.41311200  1
  C  C27  1  0.70220000  0.70220000  0.41311200  1
  C  C28  1  0.70220000  0.18248900  0.41311200  1
