# generated using pymatgen
data_Cu3NiC2
_symmetry_space_group_name_H-M   'P 1'
_cell_length_a   13.81642500
_cell_length_b   8.51061800
_cell_length_c   16.83971404
_cell_angle_alpha   59.77007255
_cell_angle_beta   90.00000000
_cell_angle_gamma   90.00000000
_symmetry_Int_Tables_number   1
_chemical_formula_structural   Cu3NiC2
_chemical_formula_sum   'Cu24 Ni8 C16'
_cell_volume   1710.84725794
_cell_formula_units_Z   8
loop_
 _symmetry_equiv_pos_site_id
 _symmetry_equiv_pos_as_xyz
  1  'x, y, z'
loop_
 _atom_site_type_symbol
 _atom_site_label
 _atom_site_symmetry_multiplicity
 _atom_site_fract_x
 _atom_site_fract_y
 _atom_site_fract_z
 _atom_site_occupancy
  C  C0  1  0.59740500  0.14184300  0.57304400  1
  C  C1  1  0.40883300  0.27749500  0.43142400  1
  C  C2  1  0.09740500  0.85815700  0.92695600  1
  C  C3  1  0.90883300  0.72250500  0.06857600  1
  C  C4  1  0.40259500  0.85815700  0.42695600  1
  C  C5  1  0.59116700  0.72250500  0.56857600  1
  C  C6  1  0.90259500  0.14184300  0.07304400  1
  C  C7  1  0.09116700  0.27749500  0.93142400  1
  C  C8  1  0.60268500  0.62302200  0.37668100  1
  C  C9  1  0.39731500  0.37697800  0.62331900  1
  C  C10  1  0.10268500  0.37697800  0.12331900  1
  C  C11  1  0.89731500  0.62302200  0.87668100  1
  C  C12  1  0.36810100  0.84200900  0.65818200  1
  C  C13  1  0.63189900  0.15799100  0.34181800  1
  C  C14  1  0.86810100  0.15799100  0.84181800  1
  C  C15  1  0.13189900  0.84200900  0.15818200  1
  Ni  Ni16  1  0.46810600  0.96179300  0.53822600  1
  Ni  Ni17  1  0.53189400  0.03820700  0.46177400  1
  Ni  Ni18  1  0.96810600  0.03820700  0.96177400  1
  Ni  Ni19  1  0.03189400  0.96179300  0.03822600  1
  Ni  Ni20  1  0.51678600  0.41064100  0.51229300  1
  Ni  Ni21  1  0.01678600  0.58935900  0.98770700  1
  Ni  Ni22  1  0.48321400  0.58935900  0.48770700  1
  Ni  Ni23  1  0.98321400  0.41064100  0.01229300  1
  Cu  Cu24  1  0.76219400  0.32789200  0.42608800  1
  Cu  Cu25  1  0.23951800  0.18472200  0.57213700  1
  Cu  Cu26  1  0.26219400  0.67210800  0.07391200  1
  Cu  Cu27  1  0.73951800  0.81527800  0.92786300  1
  Cu  Cu28  1  0.23780600  0.67210800  0.57391200  1
  Cu  Cu29  1  0.76048200  0.81527800  0.42786300  1
  Cu  Cu30  1  0.73780600  0.32789200  0.92608800  1
  Cu  Cu31  1  0.26048200  0.18472200  0.07213700  1
  Cu  Cu32  1  0.72577200  0.33620400  0.66610100  1
  Cu  Cu33  1  0.27422800  0.66379600  0.33389900  1
  Cu  Cu34  1  0.22577200  0.66379600  0.83389900  1
  Cu  Cu35  1  0.77422800  0.33620400  0.16610100  1
  Cu  Cu36  1  0.48461300  0.99453400  0.75943100  1
  Cu  Cu37  1  0.51372100  0.51353500  0.24277200  1
  Cu  Cu38  1  0.98461300  0.00546600  0.74056900  1
  Cu  Cu39  1  0.01372100  0.48646500  0.25722800  1
  Cu  Cu40  1  0.51538700  0.00546600  0.24056900  1
  Cu  Cu41  1  0.48627900  0.48646500  0.75722800  1
  Cu  Cu42  1  0.01538700  0.99453400  0.25943100  1
  Cu  Cu43  1  0.98627900  0.51353500  0.74277200  1
  Cu  Cu44  1  0.74092300  0.81945300  0.67734400  1
  Cu  Cu45  1  0.25907700  0.18054700  0.32265600  1
  Cu  Cu46  1  0.24092300  0.18054700  0.82265600  1
  Cu  Cu47  1  0.75907700  0.81945300  0.17734400  1
