# generated using pymatgen
data_Cu2(NiC)3
_symmetry_space_group_name_H-M   'P 1'
_cell_length_a   8.53265000
_cell_length_b   9.64477700
_cell_length_c   11.82046477
_cell_angle_alpha   86.64436516
_cell_angle_beta   90.00000000
_cell_angle_gamma   90.00000000
_symmetry_Int_Tables_number   1
_chemical_formula_structural   Cu2(NiC)3
_chemical_formula_sum   'Cu8 Ni12 C12'
_cell_volume   971.10327085
_cell_formula_units_Z   4
loop_
 _symmetry_equiv_pos_site_id
 _symmetry_equiv_pos_as_xyz
  1  'x, y, z'
loop_
 _atom_site_type_symbol
 _atom_site_label
 _atom_site_symmetry_multiplicity
 _atom_site_fract_x
 _atom_site_fract_y
 _atom_site_fract_z
 _atom_site_occupancy
  C  C0  1  0.02087800  0.83390400  0.20717400  1
  C  C1  1  0.52087800  0.16609600  0.29282600  1
  C  C2  1  0.97912200  0.16609600  0.79282600  1
  C  C3  1  0.47912200  0.83390400  0.70717400  1
  C  C4  1  0.06271500  0.71556000  0.94926800  1
  C  C5  1  0.56271500  0.28444000  0.55073200  1
  C  C6  1  0.93728500  0.28444000  0.05073200  1
  C  C7  1  0.43728500  0.71556000  0.44926800  1
  C  C8  1  0.15926200  0.83580900  0.01396300  1
  C  C9  1  0.65926200  0.16419100  0.48603700  1
  C  C10  1  0.84073800  0.16419100  0.98603700  1
  C  C11  1  0.34073800  0.83580900  0.51396300  1
  Ni  Ni12  1  0.66913100  0.68732000  0.02692000  1
  Ni  Ni13  1  0.16913100  0.31268000  0.47308000  1
  Ni  Ni14  1  0.33086900  0.31268000  0.97308000  1
  Ni  Ni15  1  0.83086900  0.68732000  0.52692000  1
  Ni  Ni16  1  0.70337100  0.76786600  0.08591900  1
  Ni  Ni17  1  0.20337100  0.23213400  0.41408100  1
  Ni  Ni18  1  0.29662900  0.23213400  0.91408100  1
  Ni  Ni19  1  0.79662900  0.76786600  0.58591900  1
  Ni  Ni20  1  0.99492000  0.63563600  0.89474700  1
  Ni  Ni21  1  0.49492000  0.36436400  0.60525300  1
  Ni  Ni22  1  0.00508000  0.36436400  0.10525300  1
  Ni  Ni23  1  0.50508000  0.63563600  0.39474700  1
  Cu  Cu24  1  0.02936300  0.60453600  0.29515600  1
  Cu  Cu25  1  0.52936300  0.39546400  0.20484400  1
  Cu  Cu26  1  0.97063700  0.39546400  0.70484400  1
  Cu  Cu27  1  0.47063700  0.60453600  0.79515600  1
  Cu  Cu28  1  0.88959900  0.02551000  0.28889600  1
  Cu  Cu29  1  0.38959900  0.97449000  0.21110400  1
  Cu  Cu30  1  0.11040100  0.97449000  0.71110400  1
  Cu  Cu31  1  0.61040100  0.02551000  0.78889600  1
