# generated using pymatgen
data_CuNi10C3
_symmetry_space_group_name_H-M   'P 1'
_cell_length_a   4.22378500
_cell_length_b   4.31006400
_cell_length_c   15.26939800
_cell_angle_alpha   90.00000000
_cell_angle_beta   90.00000000
_cell_angle_gamma   90.00000000
_symmetry_Int_Tables_number   1
_chemical_formula_structural   CuNi10C3
_chemical_formula_sum   'Cu1 Ni10 C3'
_cell_volume   277.97608740
_cell_formula_units_Z   1
loop_
 _symmetry_equiv_pos_site_id
 _symmetry_equiv_pos_as_xyz
  1  'x, y, z'
loop_
 _atom_site_type_symbol
 _atom_site_label
 _atom_site_symmetry_multiplicity
 _atom_site_fract_x
 _atom_site_fract_y
 _atom_site_fract_z
 _atom_site_occupancy
  C  C0  1  0.00000000  0.50000000  0.50000000  1
  C  C1  1  0.00000000  0.00000000  0.24573600  1
  C  C2  1  0.00000000  0.00000000  0.75426400  1
  Ni  Ni3  1  0.50000000  0.50000000  0.18461500  1
  Ni  Ni4  1  0.50000000  0.50000000  0.81538500  1
  Ni  Ni5  1  0.50000000  0.50000000  0.34190000  1
  Ni  Ni6  1  0.50000000  0.50000000  0.65810000  1
  Ni  Ni7  1  0.50000000  0.00000000  0.41924400  1
  Ni  Ni8  1  0.50000000  0.00000000  0.58075600  1
  Ni  Ni9  1  0.50000000  0.00000000  0.08501600  1
  Ni  Ni10  1  0.50000000  0.00000000  0.91498400  1
  Ni  Ni11  1  0.00000000  0.50000000  0.08418900  1
  Ni  Ni12  1  0.00000000  0.50000000  0.91581100  1
  Cu  Cu13  1  0.00000000  0.00000000  0.00000000  1
