# generated using pymatgen
data_Cu6Ni7C3
_symmetry_space_group_name_H-M   'P 1'
_cell_length_a   7.74619598
_cell_length_b   10.68202454
_cell_length_c   10.38992800
_cell_angle_alpha   90.00000000
_cell_angle_beta   90.00000000
_cell_angle_gamma   94.40148288
_symmetry_Int_Tables_number   1
_chemical_formula_structural   Cu6Ni7C3
_chemical_formula_sum   'Cu12 Ni14 C6'
_cell_volume   857.17966841
_cell_formula_units_Z   2
loop_
 _symmetry_equiv_pos_site_id
 _symmetry_equiv_pos_as_xyz
  1  'x, y, z'
loop_
 _atom_site_type_symbol
 _atom_site_label
 _atom_site_symmetry_multiplicity
 _atom_site_fract_x
 _atom_site_fract_y
 _atom_site_fract_z
 _atom_site_occupancy
  C  C0  1  0.24205100  0.52578800  0.75000000  1
  C  C1  1  0.75794900  0.47421200  0.25000000  1
  C  C2  1  0.71494900  0.17314400  0.75000000  1
  C  C3  1  0.28505100  0.82685600  0.25000000  1
  C  C4  1  0.85639800  0.84633500  0.75000000  1
  C  C5  1  0.14360200  0.15366500  0.25000000  1
  Ni  Ni6  1  0.03358100  0.10357200  0.75000000  1
  Ni  Ni7  1  0.96641900  0.89642800  0.25000000  1
  Ni  Ni8  1  0.63848700  0.57892300  0.43813000  1
  Ni  Ni9  1  0.36151300  0.42107700  0.56187000  1
  Ni  Ni10  1  0.36151300  0.42107700  0.93813000  1
  Ni  Ni11  1  0.63848700  0.57892300  0.06187000  1
  Ni  Ni12  1  0.67601700  0.96691000  0.92081200  1
  Ni  Ni13  1  0.32398300  0.03309000  0.07918800  1
  Ni  Ni14  1  0.32398300  0.03309000  0.42081200  1
  Ni  Ni15  1  0.67601700  0.96691000  0.57918800  1
  Ni  Ni16  1  0.27786100  0.75298500  0.75000000  1
  Ni  Ni17  1  0.72213900  0.24701500  0.25000000  1
  Ni  Ni18  1  0.92820800  0.46907100  0.75000000  1
  Ni  Ni19  1  0.07179200  0.53092900  0.25000000  1
  Cu  Cu20  1  0.01697000  0.82871600  0.87785000  1
  Cu  Cu21  1  0.98303000  0.17128400  0.12215000  1
  Cu  Cu22  1  0.98303000  0.17128400  0.37785000  1
  Cu  Cu23  1  0.01697000  0.82871600  0.62215000  1
  Cu  Cu24  1  0.75295200  0.27687200  0.87998600  1
  Cu  Cu25  1  0.24704800  0.72312800  0.12001400  1
  Cu  Cu26  1  0.24704800  0.72312800  0.37998600  1
  Cu  Cu27  1  0.75295200  0.27687200  0.62001400  1
  Cu  Cu28  1  0.73434200  0.70632500  0.75000000  1
  Cu  Cu29  1  0.26565800  0.29367500  0.25000000  1
  Cu  Cu30  1  0.48278200  0.13478800  0.75000000  1
  Cu  Cu31  1  0.51721800  0.86521200  0.25000000  1
