# generated using pymatgen
data_Cu3Ni10C23
_symmetry_space_group_name_H-M   'P 1'
_cell_length_a   7.39961200
_cell_length_b   10.09000300
_cell_length_c   10.68117041
_cell_angle_alpha   90.00000000
_cell_angle_beta   110.26641451
_cell_angle_gamma   90.00000000
_symmetry_Int_Tables_number   1
_chemical_formula_structural   Cu3Ni10C23
_chemical_formula_sum   'Cu6 Ni20 C46'
_cell_volume   748.10849129
_cell_formula_units_Z   2
loop_
 _symmetry_equiv_pos_site_id
 _symmetry_equiv_pos_as_xyz
  1  'x, y, z'
loop_
 _atom_site_type_symbol
 _atom_site_label
 _atom_site_symmetry_multiplicity
 _atom_site_fract_x
 _atom_site_fract_y
 _atom_site_fract_z
 _atom_site_occupancy
  C  C0  1  0.42190200  0.01619300  0.33462400  1
  C  C1  1  0.57809800  0.51619300  0.66537600  1
  C  C2  1  0.91272200  0.51619300  0.33462400  1
  C  C3  1  0.08727800  0.01619300  0.66537600  1
  C  C4  1  0.47086600  0.22259000  0.84201200  1
  C  C5  1  0.52913400  0.72259000  0.15798800  1
  C  C6  1  0.37114500  0.72259000  0.84201200  1
  C  C7  1  0.62885500  0.22259000  0.15798800  1
  C  C8  1  0.21440200  0.43365800  0.00000000  1
  C  C9  1  0.78559800  0.93365800  0.00000000  1
  Ni  Ni10  1  0.54679600  0.43336500  0.00000000  1
  Ni  Ni11  1  0.45320400  0.93336500  0.00000000  1
  Ni  Ni12  1  0.73414500  0.25305100  0.70949700  1
  Ni  Ni13  1  0.26585500  0.75305100  0.29050300  1
  Ni  Ni14  1  0.97535100  0.75305100  0.70949700  1
  Ni  Ni15  1  0.02464900  0.25305100  0.29050300  1
  Ni  Ni16  1  0.89827500  0.28382300  0.57635000  1
  Ni  Ni17  1  0.10172500  0.78382300  0.42365000  1
  Ni  Ni18  1  0.67807600  0.78382300  0.57635000  1
  Ni  Ni19  1  0.32192400  0.28382300  0.42365000  1
  Ni  Ni20  1  0.19489700  0.67246700  0.00000000  1
  Ni  Ni21  1  0.80510300  0.17246700  0.00000000  1
  Ni  Ni22  1  0.26490400  0.16371800  0.49175500  1
  Ni  Ni23  1  0.73509600  0.66371800  0.50824500  1
  Ni  Ni24  1  0.22685100  0.66371800  0.49175500  1
  Ni  Ni25  1  0.77314900  0.16371800  0.50824500  1
  Ni  Ni26  1  0.81621100  0.32907200  0.84557100  1
  Ni  Ni27  1  0.18378900  0.82907200  0.15442900  1
  Ni  Ni28  1  0.02936000  0.82907200  0.84557100  1
  Ni  Ni29  1  0.97064000  0.32907200  0.15442900  1
  Cu  Cu30  1  0.18779400  0.11552700  0.00000000  1
  Cu  Cu31  1  0.81220600  0.61552700  0.00000000  1
  Cu  Cu32  1  0.47460300  0.45162100  0.31796600  1
  Cu  Cu33  1  0.52539700  0.95162100  0.68203400  1
  Cu  Cu34  1  0.84336300  0.95162100  0.31796600  1
  Cu  Cu35  1  0.15663700  0.45162100  0.68203400  1
  C  C36  1  0.07501200  0.23899200  0.00000000  1
  C  C37  1  0.92498800  0.73899200  0.00000000  1
  C  C38  1  0.60569200  0.34234900  0.30865600  1
  C  C39  1  0.39430800  0.84234900  0.69134400  1
  C  C40  1  0.70296400  0.84234900  0.30865600  1
  C  C41  1  0.29703600  0.34234900  0.69134400  1
  C  C42  1  0.42485400  0.08097800  0.68314400  1
  C  C43  1  0.57514600  0.58097800  0.31685600  1
  C  C44  1  0.25829000  0.58097800  0.68314400  1
  C  C45  1  0.74171000  0.08097800  0.31685600  1
  C  C46  1  0.69489200  0.30645900  0.77465300  1
  C  C47  1  0.30510800  0.80645800  0.22534700  1
  C  C48  1  0.07976100  0.80645800  0.77465300  1
  C  C49  1  0.92023900  0.30645900  0.22534700  1
  C  C50  1  0.68517000  0.13134700  0.00000000  1
  C  C51  1  0.31483000  0.63134700  0.00000000  1
  C  C52  1  0.07175000  0.99618400  0.00000000  1
  C  C53  1  0.92825000  0.49618400  0.00000000  1
  C  C54  1  0.28720000  0.44459300  0.20570600  1
  C  C55  1  0.71280000  0.94459300  0.79429400  1
  C  C56  1  0.91850600  0.94459300  0.20570600  1
  C  C57  1  0.08149400  0.44459300  0.79429400  1
  C  C58  1  0.43799300  0.43891900  0.44538300  1
  C  C59  1  0.56200700  0.93891900  0.55461700  1
  C  C60  1  0.00738900  0.93891900  0.44538300  1
  C  C61  1  0.99261100  0.43891900  0.55461700  1
  C  C62  1  0.36676200  0.11266200  0.12126100  1
  C  C63  1  0.63323800  0.61266200  0.87873900  1
  C  C64  1  0.75449900  0.61266200  0.12126100  1
  C  C65  1  0.24550100  0.11266200  0.87873900  1
  C  C66  1  0.47237200  0.35362600  0.00000000  1
  C  C67  1  0.52762800  0.85362600  0.00000000  1
  C  C68  1  0.25561600  0.19640200  0.40334700  1
  C  C69  1  0.74438400  0.69640200  0.59665300  1
  C  C70  1  0.14773200  0.69640200  0.40334700  1
  C  C71  1  0.85226800  0.19640200  0.59665300  1
