# generated using pymatgen
data_Cu2NiC3
_symmetry_space_group_name_H-M   'P 1'
_cell_length_a   6.81529000
_cell_length_b   8.17685100
_cell_length_c   8.51853600
_cell_angle_alpha   90.00000000
_cell_angle_beta   90.00000000
_cell_angle_gamma   90.00000000
_symmetry_Int_Tables_number   1
_chemical_formula_structural   Cu2NiC3
_chemical_formula_sum   'Cu8 Ni4 C12'
_cell_volume   474.71765923
_cell_formula_units_Z   4
loop_
 _symmetry_equiv_pos_site_id
 _symmetry_equiv_pos_as_xyz
  1  'x, y, z'
loop_
 _atom_site_type_symbol
 _atom_site_label
 _atom_site_symmetry_multiplicity
 _atom_site_fract_x
 _atom_site_fract_y
 _atom_site_fract_z
 _atom_site_occupancy
  C  C0  1  0.25000000  0.36370200  0.13414900  1
  C  C1  1  0.25000000  0.13629800  0.63414900  1
  C  C2  1  0.75000000  0.63629800  0.86585100  1
  C  C3  1  0.75000000  0.86370200  0.36585100  1
  Ni  Ni4  1  0.75000000  0.17071800  0.88870700  1
  Ni  Ni5  1  0.75000000  0.32928200  0.38870700  1
  Ni  Ni6  1  0.25000000  0.82928200  0.11129300  1
  Ni  Ni7  1  0.25000000  0.67071800  0.61129300  1
  Cu  Cu8  1  0.75000000  0.06875400  0.02521700  1
  Cu  Cu9  1  0.75000000  0.43124600  0.52521700  1
  Cu  Cu10  1  0.25000000  0.93124600  0.97478300  1
  Cu  Cu11  1  0.25000000  0.56875400  0.47478300  1
  Cu  Cu12  1  0.75000000  0.05148200  0.76518800  1
  Cu  Cu13  1  0.75000000  0.44851800  0.26518800  1
  Cu  Cu14  1  0.25000000  0.94851800  0.23481200  1
  Cu  Cu15  1  0.25000000  0.55148200  0.73481200  1
  C  C16  1  0.55696100  0.26333900  0.88222500  1
  C  C17  1  0.94303900  0.23666100  0.38222500  1
  C  C18  1  0.05696100  0.73666100  0.11777500  1
  C  C19  1  0.44303900  0.76333900  0.61777500  1
  C  C20  1  0.44303900  0.73666100  0.11777500  1
  C  C21  1  0.05696100  0.76333900  0.61777500  1
  C  C22  1  0.94303900  0.26333900  0.88222500  1
  C  C23  1  0.55696100  0.23666100  0.38222500  1
