# generated using pymatgen
data_Cu2NiC17
_symmetry_space_group_name_H-M   'P 1'
_cell_length_a   5.49276728
_cell_length_b   9.18096108
_cell_length_c   9.19574054
_cell_angle_alpha   68.99338561
_cell_angle_beta   86.35969036
_cell_angle_gamma   86.45724717
_symmetry_Int_Tables_number   1
_chemical_formula_structural   Cu2NiC17
_chemical_formula_sum   'Cu4 Ni2 C34'
_cell_volume   431.65810003
_cell_formula_units_Z   2
loop_
 _symmetry_equiv_pos_site_id
 _symmetry_equiv_pos_as_xyz
  1  'x, y, z'
loop_
 _atom_site_type_symbol
 _atom_site_label
 _atom_site_symmetry_multiplicity
 _atom_site_fract_x
 _atom_site_fract_y
 _atom_site_fract_z
 _atom_site_occupancy
  C  C0  1  0.58877400  0.62322700  0.63347900  1
  C  C1  1  0.59351100  0.14669500  0.13066200  1
  C  C2  1  0.04831500  0.14782900  0.65853700  1
  C  C3  1  0.06615300  0.65144300  0.15116000  1
  C  C4  1  0.59969700  0.89347300  0.90605700  1
  C  C5  1  0.58627800  0.40818600  0.40208700  1
  C  C6  1  0.94617000  0.35449000  0.85717300  1
  C  C7  1  0.96191700  0.86350000  0.35015600  1
  Ni  Ni8  1  0.01413800  0.50465900  0.49745700  1
  Ni  Ni9  1  0.01488600  0.99983600  0.00105200  1
  C  C10  1  0.52308800  0.00396400  0.50688100  1
  C  C11  1  0.49710000  0.50152500  0.00480000  1
  Cu  Cu12  1  0.01677500  0.74145500  0.75185100  1
  Cu  Cu13  1  0.00769800  0.25273300  0.25699800  1
  Cu  Cu14  1  0.49876600  0.25205300  0.75229000  1
  Cu  Cu15  1  0.50196900  0.76082400  0.24546600  1
  C  C16  1  0.83054000  0.86689400  0.55962900  1
  C  C17  1  0.78756100  0.36542300  0.06077600  1
  C  C18  1  0.98675200  0.92025000  0.81085800  1
  C  C19  1  0.98224900  0.43886600  0.30145200  1
  C  C20  1  0.18852800  0.18523900  0.86045100  1
  C  C21  1  0.19493200  0.68976400  0.36109300  1
  C  C22  1  0.31452800  0.77338000  0.64803000  1
  C  C23  1  0.30728000  0.31248400  0.12238300  1
  C  C24  1  0.31389500  0.37146700  0.57143700  1
  C  C25  1  0.31268800  0.86452500  0.06323600  1
  C  C26  1  0.50915300  0.06139100  0.69951700  1
  C  C27  1  0.48444800  0.55728900  0.18749000  1
  C  C28  1  0.49081300  0.43857900  0.82041300  1
  C  C29  1  0.51469600  0.94223000  0.29372200  1
  C  C30  1  0.68925300  0.13265600  0.92666700  1
  C  C31  1  0.68412300  0.62831300  0.41994800  1
  C  C32  1  0.67853700  0.68238500  0.88005900  1
  C  C33  1  0.67745100  0.19903600  0.36791000  1
  C  C34  1  0.79211100  0.32217100  0.62509400  1
  C  C35  1  0.80104900  0.81509700  0.11862900  1
  C  C36  1  0.96160500  0.56630200  0.68989100  1
  C  C37  1  0.98931600  0.07816900  0.18557700  1
  C  C38  1  0.17683200  0.61232400  0.94932600  1
  C  C39  1  0.15122400  0.14107700  0.44150300  1
