# generated using pymatgen
data_CuNi6C31
_symmetry_space_group_name_H-M   'P 1'
_cell_length_a   6.68258900
_cell_length_b   7.28716300
_cell_length_c   20.26729200
_cell_angle_alpha   90.00000000
_cell_angle_beta   90.00000000
_cell_angle_gamma   90.00000000
_symmetry_Int_Tables_number   1
_chemical_formula_structural   CuNi6C31
_chemical_formula_sum   'Cu2 Ni12 C62'
_cell_volume   986.95865544
_cell_formula_units_Z   2
loop_
 _symmetry_equiv_pos_site_id
 _symmetry_equiv_pos_as_xyz
  1  'x, y, z'
loop_
 _atom_site_type_symbol
 _atom_site_label
 _atom_site_symmetry_multiplicity
 _atom_site_fract_x
 _atom_site_fract_y
 _atom_site_fract_z
 _atom_site_occupancy
  C  C0  1  0.19939900  0.49187800  0.75061300  1
  C  C1  1  0.19939900  0.49187800  0.24938700  1
  C  C2  1  0.69939900  0.50812200  0.74938700  1
  C  C3  1  0.69939900  0.50812200  0.25061300  1
  Ni  Ni4  1  0.27875400  0.34203000  0.63684600  1
  Ni  Ni5  1  0.27875400  0.34203000  0.36315400  1
  Ni  Ni6  1  0.77875400  0.65797000  0.86315400  1
  Ni  Ni7  1  0.77875400  0.65797000  0.13684600  1
  Ni  Ni8  1  0.11698400  0.62853500  0.86631700  1
  Ni  Ni9  1  0.11698400  0.62853500  0.13368300  1
  Ni  Ni10  1  0.61698400  0.37146500  0.63368300  1
  Ni  Ni11  1  0.61698400  0.37146500  0.36631700  1
  Ni  Ni12  1  0.46133000  0.24653300  0.75068600  1
  Ni  Ni13  1  0.46133000  0.24653300  0.24931400  1
  Ni  Ni14  1  0.96133000  0.75346700  0.74931400  1
  Ni  Ni15  1  0.96133000  0.75346700  0.25068600  1
  C  C16  1  0.00501700  0.09868500  0.00000000  1
  C  C17  1  0.50501700  0.90131500  0.50000000  1
  C  C18  1  0.45943000  0.41651800  0.89918800  1
  C  C19  1  0.45943000  0.41651800  0.10081200  1
  C  C20  1  0.95943000  0.58348200  0.60081200  1
  C  C21  1  0.95943000  0.58348200  0.39918800  1
  C  C22  1  0.42911300  0.88552400  0.83806600  1
  C  C23  1  0.42911300  0.88552400  0.16193400  1
  C  C24  1  0.92911300  0.11447600  0.66193400  1
  C  C25  1  0.92911300  0.11447600  0.33806600  1
  Cu  Cu26  1  0.41507200  0.84283500  0.00000000  1
  Cu  Cu27  1  0.91507200  0.15716500  0.50000000  1
  C  C28  1  0.95060900  0.12259400  0.83668800  1
  C  C29  1  0.95060900  0.12259400  0.16331200  1
  C  C30  1  0.45060900  0.87740600  0.66331200  1
  C  C31  1  0.45060900  0.87740600  0.33668800  1
  C  C32  1  0.95794400  0.55827600  0.00000000  1
  C  C33  1  0.45794400  0.44172400  0.50000000  1
  C  C34  1  0.16052200  0.37213300  0.66393700  1
  C  C35  1  0.16052200  0.37213300  0.33606300  1
  C  C36  1  0.66052200  0.62786700  0.83606300  1
  C  C37  1  0.66052200  0.62786700  0.16393700  1
  C  C38  1  0.23536000  0.60558100  0.83811500  1
  C  C39  1  0.23536000  0.60558100  0.16188500  1
  C  C40  1  0.73536000  0.39441900  0.66188500  1
  C  C41  1  0.73536000  0.39441900  0.33811500  1
  C  C42  1  0.45412200  0.36817300  0.77227500  1
  C  C43  1  0.45412200  0.36817300  0.22772500  1
  C  C44  1  0.95412200  0.63182700  0.72772500  1
  C  C45  1  0.95412200  0.63182700  0.27227500  1
  C  C46  1  0.96184100  0.67716200  0.94006200  1
  C  C47  1  0.96184100  0.67716200  0.05993800  1
  C  C48  1  0.46184100  0.32283800  0.55993800  1
  C  C49  1  0.46184100  0.32283800  0.44006200  1
  C  C50  1  0.77790600  0.43489200  0.00000000  1
  C  C51  1  0.27790600  0.56510800  0.50000000  1
  C  C52  1  0.13962700  0.43087800  0.00000000  1
  C  C53  1  0.63962700  0.56912200  0.50000000  1
  C  C54  1  0.93447900  0.27105200  0.78632800  1
  C  C55  1  0.93447900  0.27105200  0.21367200  1
  C  C56  1  0.43447900  0.72894800  0.71367200  1
  C  C57  1  0.43447900  0.72894800  0.28632800  1
  C  C58  1  0.99923500  0.94618800  0.80308600  1
  C  C59  1  0.99923500  0.94618800  0.19691400  1
  C  C60  1  0.49923500  0.05381200  0.69691400  1
  C  C61  1  0.49923500  0.05381200  0.30308600  1
  C  C62  1  0.76197300  0.10841000  0.87589200  1
  C  C63  1  0.76197300  0.10841000  0.12410800  1
  C  C64  1  0.26197300  0.89159000  0.62410800  1
  C  C65  1  0.26197300  0.89159000  0.37589200  1
  C  C66  1  0.11976600  0.16688800  0.88377800  1
  C  C67  1  0.11976600  0.16688800  0.11622200  1
  C  C68  1  0.61976600  0.83311200  0.61622200  1
  C  C69  1  0.61976600  0.83311200  0.38377800  1
  C  C70  1  0.44775500  0.75516100  0.94508500  1
  C  C71  1  0.44775500  0.75516100  0.05491500  1
  C  C72  1  0.94775500  0.24483900  0.55491500  1
  C  C73  1  0.94775500  0.24483900  0.44508500  1
  C  C74  1  0.35488700  0.01193400  0.00000000  1
  C  C75  1  0.85488700  0.98806600  0.50000000  1
