# generated using pymatgen
data_CuNiC
_symmetry_space_group_name_H-M   'P 1'
_cell_length_a   3.78285000
_cell_length_b   6.36849200
_cell_length_c   7.46317700
_cell_angle_alpha   90.00000000
_cell_angle_beta   90.00000000
_cell_angle_gamma   90.00000000
_symmetry_Int_Tables_number   1
_chemical_formula_structural   CuNiC
_chemical_formula_sum   'Cu4 Ni4 C4'
_cell_volume   179.79576998
_cell_formula_units_Z   4
loop_
 _symmetry_equiv_pos_site_id
 _symmetry_equiv_pos_as_xyz
  1  'x, y, z'
loop_
 _atom_site_type_symbol
 _atom_site_label
 _atom_site_symmetry_multiplicity
 _atom_site_fract_x
 _atom_site_fract_y
 _atom_site_fract_z
 _atom_site_occupancy
  C  C0  1  0.25000000  0.02993300  0.32368000  1
  C  C1  1  0.25000000  0.52993300  0.17632000  1
  C  C2  1  0.75000000  0.97006700  0.67632000  1
  C  C3  1  0.75000000  0.47006700  0.82368000  1
  Ni  Ni4  1  0.25000000  0.25488600  0.62593300  1
  Ni  Ni5  1  0.25000000  0.75488600  0.87406700  1
  Ni  Ni6  1  0.75000000  0.74511400  0.37406700  1
  Ni  Ni7  1  0.75000000  0.24511400  0.12593300  1
  Cu  Cu8  1  0.25000000  0.14625200  0.93739300  1
  Cu  Cu9  1  0.25000000  0.64625200  0.56260700  1
  Cu  Cu10  1  0.75000000  0.85374800  0.06260700  1
  Cu  Cu11  1  0.75000000  0.35374800  0.43739300  1
