# generated using pymatgen
data_CuNiC5
_symmetry_space_group_name_H-M   'P 1'
_cell_length_a   11.52753834
_cell_length_b   3.57571100
_cell_length_c   12.43886993
_cell_angle_alpha   90.00000000
_cell_angle_beta   91.00820997
_cell_angle_gamma   90.00000000
_symmetry_Int_Tables_number   1
_chemical_formula_structural   CuNiC5
_chemical_formula_sum   'Cu4 Ni4 C20'
_cell_volume   512.64021434
_cell_formula_units_Z   4
loop_
 _symmetry_equiv_pos_site_id
 _symmetry_equiv_pos_as_xyz
  1  'x, y, z'
loop_
 _atom_site_type_symbol
 _atom_site_label
 _atom_site_symmetry_multiplicity
 _atom_site_fract_x
 _atom_site_fract_y
 _atom_site_fract_z
 _atom_site_occupancy
  Ni  Ni0  1  0.88526800  0.75000000  0.92485800  1
  Ni  Ni1  1  0.15939300  0.25000000  0.67476100  1
  Ni  Ni2  1  0.85091800  0.75000000  0.30813900  1
  Ni  Ni3  1  0.35056900  0.75000000  0.19814200  1
  Cu  Cu4  1  0.11401700  0.25000000  0.06809000  1
  Cu  Cu5  1  0.39439200  0.75000000  0.56993300  1
  Cu  Cu6  1  0.61561500  0.25000000  0.43779600  1
  Cu  Cu7  1  0.64164100  0.25000000  0.80517600  1
  C  C8  1  0.10999900  0.75000000  0.46685000  1
  C  C9  1  0.88299800  0.25000000  0.54699000  1
  C  C10  1  0.40442000  0.25000000  0.93760300  1
  C  C11  1  0.59743200  0.75000000  0.05786200  1
  C  C12  1  0.00931000  0.75000000  0.62729500  1
  C  C13  1  0.98743300  0.25000000  0.38260900  1
  C  C14  1  0.47885500  0.25000000  0.11907600  1
  C  C15  1  0.52423800  0.75000000  0.88092200  1
  C  C16  1  0.03558300  0.25000000  0.87883200  1
  C  C17  1  0.97603600  0.75000000  0.12155200  1
  C  C18  1  0.47888000  0.75000000  0.38934600  1
  C  C19  1  0.52757100  0.25000000  0.61713800  1
  C  C20  1  0.20851900  0.25000000  0.24421600  1
  C  C21  1  0.76812300  0.75000000  0.75462900  1
  C  C22  1  0.29182300  0.75000000  0.74174000  1
  C  C23  1  0.71038500  0.25000000  0.25688600  1
  C  C24  1  0.24289300  0.75000000  0.01723900  1
  C  C25  1  0.74417000  0.25000000  0.98092700  1
  C  C26  1  0.26141600  0.25000000  0.50392900  1
  C  C27  1  0.74810300  0.75000000  0.48746500  1
