# generated using pymatgen
data_CuNiC8
_symmetry_space_group_name_H-M   'P 1'
_cell_length_a   5.63960500
_cell_length_b   5.65412220
_cell_length_c   7.92038369
_cell_angle_alpha   89.97472317
_cell_angle_beta   89.85919073
_cell_angle_gamma   89.98472889
_symmetry_Int_Tables_number   1
_chemical_formula_structural   CuNiC8
_chemical_formula_sum   'Cu2 Ni2 C16'
_cell_volume   252.55660388
_cell_formula_units_Z   2
loop_
 _symmetry_equiv_pos_site_id
 _symmetry_equiv_pos_as_xyz
  1  'x, y, z'
loop_
 _atom_site_type_symbol
 _atom_site_label
 _atom_site_symmetry_multiplicity
 _atom_site_fract_x
 _atom_site_fract_y
 _atom_site_fract_z
 _atom_site_occupancy
  Ni  Ni0  1  0.47541900  0.49574600  0.24379900  1
  Ni  Ni1  1  0.02633100  0.99107400  0.75638800  1
  Cu  Cu2  1  0.96868000  0.01596900  0.24003900  1
  Cu  Cu3  1  0.52753900  0.51034000  0.75914500  1
  C  C4  1  0.49803700  0.00031400  0.99980400  1
  C  C5  1  0.00050600  0.50126300  0.50053400  1
  C  C6  1  0.50091600  0.00124800  0.49945700  1
  C  C7  1  0.00027200  0.49926800  0.99910300  1
  C  C8  1  0.51795000  0.93309100  0.25744600  1
  C  C9  1  0.00899800  0.58819600  0.24897800  1
  C  C10  1  0.48972100  0.08617600  0.74344500  1
  C  C11  1  0.98453900  0.42545500  0.75046400  1
  C  C12  1  0.27596900  0.71534800  0.95718000  1
  C  C13  1  0.76906500  0.76960000  0.54859100  1
  C  C14  1  0.73060100  0.27197300  0.45189600  1
  C  C15  1  0.21806200  0.22501800  0.04197400  1
  C  C16  1  0.73540300  0.27070600  0.04006700  1
  C  C17  1  0.21873800  0.21907300  0.45179000  1
  C  C18  1  0.28278100  0.71761600  0.54789300  1
  C  C19  1  0.77047400  0.76252500  0.96200500  1
