# generated using pymatgen
data_Cu2NiC4
_symmetry_space_group_name_H-M   'P 1'
_cell_length_a   6.34891201
_cell_length_b   6.34891201
_cell_length_c   23.58681528
_cell_angle_alpha   81.99389232
_cell_angle_beta   81.99389232
_cell_angle_gamma   60.24749772
_symmetry_Int_Tables_number   1
_chemical_formula_structural   Cu2NiC4
_chemical_formula_sum   'Cu16 Ni8 C32'
_cell_volume   814.65076744
_cell_formula_units_Z   8
loop_
 _symmetry_equiv_pos_site_id
 _symmetry_equiv_pos_as_xyz
  1  'x, y, z'
loop_
 _atom_site_type_symbol
 _atom_site_label
 _atom_site_symmetry_multiplicity
 _atom_site_fract_x
 _atom_site_fract_y
 _atom_site_fract_z
 _atom_site_occupancy
  Ni  Ni0  1  0.64575500  0.64575500  0.04418300  1
  Ni  Ni1  1  0.12581000  0.12581000  0.12496900  1
  Ni  Ni2  1  0.89141100  0.89141100  0.29424900  1
  Ni  Ni3  1  0.37183400  0.37183400  0.37929300  1
  Ni  Ni4  1  0.62510500  0.62510500  0.62592000  1
  Ni  Ni5  1  0.49842100  0.49842100  0.50189200  1
  Ni  Ni6  1  0.88215400  0.88215400  0.86977000  1
  Ni  Ni7  1  0.75197600  0.75197600  0.74913000  1
  Cu  Cu8  1  0.62505500  0.12514500  0.12475600  1
  Cu  Cu9  1  0.24751600  0.24751600  0.25696200  1
  Cu  Cu10  1  0.12514500  0.62505500  0.12475600  1
  Cu  Cu11  1  0.14956300  0.14956300  0.53139500  1
  Cu  Cu12  1  0.86487900  0.37252000  0.37716900  1
  Cu  Cu13  1  0.60288000  0.60288000  0.21576000  1
  Cu  Cu14  1  0.40408100  0.40408100  0.78230300  1
  Cu  Cu15  1  0.37252000  0.86487900  0.37716900  1
  Cu  Cu16  1  0.12479900  0.62467100  0.62577000  1
  Cu  Cu17  1  0.84606900  0.84606900  0.47168700  1
  Cu  Cu18  1  0.62467100  0.12479900  0.62577000  1
  Cu  Cu19  1  0.87815300  0.38672100  0.87260200  1
  Cu  Cu20  1  0.38672100  0.87815300  0.87260200  1
  Cu  Cu21  1  0.09958800  0.09958800  0.72029900  1
  Cu  Cu22  1  0.00269700  0.00269700  0.00335100  1
  Cu  Cu23  1  0.36000600  0.36000600  0.96227700  1
  C  C24  1  0.28613600  0.81290200  0.07146100  1
  C  C25  1  0.93543200  0.93543200  0.17400900  1
  C  C26  1  0.81290200  0.28613600  0.07146100  1
  C  C27  1  0.81804300  0.81804300  0.07049100  1
  C  C28  1  0.43831600  0.43831600  0.17335300  1
  C  C29  1  0.54047300  0.04998400  0.32293600  1
  C  C30  1  0.44424600  0.95018500  0.17042600  1
  C  C31  1  0.18950500  0.18950500  0.41505200  1
  C  C32  1  0.04998400  0.54047300  0.32293600  1
  C  C33  1  0.30819000  0.30819000  0.08368300  1
  C  C34  1  0.05410500  0.05410500  0.32536500  1
  C  C35  1  0.95018500  0.44424600  0.17042600  1
  C  C36  1  0.77288000  0.31787700  0.56924300  1
  C  C37  1  0.67052700  0.67052700  0.43086300  1
  C  C38  1  0.67609500  0.22598300  0.43470500  1
  C  C39  1  0.44370100  0.44370100  0.66768900  1
  C  C40  1  0.31787700  0.77288000  0.56924300  1
  C  C41  1  0.54889800  0.54889800  0.33525200  1
  C  C42  1  0.32390900  0.32390900  0.57205100  1
  C  C43  1  0.22598300  0.67609500  0.43470500  1
  C  C44  1  0.92486500  0.92486500  0.67827500  1
  C  C45  1  0.01805300  0.58356200  0.81690800  1
  C  C46  1  0.93180400  0.47788300  0.68157000  1
  C  C47  1  0.68547900  0.68547900  0.92663100  1
  C  C48  1  0.58356200  0.01805300  0.81690800  1
  C  C49  1  0.80628500  0.80628500  0.58294000  1
  C  C50  1  0.58661000  0.58661000  0.81738300  1
  C  C51  1  0.47788300  0.93180400  0.68157000  1
  C  C52  1  0.19909300  0.19909300  0.91819800  1
  C  C53  1  0.19780500  0.70498400  0.91525300  1
  C  C54  1  0.06932700  0.06932700  0.82972200  1
  C  C55  1  0.70498400  0.19780500  0.91525300  1
