# generated using pymatgen
data_Cu10NiC
_symmetry_space_group_name_H-M   'P 1'
_cell_length_a   6.54371300
_cell_length_b   6.54371300
_cell_length_c   15.39306100
_cell_angle_alpha   90.00000000
_cell_angle_beta   90.00000000
_cell_angle_gamma   90.00000000
_symmetry_Int_Tables_number   1
_chemical_formula_structural   Cu10NiC
_chemical_formula_sum   'Cu40 Ni4 C4'
_cell_volume   659.13364010
_cell_formula_units_Z   4
loop_
 _symmetry_equiv_pos_site_id
 _symmetry_equiv_pos_as_xyz
  1  'x, y, z'
loop_
 _atom_site_type_symbol
 _atom_site_label
 _atom_site_symmetry_multiplicity
 _atom_site_fract_x
 _atom_site_fract_y
 _atom_site_fract_z
 _atom_site_occupancy
  C  C0  1  0.28382800  0.71617200  0.25000000  1
  C  C1  1  0.71617200  0.28382800  0.75000000  1
  C  C2  1  0.21617200  0.21617200  0.50000000  1
  C  C3  1  0.78382800  0.78382800  0.00000000  1
  Ni  Ni4  1  0.78604000  0.21396000  0.25000000  1
  Ni  Ni5  1  0.21396000  0.78604000  0.75000000  1
  Ni  Ni6  1  0.71396000  0.71396000  0.50000000  1
  Ni  Ni7  1  0.28604000  0.28604000  0.00000000  1
  Cu  Cu8  1  0.30717600  0.48905600  0.32129100  1
  Cu  Cu9  1  0.69282400  0.51094400  0.82129100  1
  Cu  Cu10  1  0.98905600  0.19282400  0.57129100  1
  Cu  Cu11  1  0.01094400  0.80717600  0.07129100  1
  Cu  Cu12  1  0.51094400  0.69282400  0.17870900  1
  Cu  Cu13  1  0.48905600  0.30717600  0.67870900  1
  Cu  Cu14  1  0.19282400  0.98905600  0.42870900  1
  Cu  Cu15  1  0.80717600  0.01094400  0.92870900  1
  Cu  Cu16  1  0.05535300  0.71609500  0.31513100  1
  Cu  Cu17  1  0.94464700  0.28390500  0.81513100  1
  Cu  Cu18  1  0.21609500  0.44464700  0.56513100  1
  Cu  Cu19  1  0.78390500  0.55535300  0.06513100  1
  Cu  Cu20  1  0.28390500  0.94464700  0.18486900  1
  Cu  Cu21  1  0.71609500  0.05535300  0.68486900  1
  Cu  Cu22  1  0.44464700  0.21609500  0.43486900  1
  Cu  Cu23  1  0.55535300  0.78390500  0.93486900  1
  Cu  Cu24  1  0.41872000  0.84550400  0.34052900  1
  Cu  Cu25  1  0.58128000  0.15449600  0.84052900  1
  Cu  Cu26  1  0.34550400  0.08128000  0.59052900  1
  Cu  Cu27  1  0.65449600  0.91872000  0.09052900  1
  Cu  Cu28  1  0.15449600  0.58128000  0.15947100  1
  Cu  Cu29  1  0.84550400  0.41872000  0.65947100  1
  Cu  Cu30  1  0.08128000  0.34550400  0.40947100  1
  Cu  Cu31  1  0.91872000  0.65449600  0.90947100  1
  Cu  Cu32  1  0.87440600  0.11743600  0.32985000  1
  Cu  Cu33  1  0.12559400  0.88256400  0.82985000  1
  Cu  Cu34  1  0.61743600  0.62559400  0.57985000  1
  Cu  Cu35  1  0.38256400  0.37440600  0.07985000  1
  Cu  Cu36  1  0.88256400  0.12559400  0.17015000  1
  Cu  Cu37  1  0.11743600  0.87440600  0.67015000  1
  Cu  Cu38  1  0.62559400  0.61743600  0.42015000  1
  Cu  Cu39  1  0.37440600  0.38256400  0.92015000  1
  Cu  Cu40  1  0.56395300  0.17398400  0.25488100  1
  Cu  Cu41  1  0.43604700  0.82601600  0.75488100  1
  Cu  Cu42  1  0.67398400  0.93604700  0.50488100  1
  Cu  Cu43  1  0.32601600  0.06395300  0.00488100  1
  Cu  Cu44  1  0.82601600  0.43604700  0.24511900  1
  Cu  Cu45  1  0.17398400  0.56395300  0.74511900  1
  Cu  Cu46  1  0.93604700  0.67398400  0.49511900  1
  Cu  Cu47  1  0.06395300  0.32601600  0.99511900  1
