# generated using pymatgen
data_Cu22Ni26C21
_symmetry_space_group_name_H-M   'P 1'
_cell_length_a   10.26618458
_cell_length_b   10.18567331
_cell_length_c   10.93871772
_cell_angle_alpha   93.26384471
_cell_angle_beta   112.84071598
_cell_angle_gamma   116.41212704
_symmetry_Int_Tables_number   1
_chemical_formula_structural   Cu22Ni26C21
_chemical_formula_sum   'Cu22 Ni26 C21'
_cell_volume   906.85056069
_cell_formula_units_Z   1
loop_
 _symmetry_equiv_pos_site_id
 _symmetry_equiv_pos_as_xyz
  1  'x, y, z'
loop_
 _atom_site_type_symbol
 _atom_site_label
 _atom_site_symmetry_multiplicity
 _atom_site_fract_x
 _atom_site_fract_y
 _atom_site_fract_z
 _atom_site_occupancy
  Ni  Ni0  1  0.89433600  0.58621500  0.16778900  1
  Ni  Ni1  1  0.10566400  0.41378500  0.83221100  1
  Ni  Ni2  1  0.88999300  0.66807900  0.31491200  1
  Ni  Ni3  1  0.11000700  0.33192100  0.68508800  1
  Ni  Ni4  1  0.72228800  0.60274200  0.14587800  1
  Ni  Ni5  1  0.27771200  0.39725800  0.85412200  1
  Ni  Ni6  1  0.02097500  0.92675900  0.39151500  1
  Ni  Ni7  1  0.97902500  0.07324100  0.60848500  1
  Ni  Ni8  1  0.31753500  0.31393500  0.42963200  1
  Ni  Ni9  1  0.68246500  0.68606500  0.57036800  1
  Ni  Ni10  1  0.13149700  0.26835200  0.43425600  1
  Ni  Ni11  1  0.86850300  0.73164800  0.56574400  1
  Ni  Ni12  1  0.24089200  0.17697900  0.51695100  1
  Ni  Ni13  1  0.75910800  0.82302100  0.48304900  1
  Ni  Ni14  1  0.44021200  0.79573900  0.47563800  1
  Ni  Ni15  1  0.55978800  0.20426100  0.52436200  1
  Ni  Ni16  1  0.24230400  0.68035900  0.46393700  1
  Ni  Ni17  1  0.75769600  0.31964100  0.53606300  1
  Ni  Ni18  1  0.28613600  0.84757400  0.40732100  1
  Ni  Ni19  1  0.71386400  0.15242600  0.59267900  1
  Ni  Ni20  1  0.37636200  0.53413200  0.29097200  1
  Ni  Ni21  1  0.62363800  0.46586800  0.70902800  1
  Ni  Ni22  1  0.17357200  0.50580800  0.19837700  1
  Ni  Ni23  1  0.82642800  0.49419200  0.80162300  1
  Ni  Ni24  1  0.25838200  0.44282100  0.11201300  1
  Ni  Ni25  1  0.74161800  0.55717900  0.88798700  1
  C  C26  1  0.66606100  0.04556900  0.93250200  1
  C  C27  1  0.33393900  0.95443100  0.06749800  1
  C  C28  1  0.64502300  0.95993200  0.15466000  1
  C  C29  1  0.35497700  0.04006800  0.84534000  1
  C  C30  1  0.00000000  0.00000000  0.00000000  1
  Cu  Cu31  1  0.85643600  0.65843700  0.20550500  1
  Cu  Cu32  1  0.14356400  0.34156300  0.79449500  1
  Cu  Cu33  1  0.93497200  0.81312900  0.18376600  1
  Cu  Cu34  1  0.06502800  0.18687100  0.81623400  1
  Cu  Cu35  1  0.01807600  0.94482500  0.29356800  1
  Cu  Cu36  1  0.98192400  0.05517500  0.70643200  1
  Cu  Cu37  1  0.11090900  0.09665600  0.29476600  1
  Cu  Cu38  1  0.88909100  0.90334400  0.70523400  1
  Cu  Cu39  1  0.20722000  0.22118200  0.42774700  1
  Cu  Cu40  1  0.79278000  0.77881800  0.57225300  1
  Cu  Cu41  1  0.39815600  0.88884700  0.62866000  1
  Cu  Cu42  1  0.60184400  0.11115300  0.37134000  1
  Cu  Cu43  1  0.33893500  0.79810800  0.48488200  1
  Cu  Cu44  1  0.66106500  0.20189200  0.51511800  1
  Cu  Cu45  1  0.36048600  0.68660000  0.16522400  1
  Cu  Cu46  1  0.63951400  0.31340000  0.83477600  1
  Cu  Cu47  1  0.28746500  0.53391300  0.19421500  1
  Cu  Cu48  1  0.71253500  0.46608700  0.80578500  1
  Cu  Cu49  1  0.78147500  0.15980600  0.13079500  1
  Cu  Cu50  1  0.21852500  0.84019400  0.86920500  1
  Cu  Cu51  1  0.59094300  0.84311000  0.97243200  1
  Cu  Cu52  1  0.40905700  0.15689000  0.02756800  1
  C  C53  1  0.91776000  0.80958000  0.05978000  1
  C  C54  1  0.08224000  0.19042000  0.94022000  1
  C  C55  1  0.12197700  0.14346700  0.19001800  1
  C  C56  1  0.87802300  0.85653300  0.80998200  1
  C  C57  1  0.54301500  0.92732900  0.71774800  1
  C  C58  1  0.45698500  0.07267100  0.28225200  1
  C  C59  1  0.29808800  0.91876800  0.64818300  1
  C  C60  1  0.70191200  0.08123200  0.35181700  1
  C  C61  1  0.51094500  0.74841000  0.19080800  1
  C  C62  1  0.48905500  0.25159000  0.80919200  1
  C  C63  1  0.26613100  0.74079400  0.11737300  1
  C  C64  1  0.73386900  0.25920600  0.88262700  1
  C  C65  1  0.87766900  0.28626500  0.19988900  1
  C  C66  1  0.12233100  0.71373500  0.80011100  1
  C  C67  1  0.52983500  0.71511500  0.91244600  1
  C  C68  1  0.47016500  0.28488500  0.08755400  1
