# generated using pymatgen
data_Cu7Ni2C11
_symmetry_space_group_name_H-M   'P 1'
_cell_length_a   7.33647300
_cell_length_b   10.10584400
_cell_length_c   11.32605600
_cell_angle_alpha   90.00000000
_cell_angle_beta   90.00000000
_cell_angle_gamma   90.00000000
_symmetry_Int_Tables_number   1
_chemical_formula_structural   Cu7Ni2C11
_chemical_formula_sum   'Cu28 Ni8 C44'
_cell_volume   839.72796808
_cell_formula_units_Z   4
loop_
 _symmetry_equiv_pos_site_id
 _symmetry_equiv_pos_as_xyz
  1  'x, y, z'
loop_
 _atom_site_type_symbol
 _atom_site_label
 _atom_site_symmetry_multiplicity
 _atom_site_fract_x
 _atom_site_fract_y
 _atom_site_fract_z
 _atom_site_occupancy
  C  C0  1  0.75000000  0.24798600  0.25000000  1
  C  C1  1  0.75000000  0.25201400  0.75000000  1
  C  C2  1  0.25000000  0.75201400  0.75000000  1
  C  C3  1  0.25000000  0.74798600  0.25000000  1
  Ni  Ni4  1  0.91119500  0.53221400  0.42293900  1
  Ni  Ni5  1  0.91119500  0.96778600  0.57706100  1
  Ni  Ni6  1  0.58880500  0.53221400  0.07706100  1
  Ni  Ni7  1  0.58880500  0.96778600  0.92293900  1
  Ni  Ni8  1  0.08880500  0.46778600  0.57706100  1
  Ni  Ni9  1  0.08880500  0.03221400  0.42293900  1
  Ni  Ni10  1  0.41119500  0.46778600  0.92293900  1
  Ni  Ni11  1  0.41119500  0.03221400  0.07706100  1
  Cu  Cu12  1  0.56274200  0.94351300  0.26891500  1
  Cu  Cu13  1  0.56274200  0.55648700  0.73108600  1
  Cu  Cu14  1  0.93725800  0.94351300  0.23108500  1
  Cu  Cu15  1  0.93725800  0.55648700  0.76891400  1
  Cu  Cu16  1  0.43725800  0.05648700  0.73108600  1
  Cu  Cu17  1  0.43725800  0.44351300  0.26891500  1
  Cu  Cu18  1  0.06274200  0.05648700  0.76891400  1
  Cu  Cu19  1  0.06274200  0.44351300  0.23108500  1
  Cu  Cu20  1  0.80644600  0.75000000  0.50000000  1
  Cu  Cu21  1  0.69355400  0.75000000  0.00000000  1
  Cu  Cu22  1  0.19355400  0.25000000  0.50000000  1
  Cu  Cu23  1  0.30644600  0.25000000  0.00000000  1
  Cu  Cu24  1  0.52432200  0.62887900  0.42566000  1
  Cu  Cu25  1  0.52432200  0.87112100  0.57434000  1
  Cu  Cu26  1  0.97567800  0.62887900  0.07434000  1
  Cu  Cu27  1  0.97567800  0.87112100  0.92566000  1
  Cu  Cu28  1  0.47567800  0.37112100  0.57434000  1
  Cu  Cu29  1  0.47567800  0.12887900  0.42566000  1
  Cu  Cu30  1  0.02432200  0.37112100  0.92566000  1
  Cu  Cu31  1  0.02432200  0.12887900  0.07434000  1
  Cu  Cu32  1  0.64574100  0.83460800  0.34841500  1
  Cu  Cu33  1  0.64574100  0.66539200  0.65158500  1
  Cu  Cu34  1  0.85425900  0.83460800  0.15158500  1
  Cu  Cu35  1  0.85425900  0.66539200  0.84841500  1
  Cu  Cu36  1  0.35425900  0.16539200  0.65158500  1
  Cu  Cu37  1  0.35425900  0.33460800  0.34841500  1
  Cu  Cu38  1  0.14574100  0.16539200  0.84841500  1
  Cu  Cu39  1  0.14574100  0.33460800  0.15158500  1
  C  C40  1  0.45506000  0.58957300  0.16823400  1
  C  C41  1  0.45506000  0.91042700  0.83176600  1
  C  C42  1  0.04494000  0.58957300  0.33176600  1
  C  C43  1  0.04494000  0.91042700  0.66823400  1
  C  C44  1  0.54494000  0.41042700  0.83176600  1
  C  C45  1  0.54494000  0.08957300  0.16823400  1
  C  C46  1  0.95506000  0.41042700  0.66823400  1
  C  C47  1  0.95506000  0.08957300  0.33176600  1
  C  C48  1  0.72271700  0.63696600  0.02756300  1
  C  C49  1  0.72271700  0.86303400  0.97243700  1
  C  C50  1  0.77728300  0.63696600  0.47243700  1
  C  C51  1  0.77728300  0.86303400  0.52756300  1
  C  C52  1  0.27728300  0.36303400  0.97243700  1
  C  C53  1  0.27728300  0.13696600  0.02756300  1
  C  C54  1  0.22271700  0.36303400  0.52756300  1
  C  C55  1  0.22271700  0.13696600  0.47243700  1
  C  C56  1  0.55471500  0.84801400  0.28702700  1
  C  C57  1  0.55471500  0.65198600  0.71297300  1
  C  C58  1  0.94528500  0.84801400  0.21297300  1
  C  C59  1  0.94528500  0.65198600  0.78702700  1
  C  C60  1  0.44528500  0.15198600  0.71297300  1
  C  C61  1  0.44528500  0.34801400  0.28702700  1
  C  C62  1  0.05471500  0.15198600  0.78702700  1
  C  C63  1  0.05471500  0.34801400  0.21297300  1
  C  C64  1  0.18872100  0.90745500  0.38525300  1
  C  C65  1  0.18872100  0.59254500  0.61474700  1
  C  C66  1  0.31127900  0.90745500  0.11474700  1
  C  C67  1  0.31127900  0.59254500  0.88525300  1
  C  C68  1  0.81127900  0.09254500  0.61474700  1
  C  C69  1  0.81127900  0.40745500  0.38525300  1
  C  C70  1  0.68872100  0.09254500  0.88525300  1
  C  C71  1  0.68872100  0.40745500  0.11474700  1
  C  C72  1  0.40364600  0.61715700  0.38770900  1
  C  C73  1  0.40364600  0.88284300  0.61229100  1
  C  C74  1  0.09635400  0.61715700  0.11229100  1
  C  C75  1  0.09635400  0.88284300  0.88770900  1
  C  C76  1  0.59635400  0.38284300  0.61229100  1
  C  C77  1  0.59635400  0.11715700  0.38770900  1
  C  C78  1  0.90364600  0.38284300  0.88770900  1
  C  C79  1  0.90364600  0.11715700  0.11229100  1
