# generated using pymatgen
data_Cu4Ni2C9
_symmetry_space_group_name_H-M   'P 1'
_cell_length_a   6.22180653
_cell_length_b   6.22180633
_cell_length_c   6.12965600
_cell_angle_alpha   60.48873130
_cell_angle_beta   60.48873235
_cell_angle_gamma   57.52967631
_symmetry_Int_Tables_number   1
_chemical_formula_structural   Cu4Ni2C9
_chemical_formula_sum   'Cu4 Ni2 C9'
_cell_volume   165.59291105
_cell_formula_units_Z   1
loop_
 _symmetry_equiv_pos_site_id
 _symmetry_equiv_pos_as_xyz
  1  'x, y, z'
loop_
 _atom_site_type_symbol
 _atom_site_label
 _atom_site_symmetry_multiplicity
 _atom_site_fract_x
 _atom_site_fract_y
 _atom_site_fract_z
 _atom_site_occupancy
  C  C0  1  0.03078200  0.03078200  0.46921800  1
  Ni  Ni1  1  0.10673300  0.56635400  0.66345600  1
  Ni  Ni2  1  0.56635400  0.10673300  0.66345600  1
  Cu  Cu3  1  0.97956000  0.97955900  0.02044100  1
  Cu  Cu4  1  0.29975700  0.29975800  0.20024200  1
  Cu  Cu5  1  0.62210800  0.62210800  0.14282300  1
  Cu  Cu6  1  0.62210800  0.62210800  0.61296100  1
  C  C7  1  0.40133300  0.40133300  0.37809400  1
  C  C8  1  0.40133300  0.40133300  0.81924100  1
  C  C9  1  0.40871400  0.87346900  0.35890800  1
  C  C10  1  0.87346800  0.40871700  0.35890700  1
  C  C11  1  0.37632500  0.84891000  0.88738300  1
  C  C12  1  0.84891300  0.37632400  0.88738200  1
  C  C13  1  0.86667200  0.86667200  0.40467700  1
  C  C14  1  0.86667200  0.86667200  0.86197900  1
