# generated using pymatgen
data_Cu2NiC7
_symmetry_space_group_name_H-M   'P 1'
_cell_length_a   5.66337500
_cell_length_b   5.58445000
_cell_length_c   7.98758354
_cell_angle_alpha   89.93889948
_cell_angle_beta   90.00000000
_cell_angle_gamma   90.00000000
_symmetry_Int_Tables_number   1
_chemical_formula_structural   Cu2NiC7
_chemical_formula_sum   'Cu4 Ni2 C14'
_cell_volume   252.62183924
_cell_formula_units_Z   2
loop_
 _symmetry_equiv_pos_site_id
 _symmetry_equiv_pos_as_xyz
  1  'x, y, z'
loop_
 _atom_site_type_symbol
 _atom_site_label
 _atom_site_symmetry_multiplicity
 _atom_site_fract_x
 _atom_site_fract_y
 _atom_site_fract_z
 _atom_site_occupancy
  Ni  Ni0  1  0.98105100  0.24104900  0.49951200  1
  Ni  Ni1  1  0.48105100  0.75895100  0.50048800  1
  Cu  Cu2  1  0.03895300  0.24988800  0.99984300  1
  Cu  Cu3  1  0.53895300  0.75011200  0.00015700  1
  Cu  Cu4  1  0.50231500  0.25287100  0.75903900  1
  Cu  Cu5  1  0.00231500  0.74712900  0.24096100  1
  C  C6  1  0.49947100  0.23954200  0.23330100  1
  C  C7  1  0.99947100  0.76045800  0.76669900  1
  C  C8  1  0.50977900  0.29005400  0.45698200  1
  C  C9  1  0.00977900  0.70994600  0.54301800  1
  C  C10  1  0.47135600  0.17032600  0.02140400  1
  C  C11  1  0.97135600  0.82967400  0.97859600  1
  C  C12  1  0.81837100  0.50238400  0.79840800  1
  C  C13  1  0.31837100  0.49761600  0.20159200  1
  C  C14  1  0.18712800  0.00921900  0.73979500  1
  C  C15  1  0.68712800  0.99078100  0.26020500  1
  C  C16  1  0.75268500  0.42188800  0.19956300  1
  C  C17  1  0.25268500  0.57811200  0.80043700  1
  C  C18  1  0.24889100  0.05949200  0.26923600  1
  C  C19  1  0.74889100  0.94050800  0.73076400  1
