# generated using pymatgen
data_Cu2NiC11
_symmetry_space_group_name_H-M   'P 1'
_cell_length_a   6.60368986
_cell_length_b   6.60368986
_cell_length_c   14.42571138
_cell_angle_alpha   68.69695492
_cell_angle_beta   68.69695492
_cell_angle_gamma   25.54345879
_symmetry_Int_Tables_number   1
_chemical_formula_structural   Cu2NiC11
_chemical_formula_sum   'Cu4 Ni2 C22'
_cell_volume   251.73561233
_cell_formula_units_Z   2
loop_
 _symmetry_equiv_pos_site_id
 _symmetry_equiv_pos_as_xyz
  1  'x, y, z'
loop_
 _atom_site_type_symbol
 _atom_site_label
 _atom_site_symmetry_multiplicity
 _atom_site_fract_x
 _atom_site_fract_y
 _atom_site_fract_z
 _atom_site_occupancy
  C  C0  1  0.70869500  0.70869500  0.92808800  1
  C  C1  1  0.29130500  0.29130500  0.07191200  1
  C  C2  1  0.86091700  0.86091700  0.20889800  1
  C  C3  1  0.13908300  0.13908300  0.79110200  1
  C  C4  1  0.57348300  0.57348300  0.64150200  1
  C  C5  1  0.42651700  0.42651700  0.35849800  1
  C  C6  1  0.00000000  0.00000000  0.50000000  1
  C  C7  1  0.00000000  0.00000000  0.00000000  1
  Ni  Ni8  1  0.43344700  0.43344700  0.86110800  1
  Ni  Ni9  1  0.56655300  0.56655300  0.13889200  1
  Cu  Cu10  1  0.14363100  0.14363100  0.28487600  1
  Cu  Cu11  1  0.71371500  0.71371500  0.42855300  1
  Cu  Cu12  1  0.28628500  0.28628500  0.57144700  1
  Cu  Cu13  1  0.85636900  0.85636900  0.71512400  1
  C  C14  1  0.86373900  0.86373900  0.95193300  1
  C  C15  1  0.43861300  0.43861300  0.11209400  1
  C  C16  1  0.00947900  0.00947900  0.23929500  1
  C  C17  1  0.29767700  0.29767700  0.81624200  1
  C  C18  1  0.72287500  0.72287500  0.67097200  1
  C  C19  1  0.57755100  0.57755100  0.38532300  1
  C  C20  1  0.14916200  0.14916200  0.53001600  1
  C  C21  1  0.56138700  0.56138700  0.88790600  1
  C  C22  1  0.13626100  0.13626100  0.04806700  1
  C  C23  1  0.70232300  0.70232300  0.18375800  1
  C  C24  1  0.99052100  0.99052100  0.76070500  1
  C  C25  1  0.42244900  0.42244900  0.61467700  1
  C  C26  1  0.27712500  0.27712500  0.32902800  1
  C  C27  1  0.85083800  0.85083800  0.46998400  1
