# generated using pymatgen
data_Cu3Ni2C
_symmetry_space_group_name_H-M   'P 1'
_cell_length_a   7.54438500
_cell_length_b   7.54438500
_cell_length_c   8.87073552
_cell_angle_alpha   115.16586575
_cell_angle_beta   115.16586575
_cell_angle_gamma   90.00000000
_symmetry_Int_Tables_number   1
_chemical_formula_structural   Cu3Ni2C
_chemical_formula_sum   'Cu12 Ni8 C4'
_cell_volume   403.39814310
_cell_formula_units_Z   4
loop_
 _symmetry_equiv_pos_site_id
 _symmetry_equiv_pos_as_xyz
  1  'x, y, z'
loop_
 _atom_site_type_symbol
 _atom_site_label
 _atom_site_symmetry_multiplicity
 _atom_site_fract_x
 _atom_site_fract_y
 _atom_site_fract_z
 _atom_site_occupancy
  C  C0  1  0.25000000  0.25000000  0.50000000  1
  C  C1  1  0.75000000  0.75000000  0.50000000  1
  C  C2  1  0.25000000  0.75000000  0.50000000  1
  C  C3  1  0.75000000  0.25000000  0.50000000  1
  Ni  Ni4  1  0.72795600  0.61009200  0.83804800  1
  Ni  Ni5  1  0.11009200  0.22795600  0.83804800  1
  Ni  Ni6  1  0.61009200  0.11009200  0.83804800  1
  Ni  Ni7  1  0.22795600  0.72795600  0.83804800  1
  Ni  Ni8  1  0.27204400  0.38990800  0.16195200  1
  Ni  Ni9  1  0.88990800  0.77204400  0.16195200  1
  Ni  Ni10  1  0.38990800  0.88990800  0.16195200  1
  Ni  Ni11  1  0.77204400  0.27204400  0.16195200  1
  Cu  Cu12  1  0.75271900  0.74728100  0.00000000  1
  Cu  Cu13  1  0.24728100  0.25271900  0.00000000  1
  Cu  Cu14  1  0.74728100  0.24728100  0.00000000  1
  Cu  Cu15  1  0.25271900  0.75271900  0.00000000  1
  Cu  Cu16  1  0.69252100  0.49101400  0.68353500  1
  Cu  Cu17  1  0.99101400  0.19252100  0.68353500  1
  Cu  Cu18  1  0.49101400  0.99101400  0.68353500  1
  Cu  Cu19  1  0.19252100  0.69252100  0.68353500  1
  Cu  Cu20  1  0.30747900  0.50898600  0.31646500  1
  Cu  Cu21  1  0.00898600  0.80747900  0.31646500  1
  Cu  Cu22  1  0.50898600  0.00898600  0.31646500  1
  Cu  Cu23  1  0.80747900  0.30747900  0.31646500  1
