# generated using pymatgen
data_CuNiC5
_symmetry_space_group_name_H-M   'P 1'
_cell_length_a   15.59672473
_cell_length_b   12.91352939
_cell_length_c   12.61563225
_cell_angle_alpha   75.30454567
_cell_angle_beta   53.21419146
_cell_angle_gamma   51.48126287
_symmetry_Int_Tables_number   1
_chemical_formula_structural   CuNiC5
_chemical_formula_sum   'Cu8 Ni8 C40'
_cell_volume   1563.05983804
_cell_formula_units_Z   8
loop_
 _symmetry_equiv_pos_site_id
 _symmetry_equiv_pos_as_xyz
  1  'x, y, z'
loop_
 _atom_site_type_symbol
 _atom_site_label
 _atom_site_symmetry_multiplicity
 _atom_site_fract_x
 _atom_site_fract_y
 _atom_site_fract_z
 _atom_site_occupancy
  C  C0  1  0.24604400  0.75070100  0.25243200  1
  C  C1  1  0.75082300  0.25243200  0.75070100  1
  C  C2  1  0.99756800  0.49917700  0.00395600  1
  C  C3  1  0.49929900  0.00395600  0.49917700  1
  C  C4  1  0.24976700  0.75023300  0.75023300  1
  C  C5  1  0.49976700  0.00023300  0.00023300  1
  C  C6  1  0.74732200  0.25267800  0.25267800  1
  C  C7  1  0.99732200  0.50267800  0.50267800  1
  Ni  Ni8  1  0.33671900  0.41276100  0.51736000  1
  Ni  Ni9  1  0.83723900  0.91328100  0.51684000  1
  Ni  Ni10  1  0.73264000  0.51684000  0.91328100  1
  Ni  Ni11  1  0.73316000  0.51736000  0.41276100  1
  Ni  Ni12  1  0.26504300  0.48442500  0.01425700  1
  Ni  Ni13  1  0.23627500  0.01425700  0.48442500  1
  Ni  Ni14  1  0.23574300  0.01372500  0.98495700  1
  Ni  Ni15  1  0.76557500  0.98495700  0.01372500  1
  Cu  Cu16  1  0.90482000  0.84501200  0.23611800  1
  Cu  Cu17  1  0.98412600  0.76440700  0.73983700  1
  Cu  Cu18  1  0.48559300  0.26587400  0.73837000  1
  Cu  Cu19  1  0.51016300  0.73837000  0.26587400  1
  Cu  Cu20  1  0.01405000  0.23611800  0.84501200  1
  Cu  Cu21  1  0.40498800  0.34518000  0.23595000  1
  Cu  Cu22  1  0.01388200  0.23595000  0.34518000  1
  Cu  Cu23  1  0.51163000  0.73983700  0.76440700  1
  C  C24  1  0.45194100  0.45933100  0.29770800  1
  C  C25  1  0.79102100  0.29770800  0.45933100  1
  C  C26  1  0.95229200  0.45897900  0.79805900  1
  C  C27  1  0.79066900  0.79805900  0.45897900  1
  C  C28  1  0.45405600  0.95670300  0.29557600  1
  C  C29  1  0.29366600  0.29557600  0.95670300  1
  C  C30  1  0.95442400  0.95633400  0.79594400  1
  C  C31  1  0.29329700  0.79594400  0.95633400  1
  C  C32  1  0.18684100  0.56121500  0.71867000  1
  C  C33  1  0.53327400  0.71867000  0.56121500  1
  C  C34  1  0.53133000  0.71672600  0.06315900  1
  C  C35  1  0.68878500  0.06315900  0.71672600  1
  C  C36  1  0.22208000  0.52632300  0.21503800  1
  C  C37  1  0.03655900  0.21503800  0.52632300  1
  C  C38  1  0.03496200  0.21344100  0.02792000  1
  C  C39  1  0.72367700  0.02792000  0.21344100  1
  C  C40  1  0.06654700  0.68189200  0.03238200  1
  C  C41  1  0.21917900  0.03238200  0.68189200  1
  C  C42  1  0.21761800  0.03082100  0.18345300  1
  C  C43  1  0.56810800  0.18345300  0.03082100  1
  C  C44  1  0.01698700  0.73119600  0.53599100  1
  C  C45  1  0.71582600  0.53599100  0.73119600  1
  C  C46  1  0.71400900  0.53417400  0.23301300  1
  C  C47  1  0.51880400  0.23301300  0.53417400  1
  C  C48  1  0.45327700  0.45823400  0.79843200  1
  C  C49  1  0.29005700  0.79843200  0.45823400  1
  C  C50  1  0.45156800  0.95994300  0.79672300  1
  C  C51  1  0.79176600  0.79672300  0.95994300  1
  C  C52  1  0.29190600  0.29625400  0.45743600  1
  C  C53  1  0.95440400  0.45743600  0.29625400  1
  C  C54  1  0.79256400  0.29559600  0.95809400  1
  C  C55  1  0.95374600  0.95809400  0.29559600  1
