# generated using pymatgen
data_CuNiC6
_symmetry_space_group_name_H-M   'P 1'
_cell_length_a   7.77280400
_cell_length_b   4.86649500
_cell_length_c   9.78981710
_cell_angle_alpha   89.67028671
_cell_angle_beta   90.00000000
_cell_angle_gamma   90.00000000
_symmetry_Int_Tables_number   1
_chemical_formula_structural   CuNiC6
_chemical_formula_sum   'Cu4 Ni4 C24'
_cell_volume   370.30654246
_cell_formula_units_Z   4
loop_
 _symmetry_equiv_pos_site_id
 _symmetry_equiv_pos_as_xyz
  1  'x, y, z'
loop_
 _atom_site_type_symbol
 _atom_site_label
 _atom_site_symmetry_multiplicity
 _atom_site_fract_x
 _atom_site_fract_y
 _atom_site_fract_z
 _atom_site_occupancy
  C  C0  1  0.63707300  0.99598700  0.16869700  1
  C  C1  1  0.13409600  0.00189300  0.32965600  1
  C  C2  1  0.86590400  0.00189300  0.82965600  1
  C  C3  1  0.36292700  0.99598700  0.66869700  1
  Ni  Ni4  1  0.33475700  0.54124300  0.16035400  1
  Ni  Ni5  1  0.83613100  0.45978500  0.33851500  1
  Ni  Ni6  1  0.16386900  0.45978500  0.83851500  1
  Ni  Ni7  1  0.66524300  0.54124300  0.66035400  1
  Cu  Cu8  1  0.48062400  0.47133800  0.41703100  1
  Cu  Cu9  1  0.97923600  0.53021800  0.08142800  1
  Cu  Cu10  1  0.02076400  0.53021800  0.58142800  1
  Cu  Cu11  1  0.51937600  0.47133800  0.91703100  1
  C  C12  1  0.46889800  0.64852900  0.04254500  1
  C  C13  1  0.96761700  0.35423100  0.45606100  1
  C  C14  1  0.03238300  0.35423100  0.95606100  1
  C  C15  1  0.53110200  0.64852900  0.54254500  1
  C  C16  1  0.64508300  0.33720100  0.35541000  1
  C  C17  1  0.14207400  0.66672000  0.14524400  1
  C  C18  1  0.85792600  0.66672000  0.64524400  1
  C  C19  1  0.35491700  0.33720100  0.85541000  1
  C  C20  1  0.40492200  0.67097400  0.30615400  1
  C  C21  1  0.90416400  0.32835900  0.19212500  1
  C  C22  1  0.09583600  0.32835900  0.69212500  1
  C  C23  1  0.59507800  0.67097400  0.80615400  1
  C  C24  1  0.35345100  0.24308100  0.45615700  1
  C  C25  1  0.85165800  0.75482100  0.03977800  1
  C  C26  1  0.14834200  0.75482100  0.53977800  1
  C  C27  1  0.64654900  0.24308100  0.95615700  1
  C  C28  1  0.34564200  0.21207300  0.18326600  1
  C  C29  1  0.65435800  0.21207300  0.68326600  1
  C  C30  1  0.83935900  0.78354600  0.32757900  1
  C  C31  1  0.16064100  0.78354600  0.82757900  1
