# generated using pymatgen
data_Cu4NiC11
_symmetry_space_group_name_H-M   'P 1'
_cell_length_a   7.47581400
_cell_length_b   7.47581400
_cell_length_c   15.38404000
_cell_angle_alpha   90.00000000
_cell_angle_beta   90.00000000
_cell_angle_gamma   90.00000000
_symmetry_Int_Tables_number   1
_chemical_formula_structural   Cu4NiC11
_chemical_formula_sum   'Cu16 Ni4 C44'
_cell_volume   859.78007322
_cell_formula_units_Z   4
loop_
 _symmetry_equiv_pos_site_id
 _symmetry_equiv_pos_as_xyz
  1  'x, y, z'
loop_
 _atom_site_type_symbol
 _atom_site_label
 _atom_site_symmetry_multiplicity
 _atom_site_fract_x
 _atom_site_fract_y
 _atom_site_fract_z
 _atom_site_occupancy
  C  C0  1  0.50000000  0.50000000  0.50000000  1
  C  C1  1  0.00000000  0.00000000  0.50000000  1
  C  C2  1  0.00000000  0.00000000  0.00000000  1
  C  C3  1  0.50000000  0.50000000  0.00000000  1
  Ni  Ni4  1  0.50000000  0.00000000  0.58011500  1
  Ni  Ni5  1  0.00000000  0.50000000  0.91988500  1
  Ni  Ni6  1  0.00000000  0.50000000  0.41988500  1
  Ni  Ni7  1  0.50000000  0.00000000  0.08011500  1
  Cu  Cu8  1  0.17139200  0.25261000  0.64816800  1
  Cu  Cu9  1  0.82860800  0.74739000  0.64816800  1
  Cu  Cu10  1  0.25261000  0.17139200  0.85183200  1
  Cu  Cu11  1  0.75261000  0.32860800  0.64816800  1
  Cu  Cu12  1  0.24739000  0.67139200  0.64816800  1
  Cu  Cu13  1  0.32860800  0.75261000  0.85183200  1
  Cu  Cu14  1  0.67139200  0.24739000  0.85183200  1
  Cu  Cu15  1  0.74739000  0.82860800  0.85183200  1
  Cu  Cu16  1  0.32860800  0.24739000  0.35183200  1
  Cu  Cu17  1  0.67139200  0.75261000  0.35183200  1
  Cu  Cu18  1  0.24739000  0.32860800  0.14816800  1
  Cu  Cu19  1  0.74739000  0.17139200  0.35183200  1
  Cu  Cu20  1  0.25261000  0.82860800  0.35183200  1
  Cu  Cu21  1  0.17139200  0.74739000  0.14816800  1
  Cu  Cu22  1  0.82860800  0.25261000  0.14816800  1
  Cu  Cu23  1  0.75261000  0.67139200  0.14816800  1
  C  C24  1  0.24968600  0.10518100  0.58240200  1
  C  C25  1  0.75031400  0.89481900  0.58240200  1
  C  C26  1  0.10518100  0.24968600  0.91759800  1
  C  C27  1  0.60518100  0.25031400  0.58240200  1
  C  C28  1  0.39481900  0.74968600  0.58240200  1
  C  C29  1  0.25031400  0.60518100  0.91759800  1
  C  C30  1  0.74968600  0.39481900  0.91759800  1
  C  C31  1  0.89481900  0.75031400  0.91759800  1
  C  C32  1  0.25031400  0.39481900  0.41759800  1
  C  C33  1  0.74968600  0.60518100  0.41759800  1
  C  C34  1  0.39481900  0.25031400  0.08240200  1
  C  C35  1  0.89481900  0.24968600  0.41759800  1
  C  C36  1  0.10518100  0.75031400  0.41759800  1
  C  C37  1  0.24968600  0.89481900  0.08240200  1
  C  C38  1  0.75031400  0.10518100  0.08240200  1
  C  C39  1  0.25144700  0.04558300  0.37194400  1
  C  C40  1  0.60518100  0.74968600  0.08240200  1
  C  C41  1  0.75144700  0.54558300  0.62805600  1
  C  C42  1  0.45441700  0.24855300  0.87194400  1
  C  C43  1  0.95441700  0.25144700  0.62805600  1
  C  C44  1  0.04558300  0.74855300  0.62805600  1
  C  C45  1  0.25144700  0.95441700  0.87194400  1
  C  C46  1  0.74855300  0.04558300  0.87194400  1
  C  C47  1  0.54558300  0.75144700  0.87194400  1
  C  C48  1  0.70833900  0.70833900  0.25000000  1
  C  C49  1  0.79166100  0.20833900  0.25000000  1
  C  C50  1  0.20833900  0.79166100  0.25000000  1
  C  C51  1  0.29166100  0.29166100  0.25000000  1
  C  C52  1  0.79166100  0.79166100  0.75000000  1
  C  C53  1  0.70833900  0.29166100  0.75000000  1
  C  C54  1  0.29166100  0.70833900  0.75000000  1
  C  C55  1  0.20833900  0.20833900  0.75000000  1
  C  C56  1  0.95441700  0.74855300  0.12805600  1
  C  C57  1  0.75144700  0.45441700  0.12805600  1
  C  C58  1  0.24855300  0.54558300  0.12805600  1
  C  C59  1  0.45441700  0.75144700  0.37194400  1
  C  C60  1  0.54558300  0.24855300  0.37194400  1
  C  C61  1  0.04558300  0.25144700  0.12805600  1
  C  C62  1  0.74855300  0.95441700  0.37194400  1
  C  C63  1  0.24855300  0.45441700  0.62805600  1
