# generated using pymatgen
data_Cu5Ni2C25
_symmetry_space_group_name_H-M   'P 1'
_cell_length_a   5.07076000
_cell_length_b   5.13531152
_cell_length_c   11.69635909
_cell_angle_alpha   90.52599027
_cell_angle_beta   91.08265493
_cell_angle_gamma   109.09846687
_symmetry_Int_Tables_number   1
_chemical_formula_structural   Cu5Ni2C25
_chemical_formula_sum   'Cu5 Ni2 C25'
_cell_volume   287.71860051
_cell_formula_units_Z   1
loop_
 _symmetry_equiv_pos_site_id
 _symmetry_equiv_pos_as_xyz
  1  'x, y, z'
loop_
 _atom_site_type_symbol
 _atom_site_label
 _atom_site_symmetry_multiplicity
 _atom_site_fract_x
 _atom_site_fract_y
 _atom_site_fract_z
 _atom_site_occupancy
  C  C0  1  0.00455900  0.50409800  0.12390600  1
  C  C1  1  0.50332000  0.49582300  0.24690400  1
  C  C2  1  0.00427600  0.50314100  0.37090500  1
  C  C3  1  0.49974200  0.49950700  0.49456100  1
  C  C4  1  0.00554300  0.50161700  0.62401400  1
  C  C5  1  0.50115800  0.49881700  0.75238700  1
  C  C6  1  0.98919600  0.49378100  0.87949500  1
  C  C7  1  0.49715300  0.50252200  0.00814800  1
  C  C8  1  0.50192300  0.00285400  0.12526500  1
  Ni  Ni9  1  0.99436400  0.99013800  0.00221200  1
  Ni  Ni10  1  0.50264300  0.00421700  0.62545000  1
  Cu  Cu11  1  0.99766700  0.01485100  0.24505700  1
  Cu  Cu12  1  0.49309300  0.99741500  0.36536800  1
  Cu  Cu13  1  0.00027800  0.00154600  0.49385800  1
  Cu  Cu14  1  0.99369600  0.99772600  0.75191500  1
  Cu  Cu15  1  0.49670800  0.99585600  0.88466800  1
  C  C16  1  0.23323900  0.76813600  0.99365800  1
  C  C17  1  0.77613800  0.76731100  0.11862300  1
  C  C18  1  0.25434400  0.77307900  0.25740500  1
  C  C19  1  0.76786600  0.76944700  0.38037200  1
  C  C20  1  0.26786500  0.77572000  0.50691700  1
  C  C21  1  0.75348400  0.78281300  0.63162700  1
  C  C22  1  0.26370800  0.78495000  0.74537100  1
  C  C23  1  0.74989200  0.75905000  0.88002700  1
  C  C24  1  0.76174100  0.23492800  0.25536400  1
  C  C25  1  0.25252300  0.24092800  0.37637900  1
  C  C26  1  0.73666800  0.22436100  0.50759300  1
  C  C27  1  0.25787800  0.22630700  0.62277600  1
  C  C28  1  0.74456800  0.22522600  0.74682200  1
  C  C29  1  0.21965900  0.21312000  0.87463400  1
  C  C30  1  0.75002700  0.21946900  0.99196500  1
  C  C31  1  0.22508000  0.23124500  0.11634900  1
