# generated using pymatgen
data_Cu6Ni3C2
_symmetry_space_group_name_H-M   'P 1'
_cell_length_a   7.58263708
_cell_length_b   7.58263708
_cell_length_c   7.49480834
_cell_angle_alpha   84.36680838
_cell_angle_beta   84.36680838
_cell_angle_gamma   63.50888248
_symmetry_Int_Tables_number   1
_chemical_formula_structural   Cu6Ni3C2
_chemical_formula_sum   'Cu12 Ni6 C4'
_cell_volume   383.10039850
_cell_formula_units_Z   2
loop_
 _symmetry_equiv_pos_site_id
 _symmetry_equiv_pos_as_xyz
  1  'x, y, z'
loop_
 _atom_site_type_symbol
 _atom_site_label
 _atom_site_symmetry_multiplicity
 _atom_site_fract_x
 _atom_site_fract_y
 _atom_site_fract_z
 _atom_site_occupancy
  C  C0  1  0.77847400  0.43361200  0.12225900  1
  C  C1  1  0.56638800  0.22152600  0.37774100  1
  C  C2  1  0.22152600  0.56638800  0.87774100  1
  C  C3  1  0.43361200  0.77847400  0.62225900  1
  Ni  Ni4  1  0.28896700  0.01219300  0.15110500  1
  Ni  Ni5  1  0.98780700  0.71103300  0.34889500  1
  Ni  Ni6  1  0.71103300  0.98780700  0.84889500  1
  Ni  Ni7  1  0.01219300  0.28896700  0.65110500  1
  Ni  Ni8  1  0.60268800  0.39731200  0.25000000  1
  Ni  Ni9  1  0.39731200  0.60268800  0.75000000  1
  Cu  Cu10  1  0.81090800  0.31286000  0.97054100  1
  Cu  Cu11  1  0.68714000  0.18909200  0.52945900  1
  Cu  Cu12  1  0.18909200  0.68714000  0.02945900  1
  Cu  Cu13  1  0.31286000  0.81090800  0.47054100  1
  Cu  Cu14  1  0.68969700  0.64464000  0.08071200  1
  Cu  Cu15  1  0.35536000  0.31030300  0.41928800  1
  Cu  Cu16  1  0.31030300  0.35536000  0.91928800  1
  Cu  Cu17  1  0.64464000  0.68969700  0.58071200  1
  Cu  Cu18  1  0.94545000  0.36060500  0.23759200  1
  Cu  Cu19  1  0.63939500  0.05455000  0.26240800  1
  Cu  Cu20  1  0.05455000  0.63939500  0.76240800  1
  Cu  Cu21  1  0.36060500  0.94545000  0.73759200  1
