# generated using pymatgen
data_Cu3Ni5C12
_symmetry_space_group_name_H-M   'P 1'
_cell_length_a   7.26468728
_cell_length_b   7.26476801
_cell_length_c   36.07180124
_cell_angle_alpha   90.00197775
_cell_angle_beta   89.99966030
_cell_angle_gamma   90.39400791
_symmetry_Int_Tables_number   1
_chemical_formula_structural   Cu3Ni5C12
_chemical_formula_sum   'Cu12 Ni20 C48'
_cell_volume   1903.69002541
_cell_formula_units_Z   4
loop_
 _symmetry_equiv_pos_site_id
 _symmetry_equiv_pos_as_xyz
  1  'x, y, z'
loop_
 _atom_site_type_symbol
 _atom_site_label
 _atom_site_symmetry_multiplicity
 _atom_site_fract_x
 _atom_site_fract_y
 _atom_site_fract_z
 _atom_site_occupancy
  Ni  Ni0  1  0.24998495  0.74999790  0.00122543  1
  Ni  Ni1  1  0.24995299  0.75002924  0.33178512  1
  Ni  Ni2  1  0.24991789  0.74998831  0.09132886  1
  Ni  Ni3  1  0.24999980  0.74998412  0.41603371  1
  Ni  Ni4  1  0.25001406  0.74999458  0.74358201  1
  Ni  Ni5  1  0.25000161  0.75000136  0.50127132  1
  Ni  Ni6  1  0.25000038  0.74999503  0.83179715  1
  Ni  Ni7  1  0.74992915  0.24994859  0.25309171  1
  Ni  Ni8  1  0.74998558  0.25000359  0.58201890  1
  Ni  Ni9  1  0.74992925  0.25001674  0.16889599  1
  Ni  Ni10  1  0.75000651  0.24999461  0.49498064  1
  Ni  Ni11  1  0.75000857  0.24999893  0.84368628  1
  Ni  Ni12  1  0.74999682  0.24999284  0.99486885  1
  Ni  Ni13  1  0.75001595  0.25000123  0.34363706  1
  Ni  Ni14  1  0.74999888  0.24999347  0.66892224  1
  Ni  Ni15  1  0.25005332  0.75001488  0.24365383  1
  Ni  Ni16  1  0.25002005  0.74999996  0.59138509  1
  Ni  Ni17  1  0.25000348  0.74999858  0.91604073  1
  Ni  Ni18  1  0.74997421  0.24993343  0.08194552  1
  Ni  Ni19  1  0.75000667  0.25000751  0.75315603  1
  Cu  Cu20  1  0.74977680  0.75003202  0.26846937  1
  Cu  Cu21  1  0.75001441  0.74997894  0.66444997  1
  Cu  Cu22  1  0.74999040  0.75001538  0.94136154  1
  Cu  Cu23  1  0.25000856  0.25001431  0.06552674  1
  Cu  Cu24  1  0.24997415  0.24998898  0.34071407  1
  Cu  Cu25  1  0.24998126  0.24998836  0.66394029  1
  Cu  Cu26  1  0.75056127  0.75026335  0.16408974  1
  Cu  Cu27  1  0.75001460  0.75000290  0.56571294  1
  Cu  Cu28  1  0.75000714  0.74998094  0.84055654  1
  Cu  Cu29  1  0.24993193  0.25049133  0.16402658  1
  Cu  Cu30  1  0.25001872  0.24999343  0.44139904  1
  Cu  Cu31  1  0.25001536  0.24998281  0.76837191  1
  C  C32  1  0.08902640  0.58769914  0.04776253  1
  C  C33  1  0.08456203  0.58090626  0.37230822  1
  C  C34  1  0.10194299  0.52085584  0.71170789  1
  C  C35  1  0.92524910  0.09253376  0.20931431  1
  C  C36  1  0.90313474  0.07392015  0.54102929  1
  C  C37  1  0.89704165  0.03420993  0.87536981  1
  C  C38  1  0.58443974  0.08158616  0.12728115  1
  C  C39  1  0.53828647  0.07738549  0.46847948  1
  C  C40  1  0.57511844  0.10465492  0.79629284  1
  C  C41  1  0.09527295  0.91956369  0.28729553  1
  C  C42  1  0.04989275  0.91629219  0.62734058  1
  C  C43  1  0.09246374  0.92190942  0.95867494  1
  C  C44  1  0.57465846  0.40740080  0.20933092  1
  C  C45  1  0.59688053  0.42608703  0.54102947  1
  C  C46  1  0.60296554  0.46579152  0.87536753  1
  C  C47  1  0.41092849  0.91225895  0.04777101  1
  C  C48  1  0.41541516  0.91906871  0.37231129  1
  C  C49  1  0.39804652  0.97915160  0.71170779  1
  C  C50  1  0.02048515  0.60214967  0.21176710  1
  C  C51  1  0.08777583  0.58906898  0.54784949  1
  C  C52  1  0.08082208  0.58463770  0.87230885  1
  C  C53  1  0.91551143  0.41840631  0.12728344  1
  C  C54  1  0.96172796  0.42261139  0.46847958  1
  C  C55  1  0.92490748  0.39533865  0.79629615  1
  C  C56  1  0.89552579  0.42460633  0.29625873  1
  C  C57  1  0.91847140  0.41543142  0.62733111  1
  C  C58  1  0.92264930  0.46151245  0.96840885  1
  C  C59  1  0.40471221  0.58039250  0.28730496  1
  C  C60  1  0.45010895  0.58371338  0.62734151  1
  C  C61  1  0.40753301  0.57808364  0.95867074  1
  C  C62  1  0.92601017  0.09689783  0.04092590  1
  C  C63  1  0.96567013  0.10289365  0.37539406  1
  C  C64  1  0.90757670  0.07491847  0.70937180  1
  C  C65  1  0.57399261  0.40308658  0.04093589  1
  C  C66  1  0.53432506  0.39706637  0.37539154  1
  C  C67  1  0.59243032  0.42509076  0.70937675  1
  C  C68  1  0.47975285  0.89762574  0.21179495  1
  C  C69  1  0.41225468  0.91092871  0.54785040  1
  C  C70  1  0.41918314  0.91535287  0.87230935  1
  C  C71  1  0.41641835  0.55000601  0.12721843  1
  C  C72  1  0.42186701  0.59246284  0.45869118  1
  C  C73  1  0.41942921  0.59509957  0.78725970  1
  C  C74  1  0.08344468  0.94989341  0.12723944  1
  C  C75  1  0.07815002  0.90752828  0.45869599  1
  C  C76  1  0.08058119  0.90489890  0.78726258  1
  C  C77  1  0.60442660  0.07531847  0.29627185  1
  C  C78  1  0.58152578  0.08456981  0.62732971  1
  C  C79  1  0.57731051  0.03850611  0.96841217  1
