# generated using pymatgen
data_Cu(NiC10)2
_symmetry_space_group_name_H-M   'P 1'
_cell_length_a   12.65813065
_cell_length_b   12.65813065
_cell_length_c   9.29547305
_cell_angle_alpha   71.62770261
_cell_angle_beta   71.62770261
_cell_angle_gamma   76.78892538
_symmetry_Int_Tables_number   1
_chemical_formula_structural   Cu(NiC10)2
_chemical_formula_sum   'Cu2 Ni4 C40'
_cell_volume   1327.56091560
_cell_formula_units_Z   2
loop_
 _symmetry_equiv_pos_site_id
 _symmetry_equiv_pos_as_xyz
  1  'x, y, z'
loop_
 _atom_site_type_symbol
 _atom_site_label
 _atom_site_symmetry_multiplicity
 _atom_site_fract_x
 _atom_site_fract_y
 _atom_site_fract_z
 _atom_site_occupancy
  C  C0  1  0.51862100  0.06942300  0.14511300  1
  C  C1  1  0.93057700  0.48137900  0.35488700  1
  C  C2  1  0.48137900  0.93057700  0.85488700  1
  C  C3  1  0.06942300  0.51862100  0.64511300  1
  C  C4  1  0.67795900  0.93883200  0.94256600  1
  C  C5  1  0.06116800  0.32204100  0.55743400  1
  C  C6  1  0.32204100  0.06116800  0.05743400  1
  C  C7  1  0.93883200  0.67795900  0.44256600  1
  C  C8  1  0.46964000  0.84288100  0.18490000  1
  C  C9  1  0.15711900  0.53036000  0.31510000  1
  C  C10  1  0.53036000  0.15711900  0.81510000  1
  C  C11  1  0.84288100  0.46964000  0.68490000  1
  Ni  Ni12  1  0.00000000  0.00000000  0.00000000  1
  Ni  Ni13  1  0.00000000  0.00000000  0.50000000  1
  Ni  Ni14  1  0.82582500  0.17417500  0.25000000  1
  Ni  Ni15  1  0.17417500  0.82582500  0.75000000  1
  C  C16  1  0.34640300  0.98278800  0.33743700  1
  C  C17  1  0.01721200  0.65359700  0.16256300  1
  C  C18  1  0.65359700  0.01721200  0.66256300  1
  C  C19  1  0.98278800  0.34640300  0.83743700  1
  C  C20  1  0.39332200  0.24360400  0.02825700  1
  C  C21  1  0.75639600  0.60667800  0.47174300  1
  C  C22  1  0.60667800  0.75639600  0.97174300  1
  C  C23  1  0.24360400  0.39332200  0.52825700  1
  C  C24  1  0.63803400  0.88389300  0.24348100  1
  C  C25  1  0.11610700  0.36196600  0.25651900  1
  C  C26  1  0.36196600  0.11610700  0.75651900  1
  C  C27  1  0.88389300  0.63803400  0.74348100  1
  C  C28  1  0.69226600  0.13903100  0.93495400  1
  C  C29  1  0.86096900  0.30773400  0.56504600  1
  C  C30  1  0.30773400  0.86096900  0.06504600  1
  C  C31  1  0.13903100  0.69226600  0.43495400  1
  C  C32  1  0.44093600  0.67162800  0.38464900  1
  C  C33  1  0.32837200  0.55906400  0.11535100  1
  C  C34  1  0.55906400  0.32837200  0.61535100  1
  C  C35  1  0.67162800  0.44093600  0.88464900  1
  C  C36  1  0.54148200  0.15970000  0.31822700  1
  C  C37  1  0.84030000  0.45851800  0.18177300  1
  C  C38  1  0.45851800  0.84030000  0.68177300  1
  C  C39  1  0.15970000  0.54148200  0.81822700  1
  C  C40  1  0.87560700  0.87238100  0.87578300  1
  C  C41  1  0.12761900  0.12439300  0.62421700  1
  C  C42  1  0.12439300  0.12761900  0.12421700  1
  C  C43  1  0.87238100  0.87560700  0.37578300  1
  Cu  Cu44  1  0.44961800  0.55038200  0.75000000  1
  Cu  Cu45  1  0.55038200  0.44961800  0.25000000  1
