# generated using pymatgen
data_CuNi6C13
_symmetry_space_group_name_H-M   'P 1'
_cell_length_a   9.30164190
_cell_length_b   9.30164190
_cell_length_c   9.30164289
_cell_angle_alpha   68.78735962
_cell_angle_beta   68.78735962
_cell_angle_gamma   68.78735793
_symmetry_Int_Tables_number   1
_chemical_formula_structural   CuNi6C13
_chemical_formula_sum   'Cu3 Ni18 C39'
_cell_volume   674.28107349
_cell_formula_units_Z   3
loop_
 _symmetry_equiv_pos_site_id
 _symmetry_equiv_pos_as_xyz
  1  'x, y, z'
loop_
 _atom_site_type_symbol
 _atom_site_label
 _atom_site_symmetry_multiplicity
 _atom_site_fract_x
 _atom_site_fract_y
 _atom_site_fract_z
 _atom_site_occupancy
  C  C0  1  0.00000000  0.00000000  0.00000000  1
  Ni  Ni1  1  0.35982500  0.91275700  0.53275400  1
  Ni  Ni2  1  0.53275400  0.35982500  0.91275700  1
  Ni  Ni3  1  0.91275700  0.53275400  0.35982500  1
  Ni  Ni4  1  0.64017500  0.08724300  0.46724600  1
  Ni  Ni5  1  0.46724600  0.64017500  0.08724300  1
  Ni  Ni6  1  0.08724300  0.46724600  0.64017500  1
  Ni  Ni7  1  0.85043300  0.28587100  0.68538700  1
  Ni  Ni8  1  0.68538700  0.85043300  0.28587100  1
  Ni  Ni9  1  0.28587100  0.68538700  0.85043300  1
  Ni  Ni10  1  0.14956700  0.71412900  0.31461300  1
  Ni  Ni11  1  0.31461300  0.14956700  0.71412900  1
  Ni  Ni12  1  0.71412900  0.31461300  0.14956700  1
  Ni  Ni13  1  0.97937600  0.87597400  0.65184300  1
  Ni  Ni14  1  0.65184300  0.97937600  0.87597400  1
  Ni  Ni15  1  0.87597400  0.65184300  0.97937600  1
  Ni  Ni16  1  0.02062400  0.12402600  0.34815700  1
  Ni  Ni17  1  0.34815700  0.02062400  0.12402600  1
  Ni  Ni18  1  0.12402600  0.34815700  0.02062400  1
  Cu  Cu19  1  0.50000000  0.50000000  0.50000000  1
  Cu  Cu20  1  0.68960600  0.68960600  0.68960600  1
  Cu  Cu21  1  0.31039400  0.31039400  0.31039400  1
  C  C22  1  0.78820300  0.78820300  0.78820300  1
  C  C23  1  0.21179700  0.21179700  0.21179700  1
  C  C24  1  0.92522200  0.75597200  0.29448800  1
  C  C25  1  0.29448800  0.92522200  0.75597200  1
  C  C26  1  0.75597200  0.29448800  0.92522200  1
  C  C27  1  0.07477800  0.24402800  0.70551200  1
  C  C28  1  0.70551200  0.07477800  0.24402800  1
  C  C29  1  0.24402800  0.70551200  0.07477800  1
  C  C30  1  0.86792500  0.51009100  0.60716300  1
  C  C31  1  0.60716300  0.86792500  0.51009100  1
  C  C32  1  0.51009100  0.60716300  0.86792500  1
  C  C33  1  0.13207500  0.48990900  0.39283700  1
  C  C34  1  0.39283700  0.13207500  0.48990900  1
  C  C35  1  0.48990900  0.39283700  0.13207500  1
  C  C36  1  0.54389300  0.07437500  0.70217800  1
  C  C37  1  0.01133400  0.48651200  0.85579900  1
  C  C38  1  0.48651200  0.85579900  0.01133400  1
  C  C39  1  0.98866600  0.51348800  0.14420100  1
  C  C40  1  0.14420100  0.98866600  0.51348800  1
  C  C41  1  0.51348800  0.14420100  0.98866600  1
  C  C42  1  0.70217700  0.54389300  0.07437500  1
  C  C43  1  0.07437500  0.70217800  0.54389300  1
  C  C44  1  0.62759400  0.30562200  0.37632200  1
  C  C45  1  0.30562200  0.37632200  0.62759400  1
  C  C46  1  0.37632200  0.62759400  0.30562200  1
  C  C47  1  0.37240600  0.69437800  0.62367800  1
  C  C48  1  0.69437800  0.62367800  0.37240600  1
  C  C49  1  0.62367800  0.37240600  0.69437800  1
  C  C50  1  0.23882300  0.15401400  0.93896900  1
  C  C51  1  0.15401400  0.93896900  0.23882300  1
  C  C52  1  0.93896900  0.23882300  0.15401400  1
  C  C53  1  0.76117700  0.84598600  0.06103100  1
  C  C54  1  0.84598600  0.06103100  0.76117700  1
  C  C55  1  0.06103100  0.76117700  0.84598600  1
  C  C56  1  0.45610700  0.92562500  0.29782200  1
  C  C57  1  0.92562500  0.29782200  0.45610700  1
  C  C58  1  0.29782300  0.45610700  0.92562500  1
  C  C59  1  0.85579900  0.01133400  0.48651200  1
