# generated using pymatgen
data_Cu20Ni3C2
_symmetry_space_group_name_H-M   'P 1'
_cell_length_a   6.92917400
_cell_length_b   6.55268695
_cell_length_c   20.01908588
_cell_angle_alpha   94.69167631
_cell_angle_beta   90.00000000
_cell_angle_gamma   121.91952986
_symmetry_Int_Tables_number   1
_chemical_formula_structural   Cu20Ni3C2
_chemical_formula_sum   'Cu40 Ni6 C4'
_cell_volume   767.92758159
_cell_formula_units_Z   2
loop_
 _symmetry_equiv_pos_site_id
 _symmetry_equiv_pos_as_xyz
  1  'x, y, z'
loop_
 _atom_site_type_symbol
 _atom_site_label
 _atom_site_symmetry_multiplicity
 _atom_site_fract_x
 _atom_site_fract_y
 _atom_site_fract_z
 _atom_site_occupancy
  C  C0  1  0.14638400  0.31643500  0.38944700  1
  C  C1  1  0.82994900  0.68356500  0.11055300  1
  C  C2  1  0.85361600  0.68356500  0.61055300  1
  C  C3  1  0.17005100  0.31643500  0.88944700  1
  Ni  Ni4  1  0.82072700  0.61003000  0.91952400  1
  Ni  Ni5  1  0.21069700  0.38997000  0.58047600  1
  Ni  Ni6  1  0.17927300  0.38997000  0.08047600  1
  Ni  Ni7  1  0.78930300  0.61003000  0.41952400  1
  Ni  Ni8  1  0.23683100  0.00000000  0.75000000  1
  Ni  Ni9  1  0.76316900  0.00000000  0.25000000  1
  Cu  Cu10  1  0.86038900  0.68241500  0.99275500  1
  Cu  Cu11  1  0.17797400  0.31758500  0.50724500  1
  Cu  Cu12  1  0.13961100  0.31758500  0.00724500  1
  Cu  Cu13  1  0.82202600  0.68241500  0.49275500  1
  Cu  Cu14  1  0.92745600  0.83309000  0.88264700  1
  Cu  Cu15  1  0.09436600  0.16691000  0.61735300  1
  Cu  Cu16  1  0.07254400  0.16691000  0.11735300  1
  Cu  Cu17  1  0.90563400  0.83309000  0.38264700  1
  Cu  Cu18  1  0.57398800  0.46275500  0.90132200  1
  Cu  Cu19  1  0.11123300  0.53724500  0.59867800  1
  Cu  Cu20  1  0.42601200  0.53724500  0.09867800  1
  Cu  Cu21  1  0.88876700  0.46275500  0.40132200  1
  Cu  Cu22  1  0.92549400  0.47000700  0.89859300  1
  Cu  Cu23  1  0.45548700  0.52999300  0.60140700  1
  Cu  Cu24  1  0.07450600  0.52999300  0.10140700  1
  Cu  Cu25  1  0.54451300  0.47000700  0.39859300  1
  Cu  Cu26  1  0.33882100  0.94708500  0.80705100  1
  Cu  Cu27  1  0.39173700  0.05291500  0.69294900  1
  Cu  Cu28  1  0.66117900  0.05291500  0.19294900  1
  Cu  Cu29  1  0.60826300  0.94708500  0.30705100  1
  Cu  Cu30  1  0.00871600  0.79202500  0.72548200  1
  Cu  Cu31  1  0.21669200  0.20797500  0.77451800  1
  Cu  Cu32  1  0.99128400  0.20797500  0.27451800  1
  Cu  Cu33  1  0.78330800  0.79202500  0.22548200  1
  Cu  Cu34  1  0.57297400  0.32532800  0.17809200  1
  Cu  Cu35  1  0.24764600  0.67467200  0.32190800  1
  Cu  Cu36  1  0.42702600  0.67467200  0.82190800  1
  Cu  Cu37  1  0.75235400  0.32532800  0.67809200  1
  Cu  Cu38  1  0.57373000  0.22325300  0.07055200  1
  Cu  Cu39  1  0.35047600  0.77674700  0.42944800  1
  Cu  Cu40  1  0.42627000  0.77674700  0.92944800  1
  Cu  Cu41  1  0.64952400  0.22325300  0.57055200  1
  Cu  Cu42  1  0.30219100  0.01799200  0.12901500  1
  Cu  Cu43  1  0.28419900  0.98200800  0.37098500  1
  Cu  Cu44  1  0.69780900  0.98200800  0.87098500  1
  Cu  Cu45  1  0.71580100  0.01799200  0.62901500  1
  Cu  Cu46  1  0.31498600  0.01723300  0.91760900  1
  Cu  Cu47  1  0.29775300  0.98276700  0.58239100  1
  Cu  Cu48  1  0.68501400  0.98276700  0.08239100  1
  Cu  Cu49  1  0.70224700  0.01723300  0.41760900  1
