# generated using pymatgen
data_CuNi3C20
_symmetry_space_group_name_H-M   'P 1'
_cell_length_a   3.93334900
_cell_length_b   20.79336977
_cell_length_c   7.88371000
_cell_angle_alpha   79.06869822
_cell_angle_beta   90.00101856
_cell_angle_gamma   90.00008354
_symmetry_Int_Tables_number   1
_chemical_formula_structural   CuNi3C20
_chemical_formula_sum   'Cu2 Ni6 C40'
_cell_volume   633.09002478
_cell_formula_units_Z   2
loop_
 _symmetry_equiv_pos_site_id
 _symmetry_equiv_pos_as_xyz
  1  'x, y, z'
loop_
 _atom_site_type_symbol
 _atom_site_label
 _atom_site_symmetry_multiplicity
 _atom_site_fract_x
 _atom_site_fract_y
 _atom_site_fract_z
 _atom_site_occupancy
  C  C0  1  0.49999000  0.18525800  0.15736200  1
  C  C1  1  0.50000200  0.18548700  0.65725800  1
  C  C2  1  0.00000900  0.68355600  0.15916600  1
  C  C3  1  0.99999700  0.68355800  0.65728400  1
  C  C4  1  0.99999900  0.31814300  0.34125600  1
  C  C5  1  0.00001300  0.31813400  0.84058200  1
  C  C6  1  0.49999900  0.81564900  0.84217500  1
  C  C7  1  0.50000700  0.81551900  0.34223600  1
  C  C8  1  0.50000200  0.00027000  0.24985600  1
  C  C9  1  0.50000500  0.00028300  0.74985000  1
  C  C10  1  0.00000100  0.49701700  0.25084400  1
  C  C11  1  0.99999800  0.49701200  0.75217700  1
  Ni  Ni12  1  0.00000100  0.90220300  0.04887800  1
  Ni  Ni13  1  0.99999800  0.90220200  0.54892600  1
  Ni  Ni14  1  0.99999900  0.09851100  0.45067100  1
  Ni  Ni15  1  0.99999700  0.09850800  0.95079200  1
  Ni  Ni16  1  0.50000000  0.59742800  0.95131000  1
  Ni  Ni17  1  0.50000000  0.59672300  0.45166700  1
  Cu  Cu18  1  0.50001100  0.40262300  0.04870600  1
  Cu  Cu19  1  0.49998700  0.40242100  0.54878100  1
  C  C20  1  0.50000100  0.30702600  0.09645600  1
  C  C21  1  0.50000500  0.30625300  0.59685200  1
  C  C22  1  0.00000100  0.80558400  0.09693200  1
  C  C23  1  0.99999700  0.80558400  0.59738900  1
  C  C24  1  0.99999700  0.19451200  0.40211000  1
  C  C25  1  0.99999800  0.19451300  0.90345900  1
  C  C26  1  0.50000200  0.69302000  0.90350200  1
  C  C27  1  0.49999700  0.69338100  0.40333100  1
  C  C28  1  0.99999900  0.00002400  0.00000300  1
  C  C29  1  0.99999400  0.00002300  0.49998400  1
  C  C30  1  0.50000400  0.49872100  0.00060000  1
  C  C31  1  0.50000800  0.49938500  0.50031900  1
  C  C32  1  0.00000000  0.40390100  0.04801200  1
  C  C33  1  0.99999700  0.40410600  0.54790400  1
  C  C34  1  0.49994100  0.40427200  0.29091900  1
  C  C35  1  0.50005300  0.40430800  0.80476200  1
  C  C36  1  0.50000200  0.90341700  0.04815000  1
  C  C37  1  0.50000100  0.90341600  0.54830800  1
  C  C38  1  0.00000500  0.90344500  0.79822600  1
  C  C39  1  0.00000300  0.90342600  0.29823600  1
  C  C40  1  0.49999800  0.09675700  0.45146800  1
  C  C41  1  0.49999900  0.09675600  0.95189200  1
  C  C42  1  0.99999900  0.09672700  0.20168800  1
  C  C43  1  0.00000100  0.09679100  0.70165400  1
  C  C44  1  0.99999900  0.59588700  0.95209600  1
  C  C45  1  0.99999800  0.59626400  0.45190700  1
  C  C46  1  0.49999500  0.59599900  0.20179100  1
  C  C47  1  0.49999300  0.59599600  0.70227700  1
