# generated using pymatgen
data_CuNiC23
_symmetry_space_group_name_H-M   'P 1'
_cell_length_a   11.27823419
_cell_length_b   11.27823419
_cell_length_c   14.38223098
_cell_angle_alpha   60.22172496
_cell_angle_beta   60.22172496
_cell_angle_gamma   27.80379824
_symmetry_Int_Tables_number   1
_chemical_formula_structural   CuNiC23
_chemical_formula_sum   'Cu2 Ni2 C46'
_cell_volume   733.17224736
_cell_formula_units_Z   2
loop_
 _symmetry_equiv_pos_site_id
 _symmetry_equiv_pos_as_xyz
  1  'x, y, z'
loop_
 _atom_site_type_symbol
 _atom_site_label
 _atom_site_symmetry_multiplicity
 _atom_site_fract_x
 _atom_site_fract_y
 _atom_site_fract_z
 _atom_site_occupancy
  C  C0  1  0.75854600  0.80900700  0.65199200  1
  C  C1  1  0.24145400  0.19099300  0.34800800  1
  C  C2  1  0.19099300  0.24145400  0.84800800  1
  C  C3  1  0.80900700  0.75854600  0.15199200  1
  C  C4  1  0.16053100  0.14235400  0.65794100  1
  C  C5  1  0.83946900  0.85764600  0.34206000  1
  C  C6  1  0.85764600  0.83946900  0.84206000  1
  C  C7  1  0.14235400  0.16053100  0.15794100  1
  C  C8  1  0.45634700  0.54365300  0.75000000  1
  C  C9  1  0.54365300  0.45634700  0.25000000  1
  C  C10  1  0.64305700  0.67463300  0.00326200  1
  C  C11  1  0.35694300  0.32536700  0.99673800  1
  C  C12  1  0.32536700  0.35694300  0.49673800  1
  C  C13  1  0.67463300  0.64305700  0.50326200  1
  C  C14  1  0.61472900  0.62300600  0.83476900  1
  C  C15  1  0.38527100  0.37699400  0.16523100  1
  C  C16  1  0.37699400  0.38527100  0.66523100  1
  C  C17  1  0.62300600  0.61472900  0.33476900  1
  Ni  Ni18  1  0.00000000  0.00000000  0.50000000  1
  Ni  Ni19  1  0.00000000  0.00000000  0.00000000  1
  Cu  Cu20  1  0.96255500  0.03744500  0.75000000  1
  Cu  Cu21  1  0.03744500  0.96255500  0.25000000  1
  C  C22  1  0.46388100  0.44957700  0.64396700  1
  C  C23  1  0.53611900  0.55042300  0.35603300  1
  C  C24  1  0.55042300  0.53611900  0.85603300  1
  C  C25  1  0.44957700  0.46388100  0.14396700  1
  C  C26  1  0.42926800  0.35505300  0.54628800  1
  C  C27  1  0.57073200  0.64494700  0.45371200  1
  C  C28  1  0.64494700  0.57073200  0.95371200  1
  C  C29  1  0.35505300  0.42926800  0.04628800  1
  C  C30  1  0.63272900  0.04095300  0.98580900  1
  C  C31  1  0.36727100  0.95904700  0.01419100  1
  C  C32  1  0.95904700  0.36727100  0.51419100  1
  C  C33  1  0.04095300  0.63272900  0.48580900  1
  C  C34  1  0.50422200  0.73512200  0.61390200  1
  C  C35  1  0.49577800  0.26487800  0.38609800  1
  C  C36  1  0.26487800  0.49577800  0.88609800  1
  C  C37  1  0.73512200  0.50422200  0.11390200  1
  C  C38  1  0.37554600  0.16492000  0.57563200  1
  C  C39  1  0.62445400  0.83508000  0.42436800  1
  C  C40  1  0.83508000  0.62445400  0.92436800  1
  C  C41  1  0.16492000  0.37554600  0.07563200  1
  C  C42  1  0.53592500  0.12796000  0.73905200  1
  C  C43  1  0.46407500  0.87204000  0.26094800  1
  C  C44  1  0.87204000  0.46407500  0.76094800  1
  C  C45  1  0.12796000  0.53592500  0.23905200  1
  C  C46  1  0.40336700  0.90986100  0.79103900  1
  C  C47  1  0.59663300  0.09013900  0.20896100  1
  C  C48  1  0.09013900  0.59663300  0.70896100  1
  C  C49  1  0.90986100  0.40336700  0.29103900  1
