# generated using pymatgen
data_Cu4Ni3C13
_symmetry_space_group_name_H-M   'P 1'
_cell_length_a   6.58530830
_cell_length_b   6.58530830
_cell_length_c   7.57765549
_cell_angle_alpha   55.00224958
_cell_angle_beta   55.00224958
_cell_angle_gamma   69.98849382
_symmetry_Int_Tables_number   1
_chemical_formula_structural   Cu4Ni3C13
_chemical_formula_sum   'Cu4 Ni3 C13'
_cell_volume   220.47291638
_cell_formula_units_Z   1
loop_
 _symmetry_equiv_pos_site_id
 _symmetry_equiv_pos_as_xyz
  1  'x, y, z'
loop_
 _atom_site_type_symbol
 _atom_site_label
 _atom_site_symmetry_multiplicity
 _atom_site_fract_x
 _atom_site_fract_y
 _atom_site_fract_z
 _atom_site_occupancy
  C  C0  1  0.00000000  0.00000000  0.00000000  1
  Ni  Ni1  1  0.50000000  0.50000000  0.00000000  1
  Ni  Ni2  1  0.00000000  0.00000000  0.50000000  1
  Ni  Ni3  1  0.50000000  0.50000000  0.50000000  1
  Cu  Cu4  1  0.50000000  0.00000000  0.50000000  1
  Cu  Cu5  1  0.00000000  0.50000000  0.50000000  1
  Cu  Cu6  1  0.50000000  0.00000000  0.00000000  1
  Cu  Cu7  1  0.00000000  0.50000000  0.00000000  1
  C  C8  1  0.30580400  0.68356100  0.82623700  1
  C  C9  1  0.31643900  0.69419600  0.17376300  1
  C  C10  1  0.68356100  0.30580400  0.82623700  1
  C  C11  1  0.69419600  0.31643900  0.17376300  1
  C  C12  1  0.82087800  0.82087800  0.88842100  1
  C  C13  1  0.18555500  0.18555500  0.52169300  1
  C  C14  1  0.81444500  0.81444500  0.47830700  1
  C  C15  1  0.17912200  0.17912200  0.11157900  1
  C  C16  1  0.89200000  0.51591300  0.28551200  1
  C  C17  1  0.51591300  0.89200000  0.28551200  1
  C  C18  1  0.48408700  0.10800000  0.71448800  1
  C  C19  1  0.10800000  0.48408700  0.71448800  1
