# generated using pymatgen
data_Cu3NiC20
_symmetry_space_group_name_H-M   'P 1'
_cell_length_a   5.91843523
_cell_length_b   5.91843523
_cell_length_c   10.05338900
_cell_angle_alpha   90.00000000
_cell_angle_beta   90.00000000
_cell_angle_gamma   116.26033652
_symmetry_Int_Tables_number   1
_chemical_formula_structural   Cu3NiC20
_chemical_formula_sum   'Cu3 Ni1 C20'
_cell_volume   315.80460848
_cell_formula_units_Z   1
loop_
 _symmetry_equiv_pos_site_id
 _symmetry_equiv_pos_as_xyz
  1  'x, y, z'
loop_
 _atom_site_type_symbol
 _atom_site_label
 _atom_site_symmetry_multiplicity
 _atom_site_fract_x
 _atom_site_fract_y
 _atom_site_fract_z
 _atom_site_occupancy
  Ni  Ni0  1  0.00000000  0.00000000  0.50000000  1
  Cu  Cu1  1  0.50000000  0.50000000  0.00000000  1
  Cu  Cu2  1  0.00000000  0.50000000  0.75141700  1
  Cu  Cu3  1  0.50000000  0.00000000  0.24858300  1
  C  C4  1  0.50000000  0.50000000  0.50000000  1
  C  C5  1  0.00000000  0.00000000  0.00000000  1
  C  C6  1  0.50000000  0.00000000  0.75381100  1
  C  C7  1  0.00000000  0.50000000  0.24618900  1
  C  C8  1  0.76689900  0.58151100  0.59543500  1
  C  C9  1  0.26954600  0.08601900  0.09421300  1
  C  C10  1  0.58151100  0.76689900  0.40456500  1
  C  C11  1  0.08601900  0.26954600  0.90578700  1
  C  C12  1  0.91305200  0.22897600  0.33854200  1
  C  C13  1  0.41678900  0.72664600  0.84298400  1
  C  C14  1  0.22897600  0.91305200  0.66145800  1
  C  C15  1  0.72664600  0.41678900  0.15701600  1
  C  C16  1  0.41848900  0.23310100  0.40456500  1
  C  C17  1  0.91398100  0.73045400  0.90578700  1
  C  C18  1  0.23310100  0.41848900  0.59543500  1
  C  C19  1  0.73045400  0.91398100  0.09421300  1
  C  C20  1  0.77102400  0.08694800  0.66145800  1
  C  C21  1  0.27335400  0.58321100  0.15701600  1
  C  C22  1  0.08694800  0.77102400  0.33854200  1
  C  C23  1  0.58321100  0.27335400  0.84298400  1
