# generated using pymatgen
data_Cu6Ni4C
_symmetry_space_group_name_H-M   'P 1'
_cell_length_a   7.31140931
_cell_length_b   7.31140931
_cell_length_c   3.87725900
_cell_angle_alpha   90.00000000
_cell_angle_beta   90.00000000
_cell_angle_gamma   119.99999375
_symmetry_Int_Tables_number   1
_chemical_formula_structural   Cu6Ni4C
_chemical_formula_sum   'Cu6 Ni4 C1'
_cell_volume   179.49719512
_cell_formula_units_Z   1
loop_
 _symmetry_equiv_pos_site_id
 _symmetry_equiv_pos_as_xyz
  1  'x, y, z'
loop_
 _atom_site_type_symbol
 _atom_site_label
 _atom_site_symmetry_multiplicity
 _atom_site_fract_x
 _atom_site_fract_y
 _atom_site_fract_z
 _atom_site_occupancy
  C  C0  1  0.00000000  0.00000000  0.00000000  1
  Ni  Ni1  1  0.80880800  0.61761700  0.50000000  1
  Ni  Ni2  1  0.38238300  0.19119200  0.50000000  1
  Ni  Ni3  1  0.33333300  0.66666700  0.00000000  1
  Ni  Ni4  1  0.80880800  0.19119200  0.50000000  1
  Cu  Cu5  1  0.20183100  0.79816900  0.50000000  1
  Cu  Cu6  1  0.20183100  0.40366200  0.50000000  1
  Cu  Cu7  1  0.53482800  0.06965600  0.00000000  1
  Cu  Cu8  1  0.93034400  0.46517200  0.00000000  1
  Cu  Cu9  1  0.53482800  0.46517200  0.00000000  1
  Cu  Cu10  1  0.59633800  0.79816900  0.50000000  1
