# generated using pymatgen
data_Cu(NiC4)2
_symmetry_space_group_name_H-M   'P 1'
_cell_length_a   4.46097912
_cell_length_b   4.46097912
_cell_length_c   10.80684447
_cell_angle_alpha   88.23950569
_cell_angle_beta   88.23950569
_cell_angle_gamma   59.50847802
_symmetry_Int_Tables_number   1
_chemical_formula_structural   Cu(NiC4)2
_chemical_formula_sum   'Cu2 Ni4 C16'
_cell_volume   185.20189590
_cell_formula_units_Z   2
loop_
 _symmetry_equiv_pos_site_id
 _symmetry_equiv_pos_as_xyz
  1  'x, y, z'
loop_
 _atom_site_type_symbol
 _atom_site_label
 _atom_site_symmetry_multiplicity
 _atom_site_fract_x
 _atom_site_fract_y
 _atom_site_fract_z
 _atom_site_occupancy
  Ni  Ni0  1  0.33097300  0.32881100  0.80516600  1
  Ni  Ni1  1  0.32881100  0.33097300  0.30516600  1
  Ni  Ni2  1  0.66945000  0.67016700  0.70126400  1
  Ni  Ni3  1  0.67016700  0.66945000  0.20126400  1
  Cu  Cu4  1  0.00017900  0.99971700  0.75103800  1
  Cu  Cu5  1  0.99971700  0.00017900  0.25103800  1
  C  C6  1  0.43340800  0.43220300  0.98983300  1
  C  C7  1  0.43220300  0.43340800  0.48983300  1
  C  C8  1  0.54129100  0.92579400  0.50785000  1
  C  C9  1  0.92459500  0.54339000  0.50774300  1
  C  C10  1  0.54339000  0.92459500  0.00774300  1
  C  C11  1  0.92579400  0.54129100  0.00785000  1
  C  C12  1  0.32137800  0.31298800  0.95536700  1
  C  C13  1  0.31298800  0.32137800  0.45536700  1
  C  C14  1  0.99981500  0.69177500  0.75116000  1
  C  C15  1  0.68902400  0.31193100  0.75067400  1
  C  C16  1  0.30861400  0.99995900  0.75075200  1
  C  C17  1  0.99995900  0.30861400  0.25075200  1
  C  C18  1  0.69177500  0.99981500  0.25116000  1
  C  C19  1  0.31193100  0.68902400  0.25067400  1
  C  C20  1  0.67668200  0.67936700  0.54666200  1
  C  C21  1  0.67936700  0.67668200  0.04666200  1
