# generated using pymatgen
data_Cu4NiC4
_symmetry_space_group_name_H-M   'P 1'
_cell_length_a   6.38683500
_cell_length_b   7.95124500
_cell_length_c   14.31939000
_cell_angle_alpha   90.00000000
_cell_angle_beta   90.00000000
_cell_angle_gamma   90.00000000
_symmetry_Int_Tables_number   1
_chemical_formula_structural   Cu4NiC4
_chemical_formula_sum   'Cu16 Ni4 C16'
_cell_volume   727.18573298
_cell_formula_units_Z   4
loop_
 _symmetry_equiv_pos_site_id
 _symmetry_equiv_pos_as_xyz
  1  'x, y, z'
loop_
 _atom_site_type_symbol
 _atom_site_label
 _atom_site_symmetry_multiplicity
 _atom_site_fract_x
 _atom_site_fract_y
 _atom_site_fract_z
 _atom_site_occupancy
  C  C0  1  0.00000000  0.50000000  0.00000000  1
  C  C1  1  0.50000000  0.00000000  0.50000000  1
  C  C2  1  0.00000000  0.00000000  0.00000000  1
  C  C3  1  0.50000000  0.50000000  0.50000000  1
  C  C4  1  0.86814000  0.75000000  0.40978000  1
  C  C5  1  0.63186000  0.75000000  0.90978000  1
  C  C6  1  0.13186000  0.25000000  0.59022000  1
  C  C7  1  0.36814000  0.25000000  0.09022000  1
  C  C8  1  0.82177200  0.50373400  0.17777500  1
  C  C9  1  0.67822800  0.99626600  0.67777500  1
  C  C10  1  0.17822800  0.00373400  0.82222500  1
  C  C11  1  0.32177200  0.49626600  0.32222500  1
  C  C12  1  0.17822800  0.49626600  0.82222500  1
  C  C13  1  0.32177200  0.00373400  0.32222500  1
  C  C14  1  0.82177200  0.99626600  0.17777500  1
  C  C15  1  0.67822800  0.50373400  0.67777500  1
  Ni  Ni16  1  0.35839600  0.75000000  0.09126300  1
  Ni  Ni17  1  0.14160400  0.75000000  0.59126300  1
  Ni  Ni18  1  0.64160400  0.25000000  0.90873700  1
  Ni  Ni19  1  0.85839600  0.25000000  0.40873700  1
  Cu  Cu20  1  0.73602000  0.75000000  0.08280700  1
  Cu  Cu21  1  0.76398000  0.75000000  0.58280700  1
  Cu  Cu22  1  0.26398000  0.25000000  0.91719300  1
  Cu  Cu23  1  0.23602000  0.25000000  0.41719300  1
  Cu  Cu24  1  0.21144100  0.49990700  0.15986400  1
  Cu  Cu25  1  0.28855900  0.00009300  0.65986400  1
  Cu  Cu26  1  0.78855900  0.99990700  0.84013600  1
  Cu  Cu27  1  0.71144100  0.50009300  0.34013600  1
  Cu  Cu28  1  0.78855900  0.50009300  0.84013600  1
  Cu  Cu29  1  0.71144100  0.99990700  0.34013600  1
  Cu  Cu30  1  0.21144100  0.00009300  0.15986400  1
  Cu  Cu31  1  0.28855900  0.49990700  0.65986400  1
  Cu  Cu32  1  0.26245200  0.75000000  0.42961300  1
  Cu  Cu33  1  0.23754800  0.75000000  0.92961300  1
  Cu  Cu34  1  0.73754800  0.25000000  0.57038700  1
  Cu  Cu35  1  0.76245200  0.25000000  0.07038700  1
