# generated using pymatgen
data_Cu(NiC5)2
_symmetry_space_group_name_H-M   'P 1'
_cell_length_a   5.23213953
_cell_length_b   12.09046430
_cell_length_c   10.18018582
_cell_angle_alpha   107.25919318
_cell_angle_beta   90.40633706
_cell_angle_gamma   89.99865173
_symmetry_Int_Tables_number   1
_chemical_formula_structural   Cu(NiC5)2
_chemical_formula_sum   'Cu4 Ni8 C40'
_cell_volume   614.97413119
_cell_formula_units_Z   4
loop_
 _symmetry_equiv_pos_site_id
 _symmetry_equiv_pos_as_xyz
  1  'x, y, z'
loop_
 _atom_site_type_symbol
 _atom_site_label
 _atom_site_symmetry_multiplicity
 _atom_site_fract_x
 _atom_site_fract_y
 _atom_site_fract_z
 _atom_site_occupancy
  Ni  Ni0  1  0.75584700  0.20716900  0.54606600  1
  Ni  Ni1  1  0.75584500  0.70716300  0.54605600  1
  Ni  Ni2  1  0.74522000  0.43482100  0.45620100  1
  Ni  Ni3  1  0.74523000  0.93481700  0.45620100  1
  Ni  Ni4  1  0.24522200  0.29263600  0.45616200  1
  Ni  Ni5  1  0.24522100  0.79263000  0.45615200  1
  Ni  Ni6  1  0.25578700  0.06508800  0.54619000  1
  Ni  Ni7  1  0.25579400  0.56508500  0.54618500  1
  C  C8  1  0.74123400  0.14097500  0.23796300  1
  C  C9  1  0.74125500  0.64097800  0.23794600  1
  C  C10  1  0.75981400  0.02234000  0.76437400  1
  C  C11  1  0.75984500  0.52232800  0.76436600  1
  C  C12  1  0.25981500  0.35896800  0.76429300  1
  C  C13  1  0.25981100  0.85898200  0.76427800  1
  C  C14  1  0.24130500  0.47773600  0.23806600  1
  C  C15  1  0.24130600  0.97771400  0.23805900  1
  Cu  Cu16  1  0.75040700  0.82781900  0.00120600  1
  Cu  Cu17  1  0.25034900  0.17233000  0.00119900  1
  Cu  Cu18  1  0.75036900  0.32783100  0.00125800  1
  Cu  Cu19  1  0.25052000  0.67229600  0.00106400  1
  C  C20  1  0.07213400  0.09073000  0.14883900  1
  C  C21  1  0.07214600  0.59073400  0.14882500  1
  C  C22  1  0.42905900  0.01648400  0.85356900  1
  C  C23  1  0.42907400  0.51647700  0.85356000  1
  C  C24  1  0.92905600  0.40939300  0.85358600  1
  C  C25  1  0.92905300  0.90939900  0.85357900  1
  C  C26  1  0.57202900  0.48346600  0.14869100  1
  C  C27  1  0.57202300  0.98346500  0.14868800  1
  C  C28  1  0.59406300  0.21631700  0.12340900  1
  C  C29  1  0.59406200  0.71631500  0.12339700  1
  C  C30  1  0.90673500  0.15494600  0.87896300  1
  C  C31  1  0.90675300  0.65493800  0.87895800  1
  C  C32  1  0.40668500  0.28365300  0.87895900  1
  C  C33  1  0.40668200  0.78365200  0.87893800  1
  C  C34  1  0.09403700  0.34523100  0.12344000  1
  C  C35  1  0.09404800  0.84521900  0.12342200  1
  C  C36  1  0.45384600  0.14590600  0.37587300  1
  C  C37  1  0.45384400  0.64590200  0.37586500  1
  C  C38  1  0.04721800  0.45841500  0.62641800  1
  C  C39  1  0.04721500  0.95841400  0.62642000  1
  C  C40  1  0.95381000  0.04156200  0.37595500  1
  C  C41  1  0.95380700  0.54156400  0.37595600  1
  C  C42  1  0.54718200  0.35390800  0.62639300  1
  C  C43  1  0.54718200  0.85390800  0.62638700  1
  C  C44  1  0.37969500  0.41954200  0.38546700  1
  C  C45  1  0.37970200  0.91954200  0.38547400  1
  C  C46  1  0.12126800  0.22725300  0.61684600  1
  C  C47  1  0.12126700  0.72725300  0.61684300  1
  C  C48  1  0.62129500  0.08034700  0.61686300  1
  C  C49  1  0.62129900  0.58034800  0.61687000  1
  C  C50  1  0.87971100  0.27266200  0.38546800  1
  C  C51  1  0.87970500  0.77265900  0.38546300  1
