# generated using pymatgen
data_Cu3Ni6C19
_symmetry_space_group_name_H-M   'P 1'
_cell_length_a   10.61493171
_cell_length_b   10.61493171
_cell_length_c   7.14685400
_cell_angle_alpha   90.00000000
_cell_angle_beta   90.00000000
_cell_angle_gamma   139.03850826
_symmetry_Int_Tables_number   1
_chemical_formula_structural   Cu3Ni6C19
_chemical_formula_sum   'Cu6 Ni12 C38'
_cell_volume   527.90555278
_cell_formula_units_Z   2
loop_
 _symmetry_equiv_pos_site_id
 _symmetry_equiv_pos_as_xyz
  1  'x, y, z'
loop_
 _atom_site_type_symbol
 _atom_site_label
 _atom_site_symmetry_multiplicity
 _atom_site_fract_x
 _atom_site_fract_y
 _atom_site_fract_z
 _atom_site_occupancy
  C  C0  1  0.19476100  0.45704600  0.17134200  1
  C  C1  1  0.80523900  0.54295400  0.67134200  1
  C  C2  1  0.45704600  0.19476100  0.67134200  1
  C  C3  1  0.54295400  0.80523900  0.17134200  1
  C  C4  1  0.12175600  0.27777800  0.29257400  1
  C  C5  1  0.87824400  0.72222200  0.79257400  1
  C  C6  1  0.27777800  0.12175600  0.79257400  1
  C  C7  1  0.72222200  0.87824400  0.29257400  1
  C  C8  1  0.98049200  0.65420900  0.19999900  1
  C  C9  1  0.01950800  0.34579100  0.69999900  1
  C  C10  1  0.65420900  0.98049200  0.69999900  1
  C  C11  1  0.34579100  0.01950800  0.19999900  1
  C  C12  1  0.79798000  0.54119200  0.34553300  1
  C  C13  1  0.20202000  0.45880800  0.84553300  1
  C  C14  1  0.54119200  0.79798000  0.84553300  1
  C  C15  1  0.45880800  0.20202000  0.34553300  1
  C  C16  1  0.00702600  0.32647200  0.31525900  1
  C  C17  1  0.99297400  0.67352800  0.81525900  1
  C  C18  1  0.32647200  0.00702600  0.81525900  1
  C  C19  1  0.67352800  0.99297400  0.31525900  1
  C  C20  1  0.13879900  0.63749600  0.44617200  1
  C  C21  1  0.86120100  0.36250400  0.94617200  1
  C  C22  1  0.63749600  0.13879900  0.94617200  1
  C  C23  1  0.36250400  0.86120100  0.44617200  1
  C  C24  1  0.75284700  0.24715300  0.14652600  1
  C  C25  1  0.24715300  0.75284700  0.64652600  1
  C  C26  1  0.87992300  0.71863200  0.21056200  1
  C  C27  1  0.12007700  0.28136800  0.71056200  1
  C  C28  1  0.71863200  0.87992300  0.71056200  1
  C  C29  1  0.28136800  0.12007700  0.21056200  1
  C  C30  1  0.36991600  0.41313600  0.00888600  1
  C  C31  1  0.63008400  0.58686400  0.50888600  1
  C  C32  1  0.41313600  0.36991600  0.50888600  1
  C  C33  1  0.58686400  0.63008400  0.00888600  1
  C  C34  1  0.87932800  0.12067200  0.00360400  1
  C  C35  1  0.12067200  0.87932800  0.50360400  1
  Ni  Ni36  1  0.92002100  0.67273700  0.29066200  1
  Ni  Ni37  1  0.07997900  0.32726300  0.79066200  1
  Ni  Ni38  1  0.67273700  0.92002100  0.79066200  1
  Ni  Ni39  1  0.32726300  0.07997900  0.29066200  1
  Ni  Ni40  1  0.07502500  0.32069000  0.22026700  1
  Ni  Ni41  1  0.92497500  0.67931000  0.72026700  1
  Ni  Ni42  1  0.32069000  0.07502500  0.72026700  1
  Ni  Ni43  1  0.67931000  0.92497500  0.22026700  1
  Ni  Ni44  1  0.76898600  0.23101400  0.00954300  1
  Ni  Ni45  1  0.23101400  0.76898600  0.50954300  1
  Ni  Ni46  1  0.97563300  0.02436700  0.00471500  1
  Ni  Ni47  1  0.02436700  0.97563300  0.50471500  1
  C  C48  1  0.74975900  0.25024100  0.49388000  1
  C  C49  1  0.25024100  0.74975900  0.99388000  1
  Cu  Cu50  1  0.13676700  0.15848100  0.50646800  1
  Cu  Cu51  1  0.86323300  0.84151900  0.00646800  1
  Cu  Cu52  1  0.15848100  0.13676700  0.00646800  1
  Cu  Cu53  1  0.84151900  0.86323300  0.50646800  1
  Cu  Cu54  1  0.44982500  0.55017500  0.01348500  1
  Cu  Cu55  1  0.55017500  0.44982500  0.51348500  1
