# generated using pymatgen
data_CuNiC5
_symmetry_space_group_name_H-M   'P 1'
_cell_length_a   5.06247000
_cell_length_b   8.64997200
_cell_length_c   8.73907200
_cell_angle_alpha   90.00000000
_cell_angle_beta   90.00000000
_cell_angle_gamma   90.00000000
_symmetry_Int_Tables_number   1
_chemical_formula_structural   CuNiC5
_chemical_formula_sum   'Cu4 Ni4 C20'
_cell_volume   382.68591825
_cell_formula_units_Z   4
loop_
 _symmetry_equiv_pos_site_id
 _symmetry_equiv_pos_as_xyz
  1  'x, y, z'
loop_
 _atom_site_type_symbol
 _atom_site_label
 _atom_site_symmetry_multiplicity
 _atom_site_fract_x
 _atom_site_fract_y
 _atom_site_fract_z
 _atom_site_occupancy
  C  C0  1  0.50524100  0.99949600  0.29212700  1
  C  C1  1  0.00524100  0.00050400  0.70787300  1
  C  C2  1  0.50524100  0.49949600  0.20787300  1
  C  C3  1  0.00524100  0.50050400  0.79212700  1
  Ni  Ni4  1  0.00083100  0.32231900  0.40710900  1
  Ni  Ni5  1  0.50083100  0.67768100  0.59289100  1
  Ni  Ni6  1  0.00083100  0.82231900  0.09289100  1
  Ni  Ni7  1  0.50083100  0.17768100  0.90710900  1
  Cu  Cu8  1  0.99984700  0.18632300  0.08025200  1
  Cu  Cu9  1  0.49984700  0.81367700  0.91974800  1
  Cu  Cu10  1  0.99984700  0.68632300  0.41974800  1
  Cu  Cu11  1  0.49984700  0.31367700  0.58025200  1
  C  C12  1  0.29390400  0.26092200  0.45883600  1
  C  C13  1  0.79390400  0.73907800  0.54116400  1
  C  C14  1  0.29390400  0.76092200  0.04116400  1
  C  C15  1  0.79390400  0.23907800  0.95883600  1
  C  C16  1  0.99607700  0.01011000  0.09773000  1
  C  C17  1  0.49607700  0.98989000  0.90227000  1
  C  C18  1  0.99607700  0.51011000  0.40227000  1
  C  C19  1  0.49607700  0.48989000  0.59773000  1
  C  C20  1  0.27685600  0.24292500  0.02825100  1
  C  C21  1  0.77685600  0.75707500  0.97174900  1
  C  C22  1  0.27685600  0.74292500  0.47174900  1
  C  C23  1  0.77685600  0.25707500  0.52825100  1
  C  C24  1  0.42874400  0.23909300  0.73528100  1
  C  C25  1  0.92874400  0.76090700  0.26471900  1
  C  C26  1  0.42874400  0.73909300  0.76471900  1
  C  C27  1  0.92874400  0.26090700  0.23528100  1
