# generated using pymatgen
data_CuNiC61
_symmetry_space_group_name_H-M   'P 1'
_cell_length_a   8.68436700
_cell_length_b   8.68436700
_cell_length_c   8.61779500
_cell_angle_alpha   90.00000000
_cell_angle_beta   90.00000000
_cell_angle_gamma   90.00000000
_symmetry_Int_Tables_number   1
_chemical_formula_structural   CuNiC61
_chemical_formula_sum   'Cu1 Ni1 C61'
_cell_volume   649.93884705
_cell_formula_units_Z   1
loop_
 _symmetry_equiv_pos_site_id
 _symmetry_equiv_pos_as_xyz
  1  'x, y, z'
loop_
 _atom_site_type_symbol
 _atom_site_label
 _atom_site_symmetry_multiplicity
 _atom_site_fract_x
 _atom_site_fract_y
 _atom_site_fract_z
 _atom_site_occupancy
  Ni  Ni0  1  0.50000000  0.50000000  0.99731500  1
  Cu  Cu1  1  0.00000000  0.00000000  0.99793400  1
  C  C2  1  0.50000000  0.00000000  0.99388800  1
  C  C3  1  0.00000000  0.50000000  0.99388800  1
  C  C4  1  0.00000000  0.00000000  0.51807800  1
  C  C5  1  0.50000000  0.00000000  0.50265800  1
  C  C6  1  0.00000000  0.50000000  0.50265800  1
  C  C7  1  0.50000000  0.50000000  0.49972800  1
  C  C8  1  0.24571000  0.24571000  0.00084400  1
  C  C9  1  0.75429000  0.24571000  0.00084400  1
  C  C10  1  0.24571000  0.75429000  0.00084400  1
  C  C11  1  0.75429000  0.75429000  0.00084400  1
  C  C12  1  0.24881300  0.24881300  0.49932800  1
  C  C13  1  0.75118700  0.24881300  0.49932800  1
  C  C14  1  0.24881300  0.75118700  0.49932800  1
  C  C15  1  0.75118700  0.75118700  0.49932800  1
  C  C16  1  0.27445700  0.00000000  0.24668200  1
  C  C17  1  0.72554300  0.00000000  0.24668200  1
  C  C18  1  0.25020600  0.50000000  0.25140700  1
  C  C19  1  0.74979400  0.50000000  0.25140700  1
  C  C20  1  0.24853000  0.00000000  0.75537100  1
  C  C21  1  0.75147000  0.00000000  0.75537100  1
  C  C22  1  0.24807200  0.50000000  0.74755000  1
  C  C23  1  0.75192800  0.50000000  0.74755000  1
  C  C24  1  0.00000000  0.27445700  0.24668200  1
  C  C25  1  0.50000000  0.25020600  0.25140700  1
  C  C26  1  0.00000000  0.72554300  0.24668200  1
  C  C27  1  0.50000000  0.74979400  0.25140700  1
  C  C28  1  0.00000000  0.24853000  0.75537100  1
  C  C29  1  0.50000000  0.24807200  0.74755000  1
  C  C30  1  0.00000000  0.75147000  0.75537100  1
  C  C31  1  0.50000000  0.75192800  0.74755000  1
  C  C32  1  0.50000000  0.00000000  0.26045300  1
  C  C33  1  0.00000000  0.50000000  0.26045300  1
  C  C34  1  0.50000000  0.50000000  0.27814000  1
  C  C35  1  0.00000000  0.00000000  0.74328300  1
  C  C36  1  0.50000000  0.00000000  0.74224700  1
  C  C37  1  0.00000000  0.50000000  0.74224700  1
  C  C38  1  0.50000000  0.50000000  0.71956700  1
  C  C39  1  0.24473500  0.24473500  0.25029200  1
  C  C40  1  0.75526500  0.24473500  0.25029200  1
  C  C41  1  0.24473500  0.75526500  0.25029200  1
  C  C42  1  0.75526500  0.75526500  0.25029200  1
  C  C43  1  0.24841300  0.24841300  0.74945800  1
  C  C44  1  0.75158700  0.24841300  0.74945800  1
  C  C45  1  0.24841300  0.75158700  0.74945800  1
  C  C46  1  0.75158700  0.75158700  0.74945800  1
  C  C47  1  0.25593100  0.00000000  0.00596300  1
  C  C48  1  0.74406900  0.00000000  0.00596300  1
  C  C49  1  0.22168100  0.50000000  0.00299200  1
  C  C50  1  0.77831900  0.50000000  0.00299200  1
  C  C51  1  0.24177900  0.00000000  0.49118400  1
  C  C52  1  0.75822100  0.00000000  0.49118400  1
  C  C53  1  0.24314300  0.50000000  0.49829600  1
  C  C54  1  0.75685700  0.50000000  0.49829600  1
  C  C55  1  0.00000000  0.25593100  0.00596300  1
  C  C56  1  0.50000000  0.22168100  0.00299200  1
  C  C57  1  0.00000000  0.74406900  0.00596300  1
  C  C58  1  0.50000000  0.77831900  0.00299200  1
  C  C59  1  0.00000000  0.24177900  0.49118400  1
  C  C60  1  0.50000000  0.24314300  0.49829600  1
  C  C61  1  0.00000000  0.75822100  0.49118400  1
  C  C62  1  0.50000000  0.75685700  0.49829600  1
