# generated using pymatgen
data_Cu21(Ni3C)2
_symmetry_space_group_name_H-M   'P 1'
_cell_length_a   8.68202818
_cell_length_b   8.68202818
_cell_length_c   8.68202818
_cell_angle_alpha   60.00000000
_cell_angle_beta   60.00000000
_cell_angle_gamma   60.00000000
_symmetry_Int_Tables_number   1
_chemical_formula_structural   Cu21(Ni3C)2
_chemical_formula_sum   'Cu21 Ni6 C2'
_cell_volume   462.75228877
_cell_formula_units_Z   1
loop_
 _symmetry_equiv_pos_site_id
 _symmetry_equiv_pos_as_xyz
  1  'x, y, z'
loop_
 _atom_site_type_symbol
 _atom_site_label
 _atom_site_symmetry_multiplicity
 _atom_site_fract_x
 _atom_site_fract_y
 _atom_site_fract_z
 _atom_site_occupancy
  C  C0  1  0.75000000  0.75000000  0.75000000  1
  C  C1  1  0.25000000  0.25000000  0.25000000  1
  Ni  Ni2  1  0.73679000  0.73679000  0.26321000  1
  Ni  Ni3  1  0.26321000  0.73679000  0.26321000  1
  Ni  Ni4  1  0.73679000  0.26321000  0.26321000  1
  Ni  Ni5  1  0.26321000  0.26321000  0.73679000  1
  Ni  Ni6  1  0.73679000  0.26321000  0.73679000  1
  Ni  Ni7  1  0.26321000  0.73679000  0.73679000  1
  Cu  Cu8  1  0.00000000  0.00000000  0.00000000  1
  Cu  Cu9  1  0.61654200  0.61654200  0.15037400  1
  Cu  Cu10  1  0.61654200  0.15037400  0.61654200  1
  Cu  Cu11  1  0.15037400  0.61654200  0.61654200  1
  Cu  Cu12  1  0.61654200  0.61654200  0.61654200  1
  Cu  Cu13  1  0.38345800  0.38345800  0.84962600  1
  Cu  Cu14  1  0.38345800  0.84962600  0.38345800  1
  Cu  Cu15  1  0.84962600  0.38345800  0.38345800  1
  Cu  Cu16  1  0.38345800  0.38345800  0.38345800  1
  Cu  Cu17  1  0.00000000  0.00000000  0.34524800  1
  Cu  Cu18  1  0.65475200  0.00000000  0.34524800  1
  Cu  Cu19  1  0.00000000  0.65475200  0.34524800  1
  Cu  Cu20  1  0.65475200  0.34524800  0.00000000  1
  Cu  Cu21  1  0.00000000  0.34524800  0.00000000  1
  Cu  Cu22  1  0.00000000  0.34524800  0.65475200  1
  Cu  Cu23  1  0.34524800  0.65475200  0.00000000  1
  Cu  Cu24  1  0.34524800  0.00000000  0.65475200  1
  Cu  Cu25  1  0.34524800  0.00000000  0.00000000  1
  Cu  Cu26  1  0.00000000  0.00000000  0.65475200  1
  Cu  Cu27  1  0.00000000  0.65475200  0.00000000  1
  Cu  Cu28  1  0.65475200  0.00000000  0.00000000  1
