# generated using pymatgen
data_Cu27(Ni3C2)4
_symmetry_space_group_name_H-M   'P 1'
_cell_length_a   11.52411941
_cell_length_b   11.93740259
_cell_length_c   12.71077867
_cell_angle_alpha   88.77613482
_cell_angle_beta   64.72777042
_cell_angle_gamma   81.86558819
_symmetry_Int_Tables_number   1
_chemical_formula_structural   Cu27(Ni3C2)4
_chemical_formula_sum   'Cu54 Ni24 C16'
_cell_volume   1563.83913353
_cell_formula_units_Z   2
loop_
 _symmetry_equiv_pos_site_id
 _symmetry_equiv_pos_as_xyz
  1  'x, y, z'
loop_
 _atom_site_type_symbol
 _atom_site_label
 _atom_site_symmetry_multiplicity
 _atom_site_fract_x
 _atom_site_fract_y
 _atom_site_fract_z
 _atom_site_occupancy
  C  C0  1  0.45937768  0.06251486  0.20730589  1
  C  C1  1  0.54062232  0.93748514  0.79269411  1
  C  C2  1  0.12578128  0.60401682  0.86297598  1
  C  C3  1  0.87421872  0.39598318  0.13702402  1
  C  C4  1  0.56853059  0.66066706  0.05278616  1
  C  C5  1  0.43146941  0.33933294  0.94721384  1
  C  C6  1  0.49848914  0.31843413  0.54349542  1
  C  C7  1  0.50151086  0.68156587  0.45650458  1
  C  C8  1  0.91515549  0.11550822  0.40030890  1
  C  C9  1  0.08484451  0.88449178  0.59969110  1
  C  C10  1  -0.00000000  0.00000000  -0.00000000  1
  C  C11  1  -0.00000000  0.50000000  0.50000000  1
  C  C12  1  0.99786570  0.83852000  0.16280314  1
  C  C13  1  0.00213430  0.16148000  0.83719686  1
  C  C14  1  0.98855706  0.67884641  0.33690321  1
  C  C15  1  0.01144294  0.32115359  0.66309679  1
  Ni  Ni16  1  0.20970182  0.08657838  0.01606711  1
  Ni  Ni17  1  0.79029818  0.91342162  0.98393289  1
  Ni  Ni18  1  0.08510766  0.15239407  0.11099364  1
  Ni  Ni19  1  0.91489234  0.84760593  0.88900636  1
  Ni  Ni20  1  0.84679979  0.84665243  0.51789887  1
  Ni  Ni21  1  0.15320021  0.15334757  0.48210113  1
  Ni  Ni22  1  0.74398928  0.78641177  0.50426598  1
  Ni  Ni23  1  0.25601072  0.21358823  0.49573402  1
  Ni  Ni24  1  0.23022797  0.57098828  0.17005264  1
  Ni  Ni25  1  0.76977203  0.42901172  0.82994736  1
  Ni  Ni26  1  0.12584144  0.52512575  0.14415004  1
  Ni  Ni27  1  0.87415856  0.47487425  0.85584996  1
  Ni  Ni28  1  0.72475912  0.89008859  0.27852228  1
  Ni  Ni29  1  0.27524088  0.10991141  0.72147772  1
  Ni  Ni30  1  0.75558603  0.77885564  0.20478955  1
  Ni  Ni31  1  0.24441397  0.22114436  0.79521045  1
  Ni  Ni32  1  0.24695356  0.87024273  0.13702915  1
  Ni  Ni33  1  0.75304644  0.12975727  0.86297085  1
  Ni  Ni34  1  0.26999984  0.78796636  0.03465293  1
  Ni  Ni35  1  0.73000016  0.21203364  0.96534707  1
  Ni  Ni36  1  0.26520976  0.49742983  0.44872161  1
  Ni  Ni37  1  0.73479024  0.50257017  0.55127839  1
  Ni  Ni38  1  0.18595601  0.58177271  0.55486063  1
  Ni  Ni39  1  0.81404399  0.41822729  0.44513937  1
  Cu  Cu40  1  0.19033487  0.00879754  0.95564859  1
  Cu  Cu41  1  0.80966513  0.99120246  0.04435141  1
  Cu  Cu42  1  0.97541056  0.12616602  0.11622576  1
  Cu  Cu43  1  0.02458944  0.87383398  0.88377424  1
  Cu  Cu44  1  0.31858826  0.10560407  0.99851600  1
  Cu  Cu45  1  0.68141174  0.89439593  0.00148400  1
  Cu  Cu46  1  0.08704965  0.22455248  0.17796563  1
  Cu  Cu47  1  0.91295035  0.77544752  0.82203437  1
  Cu  Cu48  1  0.96792908  0.80621226  0.44967186  1
  Cu  Cu49  1  0.03207092  0.19378774  0.55032814  1
  Cu  Cu50  1  0.79074674  0.70968768  0.41760449  1
  Cu  Cu51  1  0.20925326  0.29031232  0.58239551  1
  Cu  Cu52  1  0.81717909  0.92899176  0.58633673  1
  Cu  Cu53  1  0.18282091  0.07100824  0.41366327  1
  Cu  Cu54  1  0.62747893  0.81127533  0.56746562  1
  Cu  Cu55  1  0.37252107  0.18872467  0.43253438  1
  Cu  Cu56  1  0.18441848  0.64789181  0.25631538  1
  Cu  Cu57  1  0.81558152  0.35210819  0.74368462  1
  Cu  Cu58  1  0.00579121  0.55746169  0.22013858  1
  Cu  Cu59  1  0.99420879  0.44253831  0.77986142  1
  Cu  Cu60  1  0.34645003  0.54054694  0.11037207  1
  Cu  Cu61  1  0.65354997  0.45945306  0.88962793  1
  Cu  Cu62  1  0.15341207  0.46543017  0.05609927  1
  Cu  Cu63  1  0.84658793  0.53456983  0.94390073  1
  Cu  Cu64  1  0.82716647  0.92837536  0.27826156  1
  Cu  Cu65  1  0.17283353  0.07162464  0.72173844  1
  Cu  Cu66  1  0.87709001  0.75220426  0.12908562  1
  Cu  Cu67  1  0.12290999  0.24779574  0.87091438  1
  Cu  Cu68  1  0.61261504  0.93677924  0.33246987  1
  Cu  Cu69  1  0.38738496  0.06322076  0.66753013  1
  Cu  Cu70  1  0.67013583  0.72183838  0.21585695  1
  Cu  Cu71  1  0.32986417  0.27816162  0.78414305  1
  Cu  Cu72  1  0.12474628  0.91355953  0.20022671  1
  Cu  Cu73  1  0.87525372  0.08644047  0.79977329  1
  Cu  Cu74  1  0.16499427  0.75449553  0.03749704  1
  Cu  Cu75  1  0.83500573  0.24550447  0.96250296  1
  Cu  Cu76  1  0.33881488  0.89378181  0.15245355  1
  Cu  Cu77  1  0.66118512  0.10621819  0.84754645  1
  Cu  Cu78  1  0.37997695  0.75662564  0.95810029  1
  Cu  Cu79  1  0.62002305  0.24337436  0.04189971  1
  Cu  Cu80  1  0.19499497  0.45349962  0.40703250  1
  Cu  Cu81  1  0.80500503  0.54650038  0.59296750  1
  Cu  Cu82  1  0.06159411  0.60220512  0.58455727  1
  Cu  Cu83  1  0.93840589  0.39779488  0.41544273  1
  Cu  Cu84  1  0.38453090  0.47737200  0.41057885  1
  Cu  Cu85  1  0.61546910  0.52262800  0.58942115  1
  Cu  Cu86  1  0.23959693  0.62730470  0.60536492  1
  Cu  Cu87  1  0.76040307  0.37269530  0.39463508  1
  Cu  Cu88  1  0.28892589  0.28732654  0.20865122  1
  Cu  Cu89  1  0.71107411  0.71267346  0.79134878  1
  Cu  Cu90  1  0.59098124  0.43465263  0.18861423  1
  Cu  Cu91  1  0.40901876  0.56534737  0.81138577  1
  Cu  Cu92  1  0.30070848  0.77114942  0.37950545  1
  Cu  Cu93  1  0.69929152  0.22885058  0.62049455  1
