# generated using pymatgen
data_Cu4NiC5
_symmetry_space_group_name_H-M   'P 1'
_cell_length_a   3.99650008
_cell_length_b   3.99650008
_cell_length_c   9.90939075
_cell_angle_alpha   72.96160526
_cell_angle_beta   72.96160526
_cell_angle_gamma   42.33002308
_symmetry_Int_Tables_number   1
_chemical_formula_structural   Cu4NiC5
_chemical_formula_sum   'Cu4 Ni1 C5'
_cell_volume   101.18311495
_cell_formula_units_Z   1
loop_
 _symmetry_equiv_pos_site_id
 _symmetry_equiv_pos_as_xyz
  1  'x, y, z'
loop_
 _atom_site_type_symbol
 _atom_site_label
 _atom_site_symmetry_multiplicity
 _atom_site_fract_x
 _atom_site_fract_y
 _atom_site_fract_z
 _atom_site_occupancy
  Ni  Ni0  1  0.19542400  0.19542400  0.20154800  1
  Cu  Cu1  1  0.99910800  0.99910800  0.00387900  1
  Cu  Cu2  1  0.79588900  0.79588900  0.80348800  1
  Cu  Cu3  1  0.59916200  0.59916200  0.59960400  1
  Cu  Cu4  1  0.40180100  0.40180100  0.39040300  1
  C  C5  1  0.69563200  0.69563200  0.02383200  1
  C  C6  1  0.49566200  0.49566200  0.83610100  1
  C  C7  1  0.29887500  0.29887500  0.63404500  1
  C  C8  1  0.10065700  0.10065700  0.43923700  1
  C  C9  1  0.91974300  0.91974300  0.23456300  1
