# generated using pymatgen
data_CuNiC3
_symmetry_space_group_name_H-M   'P 1'
_cell_length_a   5.26689000
_cell_length_b   5.99931700
_cell_length_c   7.58228900
_cell_angle_alpha   90.00000000
_cell_angle_beta   90.00000000
_cell_angle_gamma   90.00000000
_symmetry_Int_Tables_number   1
_chemical_formula_structural   CuNiC3
_chemical_formula_sum   'Cu4 Ni4 C12'
_cell_volume   239.58321701
_cell_formula_units_Z   4
loop_
 _symmetry_equiv_pos_site_id
 _symmetry_equiv_pos_as_xyz
  1  'x, y, z'
loop_
 _atom_site_type_symbol
 _atom_site_label
 _atom_site_symmetry_multiplicity
 _atom_site_fract_x
 _atom_site_fract_y
 _atom_site_fract_z
 _atom_site_occupancy
  Ni  Ni0  1  0.00000000  0.00000000  0.00000000  1
  Ni  Ni1  1  0.50000000  0.50000000  0.00000000  1
  Ni  Ni2  1  0.00000000  0.00000000  0.50000000  1
  Ni  Ni3  1  0.50000000  0.50000000  0.50000000  1
  Cu  Cu4  1  0.51482400  0.98553900  0.25000000  1
  Cu  Cu5  1  0.48517600  0.01446100  0.75000000  1
  Cu  Cu6  1  0.01482400  0.51446100  0.75000000  1
  Cu  Cu7  1  0.98517600  0.48553900  0.25000000  1
  C  C8  1  0.15731300  0.06087600  0.25000000  1
  C  C9  1  0.84268700  0.93912400  0.75000000  1
  C  C10  1  0.65731300  0.43912400  0.75000000  1
  C  C11  1  0.34268700  0.56087600  0.25000000  1
  C  C12  1  0.64500100  0.18292000  0.06422300  1
  C  C13  1  0.35499900  0.81708000  0.93577700  1
  C  C14  1  0.14500100  0.31708000  0.93577700  1
  C  C15  1  0.35499900  0.81708000  0.56422300  1
  C  C16  1  0.85499900  0.68292000  0.06422300  1
  C  C17  1  0.64500100  0.18292000  0.43577700  1
  C  C18  1  0.85499900  0.68292000  0.43577700  1
  C  C19  1  0.14500100  0.31708000  0.56422300  1
