# generated using pymatgen
data_Cu3NiC2
_symmetry_space_group_name_H-M   'P 1'
_cell_length_a   3.27759565
_cell_length_b   3.27759565
_cell_length_c   36.41468300
_cell_angle_alpha   90.00000000
_cell_angle_beta   90.00000000
_cell_angle_gamma   119.99999302
_symmetry_Int_Tables_number   1
_chemical_formula_structural   Cu3NiC2
_chemical_formula_sum   'Cu6 Ni2 C4'
_cell_volume   338.78014230
_cell_formula_units_Z   2
loop_
 _symmetry_equiv_pos_site_id
 _symmetry_equiv_pos_as_xyz
  1  'x, y, z'
loop_
 _atom_site_type_symbol
 _atom_site_label
 _atom_site_symmetry_multiplicity
 _atom_site_fract_x
 _atom_site_fract_y
 _atom_site_fract_z
 _atom_site_occupancy
  Ni  Ni0  1  0.33333300  0.66666700  0.71079300  1
  Ni  Ni1  1  0.33333300  0.66666700  0.60441000  1
  C  C2  1  0.33333300  0.66666700  0.09393800  1
  C  C3  1  0.33333300  0.66666700  0.46957000  1
  C  C4  1  0.66666700  0.33333300  0.28182200  1
  C  C5  1  0.66666700  0.33333300  0.65763000  1
  Cu  Cu6  1  0.33333300  0.66666700  0.32399200  1
  Cu  Cu7  1  0.66666700  0.33333300  0.05170000  1
  Cu  Cu8  1  0.66666700  0.33333300  0.42742800  1
  Cu  Cu9  1  0.66666700  0.33333300  0.13614900  1
  Cu  Cu10  1  0.66666700  0.33333300  0.51174800  1
  Cu  Cu11  1  0.33333300  0.66666700  0.23956600  1
