# generated using pymatgen
data_CuNi5C12
_symmetry_space_group_name_H-M   'P 1'
_cell_length_a   15.80349500
_cell_length_b   6.56882500
_cell_length_c   12.21219824
_cell_angle_alpha   58.83795159
_cell_angle_beta   90.00000000
_cell_angle_gamma   90.00000000
_symmetry_Int_Tables_number   1
_chemical_formula_structural   CuNi5C12
_chemical_formula_sum   'Cu4 Ni20 C48'
_cell_volume   1084.82545879
_cell_formula_units_Z   4
loop_
 _symmetry_equiv_pos_site_id
 _symmetry_equiv_pos_as_xyz
  1  'x, y, z'
loop_
 _atom_site_type_symbol
 _atom_site_label
 _atom_site_symmetry_multiplicity
 _atom_site_fract_x
 _atom_site_fract_y
 _atom_site_fract_z
 _atom_site_occupancy
  C  C0  1  0.82525900  0.53681800  0.30915500  1
  C  C1  1  0.67474100  0.53681800  0.80915500  1
  C  C2  1  0.17474100  0.46318200  0.69084500  1
  C  C3  1  0.32525900  0.46318200  0.19084500  1
  Ni  Ni4  1  0.04423400  0.41786500  0.39348700  1
  Ni  Ni5  1  0.45576600  0.41786500  0.89348700  1
  Ni  Ni6  1  0.95576600  0.58213500  0.60651300  1
  Ni  Ni7  1  0.54423400  0.58213500  0.10651300  1
  Ni  Ni8  1  0.83201600  0.82479700  0.50098300  1
  Ni  Ni9  1  0.66798400  0.82479700  0.00098300  1
  Ni  Ni10  1  0.16798400  0.17520300  0.49901700  1
  Ni  Ni11  1  0.33201600  0.17520300  0.99901700  1
  Ni  Ni12  1  0.76393700  0.10026500  0.28586700  1
  Ni  Ni13  1  0.73606300  0.10026500  0.78586700  1
  Ni  Ni14  1  0.23606300  0.89973500  0.71413300  1
  Ni  Ni15  1  0.26393700  0.89973500  0.21413300  1
  Ni  Ni16  1  0.71201800  0.99563800  0.13527300  1
  Ni  Ni17  1  0.78798200  0.99563800  0.63527300  1
  Ni  Ni18  1  0.28798200  0.00436200  0.86472700  1
  Ni  Ni19  1  0.21201800  0.00436200  0.36472700  1
  Ni  Ni20  1  0.17791200  0.60375700  0.39963000  1
  Ni  Ni21  1  0.32208800  0.60375700  0.89963000  1
  Ni  Ni22  1  0.82208800  0.39624300  0.60037000  1
  Ni  Ni23  1  0.67791200  0.39624300  0.10037000  1
  Cu  Cu24  1  0.53009100  0.16863600  0.54255600  1
  Cu  Cu25  1  0.96990900  0.16863600  0.04255600  1
  Cu  Cu26  1  0.46990900  0.83136400  0.45744400  1
  Cu  Cu27  1  0.03009100  0.83136400  0.95744400  1
  C  C28  1  0.73952300  0.92547400  0.25969600  1
  C  C29  1  0.76047700  0.92547400  0.75969600  1
  C  C30  1  0.26047700  0.07452600  0.74030400  1
  C  C31  1  0.23952300  0.07452600  0.24030400  1
  C  C32  1  0.74134200  0.33346500  0.20623600  1
  C  C33  1  0.75865800  0.33346500  0.70623600  1
  C  C34  1  0.25865800  0.66653500  0.79376400  1
  C  C35  1  0.24134200  0.66653500  0.29376400  1
  C  C36  1  0.80371800  0.62598000  0.48762000  1
  C  C37  1  0.69628200  0.62598000  0.98762000  1
  C  C38  1  0.19628200  0.37402000  0.51238000  1
  C  C39  1  0.30371800  0.37402000  0.01238000  1
  C  C40  1  0.81317000  0.05744300  0.38610900  1
  C  C41  1  0.68683000  0.05744300  0.88610900  1
  C  C42  1  0.18683000  0.94255700  0.61389100  1
  C  C43  1  0.31317000  0.94255700  0.11389100  1
  C  C44  1  0.71667800  0.81618900  0.11103500  1
  C  C45  1  0.78332200  0.81618900  0.61103500  1
  C  C46  1  0.28332200  0.18381100  0.88896500  1
  C  C47  1  0.21667800  0.18381100  0.38896500  1
  C  C48  1  0.09359300  0.62007700  0.34874100  1
  C  C49  1  0.40640700  0.62007700  0.84874100  1
  C  C50  1  0.90640700  0.37992300  0.65125900  1
  C  C51  1  0.59359300  0.37992300  0.15125900  1
  C  C52  1  0.81031000  0.22636500  0.55325800  1
  C  C53  1  0.68969000  0.22636500  0.05325800  1
  C  C54  1  0.18969000  0.77363500  0.44674200  1
  C  C55  1  0.31031000  0.77363500  0.94674200  1
  C  C56  1  0.07890800  0.19376400  0.46670300  1
  C  C57  1  0.42109200  0.19376400  0.96670300  1
  C  C58  1  0.92109200  0.80623600  0.53329700  1
  C  C59  1  0.57890800  0.80623600  0.03329700  1
  C  C60  1  0.96031200  0.44089400  0.36256000  1
  C  C61  1  0.53968800  0.44089400  0.86256000  1
  C  C62  1  0.03968800  0.55910600  0.63744000  1
  C  C63  1  0.46031200  0.55910600  0.13744000  1
  C  C64  1  0.94841000  0.60714600  0.07476100  1
  C  C65  1  0.55159000  0.60714600  0.57476100  1
  C  C66  1  0.05159000  0.39285400  0.92523900  1
  C  C67  1  0.44841000  0.39285400  0.42523900  1
  C  C68  1  0.90005200  0.89949400  0.16645800  1
  C  C69  1  0.59994800  0.89949400  0.66645800  1
  C  C70  1  0.09994800  0.10050600  0.83354200  1
  C  C71  1  0.40005200  0.10050600  0.33354200  1
