# generated using pymatgen
data_CuNiC8
_symmetry_space_group_name_H-M   'P 1'
_cell_length_a   7.47559716
_cell_length_b   7.47559716
_cell_length_c   7.47559716
_cell_angle_alpha   120.08337803
_cell_angle_beta   119.60947940
_cell_angle_gamma   90.26668741
_symmetry_Int_Tables_number   1
_chemical_formula_structural   CuNiC8
_chemical_formula_sum   'Cu2 Ni2 C16'
_cell_volume   296.08422927
_cell_formula_units_Z   2
loop_
 _symmetry_equiv_pos_site_id
 _symmetry_equiv_pos_as_xyz
  1  'x, y, z'
loop_
 _atom_site_type_symbol
 _atom_site_label
 _atom_site_symmetry_multiplicity
 _atom_site_fract_x
 _atom_site_fract_y
 _atom_site_fract_z
 _atom_site_occupancy
  C  C0  1  0.00000000  0.50000000  0.00000000  1
  C  C1  1  0.00000000  0.00000000  0.50000000  1
  Ni  Ni2  1  0.50000000  0.00000000  0.50000000  1
  Ni  Ni3  1  0.00000000  0.00000000  0.00000000  1
  Cu  Cu4  1  0.50000000  0.00000000  0.00000000  1
  Cu  Cu5  1  0.50000000  0.50000000  0.50000000  1
  C  C6  1  0.81185000  0.06185000  0.75000000  1
  C  C7  1  0.44308400  0.69308400  0.75000000  1
  C  C8  1  0.80395300  0.68683900  0.74689300  1
  C  C9  1  0.43994600  0.05706000  0.75310700  1
  C  C10  1  0.80395300  0.05706000  0.11711400  1
  C  C11  1  0.43994600  0.68683900  0.38288600  1
  C  C12  1  0.18815000  0.93815000  0.25000000  1
  C  C13  1  0.55691600  0.30691600  0.25000000  1
  C  C14  1  0.19604700  0.31316100  0.25310700  1
  C  C15  1  0.56005400  0.94294000  0.24689300  1
  C  C16  1  0.19604700  0.94294000  0.88288600  1
  C  C17  1  0.56005400  0.31316100  0.61711400  1
  C  C18  1  0.00000000  0.50000000  0.50000000  1
  C  C19  1  0.50000000  0.50000000  0.00000000  1
