# generated using pymatgen
data_Cu2NiC2
_symmetry_space_group_name_H-M   'P 1'
_cell_length_a   3.71022900
_cell_length_b   8.03746400
_cell_length_c   8.03746400
_cell_angle_alpha   90.00000000
_cell_angle_beta   90.00000000
_cell_angle_gamma   90.00000000
_symmetry_Int_Tables_number   1
_chemical_formula_structural   Cu2NiC2
_chemical_formula_sum   'Cu4 Ni2 C4'
_cell_volume   239.68386380
_cell_formula_units_Z   2
loop_
 _symmetry_equiv_pos_site_id
 _symmetry_equiv_pos_as_xyz
  1  'x, y, z'
loop_
 _atom_site_type_symbol
 _atom_site_label
 _atom_site_symmetry_multiplicity
 _atom_site_fract_x
 _atom_site_fract_y
 _atom_site_fract_z
 _atom_site_occupancy
  C  C0  1  0.50000000  0.67033600  0.17033600  1
  C  C1  1  0.50000000  0.32966400  0.82966400  1
  C  C2  1  0.50000000  0.17033600  0.32966400  1
  C  C3  1  0.50000000  0.82966400  0.67033600  1
  Ni  Ni4  1  0.00000000  0.50000000  0.50000000  1
  Ni  Ni5  1  0.00000000  0.00000000  0.00000000  1
  Cu  Cu6  1  0.00000000  0.12780700  0.62780700  1
  Cu  Cu7  1  0.00000000  0.87219300  0.37219300  1
  Cu  Cu8  1  0.00000000  0.62780700  0.87219300  1
  Cu  Cu9  1  0.00000000  0.37219300  0.12780700  1
