# generated using pymatgen
data_Cu2NiC15
_symmetry_space_group_name_H-M   'P 1'
_cell_length_a   8.53041461
_cell_length_b   8.53041461
_cell_length_c   8.53041494
_cell_angle_alpha   61.00976073
_cell_angle_beta   61.00976073
_cell_angle_gamma   61.00976517
_symmetry_Int_Tables_number   1
_chemical_formula_structural   Cu2NiC15
_chemical_formula_sum   'Cu4 Ni2 C30'
_cell_volume   448.91288019
_cell_formula_units_Z   2
loop_
 _symmetry_equiv_pos_site_id
 _symmetry_equiv_pos_as_xyz
  1  'x, y, z'
loop_
 _atom_site_type_symbol
 _atom_site_label
 _atom_site_symmetry_multiplicity
 _atom_site_fract_x
 _atom_site_fract_y
 _atom_site_fract_z
 _atom_site_occupancy
  Ni  Ni0  1  0.00000000  0.00000000  0.00000000  1
  Ni  Ni1  1  0.50000000  0.50000000  0.50000000  1
  Cu  Cu2  1  0.35534200  0.35534200  0.35534200  1
  Cu  Cu3  1  0.85534200  0.85534200  0.85534200  1
  Cu  Cu4  1  0.14465800  0.14465800  0.14465800  1
  Cu  Cu5  1  0.64465800  0.64465800  0.64465800  1
  C  C6  1  0.45381200  0.04618800  0.75000000  1
  C  C7  1  0.75000000  0.45381200  0.04618800  1
  C  C8  1  0.04618800  0.75000000  0.45381200  1
  C  C9  1  0.95381200  0.25000000  0.54618800  1
  C  C10  1  0.25000000  0.54618800  0.95381200  1
  C  C11  1  0.54618800  0.95381200  0.25000000  1
  C  C12  1  0.50069100  0.11325300  0.31764000  1
  C  C13  1  0.11325300  0.31764000  0.50069100  1
  C  C14  1  0.25825700  0.05781500  0.91001000  1
  C  C15  1  0.31764000  0.50069100  0.11325300  1
  C  C16  1  0.61325300  0.00069100  0.81764000  1
  C  C17  1  0.44218500  0.24174300  0.58999000  1
  C  C18  1  0.91001000  0.25825700  0.05781500  1
  C  C19  1  0.58999000  0.44218500  0.24174300  1
  C  C20  1  0.99930900  0.18236000  0.38674700  1
  C  C21  1  0.24174300  0.58999000  0.44218500  1
  C  C22  1  0.94218500  0.08999000  0.74174300  1
  C  C23  1  0.18236000  0.38674700  0.99930900  1
  C  C24  1  0.81764000  0.61325300  0.00069100  1
  C  C25  1  0.05781500  0.91001000  0.25825700  1
  C  C26  1  0.75825700  0.41001000  0.55781500  1
  C  C27  1  0.00069100  0.81764000  0.61325300  1
  C  C28  1  0.41001000  0.55781500  0.75825700  1
  C  C29  1  0.08999000  0.74174300  0.94218500  1
  C  C30  1  0.55781500  0.75825700  0.41001000  1
  C  C31  1  0.38674700  0.99930900  0.18236000  1
  C  C32  1  0.68236000  0.49930900  0.88674700  1
  C  C33  1  0.74174300  0.94218500  0.08999000  1
  C  C34  1  0.88674700  0.68236000  0.49930900  1
  C  C35  1  0.49930900  0.88674700  0.68236000  1
