# generated using pymatgen
data_Cu2NiC
_symmetry_space_group_name_H-M   'P 1'
_cell_length_a   4.34011700
_cell_length_b   7.67473200
_cell_length_c   7.75884109
_cell_angle_alpha   60.99437502
_cell_angle_beta   90.00000000
_cell_angle_gamma   90.00000000
_symmetry_Int_Tables_number   1
_chemical_formula_structural   Cu2NiC
_chemical_formula_sum   'Cu4 Ni2 C2'
_cell_volume   226.02534223
_cell_formula_units_Z   2
loop_
 _symmetry_equiv_pos_site_id
 _symmetry_equiv_pos_as_xyz
  1  'x, y, z'
loop_
 _atom_site_type_symbol
 _atom_site_label
 _atom_site_symmetry_multiplicity
 _atom_site_fract_x
 _atom_site_fract_y
 _atom_site_fract_z
 _atom_site_occupancy
  C  C0  1  0.00000000  0.33938100  0.32966600  1
  C  C1  1  0.50000000  0.66897700  0.65702000  1
  Ni  Ni2  1  0.00000000  0.37261400  0.91356300  1
  Ni  Ni3  1  0.00000000  0.91808400  0.71088800  1
  Cu  Cu4  1  0.00000000  0.69776400  0.39091800  1
  Cu  Cu5  1  0.50000000  0.59999900  0.09144400  1
  Cu  Cu6  1  0.50000000  0.08533400  0.31304300  1
  Cu  Cu7  1  0.50000000  0.31784800  0.59345600  1
