# generated using pymatgen
data_Cu2(Ni3C4)3
_symmetry_space_group_name_H-M   'P 1'
_cell_length_a   5.34345700
_cell_length_b   6.68502865
_cell_length_c   6.99472799
_cell_angle_alpha   116.23073063
_cell_angle_beta   89.83519940
_cell_angle_gamma   107.87549621
_symmetry_Int_Tables_number   1
_chemical_formula_structural   Cu2(Ni3C4)3
_chemical_formula_sum   'Cu2 Ni9 C12'
_cell_volume   210.71370025
_cell_formula_units_Z   1
loop_
 _symmetry_equiv_pos_site_id
 _symmetry_equiv_pos_as_xyz
  1  'x, y, z'
loop_
 _atom_site_type_symbol
 _atom_site_label
 _atom_site_symmetry_multiplicity
 _atom_site_fract_x
 _atom_site_fract_y
 _atom_site_fract_z
 _atom_site_occupancy
  C  C0  1  0.00000000  0.00000000  0.00000000  1
  C  C1  1  0.50000000  0.00000000  0.50000000  1
  Ni  Ni2  1  0.35471300  0.87370100  0.87171700  1
  Ni  Ni3  1  0.64528700  0.12629900  0.12828300  1
  Ni  Ni4  1  0.41542300  0.16100700  0.75213900  1
  Ni  Ni5  1  0.58457700  0.83899300  0.24786100  1
  Ni  Ni6  1  0.00446400  0.76054600  0.58273200  1
  Ni  Ni7  1  0.99553600  0.23945400  0.41726800  1
  Ni  Ni8  1  0.19622800  0.60571900  0.60100400  1
  Ni  Ni9  1  0.80377200  0.39428100  0.39899600  1
  Ni  Ni10  1  0.00000000  0.50000000  0.00000000  1
  Cu  Cu11  1  0.62957100  0.51386700  0.79524800  1
  Cu  Cu12  1  0.37042900  0.48613300  0.20475200  1
  C  C13  1  0.45986700  0.01796800  0.76772100  1
  C  C14  1  0.54013300  0.98203200  0.23227900  1
  C  C15  1  0.13401200  0.75933300  0.50928200  1
  C  C16  1  0.86598800  0.24066700  0.49071800  1
  C  C17  1  0.71681300  0.73779400  0.70405600  1
  C  C18  1  0.28318700  0.26220600  0.29594400  1
  C  C19  1  0.39314000  0.41043500  0.74991400  1
  C  C20  1  0.60686000  0.58956500  0.25008600  1
  C  C21  1  0.80002100  0.38206800  0.94548900  1
  C  C22  1  0.19997900  0.61793200  0.05451100  1
