# generated using pymatgen
data_Cu7Ni4C5
_symmetry_space_group_name_H-M   'P 1'
_cell_length_a   10.02437500
_cell_length_b   7.82757836
_cell_length_c   6.86105145
_cell_angle_alpha   108.37964015
_cell_angle_beta   90.00000000
_cell_angle_gamma   90.00000000
_symmetry_Int_Tables_number   1
_chemical_formula_structural   Cu7Ni4C5
_chemical_formula_sum   'Cu14 Ni8 C10'
_cell_volume   510.90032519
_cell_formula_units_Z   2
loop_
 _symmetry_equiv_pos_site_id
 _symmetry_equiv_pos_as_xyz
  1  'x, y, z'
loop_
 _atom_site_type_symbol
 _atom_site_label
 _atom_site_symmetry_multiplicity
 _atom_site_fract_x
 _atom_site_fract_y
 _atom_site_fract_z
 _atom_site_occupancy
  C  C0  1  0.20369100  0.22074800  0.02097200  1
  C  C1  1  0.16049300  0.67105700  0.93931600  1
  C  C2  1  0.72481900  0.36726900  0.56463500  1
  C  C3  1  0.34713800  0.29676700  0.51486200  1
  C  C4  1  0.47799200  0.95045300  0.07325100  1
  C  C5  1  0.65286200  0.79676700  0.51486200  1
  C  C6  1  0.52200800  0.45045300  0.07325100  1
  C  C7  1  0.27518100  0.86726900  0.56463500  1
  C  C8  1  0.83950700  0.17105700  0.93931600  1
  C  C9  1  0.79630900  0.72074800  0.02097200  1
  Ni  Ni10  1  0.40653500  0.00023900  0.40605300  1
  Ni  Ni11  1  0.31211100  0.45404000  0.92808000  1
  Ni  Ni12  1  0.41339800  0.23913400  0.17009000  1
  Ni  Ni13  1  0.26738800  0.92162200  0.92406900  1
  Ni  Ni14  1  0.73261200  0.42162200  0.92406900  1
  Ni  Ni15  1  0.58660200  0.73913400  0.17009000  1
  Ni  Ni16  1  0.59346500  0.50023900  0.40605300  1
  Ni  Ni17  1  0.68788900  0.95404000  0.92808000  1
  Cu  Cu18  1  0.16122900  0.24895300  0.34225900  1
  Cu  Cu19  1  0.98774400  0.85981000  0.07756100  1
  Cu  Cu20  1  0.01776600  0.02584700  0.80303100  1
  Cu  Cu21  1  0.80764200  0.21740100  0.26973600  1
  Cu  Cu22  1  0.78637500  0.64939000  0.67136000  1
  Cu  Cu23  1  0.75540400  0.08683000  0.59947300  1
  Cu  Cu24  1  0.53165100  0.30063700  0.69525200  1
  Cu  Cu25  1  0.46834900  0.80063700  0.69525200  1
  Cu  Cu26  1  0.24459600  0.58683000  0.59947300  1
  Cu  Cu27  1  0.19235800  0.71740100  0.26973600  1
  Cu  Cu28  1  0.21362500  0.14939000  0.67136000  1
  Cu  Cu29  1  0.01225600  0.35981000  0.07756100  1
  Cu  Cu30  1  0.98223400  0.52584700  0.80303100  1
  Cu  Cu31  1  0.83877100  0.74895300  0.34225900  1
