# generated using pymatgen
data_CuNiC12
_symmetry_space_group_name_H-M   'P 1'
_cell_length_a   7.28174300
_cell_length_b   9.04295682
_cell_length_c   15.88929491
_cell_angle_alpha   89.39336453
_cell_angle_beta   90.00000000
_cell_angle_gamma   90.00000000
_symmetry_Int_Tables_number   1
_chemical_formula_structural   CuNiC12
_chemical_formula_sum   'Cu8 Ni8 C96'
_cell_volume   1046.22739335
_cell_formula_units_Z   8
loop_
 _symmetry_equiv_pos_site_id
 _symmetry_equiv_pos_as_xyz
  1  'x, y, z'
loop_
 _atom_site_type_symbol
 _atom_site_label
 _atom_site_symmetry_multiplicity
 _atom_site_fract_x
 _atom_site_fract_y
 _atom_site_fract_z
 _atom_site_occupancy
  C  C0  1  0.75915400  0.48124800  0.62599300  1
  C  C1  1  0.25915400  0.51875200  0.87400700  1
  C  C2  1  0.24084600  0.51875200  0.37400700  1
  C  C3  1  0.74084600  0.48124800  0.12599300  1
  Ni  Ni4  1  0.60907900  0.69290800  0.46587200  1
  Ni  Ni5  1  0.10907900  0.30709200  0.03412800  1
  Ni  Ni6  1  0.39092100  0.30709200  0.53412800  1
  Ni  Ni7  1  0.89092100  0.69290800  0.96587200  1
  Ni  Ni8  1  0.07215000  0.70472400  0.71499200  1
  Ni  Ni9  1  0.57215000  0.29527600  0.78500800  1
  Ni  Ni10  1  0.92785000  0.29527600  0.28500800  1
  Ni  Ni11  1  0.42785000  0.70472400  0.21499200  1
  C  C12  1  0.27627000  0.63402500  0.55778800  1
  C  C13  1  0.77627000  0.36597500  0.94221200  1
  C  C14  1  0.72373000  0.36597500  0.44221200  1
  C  C15  1  0.22373000  0.63402500  0.05778800  1
  C  C16  1  0.42342300  0.67239600  0.63733000  1
  C  C17  1  0.92342300  0.32760400  0.86267000  1
  C  C18  1  0.57657700  0.32760400  0.36267000  1
  C  C19  1  0.07657700  0.67239600  0.13733000  1
  C  C20  1  0.64109300  0.80751300  0.34283000  1
  C  C21  1  0.14109300  0.19248700  0.15717000  1
  C  C22  1  0.35890700  0.19248700  0.65717000  1
  C  C23  1  0.85890700  0.80751300  0.84283000  1
  C  C24  1  0.02988900  0.34965100  0.53132900  1
  C  C25  1  0.52988900  0.65034900  0.96867100  1
  C  C26  1  0.97011100  0.65034900  0.46867100  1
  C  C27  1  0.47011100  0.34965100  0.03132900  1
  C  C28  1  0.91080000  0.22694000  0.57935900  1
  C  C29  1  0.41080000  0.77306000  0.92064100  1
  C  C30  1  0.08920000  0.77306000  0.42064100  1
  C  C31  1  0.58920000  0.22694000  0.07935900  1
  C  C32  1  0.57070600  0.57774500  0.75220400  1
  C  C33  1  0.07070600  0.42225500  0.74779600  1
  C  C34  1  0.42929400  0.42225500  0.24779600  1
  C  C35  1  0.92929400  0.57774500  0.25220400  1
  C  C36  1  0.71170500  0.70748400  0.72200100  1
  C  C37  1  0.21170500  0.29251600  0.77799900  1
  C  C38  1  0.28829500  0.29251600  0.27799900  1
  C  C39  1  0.78829500  0.70748400  0.22200100  1
  C  C40  1  0.27228700  0.86461000  0.82697600  1
  C  C41  1  0.77228700  0.13539000  0.67302400  1
  C  C42  1  0.72771300  0.13539000  0.17302400  1
  C  C43  1  0.22771300  0.86461000  0.32697600  1
  C  C44  1  0.34925200  0.02699300  0.83394400  1
  C  C45  1  0.84925200  0.97300700  0.66605600  1
  C  C46  1  0.65074800  0.97300700  0.16605600  1
  C  C47  1  0.15074800  0.02699300  0.33394400  1
  C  C48  1  0.36545300  0.86903200  0.48954600  1
  C  C49  1  0.86545300  0.13096700  0.01045400  1
  C  C50  1  0.63454700  0.13096700  0.51045400  1
  C  C51  1  0.13454700  0.86903200  0.98954600  1
  C  C52  1  0.53721900  0.88279100  0.56975000  1
  C  C53  1  0.03721900  0.11720900  0.93025000  1
  C  C54  1  0.46278100  0.11720900  0.43025000  1
  C  C55  1  0.96278100  0.88279100  0.06975000  1
  C  C56  1  0.25250900  0.90666100  0.65809000  1
  C  C57  1  0.75250900  0.09333900  0.84191000  1
  C  C58  1  0.74749100  0.09333900  0.34191000  1
  C  C59  1  0.24749100  0.90666100  0.15809000  1
  C  C60  1  0.09294900  0.84426900  0.58137700  1
  C  C61  1  0.59294900  0.15573100  0.91862300  1
  C  C62  1  0.90705100  0.15573100  0.41862300  1
  C  C63  1  0.40705100  0.84426900  0.08137700  1
  Cu  Cu64  1  0.45602400  0.80582600  0.53184600  1
  Cu  Cu65  1  0.95602400  0.19417400  0.96815400  1
  Cu  Cu66  1  0.54397600  0.19417400  0.46815400  1
  Cu  Cu67  1  0.04397600  0.80582600  0.03184600  1
  Cu  Cu68  1  0.18908700  0.80851000  0.63060500  1
  Cu  Cu69  1  0.68908700  0.19149000  0.86939500  1
  Cu  Cu70  1  0.81091300  0.19149000  0.36939500  1
  Cu  Cu71  1  0.31091300  0.80851000  0.13060500  1
  C  C72  1  0.33721200  0.71848400  0.59076500  1
  C  C73  1  0.83721200  0.28151600  0.90923500  1
  C  C74  1  0.66278800  0.28151600  0.40923500  1
  C  C75  1  0.16278800  0.71848400  0.09076500  1
  C  C76  1  0.68964200  0.81438700  0.40286700  1
  C  C77  1  0.18964200  0.18561300  0.09713300  1
  C  C78  1  0.31035800  0.18561300  0.59713300  1
  C  C79  1  0.81035800  0.81438700  0.90286700  1
  C  C80  1  0.49907400  0.57856000  0.41922900  1
  C  C81  1  0.99907400  0.42144000  0.08077100  1
  C  C82  1  0.50092600  0.42144000  0.58077100  1
  C  C83  1  0.00092600  0.57856000  0.91922900  1
  C  C84  1  0.76891500  0.63387100  0.51926800  1
  C  C85  1  0.26891500  0.36612900  0.98073200  1
  C  C86  1  0.23108500  0.36612900  0.48073200  1
  C  C87  1  0.73108500  0.63387100  0.01926800  1
  C  C88  1  0.90885900  0.80269200  0.74184900  1
  C  C89  1  0.40885900  0.19730800  0.75815100  1
  C  C90  1  0.09114100  0.19730800  0.25815100  1
  C  C91  1  0.59114100  0.80269200  0.24184900  1
  C  C92  1  0.01094700  0.55457000  0.67848800  1
  C  C93  1  0.51094700  0.44543000  0.82151200  1
  C  C94  1  0.98905300  0.44543000  0.32151200  1
  C  C95  1  0.48905300  0.55457000  0.17848800  1
  C  C96  1  0.22268600  0.68712400  0.78216400  1
  C  C97  1  0.72268600  0.31287600  0.71783600  1
  C  C98  1  0.77731400  0.31287600  0.21783600  1
  C  C99  1  0.27731400  0.68712400  0.28216400  1
  C  C100  1  0.90367800  0.32628800  0.55293400  1
  C  C101  1  0.40367800  0.67371200  0.94706600  1
  C  C102  1  0.09632200  0.67371200  0.44706600  1
  C  C103  1  0.59632200  0.32628800  0.05293400  1
  C  C104  1  0.61479400  0.63708200  0.70217900  1
  C  C105  1  0.11479400  0.36291800  0.79782100  1
  C  C106  1  0.38520600  0.36291800  0.29782100  1
  C  C107  1  0.88520600  0.63708200  0.20217900  1
  C  C108  1  0.30681400  0.94173800  0.86792700  1
  C  C109  1  0.80681400  0.05826200  0.63207300  1
  C  C110  1  0.69318600  0.05826200  0.13207300  1
  C  C111  1  0.19318600  0.94173800  0.36792700  1
