# generated using pymatgen
data_Cu2Ni3C32
_symmetry_space_group_name_H-M   'P 1'
_cell_length_a   8.65049116
_cell_length_b   8.80901656
_cell_length_c   8.80662176
_cell_angle_alpha   59.04826512
_cell_angle_beta   59.17904218
_cell_angle_gamma   59.45352065
_symmetry_Int_Tables_number   1
_chemical_formula_structural   Cu2Ni3C32
_chemical_formula_sum   'Cu2 Ni3 C32'
_cell_volume   466.15973479
_cell_formula_units_Z   1
loop_
 _symmetry_equiv_pos_site_id
 _symmetry_equiv_pos_as_xyz
  1  'x, y, z'
loop_
 _atom_site_type_symbol
 _atom_site_label
 _atom_site_symmetry_multiplicity
 _atom_site_fract_x
 _atom_site_fract_y
 _atom_site_fract_z
 _atom_site_occupancy
  C  C0  1  0.03360700  0.98558100  0.98787100  1
  Ni  Ni1  1  0.08734600  0.64026000  0.63858300  1
  Ni  Ni2  1  0.46665700  0.84347400  0.84089800  1
  Ni  Ni3  1  0.93874400  0.36946600  0.34017200  1
  Cu  Cu4  1  0.63160100  0.12555100  0.11673000  1
  Cu  Cu5  1  0.51614200  0.49461000  0.49910900  1
  C  C6  1  0.27674500  0.19299200  0.28978300  1
  C  C7  1  0.27829500  0.24529200  0.54550300  1
  C  C8  1  0.27837400  0.93855500  0.23159600  1
  C  C9  1  0.25965900  0.54701000  0.95118900  1
  C  C10  1  0.77776400  0.44610900  0.03314600  1
  C  C11  1  0.78309000  0.03408500  0.73501800  1
  C  C12  1  0.78196800  0.74119700  0.44601000  1
  C  C13  1  0.10085600  0.10895400  0.28926000  1
  C  C14  1  0.06040000  0.53110400  0.09947400  1
  C  C15  1  0.10026400  0.31082700  0.49007700  1
  C  C16  1  0.25315800  0.08187600  0.73633300  1
  C  C17  1  0.45733100  0.18716500  0.38474400  1
  C  C18  1  0.28927700  0.40282200  0.56721700  1
  C  C19  1  0.25701100  0.92507400  0.07611400  1
  C  C20  1  0.28872900  0.74818100  0.39846700  1
  C  C21  1  0.59642400  0.59689400  0.98630000  1
  C  C22  1  0.29000600  0.55938200  0.75424800  1
  C  C23  1  0.82059500  0.25197900  0.03800900  1
  C  C24  1  0.60377500  0.98559200  0.80590400  1
  C  C25  1  0.45766900  0.98006800  0.17276600  1
  C  C26  1  0.25614900  0.73636400  0.92718700  1
  C  C27  1  0.74677100  0.43586500  0.23063800  1
  C  C28  1  0.41265200  0.37303200  0.02561000  1
  C  C29  1  0.75580300  0.23348000  0.57790700  1
  C  C30  1  0.82134000  0.03687600  0.88610800  1
  C  C31  1  0.75235500  0.58364100  0.43647000  1
  C  C32  1  0.59763400  0.81360300  0.59686500  1
  C  C33  1  0.82508400  0.88992300  0.24934400  1
  C  C34  1  0.95339000  0.65836000  0.50938000  1
  C  C35  1  0.95202800  0.50795900  0.88207700  1
  C  C36  1  0.96004700  0.88536700  0.65246300  1
