# generated using pymatgen
data_Cu8Ni3C
_symmetry_space_group_name_H-M   'P 1'
_cell_length_a   4.75431203
_cell_length_b   4.75431203
_cell_length_c   7.81025100
_cell_angle_alpha   90.00000000
_cell_angle_beta   90.00000000
_cell_angle_gamma   120.00000037
_symmetry_Int_Tables_number   1
_chemical_formula_structural   Cu8Ni3C
_chemical_formula_sum   'Cu8 Ni3 C1'
_cell_volume   152.88714950
_cell_formula_units_Z   1
loop_
 _symmetry_equiv_pos_site_id
 _symmetry_equiv_pos_as_xyz
  1  'x, y, z'
loop_
 _atom_site_type_symbol
 _atom_site_label
 _atom_site_symmetry_multiplicity
 _atom_site_fract_x
 _atom_site_fract_y
 _atom_site_fract_z
 _atom_site_occupancy
  Ni  Ni0  1  0.33333300  0.66666700  0.44184900  1
  Ni  Ni1  1  0.33333300  0.66666700  0.06559200  1
  Ni  Ni2  1  0.66666700  0.33333300  0.92048400  1
  Cu  Cu3  1  0.00000000  0.00000000  0.50346800  1
  Cu  Cu4  1  0.00000000  0.00000000  0.00823300  1
  Cu  Cu5  1  0.17157200  0.34314500  0.74717400  1
  Cu  Cu6  1  0.17157200  0.82842800  0.74717400  1
  Cu  Cu7  1  0.65685500  0.82842800  0.74717400  1
  Cu  Cu8  1  0.82611500  0.65223000  0.25204300  1
  Cu  Cu9  1  0.82611500  0.17388500  0.25204300  1
  Cu  Cu10  1  0.34777000  0.17388500  0.25204300  1
  C  C11  1  0.66666700  0.33333300  0.56265700  1
