# generated using pymatgen
data_CuNiC8
_symmetry_space_group_name_H-M   'P 1'
_cell_length_a   5.57807527
_cell_length_b   5.57807527
_cell_length_c   5.57807547
_cell_angle_alpha   61.17592798
_cell_angle_beta   61.17592798
_cell_angle_gamma   61.17593574
_symmetry_Int_Tables_number   1
_chemical_formula_structural   CuNiC8
_chemical_formula_sum   'Cu1 Ni1 C8'
_cell_volume   125.97328505
_cell_formula_units_Z   1
loop_
 _symmetry_equiv_pos_site_id
 _symmetry_equiv_pos_as_xyz
  1  'x, y, z'
loop_
 _atom_site_type_symbol
 _atom_site_label
 _atom_site_symmetry_multiplicity
 _atom_site_fract_x
 _atom_site_fract_y
 _atom_site_fract_z
 _atom_site_occupancy
  Ni  Ni0  1  0.50000000  0.50000000  0.50000000  1
  Cu  Cu1  1  0.00000000  0.00000000  0.00000000  1
  C  C2  1  0.75061600  0.75061600  0.75061600  1
  C  C3  1  0.24938400  0.24938400  0.24938400  1
  C  C4  1  0.08452900  0.91547100  0.50000000  1
  C  C5  1  0.50000000  0.08452900  0.91547100  1
  C  C6  1  0.91547100  0.50000000  0.08452900  1
  C  C7  1  0.00000000  0.39479300  0.60520700  1
  C  C8  1  0.60520700  0.00000000  0.39479300  1
  C  C9  1  0.39479300  0.60520700  0.00000000  1
