# generated using pymatgen
data_Cu4NiC6
_symmetry_space_group_name_H-M   'P 1'
_cell_length_a   8.07466300
_cell_length_b   7.07273800
_cell_length_c   15.62913287
_cell_angle_alpha   65.53840693
_cell_angle_beta   90.00000000
_cell_angle_gamma   90.00000000
_symmetry_Int_Tables_number   1
_chemical_formula_structural   Cu4NiC6
_chemical_formula_sum   'Cu16 Ni4 C24'
_cell_volume   812.46062243
_cell_formula_units_Z   4
loop_
 _symmetry_equiv_pos_site_id
 _symmetry_equiv_pos_as_xyz
  1  'x, y, z'
loop_
 _atom_site_type_symbol
 _atom_site_label
 _atom_site_symmetry_multiplicity
 _atom_site_fract_x
 _atom_site_fract_y
 _atom_site_fract_z
 _atom_site_occupancy
  C  C0  1  0.69496000  0.41209800  0.09762000  1
  C  C1  1  0.19496000  0.58790200  0.40238000  1
  C  C2  1  0.30504000  0.58790200  0.90238000  1
  C  C3  1  0.80504000  0.41209800  0.59762000  1
  C  C4  1  0.34048300  0.93089700  0.08502900  1
  C  C5  1  0.84048300  0.06910300  0.41497100  1
  C  C6  1  0.65951700  0.06910300  0.91497100  1
  C  C7  1  0.15951700  0.93089700  0.58502900  1
  Ni  Ni8  1  0.00054000  0.11157100  0.99616900  1
  Ni  Ni9  1  0.50054000  0.88842900  0.50383100  1
  Ni  Ni10  1  0.99946000  0.88842900  0.00383100  1
  Ni  Ni11  1  0.49946000  0.11157100  0.49616900  1
  Cu  Cu12  1  0.59852200  0.76029800  0.27317300  1
  Cu  Cu13  1  0.09852200  0.23970200  0.22682700  1
  Cu  Cu14  1  0.40147800  0.23970200  0.72682700  1
  Cu  Cu15  1  0.90147800  0.76029800  0.77317300  1
  Cu  Cu16  1  0.13012000  0.16748600  0.02505000  1
  Cu  Cu17  1  0.63012000  0.83251400  0.47495000  1
  Cu  Cu18  1  0.86988000  0.83251400  0.97495000  1
  Cu  Cu19  1  0.36988000  0.16748600  0.52505000  1
  Cu  Cu20  1  0.12826700  0.78149900  0.03816200  1
  Cu  Cu21  1  0.62826700  0.21850100  0.46183800  1
  Cu  Cu22  1  0.87173300  0.21850100  0.96183800  1
  Cu  Cu23  1  0.37173300  0.78149900  0.53816200  1
  Cu  Cu24  1  0.22904700  0.30412000  0.24518500  1
  Cu  Cu25  1  0.72904700  0.69588000  0.25481500  1
  Cu  Cu26  1  0.77095300  0.69588000  0.75481500  1
  Cu  Cu27  1  0.27095300  0.30412000  0.74518500  1
  C  C28  1  0.23515200  0.82508900  0.20954400  1
  C  C29  1  0.73515200  0.17491100  0.29045600  1
  C  C30  1  0.76484800  0.17491100  0.79045600  1
  C  C31  1  0.26484800  0.82508900  0.70954400  1
  C  C32  1  0.41477100  0.17665900  0.10339800  1
  C  C33  1  0.91477100  0.82334100  0.39660200  1
  C  C34  1  0.58522900  0.82334100  0.89660200  1
  C  C35  1  0.08522900  0.17665900  0.60339800  1
  C  C36  1  0.42750800  0.65039600  0.11521100  1
  C  C37  1  0.92750800  0.34960400  0.38478900  1
  C  C38  1  0.57249200  0.34960400  0.88478900  1
  C  C39  1  0.07249200  0.65039600  0.61521100  1
  C  C40  1  0.38533900  0.03782900  0.94081100  1
  C  C41  1  0.88533900  0.96217100  0.55918900  1
  C  C42  1  0.61466100  0.96217100  0.05918900  1
  C  C43  1  0.11466100  0.03782900  0.44081100  1
