# generated using pymatgen
data_Cu2NiC7
_symmetry_space_group_name_H-M   'P 1'
_cell_length_a   8.49045100
_cell_length_b   5.45884800
_cell_length_c   9.59630031
_cell_angle_alpha   78.85854750
_cell_angle_beta   90.00000000
_cell_angle_gamma   90.00000000
_symmetry_Int_Tables_number   1
_chemical_formula_structural   Cu2NiC7
_chemical_formula_sum   'Cu8 Ni4 C28'
_cell_volume   436.38758011
_cell_formula_units_Z   4
loop_
 _symmetry_equiv_pos_site_id
 _symmetry_equiv_pos_as_xyz
  1  'x, y, z'
loop_
 _atom_site_type_symbol
 _atom_site_label
 _atom_site_symmetry_multiplicity
 _atom_site_fract_x
 _atom_site_fract_y
 _atom_site_fract_z
 _atom_site_occupancy
  C  C0  1  0.21709800  0.29516200  0.00796000  1
  C  C1  1  0.28290200  0.29516200  0.50796000  1
  C  C2  1  0.78290200  0.70483800  0.99204000  1
  C  C3  1  0.71709800  0.70483800  0.49204000  1
  Ni  Ni4  1  0.41342200  0.75034300  0.99544900  1
  Ni  Ni5  1  0.08657800  0.75034300  0.49544900  1
  Ni  Ni6  1  0.58657800  0.24965700  0.00455100  1
  Ni  Ni7  1  0.91342200  0.24965700  0.50455100  1
  Cu  Cu8  1  0.91555900  0.43112000  0.79057200  1
  Cu  Cu9  1  0.58444100  0.43112000  0.29057200  1
  Cu  Cu10  1  0.08444100  0.56888000  0.20942800  1
  Cu  Cu11  1  0.41555900  0.56888000  0.70942800  1
  Cu  Cu12  1  0.11292600  0.94596800  0.77933600  1
  Cu  Cu13  1  0.38707400  0.94596800  0.27933600  1
  Cu  Cu14  1  0.88707400  0.05403200  0.22066400  1
  Cu  Cu15  1  0.61292600  0.05403200  0.72066400  1
  C  C16  1  0.92730900  0.54323000  0.60280400  1
  C  C17  1  0.57269100  0.54323000  0.10280400  1
  C  C18  1  0.07269100  0.45677000  0.39719600  1
  C  C19  1  0.42730900  0.45677000  0.89719600  1
  C  C20  1  0.98926900  0.69850000  0.85928300  1
  C  C21  1  0.51073100  0.69850000  0.35928300  1
  C  C22  1  0.01073100  0.30150000  0.14071700  1
  C  C23  1  0.48926900  0.30150000  0.64071700  1
  C  C24  1  0.74288900  0.41090800  0.88924300  1
  C  C25  1  0.75711100  0.41090800  0.38924300  1
  C  C26  1  0.25711100  0.58909200  0.11075700  1
  C  C27  1  0.24288900  0.58909200  0.61075700  1
  C  C28  1  0.06759300  0.20932500  0.85687100  1
  C  C29  1  0.43240700  0.20932500  0.35687100  1
  C  C30  1  0.93240700  0.79067500  0.14312900  1
  C  C31  1  0.56759300  0.79067500  0.64312900  1
  C  C32  1  0.09815900  0.03557000  0.59013900  1
  C  C33  1  0.40184100  0.03557000  0.09013900  1
  C  C34  1  0.90184100  0.96443000  0.40986100  1
  C  C35  1  0.59815900  0.96443000  0.90986100  1
  C  C36  1  0.31040200  0.88228500  0.82562800  1
  C  C37  1  0.18959800  0.88228500  0.32562800  1
  C  C38  1  0.68959800  0.11771500  0.17437200  1
  C  C39  1  0.81040200  0.11771500  0.67437200  1
