# generated using pymatgen
data_Cu12Ni2C
_symmetry_space_group_name_H-M   'P 1'
_cell_length_a   12.61150210
_cell_length_b   11.00874944
_cell_length_c   8.14079883
_cell_angle_alpha   80.87833244
_cell_angle_beta   59.52770685
_cell_angle_gamma   39.59396071
_symmetry_Int_Tables_number   1
_chemical_formula_structural   Cu12Ni2C
_chemical_formula_sum   'Cu24 Ni4 C2'
_cell_volume   562.63224642
_cell_formula_units_Z   2
loop_
 _symmetry_equiv_pos_site_id
 _symmetry_equiv_pos_as_xyz
  1  'x, y, z'
loop_
 _atom_site_type_symbol
 _atom_site_label
 _atom_site_symmetry_multiplicity
 _atom_site_fract_x
 _atom_site_fract_y
 _atom_site_fract_z
 _atom_site_occupancy
  C  C0  1  0.91907000  0.58093000  0.58093000  1
  C  C1  1  0.66907000  0.33093000  0.33093000  1
  Ni  Ni2  1  0.10431100  0.10339800  0.34904800  1
  Ni  Ni3  1  0.44324200  0.34904800  0.10339800  1
  Ni  Ni4  1  0.90095200  0.80675800  0.14568900  1
  Ni  Ni5  1  0.14660200  0.14568900  0.80675800  1
  Cu  Cu6  1  0.22369900  0.13308500  0.95532100  1
  Cu  Cu7  1  0.68789500  0.95532100  0.13308500  1
  Cu  Cu8  1  0.29467900  0.56210500  0.02630100  1
  Cu  Cu9  1  0.11691500  0.02630100  0.56210500  1
  Cu  Cu10  1  0.94674400  0.19636400  0.00565800  1
  Cu  Cu11  1  0.85123500  0.00565800  0.19636400  1
  Cu  Cu12  1  0.24434200  0.39876500  0.30325600  1
  Cu  Cu13  1  0.05363600  0.30325600  0.39876500  1
  Cu  Cu14  1  0.63869600  0.68487300  0.39952600  1
  Cu  Cu15  1  0.27690500  0.39952600  0.68487300  1
  Cu  Cu16  1  0.85047400  0.97309500  0.61130400  1
  Cu  Cu17  1  0.56512700  0.61130400  0.97309500  1
  Cu  Cu18  1  0.80643900  0.79670900  0.40135800  1
  Cu  Cu19  1  0.99549400  0.40135800  0.79670900  1
  Cu  Cu20  1  0.84864200  0.25450600  0.44356100  1
  Cu  Cu21  1  0.45329100  0.44356100  0.25450600  1
  Cu  Cu22  1  0.62700200  0.62824800  0.80923400  1
  Cu  Cu23  1  0.93551500  0.80923400  0.62824800  1
  Cu  Cu24  1  0.44076600  0.31448500  0.62299800  1
  Cu  Cu25  1  0.62175200  0.62299800  0.31448500  1
  Cu  Cu26  1  0.47861100  0.54859200  0.69365500  1
  Cu  Cu27  1  0.27914200  0.69365500  0.54859200  1
  Cu  Cu28  1  0.55634500  0.97085800  0.77138900  1
  Cu  Cu29  1  0.70140800  0.77138900  0.97085800  1
