# generated using pymatgen
data_Cu7NiC3
_symmetry_space_group_name_H-M   'P 1'
_cell_length_a   6.23235300
_cell_length_b   10.41092924
_cell_length_c   10.45294515
_cell_angle_alpha   117.27907525
_cell_angle_beta   90.06746940
_cell_angle_gamma   91.32821124
_symmetry_Int_Tables_number   1
_chemical_formula_structural   Cu7NiC3
_chemical_formula_sum   'Cu28 Ni4 C12'
_cell_volume   602.58977194
_cell_formula_units_Z   4
loop_
 _symmetry_equiv_pos_site_id
 _symmetry_equiv_pos_as_xyz
  1  'x, y, z'
loop_
 _atom_site_type_symbol
 _atom_site_label
 _atom_site_symmetry_multiplicity
 _atom_site_fract_x
 _atom_site_fract_y
 _atom_site_fract_z
 _atom_site_occupancy
  C  C0  1  0.95477200  0.76379500  0.75707500  1
  C  C1  1  0.55601800  0.76198000  0.25739600  1
  C  C2  1  0.03949100  0.23276300  0.73714900  1
  C  C3  1  0.04115900  0.23475500  0.23772400  1
  C  C4  1  0.25013600  0.65408700  0.93464700  1
  C  C5  1  0.25038700  0.65422000  0.43511100  1
  C  C6  1  0.73386700  0.34587600  0.56605500  1
  C  C7  1  0.73703300  0.34568800  0.06543700  1
  C  C8  1  0.74711100  0.56373100  0.92034900  1
  C  C9  1  0.75191400  0.56405300  0.42063400  1
  C  C10  1  0.24065500  0.43607900  0.58050800  1
  C  C11  1  0.24215700  0.43577600  0.07984900  1
  Ni  Ni12  1  0.25441800  0.91158500  0.09422600  1
  Ni  Ni13  1  0.26440500  0.91183700  0.59472600  1
  Ni  Ni14  1  0.75259500  0.09004700  0.40571800  1
  Ni  Ni15  1  0.74031400  0.08871300  0.90569800  1
  Cu  Cu16  1  0.76928300  0.96027600  0.32297400  1
  Cu  Cu17  1  0.74825700  0.95860900  0.82326200  1
  Cu  Cu18  1  0.24848800  0.85193400  0.95222900  1
  Cu  Cu19  1  0.27387400  0.85227900  0.45295700  1
  Cu  Cu20  1  0.26341800  0.80845000  0.13602000  1
  Cu  Cu21  1  0.25896400  0.80860300  0.63669400  1
  Cu  Cu22  1  0.94171300  0.66577600  0.93246500  1
  Cu  Cu23  1  0.55565000  0.66241300  0.93939500  1
  Cu  Cu24  1  0.94528600  0.67140100  0.44824500  1
  Cu  Cu25  1  0.55919200  0.65721100  0.42483800  1
  Cu  Cu26  1  0.74505200  0.52368700  0.54662400  1
  Cu  Cu27  1  0.23940700  0.57571900  0.72382900  1
  Cu  Cu28  1  0.74945100  0.52388300  0.04675600  1
  Cu  Cu29  1  0.24736300  0.57498400  0.22367700  1
  Cu  Cu30  1  0.74677000  0.42480600  0.77652800  1
  Cu  Cu31  1  0.23282700  0.47532500  0.95324400  1
  Cu  Cu32  1  0.76477900  0.42631700  0.27644400  1
  Cu  Cu33  1  0.23322800  0.47525500  0.45359300  1
  Cu  Cu34  1  0.43017600  0.33747100  0.56526800  1
  Cu  Cu35  1  0.04465700  0.33456200  0.56707200  1
  Cu  Cu36  1  0.43343100  0.33826500  0.06512600  1
  Cu  Cu37  1  0.04765300  0.33262400  0.06446700  1
  Cu  Cu38  1  0.74607300  0.19363600  0.36458700  1
  Cu  Cu39  1  0.73950700  0.19225200  0.86410700  1
  Cu  Cu40  1  0.74024000  0.14758500  0.54712300  1
  Cu  Cu41  1  0.73457900  0.14765800  0.04753000  1
  Cu  Cu42  1  0.25152900  0.04189200  0.17621600  1
  Cu  Cu43  1  0.25692200  0.04214000  0.67642900  1
