# generated using pymatgen
data_Cu4Ni4C
_symmetry_space_group_name_H-M   'P 1'
_cell_length_a   3.96972800
_cell_length_b   7.74619500
_cell_length_c   7.74619500
_cell_angle_alpha   90.00000000
_cell_angle_beta   90.00000000
_cell_angle_gamma   90.00000000
_symmetry_Int_Tables_number   1
_chemical_formula_structural   Cu4Ni4C
_chemical_formula_sum   'Cu8 Ni8 C2'
_cell_volume   238.19772084
_cell_formula_units_Z   2
loop_
 _symmetry_equiv_pos_site_id
 _symmetry_equiv_pos_as_xyz
  1  'x, y, z'
loop_
 _atom_site_type_symbol
 _atom_site_label
 _atom_site_symmetry_multiplicity
 _atom_site_fract_x
 _atom_site_fract_y
 _atom_site_fract_z
 _atom_site_occupancy
  C  C0  1  0.25000000  0.25000000  0.25000000  1
  C  C1  1  0.75000000  0.75000000  0.75000000  1
  Ni  Ni2  1  0.36000600  0.90855600  0.02930300  1
  Ni  Ni3  1  0.36000600  0.59144400  0.47069700  1
  Ni  Ni4  1  0.86000600  0.52930300  0.09144400  1
  Ni  Ni5  1  0.86000600  0.97069700  0.40855600  1
  Ni  Ni6  1  0.63999400  0.09144400  0.97069700  1
  Ni  Ni7  1  0.63999400  0.40855600  0.52930300  1
  Ni  Ni8  1  0.13999400  0.47069700  0.90855600  1
  Ni  Ni9  1  0.13999400  0.02930300  0.59144400  1
  Cu  Cu10  1  0.13914100  0.41243700  0.64207300  1
  Cu  Cu11  1  0.13914100  0.08756300  0.85792700  1
  Cu  Cu12  1  0.63914100  0.14207300  0.58756300  1
  Cu  Cu13  1  0.63914100  0.35792700  0.91243700  1
  Cu  Cu14  1  0.86085900  0.58756300  0.35792700  1
  Cu  Cu15  1  0.86085900  0.91243700  0.14207300  1
  Cu  Cu16  1  0.36085900  0.85792700  0.41243700  1
  Cu  Cu17  1  0.36085900  0.64207300  0.08756300  1
