# generated using pymatgen
data_CuNiC
_symmetry_space_group_name_H-M   'P 1'
_cell_length_a   3.77799800
_cell_length_b   7.28616166
_cell_length_c   7.28616166
_cell_angle_alpha   119.99999695
_cell_angle_beta   90.00000000
_cell_angle_gamma   90.00000000
_symmetry_Int_Tables_number   1
_chemical_formula_structural   CuNiC
_chemical_formula_sum   'Cu3 Ni3 C3'
_cell_volume   173.69606300
_cell_formula_units_Z   3
loop_
 _symmetry_equiv_pos_site_id
 _symmetry_equiv_pos_as_xyz
  1  'x, y, z'
loop_
 _atom_site_type_symbol
 _atom_site_label
 _atom_site_symmetry_multiplicity
 _atom_site_fract_x
 _atom_site_fract_y
 _atom_site_fract_z
 _atom_site_occupancy
  C  C0  1  0.00000000  0.59395300  0.59395300  1
  C  C1  1  0.00000000  0.00000000  0.40604700  1
  C  C2  1  0.00000000  0.40604700  0.00000000  1
  Ni  Ni3  1  0.50000000  0.25470200  0.25470200  1
  Ni  Ni4  1  0.50000000  0.00000000  0.74529800  1
  Ni  Ni5  1  0.50000000  0.74529800  0.00000000  1
  Cu  Cu6  1  0.00000000  0.00000000  0.00000000  1
  Cu  Cu7  1  0.50000000  0.66666700  0.33333300  1
  Cu  Cu8  1  0.50000000  0.33333300  0.66666700  1
