# generated using pymatgen
data_Cu13NiC10
_symmetry_space_group_name_H-M   'P 1'
_cell_length_a   8.74279567
_cell_length_b   8.74279567
_cell_length_c   8.74279560
_cell_angle_alpha   59.82250612
_cell_angle_beta   59.82250612
_cell_angle_gamma   59.82250720
_symmetry_Int_Tables_number   1
_chemical_formula_structural   Cu13NiC10
_chemical_formula_sum   'Cu26 Ni2 C20'
_cell_volume   470.63347238
_cell_formula_units_Z   2
loop_
 _symmetry_equiv_pos_site_id
 _symmetry_equiv_pos_as_xyz
  1  'x, y, z'
loop_
 _atom_site_type_symbol
 _atom_site_label
 _atom_site_symmetry_multiplicity
 _atom_site_fract_x
 _atom_site_fract_y
 _atom_site_fract_z
 _atom_site_occupancy
  C  C0  1  0.00953500  0.01053300  0.46074100  1
  C  C1  1  0.01053300  0.46074100  0.00953500  1
  C  C2  1  0.46074100  0.00953500  0.01053300  1
  C  C3  1  0.50953500  0.96074100  0.51053300  1
  C  C4  1  0.96074100  0.51053300  0.50953500  1
  C  C5  1  0.51053300  0.50953500  0.96074100  1
  C  C6  1  0.88812500  0.88812500  0.88812500  1
  C  C7  1  0.38812500  0.38812500  0.38812500  1
  C  C8  1  0.71970100  0.41477100  0.41589000  1
  C  C9  1  0.41477100  0.41589000  0.71970100  1
  C  C10  1  0.41589000  0.71970100  0.41477100  1
  C  C11  1  0.21970100  0.91589000  0.91477100  1
  C  C12  1  0.91589000  0.91477100  0.21970100  1
  C  C13  1  0.91477100  0.21970100  0.91589000  1
  C  C14  1  0.73466800  0.23925100  0.24264000  1
  C  C15  1  0.23925100  0.24264000  0.73466800  1
  C  C16  1  0.24264000  0.73466800  0.23925100  1
  C  C17  1  0.23466800  0.74264000  0.73925100  1
  C  C18  1  0.74264000  0.73925100  0.23466800  1
  C  C19  1  0.73925100  0.23466800  0.74264000  1
  Ni  Ni20  1  0.22991900  0.22991900  0.22991900  1
  Ni  Ni21  1  0.72991900  0.72991900  0.72991900  1
  Cu  Cu22  1  0.04392600  0.88130600  0.72727200  1
  Cu  Cu23  1  0.88130600  0.72727200  0.04392600  1
  Cu  Cu24  1  0.72727200  0.04392600  0.88130600  1
  Cu  Cu25  1  0.54392600  0.22727200  0.38130600  1
  Cu  Cu26  1  0.22727200  0.38130600  0.54392600  1
  Cu  Cu27  1  0.38130600  0.54392600  0.22727200  1
  Cu  Cu28  1  0.24282600  0.77309900  0.38447500  1
  Cu  Cu29  1  0.77309900  0.38447500  0.24282600  1
  Cu  Cu30  1  0.38447500  0.24282600  0.77309900  1
  Cu  Cu31  1  0.74282600  0.88447500  0.27309900  1
  Cu  Cu32  1  0.88447500  0.27309900  0.74282600  1
  Cu  Cu33  1  0.27309900  0.74282600  0.88447500  1
  Cu  Cu34  1  0.78549400  0.23753000  0.55480700  1
  Cu  Cu35  1  0.23753000  0.55480700  0.78549400  1
  Cu  Cu36  1  0.55480700  0.78549400  0.23753000  1
  Cu  Cu37  1  0.28549400  0.05480700  0.73753000  1
  Cu  Cu38  1  0.05480700  0.73753000  0.28549400  1
  Cu  Cu39  1  0.73753000  0.28549400  0.05480700  1
  Cu  Cu40  1  0.87490100  0.05227100  0.29770800  1
  Cu  Cu41  1  0.05227100  0.29770800  0.87490100  1
  Cu  Cu42  1  0.29770800  0.87490100  0.05227100  1
  Cu  Cu43  1  0.37490100  0.79770800  0.55227100  1
  Cu  Cu44  1  0.79770800  0.55227100  0.37490100  1
  Cu  Cu45  1  0.55227100  0.37490100  0.79770800  1
  Cu  Cu46  1  0.50020800  0.50020800  0.50020800  1
  Cu  Cu47  1  0.00020800  0.00020800  0.00020800  1
