# generated using pymatgen
data_Cu2(Ni2C7)3
_symmetry_space_group_name_H-M   'P 1'
_cell_length_a   5.98615226
_cell_length_b   5.98615226
_cell_length_c   30.42192200
_cell_angle_alpha   90.00000000
_cell_angle_beta   90.00000000
_cell_angle_gamma   120.00000284
_symmetry_Int_Tables_number   1
_chemical_formula_structural   Cu2(Ni2C7)3
_chemical_formula_sum   'Cu4 Ni12 C42'
_cell_volume   944.08866962
_cell_formula_units_Z   2
loop_
 _symmetry_equiv_pos_site_id
 _symmetry_equiv_pos_as_xyz
  1  'x, y, z'
loop_
 _atom_site_type_symbol
 _atom_site_label
 _atom_site_symmetry_multiplicity
 _atom_site_fract_x
 _atom_site_fract_y
 _atom_site_fract_z
 _atom_site_occupancy
  Ni  Ni0  1  0.33333300  0.66666700  0.18089300  1
  Ni  Ni1  1  0.66666700  0.33333300  0.81910700  1
  Ni  Ni2  1  0.66666700  0.33333300  0.68089300  1
  Ni  Ni3  1  0.33333300  0.66666700  0.31910700  1
  Ni  Ni4  1  0.00000000  0.00000000  0.00000000  1
  Ni  Ni5  1  0.00000000  0.00000000  0.50000000  1
  Ni  Ni6  1  0.33333300  0.66666700  0.59006200  1
  Ni  Ni7  1  0.66666700  0.33333300  0.40993800  1
  Ni  Ni8  1  0.66666700  0.33333300  0.09006200  1
  Ni  Ni9  1  0.33333300  0.66666700  0.90993800  1
  Ni  Ni10  1  0.00000000  0.00000000  0.25000000  1
  Ni  Ni11  1  0.00000000  0.00000000  0.75000000  1
  Cu  Cu12  1  0.00000000  0.00000000  0.12466000  1
  Cu  Cu13  1  0.00000000  0.00000000  0.87534000  1
  Cu  Cu14  1  0.00000000  0.00000000  0.62466000  1
  Cu  Cu15  1  0.00000000  0.00000000  0.37534000  1
  C  C16  1  0.33333300  0.66666700  0.05203000  1
  C  C17  1  0.66666700  0.33333300  0.94797000  1
  C  C18  1  0.66666700  0.33333300  0.55203000  1
  C  C19  1  0.33333300  0.66666700  0.44797000  1
  C  C20  1  0.33333300  0.66666700  0.70136500  1
  C  C21  1  0.66666700  0.33333300  0.29863500  1
  C  C22  1  0.66666700  0.33333300  0.20136500  1
  C  C23  1  0.33333300  0.66666700  0.79863500  1
  C  C24  1  0.33333300  0.66666700  0.50388800  1
  C  C25  1  0.66666700  0.33333300  0.49611200  1
  C  C26  1  0.66666700  0.33333300  0.00388800  1
  C  C27  1  0.33333300  0.66666700  0.99611200  1
  C  C28  1  0.17441400  0.34882700  0.66954800  1
  C  C29  1  0.82558600  0.65117300  0.33045200  1
  C  C30  1  0.65117300  0.82558600  0.66954800  1
  C  C31  1  0.82558600  0.65117300  0.16954800  1
  C  C32  1  0.34882700  0.17441400  0.33045200  1
  C  C33  1  0.17441400  0.34882700  0.83045200  1
  C  C34  1  0.17441400  0.82558600  0.66954800  1
  C  C35  1  0.34882700  0.17441400  0.16954800  1
  C  C36  1  0.82558600  0.17441400  0.33045200  1
  C  C37  1  0.65117300  0.82558600  0.83045200  1
  C  C38  1  0.82558600  0.17441400  0.16954800  1
  C  C39  1  0.17441400  0.82558600  0.83045200  1
  C  C40  1  0.51349400  0.02698700  0.25000000  1
  C  C41  1  0.48650600  0.97301300  0.75000000  1
  C  C42  1  0.97301300  0.48650600  0.25000000  1
  C  C43  1  0.02698700  0.51349400  0.75000000  1
  C  C44  1  0.51349400  0.48650600  0.25000000  1
  C  C45  1  0.48650600  0.51349400  0.75000000  1
  C  C46  1  0.17772300  0.35544600  0.07237100  1
  C  C47  1  0.82227700  0.64455400  0.92762900  1
  C  C48  1  0.64455400  0.82227700  0.07237100  1
  C  C49  1  0.82227700  0.64455400  0.57237100  1
  C  C50  1  0.35544600  0.17772300  0.92762900  1
  C  C51  1  0.17772300  0.35544600  0.42762900  1
  C  C52  1  0.17772300  0.82227700  0.07237100  1
  C  C53  1  0.35544600  0.17772300  0.57237100  1
  C  C54  1  0.82227700  0.17772300  0.92762900  1
  C  C55  1  0.64455400  0.82227700  0.42762900  1
  C  C56  1  0.82227700  0.17772300  0.57237100  1
  C  C57  1  0.17772300  0.82227700  0.42762900  1
