# generated using pymatgen
data_CuNi2
_symmetry_space_group_name_H-M   'P 1'
_cell_length_a   2.80670200
_cell_length_b   3.96851800
_cell_length_c   4.83953462
_cell_angle_alpha   114.20548131
_cell_angle_beta   106.85654528
_cell_angle_gamma   90.00000000
_symmetry_Int_Tables_number   1
_chemical_formula_structural   CuNi2
_chemical_formula_sum   'Cu1 Ni2'
_cell_volume   46.61465859
_cell_formula_units_Z   1
loop_
 _symmetry_equiv_pos_site_id
 _symmetry_equiv_pos_as_xyz
  1  'x, y, z'
loop_
 _atom_site_type_symbol
 _atom_site_label
 _atom_site_symmetry_multiplicity
 _atom_site_fract_x
 _atom_site_fract_y
 _atom_site_fract_z
 _atom_site_occupancy
  Ni  Ni0  1  0.66299100  0.66299100  0.32598200  1
  Ni  Ni1  1  0.33700900  0.33700900  0.67401800  1
  Cu  Cu2  1  0.00000000  0.00000000  0.00000000  1
