# generated using pymatgen
data_Cu3Ni4C13
_symmetry_space_group_name_H-M   'P 1'
_cell_length_a   7.50231100
_cell_length_b   8.04103879
_cell_length_c   10.39981231
_cell_angle_alpha   102.67996413
_cell_angle_beta   104.27476718
_cell_angle_gamma   94.51169596
_symmetry_Int_Tables_number   1
_chemical_formula_structural   Cu3Ni4C13
_chemical_formula_sum   'Cu6 Ni8 C26'
_cell_volume   587.30445340
_cell_formula_units_Z   2
loop_
 _symmetry_equiv_pos_site_id
 _symmetry_equiv_pos_as_xyz
  1  'x, y, z'
loop_
 _atom_site_type_symbol
 _atom_site_label
 _atom_site_symmetry_multiplicity
 _atom_site_fract_x
 _atom_site_fract_y
 _atom_site_fract_z
 _atom_site_occupancy
  Ni  Ni0  1  0.81465500  0.30910100  0.03431100  1
  Ni  Ni1  1  0.18534500  0.69089900  0.96568900  1
  Ni  Ni2  1  0.35698900  0.03695700  0.13742200  1
  Ni  Ni3  1  0.64301100  0.96304300  0.86257800  1
  Ni  Ni4  1  0.86435400  0.03601100  0.66342700  1
  Ni  Ni5  1  0.13564600  0.96398900  0.33657300  1
  Ni  Ni6  1  0.33098500  0.30425500  0.50666900  1
  Ni  Ni7  1  0.66901500  0.69574500  0.49333100  1
  Cu  Cu8  1  0.79440600  0.27446500  0.38276800  1
  Cu  Cu9  1  0.20559400  0.72553500  0.61723200  1
  Cu  Cu10  1  0.31586200  0.26117300  0.84644200  1
  Cu  Cu11  1  0.68413800  0.73882700  0.15355800  1
  Cu  Cu12  1  0.24585700  0.47716700  0.22637800  1
  Cu  Cu13  1  0.75414300  0.52283300  0.77362200  1
  C  C14  1  0.33948100  0.61139300  0.05291100  1
  C  C15  1  0.66051900  0.38860700  0.94708900  1
  C  C16  1  0.83933900  0.37850900  0.18848500  1
  C  C17  1  0.16066100  0.62149100  0.81151500  1
  C  C18  1  0.99541700  0.31625500  0.99419300  1
  C  C19  1  0.00458300  0.68374500  0.00580700  1
  C  C20  1  0.27103200  0.89591800  0.99610500  1
  C  C21  1  0.72896800  0.10408200  0.00389500  1
  C  C22  1  0.36850700  0.20962900  0.10309900  1
  C  C23  1  0.63149300  0.79037100  0.89690100  1
  C  C24  1  0.53578500  0.98891100  0.21633300  1
  C  C25  1  0.46421500  0.01108900  0.78366700  1
  C  C26  1  0.19883200  0.02785800  0.21575600  1
  C  C27  1  0.80116800  0.97214200  0.78424400  1
  C  C28  1  0.42260500  0.34888400  0.66198700  1
  C  C29  1  0.57739500  0.65111600  0.33801300  1
  C  C30  1  0.15536600  0.39155300  0.46960000  1
  C  C31  1  0.84463400  0.60844700  0.53040000  1
  C  C32  1  0.53988800  0.67657300  0.58309600  1
  C  C33  1  0.46011200  0.32342700  0.41690400  1
  C  C34  1  0.25947000  0.09573200  0.47347500  1
  C  C35  1  0.74053000  0.90426800  0.52652500  1
  C  C36  1  0.06611800  0.00598000  0.68743500  1
  C  C37  1  0.93388200  0.99402000  0.31256500  1
  C  C38  1  0.82348400  0.21341300  0.65417200  1
  C  C39  1  0.17651600  0.78658700  0.34582800  1
