# generated using pymatgen
data_Cu8NiC2
_symmetry_space_group_name_H-M   'P 1'
_cell_length_a   11.65332900
_cell_length_b   10.96870400
_cell_length_c   23.02612171
_cell_angle_alpha   76.93046539
_cell_angle_beta   90.00000000
_cell_angle_gamma   90.00000000
_symmetry_Int_Tables_number   1
_chemical_formula_structural   Cu8NiC2
_chemical_formula_sum   'Cu64 Ni8 C16'
_cell_volume   2867.00225357
_cell_formula_units_Z   8
loop_
 _symmetry_equiv_pos_site_id
 _symmetry_equiv_pos_as_xyz
  1  'x, y, z'
loop_
 _atom_site_type_symbol
 _atom_site_label
 _atom_site_symmetry_multiplicity
 _atom_site_fract_x
 _atom_site_fract_y
 _atom_site_fract_z
 _atom_site_occupancy
  C  C0  1  0.12569900  0.07510000  0.62908700  1
  C  C1  1  0.62569900  0.92490000  0.87091300  1
  C  C2  1  0.87430100  0.92490000  0.37091300  1
  C  C3  1  0.37430100  0.07510000  0.12908700  1
  C  C4  1  0.60904900  0.58738700  0.64183600  1
  C  C5  1  0.10904900  0.41261300  0.85816400  1
  C  C6  1  0.39095100  0.41261300  0.35816400  1
  C  C7  1  0.89095100  0.58738700  0.14183600  1
  Ni  Ni8  1  0.59293500  0.08425100  0.62148900  1
  Ni  Ni9  1  0.09293500  0.91574900  0.87851100  1
  Ni  Ni10  1  0.40706500  0.91574900  0.37851100  1
  Ni  Ni11  1  0.90706500  0.08425100  0.12148900  1
  Ni  Ni12  1  0.14939900  0.56940400  0.60443200  1
  Ni  Ni13  1  0.64939900  0.43059600  0.89556800  1
  Ni  Ni14  1  0.85060100  0.43059600  0.39556800  1
  Ni  Ni15  1  0.35060100  0.56940400  0.10443200  1
  Cu  Cu16  1  0.00125000  0.13391800  0.69977300  1
  Cu  Cu17  1  0.50125000  0.86608200  0.80022700  1
  Cu  Cu18  1  0.99875000  0.86608200  0.30022700  1
  Cu  Cu19  1  0.49875000  0.13391800  0.19977300  1
  Cu  Cu20  1  0.20148100  0.91419100  0.70749400  1
  Cu  Cu21  1  0.70148100  0.08580900  0.79250600  1
  Cu  Cu22  1  0.79851900  0.08580900  0.29250600  1
  Cu  Cu23  1  0.29851900  0.91419100  0.20749400  1
  Cu  Cu24  1  0.26572800  0.22754200  0.62779600  1
  Cu  Cu25  1  0.76572800  0.77245800  0.87220400  1
  Cu  Cu26  1  0.73427200  0.77245800  0.37220400  1
  Cu  Cu27  1  0.23427200  0.22754200  0.12779600  1
  Cu  Cu28  1  0.21002100  0.96516800  0.56158600  1
  Cu  Cu29  1  0.71002100  0.03483200  0.93841400  1
  Cu  Cu30  1  0.78997900  0.03483200  0.43841400  1
  Cu  Cu31  1  0.28997900  0.96516800  0.06158600  1
  Cu  Cu32  1  0.01280300  0.19001800  0.54977900  1
  Cu  Cu33  1  0.51280300  0.80998200  0.95022100  1
  Cu  Cu34  1  0.98719700  0.80998200  0.45022100  1
  Cu  Cu35  1  0.48719700  0.19001800  0.04977900  1
  Cu  Cu36  1  0.93520700  0.88980900  0.62881200  1
  Cu  Cu37  1  0.43520700  0.11019100  0.87118800  1
  Cu  Cu38  1  0.06479300  0.11019100  0.37118800  1
  Cu  Cu39  1  0.56479300  0.88980900  0.12881200  1
  Cu  Cu40  1  0.54249400  0.42779900  0.72333700  1
  Cu  Cu41  1  0.04249400  0.57220100  0.77666300  1
  Cu  Cu42  1  0.45750600  0.57220100  0.27666300  1
  Cu  Cu43  1  0.95750600  0.42779900  0.22333700  1
  Cu  Cu44  1  0.71568700  0.69884500  0.55927400  1
  Cu  Cu45  1  0.21568700  0.30115500  0.94072600  1
  Cu  Cu46  1  0.28431300  0.30115500  0.44072600  1
  Cu  Cu47  1  0.78431300  0.69884500  0.05927400  1
  Cu  Cu48  1  0.51990800  0.47224200  0.57817000  1
  Cu  Cu49  1  0.01990800  0.52775800  0.92183000  1
  Cu  Cu50  1  0.48009200  0.52775800  0.42183000  1
  Cu  Cu51  1  0.98009200  0.47224200  0.07817000  1
  Cu  Cu52  1  0.74101800  0.64830400  0.70846200  1
  Cu  Cu53  1  0.24101800  0.35169600  0.79153800  1
  Cu  Cu54  1  0.25898200  0.35169600  0.29153800  1
  Cu  Cu55  1  0.75898200  0.64830400  0.20846200  1
  Cu  Cu56  1  0.46916900  0.74012200  0.64071600  1
  Cu  Cu57  1  0.96916900  0.25987800  0.85928400  1
  Cu  Cu58  1  0.53083100  0.25987800  0.35928400  1
  Cu  Cu59  1  0.03083100  0.74012200  0.14071600  1
  Cu  Cu60  1  0.79715700  0.39523600  0.63679300  1
  Cu  Cu61  1  0.29715700  0.60476400  0.86320700  1
  Cu  Cu62  1  0.20284300  0.60476400  0.36320700  1
  Cu  Cu63  1  0.70284300  0.39523600  0.13679300  1
  Cu  Cu64  1  0.78287700  0.98257800  0.62399900  1
  Cu  Cu65  1  0.28287700  0.01742200  0.87600100  1
  Cu  Cu66  1  0.21712300  0.01742200  0.37600100  1
  Cu  Cu67  1  0.71712300  0.98257800  0.12399900  1
  Cu  Cu68  1  0.52774900  0.14435700  0.54369100  1
  Cu  Cu69  1  0.02774900  0.85564300  0.95630900  1
  Cu  Cu70  1  0.47225100  0.85564300  0.45630900  1
  Cu  Cu71  1  0.97225100  0.14435700  0.04369100  1
  Cu  Cu72  1  0.95304300  0.48019500  0.62256800  1
  Cu  Cu73  1  0.45304300  0.51980500  0.87743200  1
  Cu  Cu74  1  0.04695700  0.51980500  0.37743200  1
  Cu  Cu75  1  0.54695700  0.48019500  0.12256800  1
  Cu  Cu76  1  0.20213500  0.57609500  0.52481500  1
  Cu  Cu77  1  0.70213500  0.42390500  0.97518500  1
  Cu  Cu78  1  0.79786500  0.42390500  0.47518500  1
  Cu  Cu79  1  0.29786500  0.57609500  0.02481500  1
  C  C80  1  0.53836400  0.09846500  0.66163000  1
  C  C81  1  0.03836400  0.90153500  0.83837000  1
  C  C82  1  0.46163600  0.90153500  0.33837000  1
  C  C83  1  0.96163600  0.09846500  0.16163000  1
  C  C84  1  0.21441600  0.59985400  0.63647000  1
  C  C85  1  0.71441600  0.40014600  0.86353000  1
  C  C86  1  0.78558400  0.40014600  0.36353000  1
  C  C87  1  0.28558400  0.59985400  0.13647000  1
