# generated using pymatgen
data_Cu3NiC27
_symmetry_space_group_name_H-M   'P 1'
_cell_length_a   3.71415143
_cell_length_b   6.49768428
_cell_length_c   17.36631785
_cell_angle_alpha   91.85215966
_cell_angle_beta   96.10927039
_cell_angle_gamma   89.92324565
_symmetry_Int_Tables_number   1
_chemical_formula_structural   Cu3NiC27
_chemical_formula_sum   'Cu3 Ni1 C27'
_cell_volume   416.50913301
_cell_formula_units_Z   1
loop_
 _symmetry_equiv_pos_site_id
 _symmetry_equiv_pos_as_xyz
  1  'x, y, z'
loop_
 _atom_site_type_symbol
 _atom_site_label
 _atom_site_symmetry_multiplicity
 _atom_site_fract_x
 _atom_site_fract_y
 _atom_site_fract_z
 _atom_site_occupancy
  Ni  Ni0  1  0.04724917  0.34638711  0.08998018  1
  Cu  Cu1  1  0.39182591  0.78094595  0.77453543  1
  Cu  Cu2  1  0.20969656  0.41352339  0.41756557  1
  Cu  Cu3  1  0.48124704  0.47800845  0.95718640  1
  C  C4  1  0.89512871  0.27913581  0.78572600  1
  C  C5  1  0.80023619  0.59532563  0.59890562  1
  C  C6  1  0.70778467  0.91318668  0.41537882  1
  C  C7  1  0.29910192  0.09925447  0.59866752  1
  C  C8  1  0.11789623  0.72437241  0.23270732  1
  C  C9  1  0.61929118  0.23208130  0.23875653  1
  C  C10  1  0.98444656  0.96562313  0.96744117  1
  C  C11  1  0.91698569  0.92620402  0.83536400  1
  C  C12  1  0.47105668  0.80158611  0.94076980  1
  C  C13  1  0.77617365  0.92236467  0.55177695  1
  C  C14  1  0.32651149  0.76933771  0.65080589  1
  C  C15  1  0.41896456  0.48078578  0.83397822  1
  C  C16  1  0.96063372  0.28984755  0.91939874  1
  C  C17  1  0.87089896  0.61654559  0.73749191  1
  C  C18  1  0.18474436  0.73917790  0.36859140  1
  C  C19  1  0.82455391  0.26877019  0.64782742  1
  C  C20  1  0.63706783  0.90024831  0.27359279  1
  C  C21  1  0.27511316  0.42892593  0.54861954  1
  C  C22  1  0.72972550  0.57496561  0.45852749  1
  C  C23  1  0.37147422  0.10216099  0.74286234  1
  C  C24  1  0.68551386  0.24677084  0.37177400  1
  C  C25  1  0.58601904  0.53702736  0.17575525  1
  C  C26  1  0.14302917  0.40806117  0.28629137  1
  C  C27  1  0.23030893  0.09418990  0.46082695  1
  C  C28  1  0.01110939  0.59246775  0.02048466  1
  C  C29  1  0.08579964  0.11083855  0.16988487  1
  C  C30  1  0.52066310  0.23843275  0.03854985  1
