# generated using pymatgen
data_CuNi15C4
_symmetry_space_group_name_H-M   'P 1'
_cell_length_a   3.61717200
_cell_length_b   3.61717200
_cell_length_c   17.89136400
_cell_angle_alpha   90.00000000
_cell_angle_beta   90.00000000
_cell_angle_gamma   90.00000000
_symmetry_Int_Tables_number   1
_chemical_formula_structural   CuNi15C4
_chemical_formula_sum   'Cu1 Ni15 C4'
_cell_volume   234.08941282
_cell_formula_units_Z   1
loop_
 _symmetry_equiv_pos_site_id
 _symmetry_equiv_pos_as_xyz
  1  'x, y, z'
loop_
 _atom_site_type_symbol
 _atom_site_label
 _atom_site_symmetry_multiplicity
 _atom_site_fract_x
 _atom_site_fract_y
 _atom_site_fract_z
 _atom_site_occupancy
  C  C0  1  0.00000000  0.00000000  0.20367200  1
  C  C1  1  0.00000000  0.00000000  0.39997300  1
  C  C2  1  0.00000000  0.00000000  0.60002700  1
  C  C3  1  0.00000000  0.00000000  0.79632800  1
  Ni  Ni4  1  0.50000000  0.50000000  0.00000000  1
  Ni  Ni5  1  0.50000000  0.50000000  0.20295000  1
  Ni  Ni6  1  0.50000000  0.50000000  0.40024500  1
  Ni  Ni7  1  0.50000000  0.50000000  0.59975500  1
  Ni  Ni8  1  0.50000000  0.50000000  0.79705000  1
  Ni  Ni9  1  0.50000000  0.00000000  0.10689100  1
  Ni  Ni10  1  0.50000000  0.00000000  0.30117500  1
  Ni  Ni11  1  0.50000000  0.00000000  0.50000000  1
  Ni  Ni12  1  0.50000000  0.00000000  0.69882500  1
  Ni  Ni13  1  0.50000000  0.00000000  0.89310900  1
  Ni  Ni14  1  0.00000000  0.50000000  0.10689100  1
  Ni  Ni15  1  0.00000000  0.50000000  0.30117500  1
  Ni  Ni16  1  0.00000000  0.50000000  0.50000000  1
  Ni  Ni17  1  0.00000000  0.50000000  0.69882500  1
  Ni  Ni18  1  0.00000000  0.50000000  0.89310900  1
  Cu  Cu19  1  0.00000000  0.00000000  0.00000000  1
