# generated using pymatgen
data_Cu6Ni
_symmetry_space_group_name_H-M   'P 1'
_cell_length_a   5.01014075
_cell_length_b   5.01014075
_cell_length_c   9.07717272
_cell_angle_alpha   100.67142386
_cell_angle_beta   100.67142386
_cell_angle_gamma   109.20864785
_symmetry_Int_Tables_number   1
_chemical_formula_structural   Cu6Ni
_chemical_formula_sum   'Cu12 Ni2'
_cell_volume   203.87340566
_cell_formula_units_Z   2
loop_
 _symmetry_equiv_pos_site_id
 _symmetry_equiv_pos_as_xyz
  1  'x, y, z'
loop_
 _atom_site_type_symbol
 _atom_site_label
 _atom_site_symmetry_multiplicity
 _atom_site_fract_x
 _atom_site_fract_y
 _atom_site_fract_z
 _atom_site_occupancy
  Ni  Ni0  1  0.37500000  0.12500000  0.25000000  1
  Ni  Ni1  1  0.62500000  0.87500000  0.75000000  1
  Cu  Cu2  1  0.03481600  0.78388600  0.08056000  1
  Cu  Cu3  1  0.20332600  0.95425700  0.41944000  1
  Cu  Cu4  1  0.71611400  0.46518400  0.41944000  1
  Cu  Cu5  1  0.54574300  0.29667400  0.08056000  1
  Cu  Cu6  1  0.96518400  0.21611400  0.91944000  1
  Cu  Cu7  1  0.79667400  0.04574300  0.58056000  1
  Cu  Cu8  1  0.28388600  0.53481600  0.58056000  1
  Cu  Cu9  1  0.45425700  0.70332600  0.91944000  1
  Cu  Cu10  1  0.12049800  0.37950200  0.25000000  1
  Cu  Cu11  1  0.62950200  0.87049800  0.25000000  1
  Cu  Cu12  1  0.87950200  0.62049800  0.75000000  1
  Cu  Cu13  1  0.37049800  0.12950200  0.75000000  1
