# generated using pymatgen
data_Cu17NiC13
_symmetry_space_group_name_H-M   'P 1'
_cell_length_a   5.65363838
_cell_length_b   5.65363838
_cell_length_c   22.86601100
_cell_angle_alpha   90.00000000
_cell_angle_beta   90.00000000
_cell_angle_gamma   119.94738482
_symmetry_Int_Tables_number   1
_chemical_formula_structural   Cu17NiC13
_chemical_formula_sum   'Cu34 Ni2 C26'
_cell_volume   633.29652581
_cell_formula_units_Z   2
loop_
 _symmetry_equiv_pos_site_id
 _symmetry_equiv_pos_as_xyz
  1  'x, y, z'
loop_
 _atom_site_type_symbol
 _atom_site_label
 _atom_site_symmetry_multiplicity
 _atom_site_fract_x
 _atom_site_fract_y
 _atom_site_fract_z
 _atom_site_occupancy
  C  C0  1  0.66754300  0.33379300  0.52472700  1
  C  C1  1  0.33379300  0.66754300  0.47527300  1
  C  C2  1  0.33379300  0.66754300  0.02472700  1
  C  C3  1  0.66754300  0.33379300  0.97527300  1
  C  C4  1  0.17101700  0.33593000  0.60645400  1
  C  C5  1  0.17122300  0.83505600  0.60650700  1
  C  C6  1  0.66804600  0.83409200  0.60658500  1
  C  C7  1  0.83409200  0.66804600  0.39341500  1
  C  C8  1  0.83505600  0.17122300  0.39349300  1
  C  C9  1  0.33593000  0.17101700  0.39354600  1
  C  C10  1  0.83409200  0.66804600  0.10658500  1
  C  C11  1  0.83505600  0.17122300  0.10650700  1
  C  C12  1  0.33593000  0.17101700  0.10645400  1
  C  C13  1  0.17101700  0.33593000  0.89354600  1
  C  C14  1  0.17122300  0.83505600  0.89349300  1
  C  C15  1  0.66804600  0.83409200  0.89341500  1
  C  C16  1  0.00123500  0.00123500  0.50000000  1
  C  C17  1  0.00123500  0.00123500  0.00000000  1
  C  C18  1  0.66676100  0.33343600  0.67544100  1
  C  C19  1  0.33343600  0.66676100  0.32455900  1
  C  C20  1  0.33343600  0.66676100  0.17544100  1
  C  C21  1  0.66676100  0.33343600  0.82455900  1
  C  C22  1  0.39934400  0.86670100  0.75000000  1
  C  C23  1  0.40064100  0.53196000  0.75000000  1
  C  C24  1  0.53196000  0.40064100  0.25000000  1
  C  C25  1  0.86670100  0.39934400  0.25000000  1
  Ni  Ni26  1  0.31146500  0.65554900  0.75000000  1
  Ni  Ni27  1  0.65554900  0.31146500  0.25000000  1
  Cu  Cu28  1  0.50209900  0.99898100  0.64417800  1
  Cu  Cu29  1  0.50215300  0.50323300  0.64402600  1
  Cu  Cu30  1  0.00765200  0.50392100  0.64609600  1
  Cu  Cu31  1  0.50392100  0.00765200  0.35390400  1
  Cu  Cu32  1  0.50323300  0.50215300  0.35597400  1
  Cu  Cu33  1  0.99898100  0.50209900  0.35582200  1
  Cu  Cu34  1  0.50392100  0.00765200  0.14609600  1
  Cu  Cu35  1  0.50323300  0.50215300  0.14402600  1
  Cu  Cu36  1  0.99898100  0.50209900  0.14417800  1
  Cu  Cu37  1  0.50209900  0.99898100  0.85582200  1
  Cu  Cu38  1  0.50215300  0.50323300  0.85597400  1
  Cu  Cu39  1  0.00765200  0.50392100  0.85390400  1
  Cu  Cu40  1  0.00300600  0.00146600  0.64067900  1
  Cu  Cu41  1  0.00146600  0.00300600  0.35932100  1
  Cu  Cu42  1  0.00146600  0.00300600  0.14067900  1
  Cu  Cu43  1  0.00300600  0.00146600  0.85932100  1
  Cu  Cu44  1  0.62275100  0.31218400  0.75000000  1
  Cu  Cu45  1  0.31218400  0.62275100  0.25000000  1
  Cu  Cu46  1  0.84507500  0.68614500  0.54943900  1
  Cu  Cu47  1  0.84492500  0.15911700  0.54973700  1
  Cu  Cu48  1  0.31546800  0.15772800  0.54925800  1
  Cu  Cu49  1  0.15772800  0.31546800  0.45074200  1
  Cu  Cu50  1  0.15911700  0.84492500  0.45026300  1
  Cu  Cu51  1  0.68614500  0.84507500  0.45056100  1
  Cu  Cu52  1  0.15772800  0.31546800  0.04925800  1
  Cu  Cu53  1  0.15911700  0.84492500  0.04973700  1
  Cu  Cu54  1  0.68614500  0.84507500  0.04943900  1
  Cu  Cu55  1  0.84507500  0.68614500  0.95056100  1
  Cu  Cu56  1  0.84492500  0.15911700  0.95026300  1
  Cu  Cu57  1  0.31546800  0.15772800  0.95074200  1
  Cu  Cu58  1  0.33354500  0.66705700  0.55540300  1
  Cu  Cu59  1  0.66705700  0.33354500  0.44459700  1
  Cu  Cu60  1  0.66705700  0.33354500  0.05540300  1
  Cu  Cu61  1  0.33354500  0.66705700  0.94459700  1
