# generated using pymatgen
data_Cu2NiC16
_symmetry_space_group_name_H-M   'P 1'
_cell_length_a   10.09423266
_cell_length_b   10.09423266
_cell_length_c   5.09553000
_cell_angle_alpha   90.00000000
_cell_angle_beta   90.00000000
_cell_angle_gamma   90.13380550
_symmetry_Int_Tables_number   1
_chemical_formula_structural   Cu2NiC16
_chemical_formula_sum   'Cu4 Ni2 C32'
_cell_volume   519.20013854
_cell_formula_units_Z   2
loop_
 _symmetry_equiv_pos_site_id
 _symmetry_equiv_pos_as_xyz
  1  'x, y, z'
loop_
 _atom_site_type_symbol
 _atom_site_label
 _atom_site_symmetry_multiplicity
 _atom_site_fract_x
 _atom_site_fract_y
 _atom_site_fract_z
 _atom_site_occupancy
  Ni  Ni0  1  0.50000000  0.50000000  0.50000000  1
  Ni  Ni1  1  0.00000000  0.00000000  0.50000000  1
  Cu  Cu2  1  0.00000000  0.50000000  0.50000000  1
  Cu  Cu3  1  0.50000000  0.00000000  0.50000000  1
  Cu  Cu4  1  0.75000000  0.75000000  0.50000000  1
  Cu  Cu5  1  0.25000000  0.25000000  0.50000000  1
  C  C6  1  0.75032800  0.02061400  0.99716100  1
  C  C7  1  0.24967200  0.97938600  0.00283900  1
  C  C8  1  0.25032800  0.52061400  0.00283900  1
  C  C9  1  0.74967200  0.47938600  0.99716100  1
  C  C10  1  0.02061400  0.75032800  0.00283900  1
  C  C11  1  0.97938600  0.24967200  0.99716100  1
  C  C12  1  0.52061400  0.25032800  0.99716100  1
  C  C13  1  0.47938600  0.74967200  0.00283900  1
  C  C14  1  0.87029200  0.12970800  0.15196100  1
  C  C15  1  0.37627100  0.87627100  0.16579400  1
  C  C16  1  0.12372900  0.62372900  0.16579400  1
  C  C17  1  0.62970800  0.37029200  0.15196100  1
  C  C18  1  0.12970800  0.87029200  0.84803900  1
  C  C19  1  0.62372900  0.12372900  0.83420600  1
  C  C20  1  0.87627100  0.37627100  0.83420600  1
  C  C21  1  0.37029200  0.62970800  0.84803900  1
  C  C22  1  0.56870200  0.67704300  0.25360000  1
  C  C23  1  0.05853700  0.32777400  0.26012500  1
  C  C24  1  0.44146300  0.17222600  0.26012500  1
  C  C25  1  0.93129800  0.82295700  0.25360000  1
  C  C26  1  0.43129800  0.32295700  0.74640000  1
  C  C27  1  0.94146300  0.67222600  0.73987500  1
  C  C28  1  0.55853700  0.82777400  0.73987500  1
  C  C29  1  0.06870200  0.17704300  0.74640000  1
  C  C30  1  0.67704300  0.56870200  0.74640000  1
  C  C31  1  0.32777400  0.05853700  0.73987500  1
  C  C32  1  0.17222600  0.44146300  0.73987500  1
  C  C33  1  0.82295700  0.93129800  0.74640000  1
  C  C34  1  0.32295700  0.43129800  0.25360000  1
  C  C35  1  0.67222600  0.94146300  0.26012500  1
  C  C36  1  0.82777400  0.55853700  0.26012500  1
  C  C37  1  0.17704300  0.06870200  0.25360000  1
