# generated using pymatgen
data_CuNiC7
_symmetry_space_group_name_H-M   'P 1'
_cell_length_a   5.61522524
_cell_length_b   5.60661001
_cell_length_c   8.62769792
_cell_angle_alpha   70.91045461
_cell_angle_beta   70.94011008
_cell_angle_gamma   89.80298295
_symmetry_Int_Tables_number   1
_chemical_formula_structural   CuNiC7
_chemical_formula_sum   'Cu2 Ni2 C14'
_cell_volume   240.98182205
_cell_formula_units_Z   2
loop_
 _symmetry_equiv_pos_site_id
 _symmetry_equiv_pos_as_xyz
  1  'x, y, z'
loop_
 _atom_site_type_symbol
 _atom_site_label
 _atom_site_symmetry_multiplicity
 _atom_site_fract_x
 _atom_site_fract_y
 _atom_site_fract_z
 _atom_site_occupancy
  Ni  Ni0  1  0.99988000  0.00406000  0.99375000  1
  Ni  Ni1  1  0.50308100  0.50009700  0.99353300  1
  Cu  Cu2  1  0.24622500  0.24856400  0.50580800  1
  Cu  Cu3  1  0.74773600  0.74461300  0.50707000  1
  C  C4  1  0.36959900  0.86965900  0.26059700  1
  C  C5  1  0.86255300  0.36288600  0.27425300  1
  C  C6  1  0.12568300  0.62595100  0.74990700  1
  C  C7  1  0.62809600  0.12885900  0.73529600  1
  C  C8  1  0.50417700  0.00307500  0.99564900  1
  C  C9  1  0.00395900  0.50625800  0.99255000  1
  C  C10  1  0.40409600  0.90377600  0.68189000  1
  C  C11  1  0.91550000  0.41410400  0.68495700  1
  C  C12  1  0.91423700  0.90510100  0.68235500  1
  C  C13  1  0.40456100  0.41130600  0.68488700  1
  C  C14  1  0.60106500  0.10162600  0.31209500  1
  C  C15  1  0.08506300  0.58538900  0.31458800  1
  C  C16  1  0.08558500  0.09986400  0.31416700  1
  C  C17  1  0.59890100  0.58480800  0.31664500  1
