# generated using pymatgen
data_CuNiC3
_symmetry_space_group_name_H-M   'P 1'
_cell_length_a   5.41677100
_cell_length_b   5.52184300
_cell_length_c   7.81910300
_cell_angle_alpha   90.00000000
_cell_angle_beta   90.00000000
_cell_angle_gamma   90.00000000
_symmetry_Int_Tables_number   1
_chemical_formula_structural   CuNiC3
_chemical_formula_sum   'Cu4 Ni4 C12'
_cell_volume   233.87374183
_cell_formula_units_Z   4
loop_
 _symmetry_equiv_pos_site_id
 _symmetry_equiv_pos_as_xyz
  1  'x, y, z'
loop_
 _atom_site_type_symbol
 _atom_site_label
 _atom_site_symmetry_multiplicity
 _atom_site_fract_x
 _atom_site_fract_y
 _atom_site_fract_z
 _atom_site_occupancy
  Ni  Ni0  1  0.51441400  0.54603700  0.25000000  1
  Ni  Ni1  1  0.98558600  0.04603700  0.25000000  1
  Ni  Ni2  1  0.48558600  0.45396300  0.75000000  1
  Ni  Ni3  1  0.01441400  0.95396300  0.75000000  1
  Cu  Cu4  1  0.00000000  0.50000000  0.00000000  1
  Cu  Cu5  1  0.50000000  0.00000000  0.50000000  1
  Cu  Cu6  1  0.00000000  0.50000000  0.50000000  1
  Cu  Cu7  1  0.50000000  0.00000000  0.00000000  1
  C  C8  1  0.39401600  0.94860300  0.25000000  1
  C  C9  1  0.10598400  0.44860300  0.25000000  1
  C  C10  1  0.60598400  0.05139700  0.75000000  1
  C  C11  1  0.89401600  0.55139700  0.75000000  1
  C  C12  1  0.80347900  0.80091000  0.05791900  1
  C  C13  1  0.69652100  0.30091000  0.44208100  1
  C  C14  1  0.19652100  0.19909000  0.55791900  1
  C  C15  1  0.30347900  0.69909000  0.94208100  1
  C  C16  1  0.19652100  0.19909000  0.94208100  1
  C  C17  1  0.30347900  0.69909000  0.55791900  1
  C  C18  1  0.80347900  0.80091000  0.44208100  1
  C  C19  1  0.69652100  0.30091000  0.05791900  1
