# generated using pymatgen
data_Cu(NiC5)3
_symmetry_space_group_name_H-M   'P 1'
_cell_length_a   10.09073921
_cell_length_b   10.09073921
_cell_length_c   10.09073921
_cell_angle_alpha   109.47122063
_cell_angle_beta   109.47122063
_cell_angle_gamma   109.47122063
_symmetry_Int_Tables_number   1
_chemical_formula_structural   Cu(NiC5)3
_chemical_formula_sum   'Cu4 Ni12 C60'
_cell_volume   790.94640424
_cell_formula_units_Z   4
loop_
 _symmetry_equiv_pos_site_id
 _symmetry_equiv_pos_as_xyz
  1  'x, y, z'
loop_
 _atom_site_type_symbol
 _atom_site_label
 _atom_site_symmetry_multiplicity
 _atom_site_fract_x
 _atom_site_fract_y
 _atom_site_fract_z
 _atom_site_occupancy
  Ni  Ni0  1  0.39152500  0.14152500  0.25000000  1
  Ni  Ni1  1  0.75000000  0.10847500  0.35847500  1
  Ni  Ni2  1  0.25000000  0.39152500  0.14152500  1
  Ni  Ni3  1  0.35847500  0.75000000  0.10847500  1
  Ni  Ni4  1  0.10847500  0.35847500  0.75000000  1
  Ni  Ni5  1  0.14152500  0.25000000  0.39152500  1
  Ni  Ni6  1  0.64152500  0.25000000  0.89152500  1
  Ni  Ni7  1  0.25000000  0.89152500  0.64152500  1
  Ni  Ni8  1  0.60847500  0.85847500  0.75000000  1
  Ni  Ni9  1  0.89152500  0.64152500  0.25000000  1
  Ni  Ni10  1  0.85847500  0.75000000  0.60847500  1
  Ni  Ni11  1  0.75000000  0.60847500  0.85847500  1
  Cu  Cu12  1  0.50000000  0.00000000  0.50000000  1
  Cu  Cu13  1  0.00000000  0.00000000  0.00000000  1
  Cu  Cu14  1  0.00000000  0.50000000  0.50000000  1
  Cu  Cu15  1  0.50000000  0.50000000  0.00000000  1
  C  C16  1  0.62912800  0.37912800  0.25000000  1
  C  C17  1  0.87087200  0.12087200  0.75000000  1
  C  C18  1  0.25000000  0.62912800  0.37912800  1
  C  C19  1  0.62087200  0.75000000  0.37087200  1
  C  C20  1  0.37912800  0.25000000  0.62912800  1
  C  C21  1  0.37087200  0.62087200  0.75000000  1
  C  C22  1  0.25000000  0.12912800  0.87912800  1
  C  C23  1  0.12912800  0.87912800  0.25000000  1
  C  C24  1  0.75000000  0.37087200  0.62087200  1
  C  C25  1  0.87912800  0.25000000  0.12912800  1
  C  C26  1  0.75000000  0.87087200  0.12087200  1
  C  C27  1  0.12087200  0.75000000  0.87087200  1
  C  C28  1  0.57737800  0.89489700  0.37668500  1
  C  C29  1  0.37668500  0.57737800  0.89489700  1
  C  C30  1  0.29930800  0.31752000  0.92262200  1
  C  C31  1  0.48178800  0.60510300  0.18248000  1
  C  C32  1  0.30217200  0.89417900  0.02799900  1
  C  C33  1  0.12331500  0.01821200  0.20069200  1
  C  C34  1  0.36618000  0.27417400  0.47200100  1
  C  C35  1  0.89489700  0.37668500  0.57737800  1
  C  C36  1  0.19782800  0.22582600  0.59200700  1
  C  C37  1  0.47200100  0.36618000  0.27417400  1
  C  C38  1  0.89417900  0.02799900  0.30217200  1
  C  C39  1  0.60582100  0.90799300  0.13382000  1
  C  C40  1  0.90799300  0.13382000  0.60582100  1
  C  C41  1  0.27417400  0.47200100  0.36618000  1
  C  C42  1  0.59200700  0.19782800  0.22582600  1
  C  C43  1  0.22582600  0.59200700  0.19782800  1
  C  C44  1  0.02799900  0.30217200  0.89417900  1
  C  C45  1  0.92262200  0.29930800  0.31752000  1
  C  C46  1  0.01821200  0.20069200  0.12331500  1
  C  C47  1  0.80217200  0.77417400  0.40799300  1
  C  C48  1  0.18248000  0.48178800  0.60510300  1
  C  C49  1  0.60510300  0.18248000  0.48178800  1
  C  C50  1  0.20069200  0.12331500  0.01821200  1
  C  C51  1  0.13382000  0.60582100  0.90799300  1
  C  C52  1  0.42262200  0.10510300  0.62331500  1
  C  C53  1  0.62331500  0.42262200  0.10510300  1
  C  C54  1  0.70069200  0.68248000  0.07737800  1
  C  C55  1  0.51821200  0.39489700  0.81752000  1
  C  C56  1  0.69782800  0.10582100  0.97200100  1
  C  C57  1  0.87668500  0.98178800  0.79930800  1
  C  C58  1  0.63382000  0.72582600  0.52799900  1
  C  C59  1  0.10510300  0.62331500  0.42262200  1
  C  C60  1  0.86618000  0.39417900  0.09200700  1
  C  C61  1  0.79930800  0.87668500  0.98178800  1
  C  C62  1  0.39489700  0.81752000  0.51821200  1
  C  C63  1  0.68248000  0.07737800  0.70069200  1
  C  C64  1  0.81752000  0.51821200  0.39489700  1
  C  C65  1  0.98178800  0.79930800  0.87668500  1
  C  C66  1  0.07737800  0.70069200  0.68248000  1
  C  C67  1  0.97200100  0.69782800  0.10582100  1
  C  C68  1  0.77417400  0.40799300  0.80217200  1
  C  C69  1  0.40799300  0.80217200  0.77417400  1
  C  C70  1  0.72582600  0.52799900  0.63382000  1
  C  C71  1  0.09200700  0.86618000  0.39417900  1
  C  C72  1  0.39417900  0.09200700  0.86618000  1
  C  C73  1  0.10582100  0.97200100  0.69782800  1
  C  C74  1  0.52799900  0.63382000  0.72582600  1
  C  C75  1  0.31752000  0.92262200  0.29930800  1
