# generated using pymatgen
data_Cu10Ni2C3
_symmetry_space_group_name_H-M   'P 1'
_cell_length_a   14.06920400
_cell_length_b   5.20481100
_cell_length_c   6.88316913
_cell_angle_alpha   70.19836679
_cell_angle_beta   90.00000000
_cell_angle_gamma   90.00000000
_symmetry_Int_Tables_number   1
_chemical_formula_structural   Cu10Ni2C3
_chemical_formula_sum   'Cu20 Ni4 C6'
_cell_volume   474.23441399
_cell_formula_units_Z   2
loop_
 _symmetry_equiv_pos_site_id
 _symmetry_equiv_pos_as_xyz
  1  'x, y, z'
loop_
 _atom_site_type_symbol
 _atom_site_label
 _atom_site_symmetry_multiplicity
 _atom_site_fract_x
 _atom_site_fract_y
 _atom_site_fract_z
 _atom_site_occupancy
  C  C0  1  0.65007100  0.78296600  0.08038800  1
  C  C1  1  0.15007100  0.21703400  0.41961200  1
  C  C2  1  0.34992900  0.21703400  0.91961200  1
  C  C3  1  0.84992900  0.78296600  0.58038800  1
  C  C4  1  0.50000000  0.00000000  0.50000000  1
  C  C5  1  0.00000000  0.00000000  0.00000000  1
  Ni  Ni6  1  0.59938200  0.44525200  0.70095900  1
  Ni  Ni7  1  0.09938200  0.55474800  0.79904100  1
  Ni  Ni8  1  0.40061800  0.55474800  0.29904100  1
  Ni  Ni9  1  0.90061800  0.44525200  0.20095900  1
  Cu  Cu10  1  0.65782700  0.37301700  0.88711000  1
  Cu  Cu11  1  0.15782700  0.62698300  0.61289000  1
  Cu  Cu12  1  0.34217300  0.62698300  0.11289000  1
  Cu  Cu13  1  0.84217300  0.37301700  0.38711000  1
  Cu  Cu14  1  0.53684600  0.20698300  0.71031200  1
  Cu  Cu15  1  0.03684600  0.79301700  0.78968800  1
  Cu  Cu16  1  0.46315400  0.79301700  0.28968800  1
  Cu  Cu17  1  0.96315400  0.20698300  0.21031200  1
  Cu  Cu18  1  0.52884300  0.66819500  0.71711900  1
  Cu  Cu19  1  0.02884300  0.33180500  0.78288100  1
  Cu  Cu20  1  0.47115700  0.33180500  0.28288100  1
  Cu  Cu21  1  0.97115700  0.66819500  0.21711900  1
  Cu  Cu22  1  0.65357200  0.54934100  0.50794300  1
  Cu  Cu23  1  0.15357200  0.45065900  0.99205700  1
  Cu  Cu24  1  0.34642800  0.45065900  0.49205700  1
  Cu  Cu25  1  0.84642800  0.54934100  0.00794300  1
  Cu  Cu26  1  0.61495500  0.03517200  0.39688200  1
  Cu  Cu27  1  0.11495500  0.96482800  0.10311800  1
  Cu  Cu28  1  0.38504500  0.96482800  0.60311800  1
  Cu  Cu29  1  0.88504500  0.03517200  0.89688200  1
