# generated using pymatgen
data_Cu2NiC13
_symmetry_space_group_name_H-M   'P 1'
_cell_length_a   15.24082335
_cell_length_b   15.23598537
_cell_length_c   3.81686703
_cell_angle_alpha   82.87753408
_cell_angle_beta   82.73342978
_cell_angle_gamma   14.38903614
_symmetry_Int_Tables_number   1
_chemical_formula_structural   Cu2NiC13
_chemical_formula_sum   'Cu2 Ni1 C13'
_cell_volume   218.47936577
_cell_formula_units_Z   1
loop_
 _symmetry_equiv_pos_site_id
 _symmetry_equiv_pos_as_xyz
  1  'x, y, z'
loop_
 _atom_site_type_symbol
 _atom_site_label
 _atom_site_symmetry_multiplicity
 _atom_site_fract_x
 _atom_site_fract_y
 _atom_site_fract_z
 _atom_site_occupancy
  C  C0  1  0.59180000  0.57757900  0.42242100  1
  C  C1  1  0.42242100  0.40820000  0.59180000  1
  C  C2  1  0.70473200  0.70352100  0.29647900  1
  C  C3  1  0.29647900  0.29526800  0.70473200  1
  Ni  Ni4  1  0.04439200  0.95560800  0.04439200  1
  Cu  Cu5  1  0.14983900  0.14586000  0.85414000  1
  Cu  Cu6  1  0.85414000  0.85016100  0.14983900  1
  C  C7  1  0.21913300  0.21828800  0.78171200  1
  C  C8  1  0.78171200  0.78086700  0.21913300  1
  C  C9  1  0.47888400  0.52111600  0.47888400  1
  C  C10  1  0.65110300  0.64745600  0.85221500  1
  C  C11  1  0.15077500  0.14778500  0.35254400  1
  C  C12  1  0.35254400  0.34889700  0.15077500  1
  C  C13  1  0.85221500  0.84922500  0.65110300  1
  C  C14  1  0.07154800  0.06971700  0.93028300  1
  C  C15  1  0.93028300  0.92845200  0.07154800  1
