# generated using pymatgen
data_Cu9Ni2C
_symmetry_space_group_name_H-M   'P 1'
_cell_length_a   6.98653901
_cell_length_b   6.98653901
_cell_length_c   6.98653978
_cell_angle_alpha   43.59887683
_cell_angle_beta   43.59887683
_cell_angle_gamma   43.59887171
_symmetry_Int_Tables_number   1
_chemical_formula_structural   Cu9Ni2C
_chemical_formula_sum   'Cu9 Ni2 C1'
_cell_volume   147.17775005
_cell_formula_units_Z   1
loop_
 _symmetry_equiv_pos_site_id
 _symmetry_equiv_pos_as_xyz
  1  'x, y, z'
loop_
 _atom_site_type_symbol
 _atom_site_label
 _atom_site_symmetry_multiplicity
 _atom_site_fract_x
 _atom_site_fract_y
 _atom_site_fract_z
 _atom_site_occupancy
  C  C0  1  0.21917400  0.21917400  0.21917400  1
  Ni  Ni1  1  0.78285400  0.78285400  0.78285400  1
  Ni  Ni2  1  0.99970700  0.99970700  0.99970700  1
  Cu  Cu3  1  0.50592600  0.50592600  0.99382700  1
  Cu  Cu4  1  0.50592600  0.99382700  0.50592600  1
  Cu  Cu5  1  0.99382700  0.50592600  0.50592600  1
  Cu  Cu6  1  0.75913600  0.28225000  0.28225000  1
  Cu  Cu7  1  0.28225000  0.28225000  0.75913600  1
  Cu  Cu8  1  0.28225000  0.75913600  0.28225000  1
  Cu  Cu9  1  0.23630100  0.71632500  0.71632500  1
  Cu  Cu10  1  0.71632500  0.71632500  0.23630100  1
  Cu  Cu11  1  0.71632500  0.23630100  0.71632500  1
