# generated using pymatgen
data_Cu(NiC17)2
_symmetry_space_group_name_H-M   'P 1'
_cell_length_a   8.70432467
_cell_length_b   8.76232969
_cell_length_c   8.75228785
_cell_angle_alpha   59.96810095
_cell_angle_beta   59.93887942
_cell_angle_gamma   59.83630670
_symmetry_Int_Tables_number   1
_chemical_formula_structural   Cu(NiC17)2
_chemical_formula_sum   'Cu1 Ni2 C34'
_cell_volume   471.10330002
_cell_formula_units_Z   1
loop_
 _symmetry_equiv_pos_site_id
 _symmetry_equiv_pos_as_xyz
  1  'x, y, z'
loop_
 _atom_site_type_symbol
 _atom_site_label
 _atom_site_symmetry_multiplicity
 _atom_site_fract_x
 _atom_site_fract_y
 _atom_site_fract_z
 _atom_site_occupancy
  C  C0  1  0.74582300  0.75186300  0.75229300  1
  C  C1  1  0.11119600  0.62899900  0.62915500  1
  C  C2  1  0.38321500  0.87165000  0.87202100  1
  C  C3  1  0.93725300  0.35511900  0.35290900  1
  Ni  Ni4  1  0.97786100  0.00819000  0.00469900  1
  Ni  Ni5  1  0.50472300  0.49866900  0.50025500  1
  Cu  Cu6  1  0.56997800  0.14257500  0.14392000  1
  C  C7  1  0.25233000  0.24590000  0.53826100  1
  C  C8  1  0.25190400  0.96318400  0.24588100  1
  C  C9  1  0.25459400  0.53736900  0.96133900  1
  C  C10  1  0.74997500  0.45358800  0.05027800  1
  C  C11  1  0.75326500  0.04897200  0.74591500  1
  C  C12  1  0.75133800  0.74709700  0.45311100  1
  C  C13  1  0.07278700  0.11724800  0.32032100  1
  C  C14  1  0.07498500  0.48811800  0.11496600  1
  C  C15  1  0.07306800  0.32134400  0.48796800  1
  C  C16  1  0.21214200  0.09676100  0.74010100  1
  C  C17  1  0.43014700  0.17088400  0.39820600  1
  C  C18  1  0.27079300  0.40484000  0.55816300  1
  C  C19  1  0.20971800  0.94990400  0.09775200  1
  C  C20  1  0.27226500  0.76578700  0.40553100  1
  C  C21  1  0.57515600  0.62208400  0.99907400  1
  C  C22  1  0.27560900  0.55371100  0.76379100  1
  C  C23  1  0.77352300  0.26437100  0.06103800  1
  C  C24  1  0.57790700  0.99817400  0.80566400  1
  C  C25  1  0.43040700  0.00117500  0.16913000  1
  C  C26  1  0.21387500  0.74036900  0.94555000  1
  C  C27  1  0.73403500  0.44295600  0.24102600  1
  C  C28  1  0.43229100  0.39763100  0.00087500  1
  C  C29  1  0.73642000  0.24021800  0.58346300  1
  C  C30  1  0.77961600  0.05713900  0.90161800  1
  C  C31  1  0.73701800  0.58352000  0.44091800  1
  C  C32  1  0.57685300  0.80415300  0.62154100  1
  C  C33  1  0.77384600  0.90404300  0.26479500  1
  C  C34  1  0.92214000  0.68097000  0.51482500  1
  C  C35  1  0.92085000  0.51504100  0.88455200  1
  C  C36  1  0.92327400  0.88353000  0.67909300  1
