# generated using pymatgen
data_Cu3Ni8C3
_symmetry_space_group_name_H-M   'P 1'
_cell_length_a   7.67160733
_cell_length_b   7.67160733
_cell_length_c   19.87896832
_cell_angle_alpha   82.68367484
_cell_angle_beta   82.68367484
_cell_angle_gamma   64.32134951
_symmetry_Int_Tables_number   1
_chemical_formula_structural   Cu3Ni8C3
_chemical_formula_sum   'Cu6 Ni16 C6'
_cell_volume   1042.40398575
_cell_formula_units_Z   2
loop_
 _symmetry_equiv_pos_site_id
 _symmetry_equiv_pos_as_xyz
  1  'x, y, z'
loop_
 _atom_site_type_symbol
 _atom_site_label
 _atom_site_symmetry_multiplicity
 _atom_site_fract_x
 _atom_site_fract_y
 _atom_site_fract_z
 _atom_site_occupancy
  C  C0  1  0.00000000  0.00000000  0.00000000  1
  C  C1  1  0.00000000  0.00000000  0.50000000  1
  C  C2  1  0.61013700  0.61993000  0.19194600  1
  C  C3  1  0.38986300  0.38007000  0.80805400  1
  C  C4  1  0.38007000  0.38986300  0.30805400  1
  C  C5  1  0.61993000  0.61013700  0.69194600  1
  Ni  Ni6  1  0.33775500  0.75119100  0.12576000  1
  Ni  Ni7  1  0.66224500  0.24880900  0.87424000  1
  Ni  Ni8  1  0.24880900  0.66224500  0.37424000  1
  Ni  Ni9  1  0.75119100  0.33775500  0.62576000  1
  Ni  Ni10  1  0.49579100  0.10742000  0.24705800  1
  Ni  Ni11  1  0.50420900  0.89258000  0.75294200  1
  Ni  Ni12  1  0.89258000  0.50420900  0.25294200  1
  Ni  Ni13  1  0.10742000  0.49579100  0.74705800  1
  Ni  Ni14  1  0.79435400  0.85295600  0.06317500  1
  Ni  Ni15  1  0.20564600  0.14704400  0.93682500  1
  Ni  Ni16  1  0.14704400  0.20564600  0.43682500  1
  Ni  Ni17  1  0.85295600  0.79435400  0.56317500  1
  Ni  Ni18  1  0.71696100  0.15872000  0.43090100  1
  Ni  Ni19  1  0.28303900  0.84128000  0.56909900  1
  Ni  Ni20  1  0.84128000  0.28303900  0.06909900  1
  Ni  Ni21  1  0.15872000  0.71696100  0.93090100  1
  Cu  Cu22  1  0.67583700  0.68837000  0.41438600  1
  Cu  Cu23  1  0.32416300  0.31163000  0.58561400  1
  Cu  Cu24  1  0.31163000  0.32416300  0.08561400  1
  Cu  Cu25  1  0.68837000  0.67583700  0.91438600  1
  Cu  Cu26  1  0.98578000  0.01422000  0.25000000  1
  Cu  Cu27  1  0.01422000  0.98578000  0.75000000  1
