# generated using pymatgen
data_Cu9NiC2
_symmetry_space_group_name_H-M   'P 1'
_cell_length_a   7.01042000
_cell_length_b   8.64164300
_cell_length_c   14.10497500
_cell_angle_alpha   90.00000000
_cell_angle_beta   90.00000000
_cell_angle_gamma   90.00000000
_symmetry_Int_Tables_number   1
_chemical_formula_structural   Cu9NiC2
_chemical_formula_sum   'Cu36 Ni4 C8'
_cell_volume   854.50120477
_cell_formula_units_Z   4
loop_
 _symmetry_equiv_pos_site_id
 _symmetry_equiv_pos_as_xyz
  1  'x, y, z'
loop_
 _atom_site_type_symbol
 _atom_site_label
 _atom_site_symmetry_multiplicity
 _atom_site_fract_x
 _atom_site_fract_y
 _atom_site_fract_z
 _atom_site_occupancy
  C  C0  1  0.00632800  0.21197800  0.41125300  1
  C  C1  1  0.50632800  0.78802200  0.58874700  1
  C  C2  1  0.50632800  0.28802200  0.91125300  1
  C  C3  1  0.00632800  0.71197800  0.08874700  1
  C  C4  1  0.98680200  0.71522600  0.41484900  1
  C  C5  1  0.48680200  0.28477400  0.58515100  1
  C  C6  1  0.48680200  0.78477400  0.91484900  1
  C  C7  1  0.98680200  0.21522600  0.08515100  1
  Ni  Ni8  1  0.01001900  0.86717200  0.74574500  1
  Ni  Ni9  1  0.51001900  0.13282800  0.25425500  1
  Ni  Ni10  1  0.51001900  0.63282800  0.24574500  1
  Ni  Ni11  1  0.01001900  0.36717200  0.75425500  1
  Cu  Cu12  1  0.93580200  0.51237300  0.36747900  1
  Cu  Cu13  1  0.43580200  0.48762700  0.63252100  1
  Cu  Cu14  1  0.43580200  0.98762700  0.86747900  1
  Cu  Cu15  1  0.93580200  0.01237300  0.13252100  1
  Cu  Cu16  1  0.05852100  0.91025900  0.46903800  1
  Cu  Cu17  1  0.55852100  0.08974100  0.53096200  1
  Cu  Cu18  1  0.55852100  0.58974100  0.96903800  1
  Cu  Cu19  1  0.05852100  0.41025900  0.03096200  1
  Cu  Cu20  1  0.35108600  0.86883600  0.02349700  1
  Cu  Cu21  1  0.85108600  0.13116400  0.97650300  1
  Cu  Cu22  1  0.85108600  0.63116400  0.52349700  1
  Cu  Cu23  1  0.35108600  0.36883600  0.47650300  1
  Cu  Cu24  1  0.15357900  0.77771300  0.30840000  1
  Cu  Cu25  1  0.65357900  0.22228700  0.69160000  1
  Cu  Cu26  1  0.65357900  0.72228700  0.80840000  1
  Cu  Cu27  1  0.15357900  0.27771300  0.19160000  1
  Cu  Cu28  1  0.25473700  0.68710500  0.45257600  1
  Cu  Cu29  1  0.75473700  0.31289500  0.54742400  1
  Cu  Cu30  1  0.75473700  0.81289500  0.95257600  1
  Cu  Cu31  1  0.25473700  0.18710500  0.04742400  1
  Cu  Cu32  1  0.23361900  0.71968600  0.87334900  1
  Cu  Cu33  1  0.73361900  0.28031400  0.12665100  1
  Cu  Cu34  1  0.73361900  0.78031400  0.37334900  1
  Cu  Cu35  1  0.23361900  0.21968600  0.62665100  1
  Cu  Cu36  1  0.52901600  0.83026900  0.19485500  1
  Cu  Cu37  1  0.02901600  0.16973100  0.80514500  1
  Cu  Cu38  1  0.02901600  0.66973100  0.69485500  1
  Cu  Cu39  1  0.52901600  0.33026900  0.30514500  1
  Cu  Cu40  1  0.27645300  0.57962300  0.19684100  1
  Cu  Cu41  1  0.77645300  0.42037700  0.80315900  1
  Cu  Cu42  1  0.77645300  0.92037700  0.69684100  1
  Cu  Cu43  1  0.27645300  0.07962300  0.30315900  1
  Cu  Cu44  1  0.67863700  0.55054000  0.15850300  1
  Cu  Cu45  1  0.17863700  0.44946000  0.84149700  1
  Cu  Cu46  1  0.17863700  0.94946000  0.65850300  1
  Cu  Cu47  1  0.67863700  0.05054000  0.34149700  1
