# generated using pymatgen
data_Cu2NiC5
_symmetry_space_group_name_H-M   'P 1'
_cell_length_a   6.88500594
_cell_length_b   6.86404788
_cell_length_c   5.59604219
_cell_angle_alpha   66.17882668
_cell_angle_beta   65.78681786
_cell_angle_gamma   48.03435545
_symmetry_Int_Tables_number   1
_chemical_formula_structural   Cu2NiC5
_chemical_formula_sum   'Cu2 Ni1 C5'
_cell_volume   176.03403288
_cell_formula_units_Z   1
loop_
 _symmetry_equiv_pos_site_id
 _symmetry_equiv_pos_as_xyz
  1  'x, y, z'
loop_
 _atom_site_type_symbol
 _atom_site_label
 _atom_site_symmetry_multiplicity
 _atom_site_fract_x
 _atom_site_fract_y
 _atom_site_fract_z
 _atom_site_occupancy
  Ni  Ni0  1  0.00906900  0.00906900  0.99093100  1
  Cu  Cu1  1  0.23933800  0.23933800  0.26066200  1
  Cu  Cu2  1  0.73933800  0.73933800  0.76066200  1
  C  C3  1  0.50559800  0.50559800  0.49440200  1
  C  C4  1  0.10646600  0.62781900  0.37218100  1
  C  C5  1  0.62781900  0.10646600  0.89353400  1
  C  C6  1  0.37936500  0.89300700  0.62063500  1
  C  C7  1  0.89300700  0.37936500  0.10699300  1
