# generated using pymatgen
data_CuNi4C
_symmetry_space_group_name_H-M   'P 1'
_cell_length_a   7.22428300
_cell_length_b   8.74258800
_cell_length_c   10.53455000
_cell_angle_alpha   90.00000000
_cell_angle_beta   90.00000000
_cell_angle_gamma   90.00000000
_symmetry_Int_Tables_number   1
_chemical_formula_structural   CuNi4C
_chemical_formula_sum   'Cu4 Ni16 C4'
_cell_volume   665.35090460
_cell_formula_units_Z   4
loop_
 _symmetry_equiv_pos_site_id
 _symmetry_equiv_pos_as_xyz
  1  'x, y, z'
loop_
 _atom_site_type_symbol
 _atom_site_label
 _atom_site_symmetry_multiplicity
 _atom_site_fract_x
 _atom_site_fract_y
 _atom_site_fract_z
 _atom_site_occupancy
  C  C0  1  0.24547500  0.24903900  0.62321100  1
  C  C1  1  0.24547500  0.75096100  0.37678900  1
  C  C2  1  0.75452500  0.25096100  0.12321100  1
  C  C3  1  0.75452500  0.74903900  0.87678900  1
  Ni  Ni4  1  0.42804900  0.89344000  0.65704500  1
  Ni  Ni5  1  0.42804900  0.10656000  0.34295500  1
  Ni  Ni6  1  0.57195100  0.60656000  0.15704500  1
  Ni  Ni7  1  0.57195100  0.39344000  0.84295500  1
  Ni  Ni8  1  0.94313600  0.11485600  0.84793200  1
  Ni  Ni9  1  0.94313600  0.88514400  0.15206800  1
  Ni  Ni10  1  0.05686400  0.38514400  0.34793200  1
  Ni  Ni11  1  0.05686400  0.61485600  0.65206800  1
  Ni  Ni12  1  0.64902200  0.01899200  0.59937400  1
  Ni  Ni13  1  0.64902200  0.98100800  0.40062600  1
  Ni  Ni14  1  0.35097800  0.48100800  0.09937400  1
  Ni  Ni15  1  0.35097800  0.51899200  0.90062600  1
  Ni  Ni16  1  0.16422500  0.11412900  0.96685300  1
  Ni  Ni17  1  0.16422500  0.88587100  0.03314700  1
  Ni  Ni18  1  0.83577500  0.38587100  0.46685300  1
  Ni  Ni19  1  0.83577500  0.61412900  0.53314700  1
  Cu  Cu20  1  0.29327400  0.50000000  0.50000000  1
  Cu  Cu21  1  0.70672600  0.00000000  0.00000000  1
  Cu  Cu22  1  0.19009200  0.00000000  0.50000000  1
  Cu  Cu23  1  0.80990800  0.50000000  0.00000000  1
