# generated using pymatgen
data_CuNiC11
_symmetry_space_group_name_H-M   'P 1'
_cell_length_a   14.63966200
_cell_length_b   5.16816400
_cell_length_c   9.32675501
_cell_angle_alpha   75.29505362
_cell_angle_beta   90.00000000
_cell_angle_gamma   90.00000000
_symmetry_Int_Tables_number   1
_chemical_formula_structural   CuNiC11
_chemical_formula_sum   'Cu4 Ni4 C44'
_cell_volume   682.55048069
_cell_formula_units_Z   4
loop_
 _symmetry_equiv_pos_site_id
 _symmetry_equiv_pos_as_xyz
  1  'x, y, z'
loop_
 _atom_site_type_symbol
 _atom_site_label
 _atom_site_symmetry_multiplicity
 _atom_site_fract_x
 _atom_site_fract_y
 _atom_site_fract_z
 _atom_site_occupancy
  C  C0  1  0.32365300  0.18744300  0.18679500  1
  C  C1  1  0.82365300  0.81255700  0.31320500  1
  C  C2  1  0.67634700  0.81255700  0.81320500  1
  C  C3  1  0.17634700  0.18744300  0.68679500  1
  Ni  Ni4  1  0.12878100  0.77211900  0.38252000  1
  Ni  Ni5  1  0.62878100  0.22788100  0.11748000  1
  Ni  Ni6  1  0.87121900  0.22788100  0.61748000  1
  Ni  Ni7  1  0.37121900  0.77211900  0.88252000  1
  Cu  Cu8  1  0.04514700  0.24295200  0.03886900  1
  Cu  Cu9  1  0.54514700  0.75704800  0.46113100  1
  Cu  Cu10  1  0.95485300  0.75704800  0.96113100  1
  Cu  Cu11  1  0.45485300  0.24295200  0.53886900  1
  C  C12  1  0.17164600  0.74347300  0.03638200  1
  C  C13  1  0.67164600  0.25652700  0.46361800  1
  C  C14  1  0.82835400  0.25652700  0.96361800  1
  C  C15  1  0.32835400  0.74347300  0.53638200  1
  C  C16  1  0.00635000  0.30796100  0.32142300  1
  C  C17  1  0.50635000  0.69203900  0.17857700  1
  C  C18  1  0.99365000  0.69203900  0.67857700  1
  C  C19  1  0.49365000  0.30796100  0.82142300  1
  C  C20  1  0.24474800  0.88287100  0.44464500  1
  C  C21  1  0.74474800  0.11712900  0.05535500  1
  C  C22  1  0.75525200  0.11712900  0.55535500  1
  C  C23  1  0.25525200  0.88287100  0.94464500  1
  C  C24  1  0.18896400  0.76406000  0.19677800  1
  C  C25  1  0.68896400  0.23594000  0.30322200  1
  C  C26  1  0.81103600  0.23594000  0.80322200  1
  C  C27  1  0.31103600  0.76406000  0.69677800  1
  C  C28  1  0.08635700  0.91663500  0.96787500  1
  C  C29  1  0.58635700  0.08336500  0.53212500  1
  C  C30  1  0.91364300  0.08336500  0.03212500  1
  C  C31  1  0.41364300  0.91663500  0.46787500  1
  C  C32  1  0.16476400  0.44980300  0.02910600  1
  C  C33  1  0.66476400  0.55019700  0.47089400  1
  C  C34  1  0.83523600  0.55019700  0.97089400  1
  C  C35  1  0.33523600  0.44980300  0.52910600  1
  C  C36  1  0.98698900  0.50717100  0.17074600  1
  C  C37  1  0.48698900  0.49282900  0.32925400  1
  C  C38  1  0.01301100  0.49282900  0.82925400  1
  C  C39  1  0.51301100  0.50717100  0.67074600  1
  C  C40  1  0.04739400  0.05742400  0.27527900  1
  C  C41  1  0.54739400  0.94257600  0.22472100  1
  C  C42  1  0.95260600  0.94257600  0.72472100  1
  C  C43  1  0.45260600  0.05742400  0.77527900  1
  C  C44  1  0.07898900  0.41221800  0.41409100  1
  C  C45  1  0.57898900  0.58778200  0.08590900  1
  C  C46  1  0.92101100  0.58778200  0.58590900  1
  C  C47  1  0.42101100  0.41221800  0.91409100  1
  C  C48  1  0.91863300  0.22473000  0.41240500  1
  C  C49  1  0.41863300  0.77527000  0.08759500  1
  C  C50  1  0.08136700  0.77527000  0.58759500  1
  C  C51  1  0.58136700  0.22473000  0.91240500  1
