# generated using pymatgen
data_Cu3Ni3C13
_symmetry_space_group_name_H-M   'P 1'
_cell_length_a   10.05227294
_cell_length_b   10.05227294
_cell_length_c   10.31903800
_cell_angle_alpha   90.00000000
_cell_angle_beta   90.00000000
_cell_angle_gamma   120.00000617
_symmetry_Int_Tables_number   1
_chemical_formula_structural   Cu3Ni3C13
_chemical_formula_sum   'Cu9 Ni9 C39'
_cell_volume   903.02206105
_cell_formula_units_Z   3
loop_
 _symmetry_equiv_pos_site_id
 _symmetry_equiv_pos_as_xyz
  1  'x, y, z'
loop_
 _atom_site_type_symbol
 _atom_site_label
 _atom_site_symmetry_multiplicity
 _atom_site_fract_x
 _atom_site_fract_y
 _atom_site_fract_z
 _atom_site_occupancy
  C  C0  1  0.00000000  0.00000000  0.83928600  1
  C  C1  1  0.00000000  0.00000000  0.16071400  1
  C  C2  1  0.66666700  0.33333300  0.82225000  1
  C  C3  1  0.66666700  0.33333300  0.17775000  1
  C  C4  1  0.66666700  0.33333300  0.50000000  1
  C  C5  1  0.00000000  0.00000000  0.50000000  1
  Ni  Ni6  1  0.92513700  0.28162700  0.00000000  1
  Ni  Ni7  1  0.35649000  0.07486300  0.00000000  1
  Ni  Ni8  1  0.71837300  0.64351000  0.00000000  1
  Ni  Ni9  1  0.74037200  0.04954100  0.64933500  1
  Ni  Ni10  1  0.30916900  0.25962800  0.64933500  1
  Ni  Ni11  1  0.74037200  0.04954100  0.35066500  1
  Ni  Ni12  1  0.95045900  0.69083100  0.64933500  1
  Ni  Ni13  1  0.30916900  0.25962800  0.35066500  1
  Ni  Ni14  1  0.95045900  0.69083100  0.35066500  1
  Cu  Cu15  1  0.60738000  0.67176100  0.67881000  1
  Cu  Cu16  1  0.06438100  0.39262000  0.67881000  1
  Cu  Cu17  1  0.60738000  0.67176100  0.32119000  1
  Cu  Cu18  1  0.32823900  0.93561900  0.67881000  1
  Cu  Cu19  1  0.06438100  0.39262000  0.32119000  1
  Cu  Cu20  1  0.32823900  0.93561900  0.32119000  1
  Cu  Cu21  1  0.58788100  0.93779200  0.00000000  1
  Cu  Cu22  1  0.34991000  0.41211900  0.00000000  1
  Cu  Cu23  1  0.06220800  0.65009000  0.00000000  1
  C  C24  1  0.65125100  0.90810600  0.75341300  1
  C  C25  1  0.25685400  0.34874900  0.75341300  1
  C  C26  1  0.65125100  0.90810600  0.24658700  1
  C  C27  1  0.09189400  0.74314600  0.75341300  1
  C  C28  1  0.25685400  0.34874900  0.24658700  1
  C  C29  1  0.09189400  0.74314600  0.24658700  1
  C  C30  1  0.98302500  0.40303700  0.87610700  1
  C  C31  1  0.42001200  0.01697500  0.87610700  1
  C  C32  1  0.98302500  0.40303700  0.12389300  1
  C  C33  1  0.59696300  0.57998800  0.87610700  1
  C  C34  1  0.42001200  0.01697500  0.12389300  1
  C  C35  1  0.59696300  0.57998800  0.12389300  1
  C  C36  1  0.70760100  0.96756800  0.50000000  1
  C  C37  1  0.25996700  0.29239900  0.50000000  1
  C  C38  1  0.03243200  0.74003300  0.50000000  1
  C  C39  1  0.83699400  0.82620400  0.00000000  1
  C  C40  1  0.98920900  0.16300600  0.00000000  1
  C  C41  1  0.17379600  0.01079100  0.00000000  1
  C  C42  1  0.69067900  0.17870000  0.65730200  1
  C  C43  1  0.48802200  0.30932100  0.65730200  1
  C  C44  1  0.69067900  0.17870000  0.34269800  1
  C  C45  1  0.82130000  0.51197800  0.65730200  1
  C  C46  1  0.48802200  0.30932100  0.34269800  1
  C  C47  1  0.82130000  0.51197800  0.34269800  1
  C  C48  1  0.73468700  0.19619500  0.00000000  1
  C  C49  1  0.46150900  0.26531300  0.00000000  1
  C  C50  1  0.80380500  0.53849100  0.00000000  1
  C  C51  1  0.92927600  0.12653200  0.66785700  1
  C  C52  1  0.19725600  0.07072400  0.66785700  1
  C  C53  1  0.92927600  0.12653200  0.33214300  1
  C  C54  1  0.87346800  0.80274400  0.66785700  1
  C  C55  1  0.19725600  0.07072400  0.33214300  1
  C  C56  1  0.87346800  0.80274400  0.33214300  1
