# generated using pymatgen
data_Cu4NiC14
_symmetry_space_group_name_H-M   'P 1'
_cell_length_a   7.24515051
_cell_length_b   7.24515051
_cell_length_c   19.70700232
_cell_angle_alpha   74.69516025
_cell_angle_beta   74.69516025
_cell_angle_gamma   59.75786449
_symmetry_Int_Tables_number   1
_chemical_formula_structural   Cu4NiC14
_chemical_formula_sum   'Cu16 Ni4 C56'
_cell_volume   851.26308195
_cell_formula_units_Z   4
loop_
 _symmetry_equiv_pos_site_id
 _symmetry_equiv_pos_as_xyz
  1  'x, y, z'
loop_
 _atom_site_type_symbol
 _atom_site_label
 _atom_site_symmetry_multiplicity
 _atom_site_fract_x
 _atom_site_fract_y
 _atom_site_fract_z
 _atom_site_occupancy
  C  C0  1  0.96728900  0.62236900  0.60237200  1
  C  C1  1  0.37763100  0.03271100  0.89762800  1
  C  C2  1  0.03271100  0.37763100  0.39762800  1
  C  C3  1  0.62236900  0.96728900  0.10237200  1
  Ni  Ni4  1  0.32316400  0.96856200  0.55958200  1
  Ni  Ni5  1  0.03143800  0.67683600  0.94041800  1
  Ni  Ni6  1  0.67683600  0.03143800  0.44041800  1
  Ni  Ni7  1  0.96856200  0.32316400  0.05958200  1
  Cu  Cu8  1  0.58421900  0.10882600  0.60236500  1
  Cu  Cu9  1  0.89117400  0.41578100  0.89763500  1
  Cu  Cu10  1  0.41578100  0.89117400  0.39763500  1
  Cu  Cu11  1  0.10882600  0.58421900  0.10236500  1
  Cu  Cu12  1  0.85584100  0.24761500  0.57146300  1
  Cu  Cu13  1  0.75238500  0.14415900  0.92853700  1
  Cu  Cu14  1  0.14415900  0.75238500  0.42853700  1
  Cu  Cu15  1  0.24761500  0.85584100  0.07146300  1
  Cu  Cu16  1  0.47479900  0.50611600  0.57700100  1
  Cu  Cu17  1  0.49388400  0.52520100  0.92299900  1
  Cu  Cu18  1  0.52520100  0.49388400  0.42299900  1
  Cu  Cu19  1  0.50611600  0.47479900  0.07700100  1
  Cu  Cu20  1  0.38245600  0.94667400  0.70552600  1
  Cu  Cu21  1  0.05332600  0.61754400  0.79447400  1
  Cu  Cu22  1  0.61754400  0.05332600  0.29447400  1
  Cu  Cu23  1  0.94667400  0.38245600  0.20552600  1
  C  C24  1  0.23581100  0.84364600  0.79863700  1
  C  C25  1  0.15635400  0.76418900  0.70136300  1
  C  C26  1  0.76418900  0.15635400  0.20136300  1
  C  C27  1  0.84364600  0.23581100  0.29863700  1
  C  C28  1  0.96985900  0.22182300  0.71578500  1
  C  C29  1  0.77817700  0.03014100  0.78421500  1
  C  C30  1  0.03014100  0.77817700  0.28421500  1
  C  C31  1  0.22182300  0.96985900  0.21578500  1
  C  C32  1  0.91751900  0.39627700  0.76130200  1
  C  C33  1  0.60372300  0.08248100  0.73869800  1
  C  C34  1  0.08248100  0.60372300  0.23869800  1
  C  C35  1  0.39627700  0.91751900  0.26130200  1
  C  C36  1  0.42272300  0.33947300  0.59349900  1
  C  C37  1  0.66052700  0.57727700  0.90650100  1
  C  C38  1  0.57727700  0.66052700  0.40650100  1
  C  C39  1  0.33947300  0.42272300  0.09349900  1
  C  C40  1  0.31460800  0.71120300  0.56330700  1
  C  C41  1  0.28879700  0.68539200  0.93669300  1
  C  C42  1  0.68539200  0.28879700  0.43669300  1
  C  C43  1  0.71120300  0.31460800  0.06330700  1
  C  C44  1  0.68980200  0.46267900  0.57155900  1
  C  C45  1  0.53732100  0.31019800  0.92844100  1
  C  C46  1  0.31019800  0.53732100  0.42844100  1
  C  C47  1  0.46267900  0.68980200  0.07155900  1
  C  C48  1  0.05945400  0.22794600  0.54877400  1
  C  C49  1  0.77205400  0.94054600  0.95122600  1
  C  C50  1  0.94054600  0.77205400  0.45122600  1
  C  C51  1  0.22794600  0.05945400  0.04877400  1
  C  C52  1  0.80867200  0.07911800  0.58989300  1
  C  C53  1  0.92088200  0.19132800  0.91010700  1
  C  C54  1  0.19132800  0.92088200  0.41010700  1
  C  C55  1  0.07911800  0.80867200  0.08989300  1
  C  C56  1  0.54922100  0.00166000  0.67688900  1
  C  C57  1  0.99834000  0.45077900  0.82311100  1
  C  C58  1  0.45077900  0.99834000  0.32311100  1
  C  C59  1  0.00166000  0.54922100  0.17688900  1
  C  C60  1  0.57781200  0.99383100  0.55176500  1
  C  C61  1  0.00616900  0.42218800  0.94823500  1
  C  C62  1  0.42218800  0.00616900  0.44823500  1
  C  C63  1  0.99383100  0.57781200  0.05176500  1
  C  C64  1  0.26126800  0.93949900  0.66479800  1
  C  C65  1  0.06050100  0.73873200  0.83520200  1
  C  C66  1  0.73873200  0.06050100  0.33520200  1
  C  C67  1  0.93949900  0.26126800  0.16479800  1
  C  C68  1  0.34275300  0.90224600  0.77958200  1
  C  C69  1  0.09775400  0.65724700  0.72041800  1
  C  C70  1  0.65724700  0.09775400  0.22041800  1
  C  C71  1  0.90224600  0.34275300  0.27958200  1
  C  C72  1  0.87994200  0.37461000  0.71954100  1
  C  C73  1  0.62539000  0.12005800  0.78045900  1
  C  C74  1  0.12005800  0.62539000  0.28045900  1
  C  C75  1  0.37461000  0.87994200  0.21954100  1
