# generated using pymatgen
data_Cu4Ni6C11
_symmetry_space_group_name_H-M   'P 1'
_cell_length_a   11.45576590
_cell_length_b   11.45576590
_cell_length_c   11.45576590
_cell_angle_alpha   120.04041027
_cell_angle_beta   120.04041027
_cell_angle_gamma   89.93002161
_symmetry_Int_Tables_number   1
_chemical_formula_structural   Cu4Ni6C11
_chemical_formula_sum   'Cu8 Ni12 C22'
_cell_volume   1062.40888440
_cell_formula_units_Z   2
loop_
 _symmetry_equiv_pos_site_id
 _symmetry_equiv_pos_as_xyz
  1  'x, y, z'
loop_
 _atom_site_type_symbol
 _atom_site_label
 _atom_site_symmetry_multiplicity
 _atom_site_fract_x
 _atom_site_fract_y
 _atom_site_fract_z
 _atom_site_occupancy
  C  C0  1  0.68530100  0.93503400  0.24973400  1
  C  C1  1  0.68530100  0.43556700  0.75026600  1
  C  C2  1  0.93503400  0.68530100  0.24973400  1
  C  C3  1  0.43556700  0.68530100  0.75026600  1
  C  C4  1  0.31469900  0.06496600  0.75026600  1
  C  C5  1  0.31469900  0.56443300  0.24973400  1
  C  C6  1  0.06496600  0.31469900  0.75026600  1
  C  C7  1  0.56443300  0.31469900  0.24973400  1
  C  C8  1  0.89815800  0.24374900  0.34559100  1
  C  C9  1  0.89815800  0.55256600  0.65440900  1
  C  C10  1  0.24374900  0.89815800  0.34559100  1
  C  C11  1  0.55256600  0.89815800  0.65440900  1
  C  C12  1  0.10184200  0.75625100  0.65440900  1
  C  C13  1  0.10184200  0.44743400  0.34559100  1
  C  C14  1  0.75625100  0.10184200  0.65440900  1
  C  C15  1  0.44743400  0.10184200  0.34559100  1
  C  C16  1  0.33072500  0.33072500  0.66144900  1
  C  C17  1  0.66927500  0.66927500  0.33855100  1
  C  C18  1  0.33072500  0.66927500  0.00000000  1
  C  C19  1  0.66927500  0.33072500  0.00000000  1
  C  C20  1  0.83131800  0.83131800  0.00000000  1
  C  C21  1  0.16868200  0.16868200  0.00000000  1
  Ni  Ni22  1  0.03447900  0.03447900  0.41128600  1
  Ni  Ni23  1  0.62319300  0.62319300  0.58871400  1
  Ni  Ni24  1  0.03447900  0.62319300  0.00000000  1
  Ni  Ni25  1  0.62319300  0.03447900  0.00000000  1
  Ni  Ni26  1  0.96552100  0.96552100  0.58871400  1
  Ni  Ni27  1  0.37680700  0.37680700  0.41128600  1
  Ni  Ni28  1  0.96552100  0.37680700  0.00000000  1
  Ni  Ni29  1  0.37680700  0.96552100  0.00000000  1
  Ni  Ni30  1  0.12885200  0.12885200  0.25770300  1
  Ni  Ni31  1  0.87114800  0.87114800  0.74229700  1
  Ni  Ni32  1  0.12885200  0.87114800  0.00000000  1
  Ni  Ni33  1  0.87114800  0.12885200  0.00000000  1
  Cu  Cu34  1  0.15245200  0.50000000  0.65245200  1
  Cu  Cu35  1  0.84754800  0.50000000  0.34754800  1
  Cu  Cu36  1  0.50000000  0.84754800  0.34754800  1
  Cu  Cu37  1  0.50000000  0.15245200  0.65245200  1
  Cu  Cu38  1  0.61649500  0.61649500  0.00000000  1
  Cu  Cu39  1  0.38350500  0.38350500  0.00000000  1
  Cu  Cu40  1  0.75000000  0.25000000  0.50000000  1
  Cu  Cu41  1  0.25000000  0.75000000  0.50000000  1
