# generated using pymatgen
data_CuNiC7
_symmetry_space_group_name_H-M   'P 1'
_cell_length_a   5.47864500
_cell_length_b   8.07208700
_cell_length_c   11.07007500
_cell_angle_alpha   90.00000000
_cell_angle_beta   90.00000000
_cell_angle_gamma   90.00000000
_symmetry_Int_Tables_number   1
_chemical_formula_structural   CuNiC7
_chemical_formula_sum   'Cu4 Ni4 C28'
_cell_volume   489.56409365
_cell_formula_units_Z   4
loop_
 _symmetry_equiv_pos_site_id
 _symmetry_equiv_pos_as_xyz
  1  'x, y, z'
loop_
 _atom_site_type_symbol
 _atom_site_label
 _atom_site_symmetry_multiplicity
 _atom_site_fract_x
 _atom_site_fract_y
 _atom_site_fract_z
 _atom_site_occupancy
  Ni  Ni0  1  0.25000000  0.25843200  0.40012800  1
  Ni  Ni1  1  0.75000000  0.74156800  0.59987200  1
  Ni  Ni2  1  0.25000000  0.74156800  0.90012800  1
  Ni  Ni3  1  0.75000000  0.25843200  0.09987200  1
  Cu  Cu4  1  0.25000000  0.81016200  0.36815200  1
  Cu  Cu5  1  0.75000000  0.18983800  0.63184800  1
  Cu  Cu6  1  0.25000000  0.18983800  0.86815200  1
  Cu  Cu7  1  0.75000000  0.81016200  0.13184800  1
  C  C8  1  0.25000000  0.49757100  0.15729600  1
  C  C9  1  0.75000000  0.50242900  0.84270400  1
  C  C10  1  0.25000000  0.50242900  0.65729600  1
  C  C11  1  0.75000000  0.49757100  0.34270400  1
  C  C12  1  0.25000000  0.02353600  0.12674800  1
  C  C13  1  0.75000000  0.97646400  0.87325200  1
  C  C14  1  0.25000000  0.97646400  0.62674800  1
  C  C15  1  0.75000000  0.02353600  0.37325200  1
  C  C16  1  0.25000000  0.28347200  0.64221300  1
  C  C17  1  0.75000000  0.71652800  0.35778700  1
  C  C18  1  0.25000000  0.71652800  0.14221300  1
  C  C19  1  0.75000000  0.28347200  0.85778700  1
  C  C20  1  0.00000000  0.03200200  0.25000000  1
  C  C21  1  0.00000000  0.96799800  0.75000000  1
  C  C22  1  0.50000000  0.96799800  0.75000000  1
  C  C23  1  0.50000000  0.03200200  0.25000000  1
  C  C24  1  0.00000000  0.44019900  0.25000000  1
  C  C25  1  0.00000000  0.55980100  0.75000000  1
  C  C26  1  0.50000000  0.55980100  0.75000000  1
  C  C27  1  0.50000000  0.44019900  0.25000000  1
  C  C28  1  0.00000000  0.00000000  0.00000000  1
  C  C29  1  0.50000000  0.00000000  0.00000000  1
  C  C30  1  0.50000000  0.00000000  0.50000000  1
  C  C31  1  0.00000000  0.00000000  0.50000000  1
  C  C32  1  0.25000000  0.37464300  0.02666000  1
  C  C33  1  0.75000000  0.62535700  0.97334000  1
  C  C34  1  0.25000000  0.62535700  0.52666000  1
  C  C35  1  0.75000000  0.37464300  0.47334000  1
