# generated using pymatgen
data_Cu2Ni11C10
_symmetry_space_group_name_H-M   'P 1'
_cell_length_a   16.23163100
_cell_length_b   16.23163100
_cell_length_c   3.60557700
_cell_angle_alpha   90.00000000
_cell_angle_beta   90.00000000
_cell_angle_gamma   90.00000000
_symmetry_Int_Tables_number   1
_chemical_formula_structural   Cu2Ni11C10
_chemical_formula_sum   'Cu4 Ni22 C20'
_cell_volume   949.94639073
_cell_formula_units_Z   2
loop_
 _symmetry_equiv_pos_site_id
 _symmetry_equiv_pos_as_xyz
  1  'x, y, z'
loop_
 _atom_site_type_symbol
 _atom_site_label
 _atom_site_symmetry_multiplicity
 _atom_site_fract_x
 _atom_site_fract_y
 _atom_site_fract_z
 _atom_site_occupancy
  Ni  Ni0  1  0.50000000  0.50000000  0.50000000  1
  Ni  Ni1  1  0.00000000  0.00000000  0.00000000  1
  Ni  Ni2  1  0.98947200  0.79361700  0.50000000  1
  Ni  Ni3  1  0.01052800  0.20638300  0.50000000  1
  Ni  Ni4  1  0.51052800  0.29361700  0.00000000  1
  Ni  Ni5  1  0.48947200  0.70638300  0.00000000  1
  Ni  Ni6  1  0.79361700  0.98947200  0.50000000  1
  Ni  Ni7  1  0.20638300  0.01052800  0.50000000  1
  Ni  Ni8  1  0.29361700  0.51052800  0.00000000  1
  Ni  Ni9  1  0.70638300  0.48947200  0.00000000  1
  Ni  Ni10  1  0.66722800  0.66722800  0.50000000  1
  Ni  Ni11  1  0.33277200  0.33277200  0.50000000  1
  Ni  Ni12  1  0.83277200  0.16722800  0.00000000  1
  Ni  Ni13  1  0.16722800  0.83277200  0.00000000  1
  Ni  Ni14  1  0.36576100  0.87268600  0.50000000  1
  Ni  Ni15  1  0.63423900  0.12731400  0.50000000  1
  Ni  Ni16  1  0.13423900  0.37268600  0.00000000  1
  Ni  Ni17  1  0.86576100  0.62731400  0.00000000  1
  Ni  Ni18  1  0.87268600  0.36576100  0.50000000  1
  Ni  Ni19  1  0.12731400  0.63423900  0.50000000  1
  Ni  Ni20  1  0.37268600  0.13423900  0.00000000  1
  Ni  Ni21  1  0.62731400  0.86576100  0.00000000  1
  Cu  Cu22  1  0.32571500  0.67428500  0.50000000  1
  Cu  Cu23  1  0.67428500  0.32571500  0.50000000  1
  Cu  Cu24  1  0.17428500  0.17428500  0.00000000  1
  Cu  Cu25  1  0.82571500  0.82571500  0.00000000  1
  C  C26  1  0.08840100  0.91159900  0.50000000  1
  C  C27  1  0.91159900  0.08840100  0.50000000  1
  C  C28  1  0.41159900  0.41159900  0.00000000  1
  C  C29  1  0.58840100  0.58840100  0.00000000  1
  C  C30  1  0.42745000  0.21181600  0.50000000  1
  C  C31  1  0.57255000  0.78818400  0.50000000  1
  C  C32  1  0.07255000  0.71181600  0.00000000  1
  C  C33  1  0.92745000  0.28818400  0.00000000  1
  C  C34  1  0.21181600  0.42745000  0.50000000  1
  C  C35  1  0.78818400  0.57255000  0.50000000  1
  C  C36  1  0.71181600  0.07255000  0.00000000  1
  C  C37  1  0.28818400  0.92745000  0.00000000  1
  C  C38  1  0.27181100  0.72818900  0.50000000  1
  C  C39  1  0.72818900  0.27181100  0.50000000  1
  C  C40  1  0.22818900  0.22818900  0.00000000  1
  C  C41  1  0.77181100  0.77181100  0.00000000  1
  C  C42  1  0.38011700  0.61988300  0.50000000  1
  C  C43  1  0.61988300  0.38011700  0.50000000  1
  C  C44  1  0.11988300  0.11988300  0.00000000  1
  C  C45  1  0.88011700  0.88011700  0.00000000  1
