# generated using pymatgen
data_Cu9(NiC3)2
_symmetry_space_group_name_H-M   'P 1'
_cell_length_a   8.52796058
_cell_length_b   6.45639153
_cell_length_c   10.80342850
_cell_angle_alpha   82.75839887
_cell_angle_beta   106.10055314
_cell_angle_gamma   87.04992358
_symmetry_Int_Tables_number   1
_chemical_formula_structural   Cu9(NiC3)2
_chemical_formula_sum   'Cu18 Ni4 C12'
_cell_volume   564.60950634
_cell_formula_units_Z   2
loop_
 _symmetry_equiv_pos_site_id
 _symmetry_equiv_pos_as_xyz
  1  'x, y, z'
loop_
 _atom_site_type_symbol
 _atom_site_label
 _atom_site_symmetry_multiplicity
 _atom_site_fract_x
 _atom_site_fract_y
 _atom_site_fract_z
 _atom_site_occupancy
  C  C0  1  0.29816800  0.13659300  0.23570500  1
  C  C1  1  0.70183200  0.86340700  0.76429500  1
  C  C2  1  0.66070500  0.09400300  0.46431200  1
  C  C3  1  0.33929500  0.90599700  0.53568800  1
  C  C4  1  0.28375100  0.82585300  0.04452400  1
  C  C5  1  0.71624900  0.17414700  0.95547600  1
  C  C6  1  0.08203800  0.28453300  0.98349700  1
  C  C7  1  0.91796200  0.71546700  0.01650300  1
  C  C8  1  0.44083800  0.36571600  0.60308500  1
  C  C9  1  0.55916200  0.63428400  0.39691500  1
  C  C10  1  0.16943900  0.51809900  0.30657500  1
  C  C11  1  0.83056100  0.48190100  0.69342500  1
  Ni  Ni12  1  0.60027500  0.41330400  0.17848700  1
  Ni  Ni13  1  0.39972500  0.58669600  0.82151300  1
  Ni  Ni14  1  0.04259400  0.11658300  0.66857300  1
  Ni  Ni15  1  0.95740600  0.88341700  0.33142700  1
  Cu  Cu16  1  0.56208100  0.05956600  0.61543700  1
  Cu  Cu17  1  0.43791900  0.94043400  0.38456200  1
  Cu  Cu18  1  0.19199200  0.10576200  0.62339400  1
  Cu  Cu19  1  0.80800800  0.89423800  0.37660600  1
  Cu  Cu20  1  0.53596200  0.64194000  0.15772200  1
  Cu  Cu21  1  0.46403800  0.35806000  0.84227800  1
  Cu  Cu22  1  0.92759000  0.73351700  0.22714700  1
  Cu  Cu23  1  0.07241000  0.26648300  0.77285300  1
  Cu  Cu24  1  0.10160200  0.76257300  0.43579100  1
  Cu  Cu25  1  0.89839800  0.23742700  0.56420900  1
  Cu  Cu26  1  0.67772000  0.36436800  0.32584100  1
  Cu  Cu27  1  0.32228000  0.63563200  0.67415900  1
  Cu  Cu28  1  0.47088000  0.27357000  0.13712800  1
  Cu  Cu29  1  0.52912000  0.72643000  0.86287200  1
  Cu  Cu30  1  0.72599100  0.38864500  0.10964100  1
  Cu  Cu31  1  0.27400900  0.61135500  0.89035900  1
  Cu  Cu32  1  0.00006100  0.08599200  0.28284000  1
  Cu  Cu33  1  0.99993900  0.91400800  0.71716000  1
