# generated using pymatgen
data_Cu2NiC11
_symmetry_space_group_name_H-M   'P 1'
_cell_length_a   8.46458864
_cell_length_b   8.46458864
_cell_length_c   8.46458864
_cell_angle_alpha   125.12487167
_cell_angle_beta   106.76546622
_cell_angle_gamma   97.82714298
_symmetry_Int_Tables_number   1
_chemical_formula_structural   Cu2NiC11
_chemical_formula_sum   'Cu4 Ni2 C22'
_cell_volume   438.18196558
_cell_formula_units_Z   2
loop_
 _symmetry_equiv_pos_site_id
 _symmetry_equiv_pos_as_xyz
  1  'x, y, z'
loop_
 _atom_site_type_symbol
 _atom_site_label
 _atom_site_symmetry_multiplicity
 _atom_site_fract_x
 _atom_site_fract_y
 _atom_site_fract_z
 _atom_site_occupancy
  Ni  Ni0  1  0.75000000  0.25000000  0.50000000  1
  Ni  Ni1  1  0.25000000  0.75000000  0.50000000  1
  Cu  Cu2  1  0.68086300  0.63363400  0.31449700  1
  Cu  Cu3  1  0.31913700  0.36636600  0.68550300  1
  Cu  Cu4  1  0.18086300  0.86636600  0.04723000  1
  Cu  Cu5  1  0.81913700  0.13363400  0.95277000  1
  C  C6  1  0.70548800  0.89130300  0.33994300  1
  C  C7  1  0.29451200  0.10869700  0.66005700  1
  C  C8  1  0.55136000  0.36554500  0.66005700  1
  C  C9  1  0.94864000  0.60869700  0.81418500  1
  C  C10  1  0.44864000  0.63445500  0.33994300  1
  C  C11  1  0.05136000  0.39130300  0.18581500  1
  C  C12  1  0.79451200  0.13445500  0.18581500  1
  C  C13  1  0.20548800  0.86554500  0.81418500  1
  C  C14  1  0.50000000  0.50000000  0.00000000  1
  C  C15  1  0.00000000  0.00000000  0.00000000  1
  C  C16  1  0.77932700  0.87052500  0.64985200  1
  C  C17  1  0.22067300  0.12947500  0.35014800  1
  C  C18  1  0.27932700  0.62947500  0.90880300  1
  C  C19  1  0.72067300  0.37052500  0.09119700  1
  C  C20  1  0.94862700  0.73733000  0.41595900  1
  C  C21  1  0.05137300  0.26267000  0.58404100  1
  C  C22  1  0.32137100  0.53266800  0.58404100  1
  C  C23  1  0.17862900  0.76267000  0.21129700  1
  C  C24  1  0.67862900  0.46733200  0.41595900  1
  C  C25  1  0.82137100  0.23733000  0.78870300  1
  C  C26  1  0.55137300  0.96733200  0.78870300  1
  C  C27  1  0.44862700  0.03266800  0.21129700  1
