# generated using pymatgen
data_CuNiC
_symmetry_space_group_name_H-M   'P 1'
_cell_length_a   8.42432700
_cell_length_b   4.07818400
_cell_length_c   6.17129100
_cell_angle_alpha   90.00000000
_cell_angle_beta   90.00000000
_cell_angle_gamma   90.00000000
_symmetry_Int_Tables_number   1
_chemical_formula_structural   CuNiC
_chemical_formula_sum   'Cu4 Ni4 C4'
_cell_volume   212.02059948
_cell_formula_units_Z   4
loop_
 _symmetry_equiv_pos_site_id
 _symmetry_equiv_pos_as_xyz
  1  'x, y, z'
loop_
 _atom_site_type_symbol
 _atom_site_label
 _atom_site_symmetry_multiplicity
 _atom_site_fract_x
 _atom_site_fract_y
 _atom_site_fract_z
 _atom_site_occupancy
  Ni  Ni0  1  0.60898200  0.25000000  0.90223300  1
  Ni  Ni1  1  0.10898200  0.25000000  0.59776700  1
  Ni  Ni2  1  0.39101800  0.75000000  0.09776700  1
  Ni  Ni3  1  0.89101800  0.75000000  0.40223300  1
  Cu  Cu4  1  0.63786600  0.25000000  0.42835200  1
  Cu  Cu5  1  0.13786600  0.25000000  0.07164800  1
  Cu  Cu6  1  0.36213400  0.75000000  0.57164800  1
  Cu  Cu7  1  0.86213400  0.75000000  0.92835200  1
  C  C8  1  0.85443700  0.25000000  0.15897000  1
  C  C9  1  0.35443700  0.25000000  0.34103000  1
  C  C10  1  0.14556300  0.75000000  0.84103000  1
  C  C11  1  0.64556300  0.75000000  0.65897000  1
