# generated using pymatgen
data_Cu6Ni2C7
_symmetry_space_group_name_H-M   'P 1'
_cell_length_a   5.45166900
_cell_length_b   9.88218580
_cell_length_c   15.14417160
_cell_angle_alpha   106.26109737
_cell_angle_beta   90.00000000
_cell_angle_gamma   90.00000000
_symmetry_Int_Tables_number   1
_chemical_formula_structural   Cu6Ni2C7
_chemical_formula_sum   'Cu36 Ni12 C42'
_cell_volume   783.24436026
_cell_formula_units_Z   6
loop_
 _symmetry_equiv_pos_site_id
 _symmetry_equiv_pos_as_xyz
  1  'x, y, z'
loop_
 _atom_site_type_symbol
 _atom_site_label
 _atom_site_symmetry_multiplicity
 _atom_site_fract_x
 _atom_site_fract_y
 _atom_site_fract_z
 _atom_site_occupancy
  C  C0  1  0.62620600  0.95592800  0.82216000  1
  C  C1  1  0.12620600  0.04407200  0.67784000  1
  C  C2  1  0.37379400  0.04407200  0.17784000  1
  C  C3  1  0.87379400  0.95592800  0.32216000  1
  C  C4  1  0.50000000  0.50000000  0.50000000  1
  C  C5  1  0.00000000  0.50000000  0.00000000  1
  C  C6  1  0.74778800  0.82306100  0.94399500  1
  C  C7  1  0.24778800  0.17693900  0.55600500  1
  C  C8  1  0.25221200  0.17693900  0.05600500  1
  C  C9  1  0.75221200  0.82306100  0.44399500  1
  C  C10  1  0.73562900  0.98449800  0.00395100  1
  C  C11  1  0.23562900  0.01550200  0.49604900  1
  C  C12  1  0.26437100  0.01550200  0.99604900  1
  C  C13  1  0.76437100  0.98449800  0.50395100  1
  C  C14  1  0.15307200  0.95013100  0.83956500  1
  C  C15  1  0.65307200  0.04986900  0.66043500  1
  C  C16  1  0.84692800  0.04986900  0.16043500  1
  C  C17  1  0.34692800  0.95013100  0.33956500  1
  C  C18  1  0.25419000  0.79554000  0.83639900  1
  C  C19  1  0.75419000  0.20446000  0.66360100  1
  C  C20  1  0.74581000  0.20446000  0.16360100  1
  C  C21  1  0.24581000  0.79554000  0.33639900  1
  C  C22  1  0.60741300  0.81662000  0.57482300  1
  C  C23  1  0.10741300  0.18338000  0.92517700  1
  C  C24  1  0.39258700  0.18338000  0.42517700  1
  C  C25  1  0.89258700  0.81662000  0.07482300  1
  C  C26  1  0.92938400  0.62120500  0.46998200  1
  C  C27  1  0.42938400  0.37879500  0.03001800  1
  C  C28  1  0.07061600  0.37879500  0.53001800  1
  C  C29  1  0.57061600  0.62120500  0.96998200  1
  C  C30  1  0.79141900  0.55338400  0.37648400  1
  C  C31  1  0.29141900  0.44661600  0.12351600  1
  C  C32  1  0.20858200  0.44661600  0.62351600  1
  C  C33  1  0.70858100  0.55338400  0.87648400  1
  C  C34  1  0.65273400  0.45595700  0.70231600  1
  C  C35  1  0.15273400  0.54404300  0.79768400  1
  C  C36  1  0.34726600  0.54404300  0.29768400  1
  C  C37  1  0.84726600  0.45595700  0.20231600  1
  C  C38  1  0.49179700  0.35746400  0.74482100  1
  C  C39  1  0.99179700  0.64253600  0.75517900  1
  C  C40  1  0.50820300  0.64253600  0.25517900  1
  C  C41  1  0.00820300  0.35746400  0.24482100  1
  Ni  Ni42  1  0.48544800  0.81584900  0.63318400  1
  Ni  Ni43  1  0.98544800  0.18415100  0.86681600  1
  Ni  Ni44  1  0.51455200  0.18415100  0.36681600  1
  Ni  Ni45  1  0.01455200  0.81584900  0.13318400  1
  Ni  Ni46  1  0.61432900  0.70840600  0.67446000  1
  Ni  Ni47  1  0.11432900  0.29159400  0.82554000  1
  Ni  Ni48  1  0.38567100  0.29159400  0.32554000  1
  Ni  Ni49  1  0.88567100  0.70840600  0.17446000  1
  Ni  Ni50  1  0.23830900  0.76360000  0.58642300  1
  Ni  Ni51  1  0.73830900  0.23640000  0.91357700  1
  Ni  Ni52  1  0.76169100  0.23640000  0.41357700  1
  Ni  Ni53  1  0.26169100  0.76360000  0.08642300  1
  Cu  Cu54  1  0.77456900  0.92080600  0.94285400  1
  Cu  Cu55  1  0.27456900  0.07919400  0.55714600  1
  Cu  Cu56  1  0.22543100  0.07919400  0.05714600  1
  Cu  Cu57  1  0.72543100  0.92080600  0.44285400  1
  Cu  Cu58  1  0.28595600  0.89694100  0.86427700  1
  Cu  Cu59  1  0.78595600  0.10305900  0.63572300  1
  Cu  Cu60  1  0.71404400  0.10305900  0.13572300  1
  Cu  Cu61  1  0.21404400  0.89694100  0.36427700  1
  Cu  Cu62  1  0.46818200  0.95080200  0.69559300  1
  Cu  Cu63  1  0.96818200  0.04919800  0.80440700  1
  Cu  Cu64  1  0.53181800  0.04919800  0.30440700  1
  Cu  Cu65  1  0.03181800  0.95080200  0.19559300  1
  Cu  Cu66  1  0.71074700  0.75384400  0.75345200  1
  Cu  Cu67  1  0.21074700  0.24615600  0.74654800  1
  Cu  Cu68  1  0.28925300  0.24615600  0.24654800  1
  Cu  Cu69  1  0.78925300  0.75384400  0.25345200  1
  Cu  Cu70  1  0.63552400  0.58007700  0.62780500  1
  Cu  Cu71  1  0.13552400  0.41992300  0.87219500  1
  Cu  Cu72  1  0.36447600  0.41992300  0.37219500  1
  Cu  Cu73  1  0.86447600  0.58007700  0.12780500  1
  Cu  Cu74  1  0.05267500  0.84236700  0.60905600  1
  Cu  Cu75  1  0.55267500  0.15763300  0.89094400  1
  Cu  Cu76  1  0.94732500  0.15763300  0.39094400  1
  Cu  Cu77  1  0.44732500  0.84236700  0.10905600  1
  Cu  Cu78  1  0.22842500  0.64761000  0.52262800  1
  Cu  Cu79  1  0.72842500  0.35239000  0.97737200  1
  Cu  Cu80  1  0.77157500  0.35239000  0.47737200  1
  Cu  Cu81  1  0.27157500  0.64761000  0.02262800  1
  Cu  Cu82  1  0.76749500  0.61792400  0.43854900  1
  Cu  Cu83  1  0.26749500  0.38207600  0.06145100  1
  Cu  Cu84  1  0.23250500  0.38207600  0.56145100  1
  Cu  Cu85  1  0.73250500  0.61792400  0.93854900  1
  Cu  Cu86  1  0.66024700  0.39260400  0.74230900  1
  Cu  Cu87  1  0.16024700  0.60739600  0.75769100  1
  Cu  Cu88  1  0.33975300  0.60739600  0.25769100  1
  Cu  Cu89  1  0.83975300  0.39260400  0.24230900  1
