# generated using pymatgen
data_Cu8Ni4C7
_symmetry_space_group_name_H-M   'P 1'
_cell_length_a   8.68033200
_cell_length_b   9.16279000
_cell_length_c   10.89655800
_cell_angle_alpha   90.00000000
_cell_angle_beta   90.00000000
_cell_angle_gamma   90.00000000
_symmetry_Int_Tables_number   1
_chemical_formula_structural   Cu8Ni4C7
_chemical_formula_sum   'Cu32 Ni16 C28'
_cell_volume   866.66928267
_cell_formula_units_Z   4
loop_
 _symmetry_equiv_pos_site_id
 _symmetry_equiv_pos_as_xyz
  1  'x, y, z'
loop_
 _atom_site_type_symbol
 _atom_site_label
 _atom_site_symmetry_multiplicity
 _atom_site_fract_x
 _atom_site_fract_y
 _atom_site_fract_z
 _atom_site_occupancy
  C  C0  1  0.00000000  0.50000000  0.50000000  1
  C  C1  1  0.50000000  0.50000000  0.00000000  1
  C  C2  1  0.50000000  0.00000000  0.50000000  1
  C  C3  1  0.00000000  0.00000000  0.00000000  1
  C  C4  1  0.09364900  0.14413400  0.78347300  1
  C  C5  1  0.23025800  0.81582100  0.57204700  1
  C  C6  1  0.90635100  0.85586600  0.21652700  1
  C  C7  1  0.11648600  0.03419800  0.35601400  1
  C  C8  1  0.09364900  0.35586600  0.28347300  1
  C  C9  1  0.90635100  0.64413400  0.71652700  1
  C  C10  1  0.59364900  0.35586600  0.21652700  1
  C  C11  1  0.11648600  0.46580200  0.85601400  1
  C  C12  1  0.73025800  0.81582100  0.92795300  1
  C  C13  1  0.38351400  0.53419800  0.35601400  1
  C  C14  1  0.26974200  0.18417900  0.07204700  1
  C  C15  1  0.76974200  0.31582100  0.92795300  1
  C  C16  1  0.40635100  0.85586600  0.28347300  1
  C  C17  1  0.61648600  0.03419800  0.14398600  1
  C  C18  1  0.88351400  0.53419800  0.14398600  1
  C  C19  1  0.88351400  0.96580200  0.64398600  1
  C  C20  1  0.23025800  0.68417900  0.07204700  1
  C  C21  1  0.26974200  0.31582100  0.57204700  1
  C  C22  1  0.40635100  0.64413400  0.78347300  1
  C  C23  1  0.59364900  0.14413400  0.71652700  1
  C  C24  1  0.73025800  0.68417900  0.42795300  1
  C  C25  1  0.76974200  0.18417900  0.42795300  1
  C  C26  1  0.38351400  0.96580200  0.85601400  1
  C  C27  1  0.61648600  0.46580200  0.64398600  1
  Ni  Ni28  1  0.05497100  0.50795500  0.77477600  1
  Ni  Ni29  1  0.77020500  0.76458800  0.01394100  1
  Ni  Ni30  1  0.55497100  0.99204500  0.22522400  1
  Ni  Ni31  1  0.94502900  0.49204500  0.22522400  1
  Ni  Ni32  1  0.94502900  0.00795500  0.72522400  1
  Ni  Ni33  1  0.27020500  0.76458800  0.48605900  1
  Ni  Ni34  1  0.72979500  0.26458800  0.01394100  1
  Ni  Ni35  1  0.22979500  0.26458800  0.48605900  1
  Ni  Ni36  1  0.72979500  0.23541200  0.51394100  1
  Ni  Ni37  1  0.22979500  0.23541200  0.98605900  1
  Ni  Ni38  1  0.44502900  0.49204500  0.27477600  1
  Ni  Ni39  1  0.05497100  0.99204500  0.27477600  1
  Ni  Ni40  1  0.55497100  0.50795500  0.72522400  1
  Ni  Ni41  1  0.44502900  0.00795500  0.77477600  1
  Ni  Ni42  1  0.77020500  0.73541200  0.51394100  1
  Ni  Ni43  1  0.27020500  0.73541200  0.98605900  1
  Cu  Cu44  1  0.40864800  0.96154400  0.67113100  1
  Cu  Cu45  1  0.38133700  0.83291900  0.42955400  1
  Cu  Cu46  1  0.40864800  0.53845600  0.17113100  1
  Cu  Cu47  1  0.94889800  0.60618700  0.79796500  1
  Cu  Cu48  1  0.59135200  0.03845600  0.32886900  1
  Cu  Cu49  1  0.44889800  0.89381300  0.20203500  1
  Cu  Cu50  1  0.55110200  0.39381300  0.29796500  1
  Cu  Cu51  1  0.11866300  0.33291900  0.42955400  1
  Cu  Cu52  1  0.94889800  0.89381300  0.29796500  1
  Cu  Cu53  1  0.28768700  0.35066000  0.94626400  1
  Cu  Cu54  1  0.28768700  0.14934000  0.44626400  1
  Cu  Cu55  1  0.55110200  0.10618700  0.79796500  1
  Cu  Cu56  1  0.44889800  0.60618700  0.70203500  1
  Cu  Cu57  1  0.90864800  0.53845600  0.32886900  1
  Cu  Cu58  1  0.05110200  0.10618700  0.70203500  1
  Cu  Cu59  1  0.05110200  0.39381300  0.20203500  1
  Cu  Cu60  1  0.61866300  0.16708100  0.57044600  1
  Cu  Cu61  1  0.90864800  0.96154400  0.82886900  1
  Cu  Cu62  1  0.59135200  0.46154400  0.82886900  1
  Cu  Cu63  1  0.11866300  0.16708100  0.92955400  1
  Cu  Cu64  1  0.88133700  0.66708100  0.57044600  1
  Cu  Cu65  1  0.88133700  0.83291900  0.07044600  1
  Cu  Cu66  1  0.78768700  0.35066000  0.55373600  1
  Cu  Cu67  1  0.71231300  0.64934000  0.05373600  1
  Cu  Cu68  1  0.38133700  0.66708100  0.92955400  1
  Cu  Cu69  1  0.61866300  0.33291900  0.07044600  1
  Cu  Cu70  1  0.09135200  0.03845600  0.17113100  1
  Cu  Cu71  1  0.21231300  0.85066000  0.94626400  1
  Cu  Cu72  1  0.71231300  0.85066000  0.55373600  1
  Cu  Cu73  1  0.09135200  0.46154400  0.67113100  1
  Cu  Cu74  1  0.78768700  0.14934000  0.05373600  1
  Cu  Cu75  1  0.21231300  0.64934000  0.44626400  1
