# generated using pymatgen
data_Cu7NiC28
_symmetry_space_group_name_H-M   'P 1'
_cell_length_a   10.86506290
_cell_length_b   11.16794919
_cell_length_c   16.51320224
_cell_angle_alpha   109.78590489
_cell_angle_beta   108.80238753
_cell_angle_gamma   89.99232103
_symmetry_Int_Tables_number   1
_chemical_formula_structural   Cu7NiC28
_chemical_formula_sum   'Cu28 Ni4 C112'
_cell_volume   1771.40837567
_cell_formula_units_Z   4
loop_
 _symmetry_equiv_pos_site_id
 _symmetry_equiv_pos_as_xyz
  1  'x, y, z'
loop_
 _atom_site_type_symbol
 _atom_site_label
 _atom_site_symmetry_multiplicity
 _atom_site_fract_x
 _atom_site_fract_y
 _atom_site_fract_z
 _atom_site_occupancy
  Ni  Ni0  1  0.30517400  0.06505200  0.11169100  1
  Ni  Ni1  1  0.80560700  0.06377100  0.11206200  1
  Ni  Ni2  1  0.05587900  0.79647900  0.11237100  1
  Ni  Ni3  1  0.55587800  0.79659300  0.11220900  1
  Cu  Cu4  1  0.30336500  0.06735000  0.60732800  1
  Cu  Cu5  1  0.30328600  0.56418100  0.10426700  1
  Cu  Cu6  1  0.30312600  0.56729100  0.60778700  1
  Cu  Cu7  1  0.80496700  0.06729100  0.60837100  1
  Cu  Cu8  1  0.80278600  0.56552200  0.10353900  1
  Cu  Cu9  1  0.80244800  0.56814300  0.60820700  1
  Cu  Cu10  1  0.19614800  0.43352000  0.39378500  1
  Cu  Cu11  1  0.19901800  0.43379200  0.89420400  1
  Cu  Cu12  1  0.19758100  0.93390900  0.39536500  1
  Cu  Cu13  1  0.19785500  0.93436900  0.89355400  1
  Cu  Cu14  1  0.69598600  0.43482100  0.39380600  1
  Cu  Cu15  1  0.69879700  0.43546900  0.89387200  1
  Cu  Cu16  1  0.69722500  0.93103900  0.39447100  1
  Cu  Cu17  1  0.69837100  0.93296200  0.89351200  1
  Cu  Cu18  1  0.05518200  0.29018000  0.10402000  1
  Cu  Cu19  1  0.05478400  0.28902000  0.60807200  1
  Cu  Cu20  1  0.05369000  0.79095700  0.60738600  1
  Cu  Cu21  1  0.55045800  0.28971500  0.10431700  1
  Cu  Cu22  1  0.55231700  0.29075600  0.60801100  1
  Cu  Cu23  1  0.55397600  0.78971900  0.60821700  1
  Cu  Cu24  1  0.44471400  0.21291100  0.39424800  1
  Cu  Cu25  1  0.44658700  0.21079200  0.89368900  1
  Cu  Cu26  1  0.44739900  0.70947100  0.39374300  1
  Cu  Cu27  1  0.44825300  0.70873500  0.89345100  1
  Cu  Cu28  1  0.94827500  0.21095700  0.39556500  1
  Cu  Cu29  1  0.95114300  0.21094500  0.89424700  1
  Cu  Cu30  1  0.94745300  0.71003100  0.39360500  1
  Cu  Cu31  1  0.94795600  0.70902000  0.89357600  1
  C  C32  1  0.00384500  0.00044900  0.50019800  1
  C  C33  1  0.00272400  0.49882600  0.50086300  1
  C  C34  1  0.50262600  0.50195100  0.49906100  1
  C  C35  1  0.25557400  0.24811900  0.50072300  1
  C  C36  1  0.25320600  0.75366500  0.50046700  1
  C  C37  1  0.75380400  0.25059200  0.99717200  1
  C  C38  1  0.74590500  0.24626800  0.49975800  1
  C  C39  1  0.75445100  0.74892500  0.50022000  1
  C  C40  1  0.11095000  0.09553800  0.25433000  1
  C  C41  1  0.10413800  0.09002600  0.75035400  1
  C  C42  1  0.10391500  0.58663700  0.25031300  1
  C  C43  1  0.10347900  0.58806000  0.74873900  1
  C  C44  1  0.61165100  0.09690800  0.25531100  1
  C  C45  1  0.60370400  0.08962600  0.74893500  1
  C  C46  1  0.60434400  0.58654500  0.25027800  1
  C  C47  1  0.60291300  0.58764300  0.74874900  1
  C  C48  1  0.35417800  0.41363500  0.25065100  1
  C  C49  1  0.35449500  0.40996500  0.75070200  1
  C  C50  1  0.36174100  0.90979300  0.25559500  1
  C  C51  1  0.35340100  0.91113900  0.74914800  1
  C  C52  1  0.85423100  0.41386700  0.25097100  1
  C  C53  1  0.85437800  0.41030100  0.74985400  1
  C  C54  1  0.86073800  0.90952500  0.25472600  1
  C  C55  1  0.85350300  0.91098700  0.74920900  1
  C  C56  1  0.00296600  0.99783200  0.99457200  1
  C  C57  1  0.00655400  0.49805600  0.99740900  1
  C  C58  1  0.49978400  0.99541500  0.99358800  1
  C  C59  1  0.50457500  0.99748200  0.50068100  1
  C  C60  1  0.50299500  0.49854200  0.99743000  1
  C  C61  1  0.25516800  0.25016800  0.99677900  1
  C  C62  1  0.25140200  0.74693300  0.99337800  1
  C  C63  1  0.75143300  0.74625800  0.99333900  1
  C  C64  1  0.12160300  0.11421500  0.48957900  1
  C  C65  1  0.12244500  0.12378100  0.98305400  1
  C  C66  1  0.12960600  0.62233800  0.49017300  1
  C  C67  1  0.12319300  0.61473000  0.98308900  1
  C  C68  1  0.63065600  0.12416000  0.48907200  1
  C  C69  1  0.62807800  0.12831400  0.98734400  1
  C  C70  1  0.62334400  0.61302200  0.48929800  1
  C  C71  1  0.62570500  0.61753400  0.98376700  1
  C  C72  1  0.13648600  0.38012400  0.01165700  1
  C  C73  1  0.14508700  0.37453600  0.51134000  1
  C  C74  1  0.13231400  0.87147200  0.00252500  1
  C  C75  1  0.13311500  0.88388700  0.51224100  1
  C  C76  1  0.63954900  0.37289600  0.00755300  1
  C  C77  1  0.64036000  0.38336900  0.51159700  1
  C  C78  1  0.63130000  0.87415600  0.00231300  1
  C  C79  1  0.64238600  0.87202700  0.51160600  1
  C  C80  1  0.37164200  0.12533300  0.48962200  1
  C  C81  1  0.37345100  0.11985900  0.98325200  1
  C  C82  1  0.38163200  0.61212700  0.48922000  1
  C  C83  1  0.36820100  0.61610700  0.98338900  1
  C  C84  1  0.88138700  0.11549700  0.49003000  1
  C  C85  1  0.86962800  0.12685700  0.98656300  1
  C  C86  1  0.87386700  0.62637200  0.48937100  1
  C  C87  1  0.87054100  0.61286200  0.98395700  1
  C  C88  1  0.38496100  0.37861900  0.01167600  1
  C  C89  1  0.39699200  0.38774500  0.51187200  1
  C  C90  1  0.37925600  0.87552300  0.00292200  1
  C  C91  1  0.38137900  0.87300000  0.51140100  1
  C  C92  1  0.88078000  0.37516200  0.00766600  1
  C  C93  1  0.89568200  0.38759000  0.51150400  1
  C  C94  1  0.87798500  0.87355500  0.00240200  1
  C  C95  1  0.89147100  0.88904000  0.51147800  1
  C  C96  1  0.07490100  0.09645500  0.14165900  1
  C  C97  1  0.08143700  0.09821000  0.64013800  1
  C  C98  1  0.08145300  0.58585800  0.13982500  1
  C  C99  1  0.08140500  0.59751400  0.63865600  1
  C  C100  1  0.57631000  0.09658800  0.14280700  1
  C  C101  1  0.58213700  0.09752900  0.63888300  1
  C  C102  1  0.58364900  0.58594500  0.14002800  1
  C  C103  1  0.58169800  0.59795300  0.63917200  1
  C  C104  1  0.44343200  0.40280300  0.36077800  1
  C  C105  1  0.44179500  0.39824600  0.85754800  1
  C  C106  1  0.44719600  0.89726500  0.36420500  1
  C  C107  1  0.44166100  0.90038600  0.85600600  1
  C  C108  1  0.94406700  0.40468300  0.36090600  1
  C  C109  1  0.94022300  0.39766100  0.85653800  1
  C  C110  1  0.94602700  0.89793200  0.36385600  1
  C  C111  1  0.93993900  0.90090400  0.85627400  1
  C  C112  1  0.33320000  0.30292700  0.14113200  1
  C  C113  1  0.33191700  0.29126400  0.64114000  1
  C  C114  1  0.32646500  0.79621700  0.14375700  1
  C  C115  1  0.33128700  0.79069700  0.64002400  1
  C  C116  1  0.83218800  0.30308700  0.14019100  1
  C  C117  1  0.83265200  0.29348700  0.63829800  1
  C  C118  1  0.82613000  0.79621600  0.14297600  1
  C  C119  1  0.83191200  0.79108200  0.64020700  1
  C  C120  1  0.19719500  0.21617300  0.36201100  1
  C  C121  1  0.19139000  0.20962000  0.85678000  1
  C  C122  1  0.19052500  0.70739500  0.35972900  1
  C  C123  1  0.19016200  0.70666700  0.85513900  1
  C  C124  1  0.69838100  0.21744500  0.36500400  1
  C  C125  1  0.69040700  0.20837600  0.85680100  1
  C  C126  1  0.69297900  0.70727400  0.35890600  1
  C  C127  1  0.69058600  0.70599000  0.85507400  1
  C  C128  1  0.44961200  0.05979500  0.26369200  1
  C  C129  1  0.43276200  0.06021200  0.74885900  1
  C  C130  1  0.43309400  0.56387300  0.25231000  1
  C  C131  1  0.43232000  0.55925500  0.74922000  1
  C  C132  1  0.94887500  0.05895900  0.26350300  1
  C  C133  1  0.93245700  0.06052100  0.74921700  1
  C  C134  1  0.93243500  0.56332100  0.25143100  1
  C  C135  1  0.93277500  0.55958800  0.74965300  1
  C  C136  1  0.18328700  0.43808200  0.25251200  1
  C  C137  1  0.18242500  0.43932300  0.74942300  1
  C  C138  1  0.19919500  0.95476600  0.26358100  1
  C  C139  1  0.18243500  0.94012200  0.74946500  1
  C  C140  1  0.68330200  0.43734100  0.25222600  1
  C  C141  1  0.68283000  0.43883800  0.74886200  1
  C  C142  1  0.69893700  0.95542900  0.26362800  1
  C  C143  1  0.68201900  0.94047900  0.74938700  1
