# generated using pymatgen
data_Cu(Ni10C7)2
_symmetry_space_group_name_H-M   'P 1'
_cell_length_a   11.91006763
_cell_length_b   11.91006763
_cell_length_c   14.48775900
_cell_angle_alpha   90.00000000
_cell_angle_beta   90.00000000
_cell_angle_gamma   141.30387152
_symmetry_Int_Tables_number   1
_chemical_formula_structural   Cu(Ni10C7)2
_chemical_formula_sum   'Cu2 Ni40 C28'
_cell_volume   1284.81806870
_cell_formula_units_Z   2
loop_
 _symmetry_equiv_pos_site_id
 _symmetry_equiv_pos_as_xyz
  1  'x, y, z'
loop_
 _atom_site_type_symbol
 _atom_site_label
 _atom_site_symmetry_multiplicity
 _atom_site_fract_x
 _atom_site_fract_y
 _atom_site_fract_z
 _atom_site_occupancy
  C  C0  1  0.70919000  0.78529300  0.66891000  1
  C  C1  1  0.21470700  0.29081000  0.66891000  1
  C  C2  1  0.29081000  0.21470700  0.16891000  1
  C  C3  1  0.78529300  0.70919000  0.16891000  1
  C  C4  1  0.53208700  0.95852500  0.78315800  1
  C  C5  1  0.04147500  0.46791300  0.78315800  1
  C  C6  1  0.46791300  0.04147500  0.28315800  1
  C  C7  1  0.95852500  0.53208700  0.28315800  1
  C  C8  1  0.38050100  0.61949900  0.23149500  1
  C  C9  1  0.61949900  0.38050100  0.73149500  1
  C  C10  1  0.83246500  0.16753500  0.52035400  1
  C  C11  1  0.16753500  0.83246500  0.02035400  1
  C  C12  1  0.08625900  0.91374000  0.43791800  1
  C  C13  1  0.91374100  0.08625900  0.93791800  1
  C  C14  1  0.12599000  0.87401000  0.71959100  1
  C  C15  1  0.87401000  0.12599000  0.21959100  1
  C  C16  1  0.32564900  0.67435100  0.49519900  1
  C  C17  1  0.67435100  0.32564900  0.99519900  1
  C  C18  1  0.42617200  0.57382800  0.94729000  1
  C  C19  1  0.57382800  0.42617200  0.44729000  1
  C  C20  1  0.50161200  0.89838700  0.05414300  1
  C  C21  1  0.10161300  0.49838800  0.05414300  1
  C  C22  1  0.49838800  0.10161300  0.55414300  1
  C  C23  1  0.89838700  0.50161200  0.55414300  1
  C  C24  1  0.74457200  0.85409900  0.40755100  1
  C  C25  1  0.14590100  0.25542800  0.40755100  1
  C  C26  1  0.25542800  0.14590100  0.90755100  1
  C  C27  1  0.85409900  0.74457200  0.90755100  1
  Ni  Ni28  1  0.46930500  0.95052500  0.51695600  1
  Ni  Ni29  1  0.04947500  0.53069500  0.51695600  1
  Ni  Ni30  1  0.53069500  0.04947500  0.01695600  1
  Ni  Ni31  1  0.95052500  0.46930500  0.01695600  1
  Ni  Ni32  1  0.38370500  0.03347500  0.64891400  1
  Ni  Ni33  1  0.96652500  0.61629500  0.64891400  1
  Ni  Ni34  1  0.61629500  0.96652500  0.14891400  1
  Ni  Ni35  1  0.03347500  0.38370500  0.14891400  1
  Ni  Ni36  1  0.54620100  0.84046100  0.97343900  1
  Ni  Ni37  1  0.15953900  0.45379900  0.97343900  1
  Ni  Ni38  1  0.45379900  0.15953900  0.47343900  1
  Ni  Ni39  1  0.84046100  0.54620100  0.47343900  1
  Ni  Ni40  1  0.71627400  0.28372600  0.58448300  1
  Ni  Ni41  1  0.28372600  0.71627400  0.08448300  1
  Ni  Ni42  1  0.70303300  0.72562200  0.91969100  1
  Ni  Ni43  1  0.27437800  0.29696700  0.91969100  1
  Ni  Ni44  1  0.29696700  0.27437800  0.41969100  1
  Ni  Ni45  1  0.72562200  0.70303300  0.41969100  1
  Ni  Ni46  1  0.95006800  0.04993200  0.44715100  1
  Ni  Ni47  1  0.04993200  0.95006800  0.94715100  1
  Ni  Ni48  1  0.26750200  0.12285800  0.79769300  1
  Ni  Ni49  1  0.87714200  0.73249800  0.79769300  1
  Ni  Ni50  1  0.73249800  0.87714200  0.29769300  1
  Ni  Ni51  1  0.12285800  0.26750200  0.29769300  1
  Ni  Ni52  1  0.59800700  0.80709400  0.47116200  1
  Ni  Ni53  1  0.19290600  0.40199300  0.47116200  1
  Ni  Ni54  1  0.40199300  0.19290600  0.97116200  1
  Ni  Ni55  1  0.80709400  0.59800700  0.97116200  1
  Ni  Ni56  1  0.18247400  0.81752600  0.81475000  1
  Ni  Ni57  1  0.81752600  0.18247400  0.31475000  1
  Ni  Ni58  1  0.06818200  0.93181800  0.62632700  1
  Ni  Ni59  1  0.93181800  0.06818200  0.12632700  1
  Ni  Ni60  1  0.30514800  0.69485200  0.37005700  1
  Ni  Ni61  1  0.69485200  0.30514800  0.87005700  1
  Ni  Ni62  1  0.34472200  0.65527800  0.62068900  1
  Ni  Ni63  1  0.65527800  0.34472200  0.12068900  1
  Ni  Ni64  1  0.40559000  0.59441000  0.82237400  1
  Ni  Ni65  1  0.59441000  0.40559000  0.32237400  1
  Ni  Ni66  1  0.44623800  0.55376200  0.07304900  1
  Ni  Ni67  1  0.55376200  0.44623800  0.57304900  1
  Cu  Cu68  1  0.87529400  0.12470600  0.72885700  1
  Cu  Cu69  1  0.12470600  0.87529400  0.22885700  1
