# generated using pymatgen
data_Cu12Ni2C
_symmetry_space_group_name_H-M   'P 1'
_cell_length_a   12.71032900
_cell_length_b   6.69917900
_cell_length_c   6.80169949
_cell_angle_alpha   77.86013020
_cell_angle_beta   90.00000000
_cell_angle_gamma   90.00000000
_symmetry_Int_Tables_number   1
_chemical_formula_structural   Cu12Ni2C
_chemical_formula_sum   'Cu24 Ni4 C2'
_cell_volume   566.20474425
_cell_formula_units_Z   2
loop_
 _symmetry_equiv_pos_site_id
 _symmetry_equiv_pos_as_xyz
  1  'x, y, z'
loop_
 _atom_site_type_symbol
 _atom_site_label
 _atom_site_symmetry_multiplicity
 _atom_site_fract_x
 _atom_site_fract_y
 _atom_site_fract_z
 _atom_site_occupancy
  C  C0  1  0.00000000  0.00000000  0.00000000  1
  C  C1  1  0.50000000  0.00000000  0.50000000  1
  Ni  Ni2  1  0.70451900  0.52636500  0.03827200  1
  Ni  Ni3  1  0.20451900  0.47363500  0.46172800  1
  Ni  Ni4  1  0.29548100  0.47363500  0.96172800  1
  Ni  Ni5  1  0.79548100  0.52636500  0.53827200  1
  Cu  Cu6  1  0.84738400  0.03062000  0.97430700  1
  Cu  Cu7  1  0.34738400  0.96938000  0.52569300  1
  Cu  Cu8  1  0.15261600  0.96938000  0.02569300  1
  Cu  Cu9  1  0.65261600  0.03062000  0.47430700  1
  Cu  Cu10  1  0.98101900  0.69678200  0.90691600  1
  Cu  Cu11  1  0.48101900  0.30321800  0.59308400  1
  Cu  Cu12  1  0.01898100  0.30321800  0.09308400  1
  Cu  Cu13  1  0.51898100  0.69678200  0.40691600  1
  Cu  Cu14  1  0.00136500  0.18460800  0.26015800  1
  Cu  Cu15  1  0.50136500  0.81539200  0.23984200  1
  Cu  Cu16  1  0.99863500  0.81539200  0.73984200  1
  Cu  Cu17  1  0.49863500  0.18460800  0.76015800  1
  Cu  Cu18  1  0.62728200  0.41136900  0.03582700  1
  Cu  Cu19  1  0.12728200  0.58863100  0.46417300  1
  Cu  Cu20  1  0.37271800  0.58863100  0.96417300  1
  Cu  Cu21  1  0.87271800  0.41136900  0.53582700  1
  Cu  Cu22  1  0.68993700  0.70667300  0.05962000  1
  Cu  Cu23  1  0.18993700  0.29332700  0.44038000  1
  Cu  Cu24  1  0.31006300  0.29332700  0.94038000  1
  Cu  Cu25  1  0.81006300  0.70667300  0.55962000  1
  Cu  Cu26  1  0.79631400  0.46497800  0.01897800  1
  Cu  Cu27  1  0.29631400  0.53502200  0.48102200  1
  Cu  Cu28  1  0.20368600  0.53502200  0.98102200  1
  Cu  Cu29  1  0.70368600  0.46497800  0.51897800  1
