# generated using pymatgen
data_Cu7NiC2
_symmetry_space_group_name_H-M   'P 1'
_cell_length_a   7.64098072
_cell_length_b   7.64098072
_cell_length_c   7.64098124
_cell_angle_alpha   54.51807067
_cell_angle_beta   54.51807067
_cell_angle_gamma   54.51807172
_symmetry_Int_Tables_number   1
_chemical_formula_structural   Cu7NiC2
_chemical_formula_sum   'Cu14 Ni2 C4'
_cell_volume   275.13865361
_cell_formula_units_Z   2
loop_
 _symmetry_equiv_pos_site_id
 _symmetry_equiv_pos_as_xyz
  1  'x, y, z'
loop_
 _atom_site_type_symbol
 _atom_site_label
 _atom_site_symmetry_multiplicity
 _atom_site_fract_x
 _atom_site_fract_y
 _atom_site_fract_z
 _atom_site_occupancy
  C  C0  1  0.00049200  0.00049200  0.00049200  1
  C  C1  1  0.00327000  0.48671600  0.00327000  1
  C  C2  1  0.00327000  0.00327000  0.48671600  1
  C  C3  1  0.48671600  0.00327000  0.00327000  1
  Ni  Ni4  1  0.70327900  0.70327900  0.70327900  1
  Ni  Ni5  1  0.29616000  0.29616000  0.29616000  1
  Cu  Cu6  1  0.62894500  0.62894500  0.62894500  1
  Cu  Cu7  1  0.37060200  0.37060200  0.37060200  1
  Cu  Cu8  1  0.84650400  0.49614100  0.84650400  1
  Cu  Cu9  1  0.84650400  0.84650400  0.49614100  1
  Cu  Cu10  1  0.49614100  0.84650400  0.84650400  1
  Cu  Cu11  1  0.15299000  0.50196400  0.15299000  1
  Cu  Cu12  1  0.15299000  0.15299000  0.50196400  1
  Cu  Cu13  1  0.50196400  0.15299000  0.15299000  1
  Cu  Cu14  1  0.74922000  0.08319200  0.74922000  1
  Cu  Cu15  1  0.74922000  0.74922000  0.08319200  1
  Cu  Cu16  1  0.08319200  0.74922000  0.74922000  1
  Cu  Cu17  1  0.27126400  0.88611100  0.27126400  1
  Cu  Cu18  1  0.27126400  0.27126400  0.88611100  1
  Cu  Cu19  1  0.88611100  0.27126400  0.27126400  1
