# generated using pymatgen
data_CuNi2C7
_symmetry_space_group_name_H-M   'P 1'
_cell_length_a   5.65928500
_cell_length_b   5.93604700
_cell_length_c   8.20816438
_cell_angle_alpha   90.00000000
_cell_angle_beta   90.21614144
_cell_angle_gamma   90.00000000
_symmetry_Int_Tables_number   1
_chemical_formula_structural   CuNi2C7
_chemical_formula_sum   'Cu2 Ni4 C14'
_cell_volume   275.74132071
_cell_formula_units_Z   2
loop_
 _symmetry_equiv_pos_site_id
 _symmetry_equiv_pos_as_xyz
  1  'x, y, z'
loop_
 _atom_site_type_symbol
 _atom_site_label
 _atom_site_symmetry_multiplicity
 _atom_site_fract_x
 _atom_site_fract_y
 _atom_site_fract_z
 _atom_site_occupancy
  Ni  Ni0  1  0.99931100  0.99704700  0.49953700  1
  Ni  Ni1  1  0.49931100  0.50295300  0.99953700  1
  Ni  Ni2  1  0.51402200  0.94539600  0.24481100  1
  Ni  Ni3  1  0.01402200  0.55460400  0.74481100  1
  Cu  Cu4  1  0.48497500  0.05664600  0.75550800  1
  Cu  Cu5  1  0.98497500  0.44335400  0.25550800  1
  C  C6  1  0.49981300  0.50102200  0.50136000  1
  C  C7  1  0.99981300  0.99897800  0.00136000  1
  C  C8  1  0.37962800  0.55683400  0.27074700  1
  C  C9  1  0.87962800  0.94316600  0.77074700  1
  C  C10  1  0.61586100  0.44246000  0.72931100  1
  C  C11  1  0.11586100  0.05754000  0.22931100  1
  C  C12  1  0.83203800  0.71405400  0.07212900  1
  C  C13  1  0.33203800  0.78594600  0.57212900  1
  C  C14  1  0.17214100  0.28111100  0.92858600  1
  C  C15  1  0.67214100  0.21888900  0.42858600  1
  C  C16  1  0.79209300  0.67501100  0.44616100  1
  C  C17  1  0.29209300  0.82498900  0.94616100  1
  C  C18  1  0.21011800  0.32215100  0.55184900  1
  C  C19  1  0.71011800  0.17784900  0.05184900  1
