# generated using pymatgen
data_CuNiC
_symmetry_space_group_name_H-M   'P 1'
_cell_length_a   8.80405632
_cell_length_b   8.80405632
_cell_length_c   8.80405632
_cell_angle_alpha   107.74265687
_cell_angle_beta   107.74265687
_cell_angle_gamma   112.98658088
_symmetry_Int_Tables_number   1
_chemical_formula_structural   CuNiC
_chemical_formula_sum   'Cu4 Ni4 C4'
_cell_volume   523.83028676
_cell_formula_units_Z   4
loop_
 _symmetry_equiv_pos_site_id
 _symmetry_equiv_pos_as_xyz
  1  'x, y, z'
loop_
 _atom_site_type_symbol
 _atom_site_label
 _atom_site_symmetry_multiplicity
 _atom_site_fract_x
 _atom_site_fract_y
 _atom_site_fract_z
 _atom_site_occupancy
  Ni  Ni0  1  0.00000000  0.50000000  0.00000000  1
  Ni  Ni1  1  0.50000000  0.00000000  0.00000000  1
  Ni  Ni2  1  0.00000000  0.00000000  0.50000000  1
  Ni  Ni3  1  0.50000000  0.50000000  0.50000000  1
  Cu  Cu4  1  0.14249400  0.35750600  0.50000000  1
  Cu  Cu5  1  0.85750600  0.64249400  0.50000000  1
  Cu  Cu6  1  0.64249400  0.14249400  0.78498800  1
  Cu  Cu7  1  0.35750600  0.85750600  0.21501200  1
  C  C8  1  0.14009900  0.64009900  0.78019900  1
  C  C9  1  0.85990100  0.35990100  0.21980100  1
  C  C10  1  0.35990100  0.14009900  0.50000000  1
  C  C11  1  0.64009900  0.85990100  0.50000000  1
