# generated using pymatgen
data_Cu2NiC28
_symmetry_space_group_name_H-M   'P 1'
_cell_length_a   12.91012500
_cell_length_b   6.47587900
_cell_length_c   9.54437514
_cell_angle_alpha   74.17320143
_cell_angle_beta   90.00000000
_cell_angle_gamma   90.00000000
_symmetry_Int_Tables_number   1
_chemical_formula_structural   Cu2NiC28
_chemical_formula_sum   'Cu4 Ni2 C56'
_cell_volume   767.70190175
_cell_formula_units_Z   2
loop_
 _symmetry_equiv_pos_site_id
 _symmetry_equiv_pos_as_xyz
  1  'x, y, z'
loop_
 _atom_site_type_symbol
 _atom_site_label
 _atom_site_symmetry_multiplicity
 _atom_site_fract_x
 _atom_site_fract_y
 _atom_site_fract_z
 _atom_site_occupancy
  Ni  Ni0  1  0.50000000  0.00000000  0.50000000  1
  Ni  Ni1  1  0.00000000  0.00000000  0.00000000  1
  Cu  Cu2  1  0.14196300  0.64653700  0.62035900  1
  Cu  Cu3  1  0.64196300  0.35346300  0.87964100  1
  Cu  Cu4  1  0.85803700  0.35346300  0.37964100  1
  Cu  Cu5  1  0.35803700  0.64653700  0.12035900  1
  C  C6  1  0.41180300  0.68003800  0.70913600  1
  C  C7  1  0.91180300  0.31996200  0.79086400  1
  C  C8  1  0.58819700  0.31996200  0.29086400  1
  C  C9  1  0.08819700  0.68003800  0.20913600  1
  C  C10  1  0.37452700  0.90157100  0.73721700  1
  C  C11  1  0.87452700  0.09842900  0.76278300  1
  C  C12  1  0.62547300  0.09842900  0.26278300  1
  C  C13  1  0.12547300  0.90157100  0.23721700  1
  C  C14  1  0.40314200  0.06489500  0.23781300  1
  C  C15  1  0.90314200  0.93510500  0.26218700  1
  C  C16  1  0.59685800  0.93510500  0.76218700  1
  C  C17  1  0.09685800  0.06489500  0.73781300  1
  C  C18  1  0.31751200  0.99743600  0.36030900  1
  C  C19  1  0.81751200  0.00256400  0.13969100  1
  C  C20  1  0.68248800  0.00256400  0.63969100  1
  C  C21  1  0.18248800  0.99743600  0.86030900  1
  C  C22  1  0.55877500  0.66934100  0.40098400  1
  C  C23  1  0.05877500  0.33065900  0.09901600  1
  C  C24  1  0.44122500  0.33065900  0.59901600  1
  C  C25  1  0.94122500  0.66934100  0.90098400  1
  C  C26  1  0.63861100  0.67518300  0.52537500  1
  C  C27  1  0.13861100  0.32481700  0.97462500  1
  C  C28  1  0.36138900  0.32481700  0.47462500  1
  C  C29  1  0.86138900  0.67518300  0.02537500  1
  C  C30  1  0.35891400  0.26140800  0.90566600  1
  C  C31  1  0.85891400  0.73859200  0.59433400  1
  C  C32  1  0.64108600  0.73859200  0.09433400  1
  C  C33  1  0.14108600  0.26140800  0.40566600  1
  C  C34  1  0.25747100  0.42159900  0.91036800  1
  C  C35  1  0.75747100  0.57840100  0.58963200  1
  C  C36  1  0.74252900  0.57840100  0.08963200  1
  C  C37  1  0.24252900  0.42159900  0.41036800  1
  C  C38  1  0.42661400  0.21732100  0.06087000  1
  C  C39  1  0.92661400  0.78267900  0.43913000  1
  C  C40  1  0.57338600  0.78267900  0.93913000  1
  C  C41  1  0.07338600  0.21732100  0.56087000  1
  C  C42  1  0.43829500  0.39337400  0.77002800  1
  C  C43  1  0.93829500  0.60662600  0.72997200  1
  C  C44  1  0.56170500  0.60662600  0.22997200  1
  C  C45  1  0.06170500  0.39337400  0.27002800  1
  C  C46  1  0.31847000  0.02884700  0.87726600  1
  C  C47  1  0.81847000  0.97115300  0.62273400  1
  C  C48  1  0.68153000  0.97115300  0.12273400  1
  C  C49  1  0.18153000  0.02884700  0.37726600  1
  C  C50  1  0.39621500  0.83282600  0.66139100  1
  C  C51  1  0.89621500  0.16717400  0.83860900  1
  C  C52  1  0.60378500  0.16717400  0.33860900  1
  C  C53  1  0.10378500  0.83282600  0.16139100  1
  C  C54  1  0.39190300  0.97738300  0.33966300  1
  C  C55  1  0.89190300  0.02261700  0.16033700  1
  C  C56  1  0.60809700  0.02261700  0.66033700  1
  C  C57  1  0.10809700  0.97738300  0.83966300  1
  C  C58  1  0.56675100  0.71582000  0.49085700  1
  C  C59  1  0.06675100  0.28418000  0.00914300  1
  C  C60  1  0.43324900  0.28418000  0.50914300  1
  C  C61  1  0.93324900  0.71582000  0.99085700  1
