# generated using pymatgen
data_Cu14NiC17
_symmetry_space_group_name_H-M   'P 1'
_cell_length_a   8.67650177
_cell_length_b   8.73961299
_cell_length_c   4.26767535
_cell_angle_alpha   90.00000000
_cell_angle_beta   90.00000000
_cell_angle_gamma   90.00000000
_symmetry_Int_Tables_number   1
_chemical_formula_structural   Cu14NiC17
_chemical_formula_sum   'Cu14 Ni1 C17'
_cell_volume   323.61469605
_cell_formula_units_Z   1
loop_
 _symmetry_equiv_pos_site_id
 _symmetry_equiv_pos_as_xyz
  1  'x, y, z'
loop_
 _atom_site_type_symbol
 _atom_site_label
 _atom_site_symmetry_multiplicity
 _atom_site_fract_x
 _atom_site_fract_y
 _atom_site_fract_z
 _atom_site_occupancy
  Ni  Ni0  1  0.00000000  0.50000000  0.00000000  1
  Cu  Cu1  1  0.50000000  0.00000000  0.00000000  1
  Cu  Cu2  1  0.50000000  0.50000000  0.00000000  1
  Cu  Cu3  1  -0.00000000  0.23294262  0.50000000  1
  Cu  Cu4  1  0.00000000  0.76705738  0.50000000  1
  Cu  Cu5  1  0.50000000  0.24701600  0.50000000  1
  Cu  Cu6  1  0.50000000  0.75298400  0.50000000  1
  Cu  Cu7  1  0.24876196  0.00000000  0.50000000  1
  Cu  Cu8  1  0.25810882  0.50000000  0.50000000  1
  Cu  Cu9  1  0.75123804  -0.00000000  0.50000000  1
  Cu  Cu10  1  0.74189118  0.50000000  0.50000000  1
  Cu  Cu11  1  0.25438741  0.23970560  -0.00000000  1
  Cu  Cu12  1  0.25438741  0.76029440  -0.00000000  1
  Cu  Cu13  1  0.74561259  0.23970560  0.00000000  1
  Cu  Cu14  1  0.74561259  0.76029440  0.00000000  1
  C  C15  1  0.00000000  0.00000000  0.00000000  1
  C  C16  1  0.26723046  0.00000000  0.00000000  1
  C  C17  1  0.25339663  0.50000000  -0.00000000  1
  C  C18  1  0.73276954  0.00000000  0.00000000  1
  C  C19  1  0.74660337  0.50000000  0.00000000  1
  C  C20  1  0.24793706  0.25078132  0.50000000  1
  C  C21  1  0.24793706  0.74921868  0.50000000  1
  C  C22  1  0.75206294  0.25078132  0.50000000  1
  C  C23  1  0.75206294  0.74921868  0.50000000  1
  C  C24  1  0.00000000  0.00000000  0.50000000  1
  C  C25  1  0.00000000  0.50000000  0.50000000  1
  C  C26  1  0.50000000  0.00000000  0.50000000  1
  C  C27  1  0.50000000  0.50000000  0.50000000  1
  C  C28  1  0.00000000  0.26613128  0.00000000  1
  C  C29  1  0.00000000  0.73386872  -0.00000000  1
  C  C30  1  0.50000000  0.25418952  -0.00000000  1
  C  C31  1  0.50000000  0.74581048  0.00000000  1
