# generated using pymatgen
data_Cu3Ni3C47
_symmetry_space_group_name_H-M   'P 1'
_cell_length_a   7.61734100
_cell_length_b   9.79093791
_cell_length_c   9.81504757
_cell_angle_alpha   113.34029928
_cell_angle_beta   105.13967871
_cell_angle_gamma   104.99257743
_symmetry_Int_Tables_number   1
_chemical_formula_structural   Cu3Ni3C47
_chemical_formula_sum   'Cu3 Ni3 C47'
_cell_volume   592.14646827
_cell_formula_units_Z   1
loop_
 _symmetry_equiv_pos_site_id
 _symmetry_equiv_pos_as_xyz
  1  'x, y, z'
loop_
 _atom_site_type_symbol
 _atom_site_label
 _atom_site_symmetry_multiplicity
 _atom_site_fract_x
 _atom_site_fract_y
 _atom_site_fract_z
 _atom_site_occupancy
  C  C0  1  0.77057100  0.99987600  0.00002200  1
  C  C1  1  0.42319100  0.76967300  0.33793500  1
  C  C2  1  0.09174200  0.66494200  0.43481100  1
  C  C3  1  0.42660300  0.33656400  0.77167800  1
  Ni  Ni4  1  0.42319500  0.99727600  0.19157400  1
  Ni  Ni5  1  0.23909000  0.81280700  0.80749400  1
  Ni  Ni6  1  0.40823800  0.18223400  0.99969900  1
  Cu  Cu7  1  0.65465300  0.56377900  0.22758300  1
  Cu  Cu8  1  0.65300000  0.22721900  0.56362600  1
  Cu  Cu9  1  0.09327100  0.43923400  0.66441900  1
  C  C10  1  0.00049800  0.81369500  0.18777800  1
  C  C11  1  0.81506100  0.80815800  0.62262200  1
  C  C12  1  0.18655800  0.37729600  0.18434300  1
  C  C13  1  0.00155600  0.18821900  0.81408800  1
  C  C14  1  0.18734900  0.18548100  0.37647500  1
  C  C15  1  0.81527000  0.62328800  0.80709300  1
  C  C16  1  0.43228700  0.67012900  0.99932800  1
  C  C17  1  0.43743600  0.00129000  0.66968100  1
  C  C18  1  0.75851900  0.33109800  0.32905600  1
  C  C19  1  0.74291200  0.00257200  0.38649000  1
  C  C20  1  0.35681400  0.61182800  0.61471600  1
  C  C21  1  0.73928900  0.38142900  0.00347200  1
  C  C22  1  0.00454100  0.99988600  0.27062400  1
  C  C23  1  0.73488200  0.72803900  0.72739300  1
  C  C24  1  0.00358400  0.26960300  0.99783600  1
  C  C25  1  0.61699100  0.00612000  0.38983300  1
  C  C26  1  0.22741700  0.60838900  0.61405500  1
  C  C27  1  0.61198400  0.38116700  0.00603400  1
  C  C28  1  0.84257800  0.72512800  0.99621900  1
  C  C29  1  0.84048900  0.99853100  0.72273900  1
  C  C30  1  0.11833300  0.27042700  0.26973600  1
  C  C31  1  0.24730000  0.01630300  0.00464400  1
  C  C32  1  0.22285300  0.82881200  0.19826700  1
  C  C33  1  0.02895800  0.80109200  0.63197700  1
  C  C34  1  0.39705800  0.37119700  0.16824100  1
  C  C35  1  0.22526600  0.19754700  0.83099200  1
  C  C36  1  0.39977900  0.17406700  0.37954100  1
  C  C37  1  0.02862200  0.62696900  0.79689900  1
  C  C38  1  0.92090300  0.71658200  0.27437800  1
  C  C39  1  0.65393100  0.71758600  0.43684700  1
  C  C40  1  0.20757200  0.55812600  0.27854800  1
  C  C41  1  0.92967700  0.27902000  0.71656800  1
  C  C42  1  0.20289400  0.28199400  0.55926100  1
  C  C43  1  0.65344600  0.43775500  0.71811100  1
  C  C44  1  0.50849600  0.67707300  0.14531200  1
  C  C45  1  0.35911700  0.85629700  0.53418300  1
  C  C46  1  0.82086800  0.47407300  0.32976600  1
  C  C47  1  0.51020200  0.14925300  0.67787600  1
  C  C48  1  0.82568300  0.32543100  0.47175700  1
  C  C49  1  0.34735000  0.52636700  0.85463900  1
  C  C50  1  0.43926000  0.81721200  0.99873000  1
  C  C51  1  0.44542700  0.00727400  0.82160300  1
  C  C52  1  0.62468600  0.18459400  0.18340300  1
