# generated using pymatgen
data_CuNiC14
_symmetry_space_group_name_H-M   'P 1'
_cell_length_a   7.26758100
_cell_length_b   7.26758100
_cell_length_c   14.83604300
_cell_angle_alpha   90.00000000
_cell_angle_beta   90.00000000
_cell_angle_gamma   90.00000000
_symmetry_Int_Tables_number   1
_chemical_formula_structural   CuNiC14
_chemical_formula_sum   'Cu4 Ni4 C56'
_cell_volume   783.60616673
_cell_formula_units_Z   4
loop_
 _symmetry_equiv_pos_site_id
 _symmetry_equiv_pos_as_xyz
  1  'x, y, z'
loop_
 _atom_site_type_symbol
 _atom_site_label
 _atom_site_symmetry_multiplicity
 _atom_site_fract_x
 _atom_site_fract_y
 _atom_site_fract_z
 _atom_site_occupancy
  Ni  Ni0  1  0.50000000  0.50000000  0.50000000  1
  Ni  Ni1  1  0.00000000  0.00000000  0.50000000  1
  Ni  Ni2  1  0.00000000  0.00000000  0.00000000  1
  Ni  Ni3  1  0.50000000  0.50000000  0.00000000  1
  C  C4  1  0.16790300  0.24298000  0.64401800  1
  C  C5  1  0.83209700  0.75702000  0.64401800  1
  C  C6  1  0.24298000  0.16790300  0.85598200  1
  C  C7  1  0.74298000  0.33209700  0.64401800  1
  C  C8  1  0.25702000  0.66790300  0.64401800  1
  C  C9  1  0.33209700  0.74298000  0.85598200  1
  C  C10  1  0.66790300  0.25702000  0.85598200  1
  C  C11  1  0.75702000  0.83209700  0.85598200  1
  C  C12  1  0.33209700  0.25702000  0.35598200  1
  C  C13  1  0.66790300  0.74298000  0.35598200  1
  C  C14  1  0.25702000  0.33209700  0.14401800  1
  C  C15  1  0.75702000  0.16790300  0.35598200  1
  C  C16  1  0.24298000  0.83209700  0.35598200  1
  C  C17  1  0.16790300  0.75702000  0.14401800  1
  C  C18  1  0.83209700  0.24298000  0.14401800  1
  C  C19  1  0.74298000  0.66790300  0.14401800  1
  Cu  Cu20  1  0.50000000  0.00000000  0.57187500  1
  Cu  Cu21  1  0.00000000  0.50000000  0.92812500  1
  Cu  Cu22  1  0.00000000  0.50000000  0.42812500  1
  Cu  Cu23  1  0.50000000  0.00000000  0.07187500  1
  C  C24  1  0.24008000  0.08638800  0.57512000  1
  C  C25  1  0.75992000  0.91361200  0.57512000  1
  C  C26  1  0.08638800  0.24008000  0.92488000  1
  C  C27  1  0.58638800  0.25992000  0.57512000  1
  C  C28  1  0.41361200  0.74008000  0.57512000  1
  C  C29  1  0.25992000  0.58638800  0.92488000  1
  C  C30  1  0.74008000  0.41361200  0.92488000  1
  C  C31  1  0.91361200  0.75992000  0.92488000  1
  C  C32  1  0.25992000  0.41361200  0.42488000  1
  C  C33  1  0.74008000  0.58638800  0.42488000  1
  C  C34  1  0.41361200  0.25992000  0.07512000  1
  C  C35  1  0.91361200  0.24008000  0.42488000  1
  C  C36  1  0.08638800  0.75992000  0.42488000  1
  C  C37  1  0.24008000  0.91361200  0.07512000  1
  C  C38  1  0.75992000  0.08638800  0.07512000  1
  C  C39  1  0.24788400  0.05344100  0.37734500  1
  C  C40  1  0.58638800  0.74008000  0.07512000  1
  C  C41  1  0.74788400  0.55344100  0.62265500  1
  C  C42  1  0.44655900  0.25211600  0.87734500  1
  C  C43  1  0.94655900  0.24788400  0.62265500  1
  C  C44  1  0.05344100  0.75211600  0.62265500  1
  C  C45  1  0.24788400  0.94655900  0.87734500  1
  C  C46  1  0.75211600  0.05344100  0.87734500  1
  C  C47  1  0.55344100  0.74788400  0.87734500  1
  C  C48  1  0.70294700  0.70294700  0.25000000  1
  C  C49  1  0.79705300  0.20294700  0.25000000  1
  C  C50  1  0.20294700  0.79705300  0.25000000  1
  C  C51  1  0.29705300  0.29705300  0.25000000  1
  C  C52  1  0.79705300  0.79705300  0.75000000  1
  C  C53  1  0.70294700  0.29705300  0.75000000  1
  C  C54  1  0.29705300  0.70294700  0.75000000  1
  C  C55  1  0.20294700  0.20294700  0.75000000  1
  C  C56  1  0.94655900  0.75211600  0.12265500  1
  C  C57  1  0.74788400  0.44655900  0.12265500  1
  C  C58  1  0.25211600  0.55344100  0.12265500  1
  C  C59  1  0.44655900  0.74788400  0.37734500  1
  C  C60  1  0.55344100  0.25211600  0.37734500  1
  C  C61  1  0.05344100  0.24788400  0.12265500  1
  C  C62  1  0.75211600  0.94655900  0.37734500  1
  C  C63  1  0.25211600  0.44655900  0.62265500  1
