# generated using pymatgen
data_Cu5NiC7
_symmetry_space_group_name_H-M   'P 1'
_cell_length_a   5.07509376
_cell_length_b   5.07509376
_cell_length_c   17.30292800
_cell_angle_alpha   90.00000000
_cell_angle_beta   90.00000000
_cell_angle_gamma   146.69182137
_symmetry_Int_Tables_number   1
_chemical_formula_structural   Cu5NiC7
_chemical_formula_sum   'Cu10 Ni2 C14'
_cell_volume   244.73297894
_cell_formula_units_Z   2
loop_
 _symmetry_equiv_pos_site_id
 _symmetry_equiv_pos_as_xyz
  1  'x, y, z'
loop_
 _atom_site_type_symbol
 _atom_site_label
 _atom_site_symmetry_multiplicity
 _atom_site_fract_x
 _atom_site_fract_y
 _atom_site_fract_z
 _atom_site_occupancy
  Ni  Ni0  1  0.19125200  0.80874800  0.75000000  1
  Ni  Ni1  1  0.80874800  0.19125200  0.25000000  1
  Cu  Cu2  1  0.71716900  0.28283100  0.57717700  1
  Cu  Cu3  1  0.55165600  0.44834400  0.15179800  1
  Cu  Cu4  1  0.00000000  0.00000000  0.50000000  1
  Cu  Cu5  1  0.00000000  0.00000000  0.00000000  1
  Cu  Cu6  1  0.44834400  0.55165600  0.84820200  1
  Cu  Cu7  1  0.28283100  0.71716900  0.42282300  1
  Cu  Cu8  1  0.28283100  0.71716900  0.07717700  1
  Cu  Cu9  1  0.71716900  0.28283100  0.92282300  1
  Cu  Cu10  1  0.44834400  0.55165600  0.65179800  1
  Cu  Cu11  1  0.55165600  0.44834400  0.34820200  1
  C  C12  1  0.36179900  0.63820100  0.95888300  1
  C  C13  1  0.63820100  0.36179900  0.04111700  1
  C  C14  1  0.63820100  0.36179900  0.45888300  1
  C  C15  1  0.36179900  0.63820100  0.54111700  1
  C  C16  1  0.82202900  0.17797100  0.82554900  1
  C  C17  1  0.17797100  0.82202900  0.17445100  1
  C  C18  1  0.17797100  0.82202900  0.32554900  1
  C  C19  1  0.82202900  0.17797100  0.67445100  1
  C  C20  1  0.07023200  0.92976800  0.88605700  1
  C  C21  1  0.92976800  0.07023200  0.11394300  1
  C  C22  1  0.92976800  0.07023200  0.38605700  1
  C  C23  1  0.07023200  0.92976800  0.61394300  1
  C  C24  1  0.54211200  0.45788800  0.75000000  1
  C  C25  1  0.45788800  0.54211200  0.25000000  1
