# generated using pymatgen
data_Cu8(Ni2C5)3
_symmetry_space_group_name_H-M   'P 1'
_cell_length_a   8.06940900
_cell_length_b   9.87868900
_cell_length_c   14.83452997
_cell_angle_alpha   68.48075152
_cell_angle_beta   90.00000000
_cell_angle_gamma   90.00000000
_symmetry_Int_Tables_number   1
_chemical_formula_structural   Cu8(Ni2C5)3
_chemical_formula_sum   'Cu32 Ni24 C60'
_cell_volume   1100.10777385
_cell_formula_units_Z   4
loop_
 _symmetry_equiv_pos_site_id
 _symmetry_equiv_pos_as_xyz
  1  'x, y, z'
loop_
 _atom_site_type_symbol
 _atom_site_label
 _atom_site_symmetry_multiplicity
 _atom_site_fract_x
 _atom_site_fract_y
 _atom_site_fract_z
 _atom_site_occupancy
  C  C0  1  0.94249300  0.28230000  0.18874700  1
  C  C1  1  0.05750700  0.71770000  0.81125300  1
  C  C2  1  0.44249300  0.71770000  0.31125300  1
  C  C3  1  0.55750700  0.28230000  0.68874700  1
  Ni  Ni4  1  0.55236100  0.27064800  0.20351300  1
  Ni  Ni5  1  0.44763900  0.72935200  0.79648700  1
  Ni  Ni6  1  0.05236100  0.72935200  0.29648700  1
  Ni  Ni7  1  0.94763900  0.27064800  0.70351300  1
  Ni  Ni8  1  0.61214100  0.48307000  0.24984700  1
  Ni  Ni9  1  0.38785900  0.51693000  0.75015300  1
  Ni  Ni10  1  0.11214100  0.51693000  0.25015300  1
  Ni  Ni11  1  0.88785900  0.48307000  0.74984700  1
  Ni  Ni12  1  0.85070800  0.65585300  0.18205800  1
  Ni  Ni13  1  0.14929200  0.34414700  0.81794200  1
  Ni  Ni14  1  0.35070800  0.34414700  0.31794200  1
  Ni  Ni15  1  0.64929200  0.65585300  0.68205800  1
  Ni  Ni16  1  0.84846800  0.92049600  0.18340900  1
  Ni  Ni17  1  0.15153200  0.07950400  0.81659100  1
  Ni  Ni18  1  0.34846800  0.07950400  0.31659100  1
  Ni  Ni19  1  0.65153200  0.92049600  0.68340900  1
  Ni  Ni20  1  0.76669200  0.87233100  0.03790700  1
  Ni  Ni21  1  0.23330800  0.12766900  0.96209300  1
  Ni  Ni22  1  0.26669200  0.12766900  0.46209300  1
  Ni  Ni23  1  0.73330800  0.87233100  0.53790700  1
  Ni  Ni24  1  0.11585800  0.98807400  0.24421100  1
  Ni  Ni25  1  0.88414200  0.01192600  0.75578900  1
  Ni  Ni26  1  0.61585800  0.01192600  0.25578900  1
  Ni  Ni27  1  0.38414200  0.98807400  0.74421100  1
  Cu  Cu28  1  0.65032400  0.63351700  0.49512200  1
  Cu  Cu29  1  0.34967600  0.36648300  0.50487800  1
  Cu  Cu30  1  0.15032400  0.36648300  0.00487800  1
  Cu  Cu31  1  0.84967600  0.63351700  0.99512200  1
  Cu  Cu32  1  0.82245600  0.20223700  0.01892900  1
  Cu  Cu33  1  0.17754400  0.79776300  0.98107100  1
  Cu  Cu34  1  0.32245600  0.79776300  0.48107100  1
  Cu  Cu35  1  0.67754400  0.20223700  0.51892900  1
  Cu  Cu36  1  0.84259200  0.85462500  0.41938900  1
  Cu  Cu37  1  0.15740800  0.14537500  0.58061100  1
  Cu  Cu38  1  0.34259200  0.14537500  0.08061100  1
  Cu  Cu39  1  0.65740800  0.85462500  0.91938900  1
  Cu  Cu40  1  0.43983200  0.75167900  0.09171000  1
  Cu  Cu41  1  0.56016800  0.24832100  0.90829000  1
  Cu  Cu42  1  0.93983200  0.24832100  0.40829000  1
  Cu  Cu43  1  0.06016800  0.75167900  0.59171000  1
  Cu  Cu44  1  0.36809200  0.89470200  0.10183500  1
  Cu  Cu45  1  0.63190800  0.10529800  0.89816500  1
  Cu  Cu46  1  0.86809200  0.10529800  0.39816500  1
  Cu  Cu47  1  0.13190800  0.89470200  0.60183500  1
  Cu  Cu48  1  0.65382300  0.37542900  0.47134500  1
  Cu  Cu49  1  0.34617700  0.62457100  0.52865500  1
  Cu  Cu50  1  0.15382300  0.62457100  0.02865500  1
  Cu  Cu51  1  0.84617700  0.37542900  0.97134500  1
  Cu  Cu52  1  0.76183500  0.62847800  0.41159100  1
  Cu  Cu53  1  0.23816500  0.37152200  0.58840900  1
  Cu  Cu54  1  0.26183500  0.37152200  0.08840900  1
  Cu  Cu55  1  0.73816500  0.62847800  0.91159100  1
  Cu  Cu56  1  0.54450500  0.32677100  0.06072400  1
  Cu  Cu57  1  0.45549500  0.67322900  0.93927600  1
  Cu  Cu58  1  0.04450500  0.67322900  0.43927600  1
  Cu  Cu59  1  0.95549500  0.32677100  0.56072400  1
  C  C60  1  0.64696900  0.60509400  0.43771000  1
  C  C61  1  0.35303100  0.39490600  0.56229000  1
  C  C62  1  0.14696900  0.39490600  0.06229000  1
  C  C63  1  0.85303100  0.60509400  0.93771000  1
  C  C64  1  0.70134500  0.89930600  0.24560300  1
  C  C65  1  0.29865500  0.10069400  0.75439700  1
  C  C66  1  0.20134500  0.10069400  0.25439700  1
  C  C67  1  0.79865500  0.89930600  0.74560300  1
  C  C68  1  0.80791300  0.92711100  0.44710000  1
  C  C69  1  0.19208700  0.07288900  0.55290000  1
  C  C70  1  0.30791300  0.07288900  0.05290000  1
  C  C71  1  0.69208700  0.92711100  0.94710000  1
  C  C72  1  0.65127700  0.39686600  0.19873600  1
  C  C73  1  0.34872300  0.60313400  0.80126400  1
  C  C74  1  0.15127700  0.60313400  0.30126400  1
  C  C75  1  0.84872300  0.39686600  0.69873600  1
  C  C76  1  0.70565000  0.60096100  0.24450400  1
  C  C77  1  0.29435000  0.39903900  0.75549600  1
  C  C78  1  0.20565000  0.39903900  0.25549600  1
  C  C79  1  0.79435000  0.60096100  0.74450400  1
  C  C80  1  0.97272800  0.54081900  0.19153800  1
  C  C81  1  0.02727200  0.45918100  0.80846200  1
  C  C82  1  0.47272800  0.45918100  0.30846200  1
  C  C83  1  0.52727200  0.54081900  0.69153800  1
  C  C84  1  0.40163800  0.79169400  0.13854900  1
  C  C85  1  0.59836200  0.20830600  0.86145100  1
  C  C86  1  0.90163800  0.20830600  0.36145100  1
  C  C87  1  0.09836200  0.79169400  0.63854900  1
  C  C88  1  0.96050500  0.70235600  0.38804800  1
  C  C89  1  0.03949500  0.29764400  0.61195200  1
  C  C90  1  0.46050500  0.29764400  0.11195200  1
  C  C91  1  0.53949500  0.70235600  0.88804800  1
  C  C92  1  0.17161800  0.84760400  0.27985300  1
  C  C93  1  0.82838200  0.15239600  0.72014700  1
  C  C94  1  0.67161800  0.15239600  0.22014700  1
  C  C95  1  0.32838200  0.84760400  0.77985300  1
  C  C96  1  0.46493200  0.97553600  0.30200300  1
  C  C97  1  0.53506800  0.02446400  0.69799700  1
  C  C98  1  0.96493200  0.02446400  0.19799700  1
  C  C99  1  0.03506800  0.97553600  0.80200300  1
  C  C100  1  0.80124900  0.72565100  0.07985800  1
  C  C101  1  0.19875100  0.27434900  0.92014200  1
  C  C102  1  0.30124900  0.27434900  0.42014200  1
  C  C103  1  0.69875100  0.72565100  0.57985800  1
  C  C104  1  0.93180100  0.77082700  0.21341400  1
  C  C105  1  0.06819900  0.22917300  0.78658600  1
  C  C106  1  0.43180100  0.22917300  0.28658600  1
  C  C107  1  0.56819900  0.77082700  0.71341400  1
  C  C108  1  0.80247700  0.96958800  0.08107500  1
  C  C109  1  0.19752300  0.03041200  0.91892500  1
  C  C110  1  0.30247700  0.03041200  0.41892500  1
  C  C111  1  0.69752300  0.96958800  0.58107500  1
  C  C112  1  0.19931200  0.70463600  0.97324700  1
  C  C113  1  0.80068800  0.29536400  0.02675300  1
  C  C114  1  0.69931200  0.29536400  0.52675300  1
  C  C115  1  0.30068800  0.70463600  0.47324700  1
