# generated using pymatgen
data_Cu4NiC18
_symmetry_space_group_name_H-M   'P 1'
_cell_length_a   10.12601164
_cell_length_b   10.12601164
_cell_length_c   11.29356754
_cell_angle_alpha   70.32470182
_cell_angle_beta   70.32470182
_cell_angle_gamma   32.40162405
_symmetry_Int_Tables_number   1
_chemical_formula_structural   Cu4NiC18
_chemical_formula_sum   'Cu8 Ni2 C36'
_cell_volume   581.12453641
_cell_formula_units_Z   2
loop_
 _symmetry_equiv_pos_site_id
 _symmetry_equiv_pos_as_xyz
  1  'x, y, z'
loop_
 _atom_site_type_symbol
 _atom_site_label
 _atom_site_symmetry_multiplicity
 _atom_site_fract_x
 _atom_site_fract_y
 _atom_site_fract_z
 _atom_site_occupancy
  C  C0  1  0.48128500  0.81808300  0.04415900  1
  C  C1  1  0.51871500  0.18191700  0.95584100  1
  C  C2  1  0.18191700  0.51871500  0.45584100  1
  C  C3  1  0.81808300  0.48128500  0.54415900  1
  Ni  Ni4  1  0.65267300  0.34732700  0.25000000  1
  Ni  Ni5  1  0.34732700  0.65267300  0.75000000  1
  Cu  Cu6  1  0.68943900  0.93532800  0.28612600  1
  Cu  Cu7  1  0.31056100  0.06467200  0.71387400  1
  Cu  Cu8  1  0.06467200  0.31056100  0.21387400  1
  Cu  Cu9  1  0.93532800  0.68943900  0.78612600  1
  Cu  Cu10  1  0.75593300  0.13162600  0.59170100  1
  Cu  Cu11  1  0.24406700  0.86837400  0.40829900  1
  Cu  Cu12  1  0.86837400  0.24406700  0.90829900  1
  Cu  Cu13  1  0.13162600  0.75593300  0.09170100  1
  C  C14  1  0.77807800  0.95986000  0.10214500  1
  C  C15  1  0.22192200  0.04014000  0.89785500  1
  C  C16  1  0.04014000  0.22192200  0.39785500  1
  C  C17  1  0.95986000  0.77807800  0.60214500  1
  C  C18  1  0.25691200  0.20942200  0.05426500  1
  C  C19  1  0.74308800  0.79057800  0.94573500  1
  C  C20  1  0.79057800  0.74308800  0.44573500  1
  C  C21  1  0.20942200  0.25691200  0.55426500  1
  C  C22  1  0.52783400  0.21381900  0.32491800  1
  C  C23  1  0.47216600  0.78618100  0.67508200  1
  C  C24  1  0.78618100  0.47216600  0.17508200  1
  C  C25  1  0.21381900  0.52783400  0.82491800  1
  C  C26  1  0.87339800  0.10534800  0.41083700  1
  C  C27  1  0.12660200  0.89465200  0.58916300  1
  C  C28  1  0.89465200  0.12660200  0.08916300  1
  C  C29  1  0.10534800  0.87339800  0.91083700  1
  C  C30  1  0.52282000  0.71532200  0.42574900  1
  C  C31  1  0.47718000  0.28467800  0.57425100  1
  C  C32  1  0.28467800  0.47718000  0.07425100  1
  C  C33  1  0.71532200  0.52282000  0.92574900  1
  C  C34  1  0.39444200  0.63347600  0.12064000  1
  C  C35  1  0.60555800  0.36652400  0.87936000  1
  C  C36  1  0.36652400  0.60555800  0.37936000  1
  C  C37  1  0.63347600  0.39444200  0.62064000  1
  C  C38  1  0.41521800  0.07696300  0.26430800  1
  C  C39  1  0.58478200  0.92303700  0.73569200  1
  C  C40  1  0.92303700  0.58478200  0.23569200  1
  C  C41  1  0.07696300  0.41521800  0.76430800  1
  C  C42  1  0.24001300  0.97529900  0.22778300  1
  C  C43  1  0.75998700  0.02470100  0.77221700  1
  C  C44  1  0.02470100  0.75998700  0.27221700  1
  C  C45  1  0.97529900  0.24001300  0.72778300  1
