# generated using pymatgen
data_Cu4Ni3C19
_symmetry_space_group_name_H-M   'P 1'
_cell_length_a   5.53972100
_cell_length_b   9.81768600
_cell_length_c   18.08773745
_cell_angle_alpha   60.55672052
_cell_angle_beta   90.00000000
_cell_angle_gamma   90.00000000
_symmetry_Int_Tables_number   1
_chemical_formula_structural   Cu4Ni3C19
_chemical_formula_sum   'Cu8 Ni6 C38'
_cell_volume   856.68471047
_cell_formula_units_Z   2
loop_
 _symmetry_equiv_pos_site_id
 _symmetry_equiv_pos_as_xyz
  1  'x, y, z'
loop_
 _atom_site_type_symbol
 _atom_site_label
 _atom_site_symmetry_multiplicity
 _atom_site_fract_x
 _atom_site_fract_y
 _atom_site_fract_z
 _atom_site_occupancy
  C  C0  1  0.93329900  0.18492000  0.74404400  1
  C  C1  1  0.43329900  0.81508000  0.75595600  1
  C  C2  1  0.06670100  0.81508000  0.25595600  1
  C  C3  1  0.56670100  0.18492000  0.24404400  1
  C  C4  1  0.00000000  0.00000000  0.00000000  1
  C  C5  1  0.50000000  0.00000000  0.50000000  1
  Ni  Ni6  1  0.98068200  0.55163800  0.13459500  1
  Ni  Ni7  1  0.01931800  0.44836200  0.86540500  1
  Ni  Ni8  1  0.48068200  0.44836200  0.36540500  1
  Ni  Ni9  1  0.51931800  0.55163800  0.63459500  1
  Ni  Ni10  1  0.50000000  0.50000000  0.00000000  1
  Ni  Ni11  1  0.00000000  0.50000000  0.50000000  1
  Cu  Cu12  1  0.47010900  0.25353800  0.85724700  1
  Cu  Cu13  1  0.97248600  0.77381600  0.88781200  1
  Cu  Cu14  1  0.47248600  0.22618400  0.61218800  1
  Cu  Cu15  1  0.52751400  0.77381600  0.38781200  1
  Cu  Cu16  1  0.52989100  0.74646200  0.14275300  1
  Cu  Cu17  1  0.02751400  0.22618400  0.11218800  1
  Cu  Cu18  1  0.02989100  0.25353800  0.35724700  1
  Cu  Cu19  1  0.97010900  0.74646200  0.64275300  1
  C  C20  1  0.11076100  0.67121700  0.74113900  1
  C  C21  1  0.46566500  0.21376500  0.52183000  1
  C  C22  1  0.08666600  0.93291200  0.80027700  1
  C  C23  1  0.91532600  0.58779400  0.62479000  1
  C  C24  1  0.91333400  0.06708800  0.19972300  1
  C  C25  1  0.38923900  0.67121700  0.24113900  1
  C  C26  1  0.58666600  0.06708800  0.69972300  1
  C  C27  1  0.80814400  0.71558000  0.37135600  1
  C  C28  1  0.84543700  0.11256200  0.42557300  1
  C  C29  1  0.88923900  0.32878300  0.25886100  1
  C  C30  1  0.58467400  0.58779400  0.12479000  1
  C  C31  1  0.19185600  0.28442000  0.62864400  1
  C  C32  1  0.16897800  0.61988000  0.90508800  1
  C  C33  1  0.15456300  0.88743800  0.57442700  1
  C  C34  1  0.82372300  0.80566000  0.14619600  1
  C  C35  1  0.32372300  0.19434000  0.35380400  1
  C  C36  1  0.66897800  0.38012000  0.59491200  1
  C  C37  1  0.41333400  0.93291200  0.30027700  1
  C  C38  1  0.34543700  0.88743800  0.07442700  1
  C  C39  1  0.30814400  0.28442000  0.12864400  1
  C  C40  1  0.67627700  0.80566000  0.64619600  1
  C  C41  1  0.17627700  0.19434000  0.85380400  1
  C  C42  1  0.53433500  0.78623500  0.47817000  1
  C  C43  1  0.96566500  0.78623500  0.97817000  1
  C  C44  1  0.83102200  0.38012000  0.09491200  1
  C  C45  1  0.61076100  0.32878300  0.75886100  1
  C  C46  1  0.08467400  0.41220600  0.37521000  1
  C  C47  1  0.65456300  0.11256200  0.92557300  1
  C  C48  1  0.03433500  0.21376500  0.02183000  1
  C  C49  1  0.69185600  0.71558000  0.87135600  1
  C  C50  1  0.33102200  0.61988000  0.40508800  1
  C  C51  1  0.41532600  0.41220600  0.87521000  1
