# generated using pymatgen
data_Cu3(NiC8)2
_symmetry_space_group_name_H-M   'P 1'
_cell_length_a   9.62198573
_cell_length_b   9.62198573
_cell_length_c   7.08576200
_cell_angle_alpha   90.00000000
_cell_angle_beta   90.00000000
_cell_angle_gamma   119.99999815
_symmetry_Int_Tables_number   1
_chemical_formula_structural   Cu3(NiC8)2
_chemical_formula_sum   'Cu6 Ni4 C32'
_cell_volume   568.12855455
_cell_formula_units_Z   2
loop_
 _symmetry_equiv_pos_site_id
 _symmetry_equiv_pos_as_xyz
  1  'x, y, z'
loop_
 _atom_site_type_symbol
 _atom_site_label
 _atom_site_symmetry_multiplicity
 _atom_site_fract_x
 _atom_site_fract_y
 _atom_site_fract_z
 _atom_site_occupancy
  Ni  Ni0  1  0.66666700  0.33333300  0.00324300  1
  Ni  Ni1  1  0.33333300  0.66666700  0.99675700  1
  Ni  Ni2  1  0.33333300  0.66666700  0.50324300  1
  Ni  Ni3  1  0.66666700  0.33333300  0.49675700  1
  Cu  Cu4  1  0.74861000  0.98884600  0.75000000  1
  Cu  Cu5  1  0.25139000  0.01115400  0.25000000  1
  Cu  Cu6  1  0.24023600  0.25139000  0.75000000  1
  Cu  Cu7  1  0.75976400  0.74861000  0.25000000  1
  Cu  Cu8  1  0.01115400  0.75976400  0.75000000  1
  Cu  Cu9  1  0.98884600  0.24023600  0.25000000  1
  C  C10  1  0.97161700  0.37065300  0.75000000  1
  C  C11  1  0.02838300  0.62934700  0.25000000  1
  C  C12  1  0.39903600  0.02838300  0.75000000  1
  C  C13  1  0.60096400  0.97161700  0.25000000  1
  C  C14  1  0.62934700  0.60096400  0.75000000  1
  C  C15  1  0.37065300  0.39903600  0.25000000  1
  C  C16  1  0.87476200  0.47043500  0.75000000  1
  C  C17  1  0.12523800  0.52956500  0.25000000  1
  C  C18  1  0.59567300  0.12523800  0.75000000  1
  C  C19  1  0.40432700  0.87476200  0.25000000  1
  C  C20  1  0.52956500  0.40432700  0.75000000  1
  C  C21  1  0.47043500  0.59567300  0.25000000  1
  C  C22  1  0.91029400  0.24715700  0.93258200  1
  C  C23  1  0.08970600  0.75284300  0.06741800  1
  C  C24  1  0.33686300  0.08970600  0.93258200  1
  C  C25  1  0.08970600  0.75284300  0.43258200  1
  C  C26  1  0.66313700  0.91029400  0.06741800  1
  C  C27  1  0.91029400  0.24715700  0.56741800  1
  C  C28  1  0.75284300  0.66313700  0.93258200  1
  C  C29  1  0.66313700  0.91029400  0.43258200  1
  C  C30  1  0.24715700  0.33686300  0.06741800  1
  C  C31  1  0.33686300  0.08970600  0.56741800  1
  C  C32  1  0.24715700  0.33686300  0.43258200  1
  C  C33  1  0.75284300  0.66313700  0.56741800  1
  C  C34  1  0.51722700  0.68375500  0.75000000  1
  C  C35  1  0.48277300  0.31624500  0.25000000  1
  C  C36  1  0.16652800  0.48277300  0.75000000  1
  C  C37  1  0.83347200  0.51722700  0.25000000  1
  C  C38  1  0.31624500  0.83347200  0.75000000  1
  C  C39  1  0.68375500  0.16652800  0.25000000  1
  C  C40  1  0.00000000  0.00000000  0.75000000  1
  C  C41  1  0.00000000  0.00000000  0.25000000  1
