# generated using pymatgen
data_Cu3(NiC4)4
_symmetry_space_group_name_H-M   'P 1'
_cell_length_a   3.84905950
_cell_length_b   3.84906028
_cell_length_c   23.14718217
_cell_angle_alpha   94.76924309
_cell_angle_beta   94.76924311
_cell_angle_gamma   89.99999095
_symmetry_Int_Tables_number   1
_chemical_formula_structural   Cu3(NiC4)4
_chemical_formula_sum   'Cu3 Ni4 C16'
_cell_volume   340.55272184
_cell_formula_units_Z   1
loop_
 _symmetry_equiv_pos_site_id
 _symmetry_equiv_pos_as_xyz
  1  'x, y, z'
loop_
 _atom_site_type_symbol
 _atom_site_label
 _atom_site_symmetry_multiplicity
 _atom_site_fract_x
 _atom_site_fract_y
 _atom_site_fract_z
 _atom_site_occupancy
  C  C0  1  0.16402100  0.16402100  0.32804200  1
  C  C1  1  0.83597900  0.83597900  0.67195800  1
  Ni  Ni2  1  0.53595900  0.53595900  0.07191700  1
  Ni  Ni3  1  0.39049000  0.39049000  0.78098000  1
  Ni  Ni4  1  0.60951000  0.60951000  0.21902000  1
  Ni  Ni5  1  0.46404100  0.46404100  0.92808300  1
  C  C6  1  0.72486000  0.72486000  0.44971900  1
  C  C7  1  0.27514000  0.27514000  0.55028100  1
  Cu  Cu8  1  0.07922500  0.07922500  0.15845200  1
  Cu  Cu9  1  0.92077500  0.92077500  0.84154800  1
  Cu  Cu10  1  0.00000000  0.00000000  0.00000000  1
  C  C11  1  0.40324100  0.90324100  0.80648300  1
  C  C12  1  0.53033100  0.03033100  0.06066200  1
  C  C13  1  0.22139900  0.22139900  0.44279800  1
  C  C14  1  0.96966900  0.46966900  0.93933800  1
  C  C15  1  0.77860100  0.77860100  0.55720200  1
  C  C16  1  0.09675900  0.59675900  0.19351700  1
  C  C17  1  0.59675900  0.09675900  0.19351700  1
  C  C18  1  0.34589200  0.34589200  0.69178300  1
  C  C19  1  0.90324100  0.40324100  0.80648300  1
  C  C20  1  0.03033100  0.53033100  0.06066200  1
  C  C21  1  0.46966900  0.96966900  0.93933800  1
  C  C22  1  0.65410800  0.65410800  0.30821700  1
