# generated using pymatgen
data_CuNi4C15
_symmetry_space_group_name_H-M   'P 1'
_cell_length_a   5.97967712
_cell_length_b   5.97967712
_cell_length_c   29.76704628
_cell_angle_alpha   88.92588276
_cell_angle_beta   88.92588276
_cell_angle_gamma   59.95235146
_symmetry_Int_Tables_number   1
_chemical_formula_structural   CuNi4C15
_chemical_formula_sum   'Cu3 Ni12 C45'
_cell_volume   921.10980455
_cell_formula_units_Z   3
loop_
 _symmetry_equiv_pos_site_id
 _symmetry_equiv_pos_as_xyz
  1  'x, y, z'
loop_
 _atom_site_type_symbol
 _atom_site_label
 _atom_site_symmetry_multiplicity
 _atom_site_fract_x
 _atom_site_fract_y
 _atom_site_fract_z
 _atom_site_occupancy
  Ni  Ni0  1  0.66775800  0.66775800  0.53686800  1
  Ni  Ni1  1  0.33224200  0.33224200  0.46313200  1
  Ni  Ni2  1  0.65817000  0.65817000  0.38349700  1
  Ni  Ni3  1  0.34183000  0.34183000  0.61650300  1
  Ni  Ni4  1  0.99392000  0.99392000  0.28262300  1
  Ni  Ni5  1  0.00608000  0.00608000  0.71737700  1
  Ni  Ni6  1  0.66842700  0.66842700  0.79699700  1
  Ni  Ni7  1  0.33157300  0.33157300  0.20300300  1
  Ni  Ni8  1  0.00144400  0.00144400  0.13075200  1
  Ni  Ni9  1  0.99855600  0.99855600  0.86924800  1
  Ni  Ni10  1  0.67073900  0.67073900  0.94958300  1
  Ni  Ni11  1  0.32926100  0.32926100  0.05041700  1
  Cu  Cu12  1  0.67763000  0.67763000  0.66698400  1
  Cu  Cu13  1  0.32237000  0.32237000  0.33301600  1
  Cu  Cu14  1  0.00000000  0.00000000  0.00000000  1
  C  C15  1  0.00000000  0.00000000  0.50000000  1
  C  C16  1  0.98685900  0.98685900  0.41429200  1
  C  C17  1  0.01314100  0.01314100  0.58570800  1
  C  C18  1  0.66053900  0.66053900  0.25160500  1
  C  C19  1  0.33946100  0.33946100  0.74839500  1
  C  C20  1  0.67104900  0.67104900  0.16641900  1
  C  C21  1  0.32895200  0.32895200  0.83358100  1
  C  C22  1  0.65867800  0.65867800  0.08057300  1
  C  C23  1  0.34132200  0.34132200  0.91942700  1
  C  C24  1  0.83876000  0.83876000  0.46184100  1
  C  C25  1  0.16124000  0.16124000  0.53815900  1
  C  C26  1  0.86350500  0.86350500  0.62544800  1
  C  C27  1  0.13649500  0.13649500  0.37455200  1
  C  C28  1  0.49517600  0.49517600  0.28499100  1
  C  C29  1  0.50482400  0.50482400  0.71500900  1
  C  C30  1  0.17735400  0.17735400  0.79121900  1
  C  C31  1  0.82264600  0.82264600  0.20878100  1
  C  C32  1  0.51213200  0.51213200  0.12826700  1
  C  C33  1  0.48786800  0.48786800  0.87173300  1
  C  C34  1  0.19781700  0.19781700  0.96252900  1
  C  C35  1  0.80218300  0.80218300  0.03747100  1
  C  C36  1  0.30204000  0.83753300  0.45602300  1
  C  C37  1  0.83753300  0.30204000  0.45602300  1
  C  C38  1  0.69796000  0.16246700  0.54397700  1
  C  C39  1  0.16246700  0.69796000  0.54397700  1
  C  C40  1  0.33191300  0.86083100  0.62037000  1
  C  C41  1  0.86083100  0.33191300  0.62037000  1
  C  C42  1  0.66808700  0.13916900  0.37963000  1
  C  C43  1  0.13916900  0.66808700  0.37963000  1
  C  C44  1  0.50140400  0.03649000  0.71063800  1
  C  C45  1  0.03649000  0.50140400  0.71063800  1
  C  C46  1  0.49859600  0.96351000  0.28936200  1
  C  C47  1  0.96351000  0.49859600  0.28936200  1
  C  C48  1  0.64332900  0.16811100  0.79216000  1
  C  C49  1  0.16811100  0.64332900  0.79216000  1
  C  C50  1  0.35667100  0.83188900  0.20784000  1
  C  C51  1  0.83188900  0.35667100  0.20784000  1
  C  C52  1  0.48245100  0.02434800  0.87727100  1
  C  C53  1  0.02434800  0.48245100  0.87727100  1
  C  C54  1  0.51754900  0.97565200  0.12272900  1
  C  C55  1  0.97565200  0.51754900  0.12272900  1
  C  C56  1  0.66650700  0.19430100  0.95148000  1
  C  C57  1  0.19430100  0.66650700  0.95148000  1
  C  C58  1  0.33349300  0.80569900  0.04852000  1
  C  C59  1  0.80569900  0.33349300  0.04852000  1
