# generated using pymatgen
data_Cu2Ni3C31
_symmetry_space_group_name_H-M   'P 1'
_cell_length_a   8.61064029
_cell_length_b   8.61064029
_cell_length_c   8.61064019
_cell_angle_alpha   60.23177651
_cell_angle_beta   60.23177651
_cell_angle_gamma   60.23177407
_symmetry_Int_Tables_number   1
_chemical_formula_structural   Cu2Ni3C31
_chemical_formula_sum   'Cu2 Ni3 C31'
_cell_volume   453.79970634
_cell_formula_units_Z   1
loop_
 _symmetry_equiv_pos_site_id
 _symmetry_equiv_pos_as_xyz
  1  'x, y, z'
loop_
 _atom_site_type_symbol
 _atom_site_label
 _atom_site_symmetry_multiplicity
 _atom_site_fract_x
 _atom_site_fract_y
 _atom_site_fract_z
 _atom_site_occupancy
  Ni  Ni0  1  0.64562200  0.64562200  0.64562200  1
  Ni  Ni1  1  0.85544800  0.85544800  0.85544800  1
  Ni  Ni2  1  0.35463500  0.35463500  0.35463500  1
  Cu  Cu3  1  0.99959300  0.99959300  0.99959300  1
  Cu  Cu4  1  0.50075800  0.50075800  0.50075800  1
  C  C5  1  0.14272700  0.14272700  0.14272700  1
  C  C6  1  0.95637700  0.24988600  0.54085900  1
  C  C7  1  0.54085900  0.95637700  0.24988600  1
  C  C8  1  0.24988600  0.54085900  0.95637700  1
  C  C9  1  0.75108000  0.45517600  0.04482200  1
  C  C10  1  0.45517600  0.04482200  0.75108000  1
  C  C11  1  0.04482200  0.75108000  0.45517600  1
  C  C12  1  0.49834800  0.11781000  0.31331300  1
  C  C13  1  0.31331300  0.49834800  0.11781000  1
  C  C14  1  0.11781000  0.31331300  0.49834800  1
  C  C15  1  0.94295100  0.08743200  0.73727900  1
  C  C16  1  0.99296700  0.19004900  0.38409600  1
  C  C17  1  0.76172700  0.41386700  0.56143300  1
  C  C18  1  0.73727900  0.94295100  0.08743200  1
  C  C19  1  0.56143300  0.76172700  0.41386700  1
  C  C20  1  0.81318400  0.61626300  0.00160100  1
  C  C21  1  0.41386700  0.56143300  0.76172700  1
  C  C22  1  0.91283000  0.26075400  0.05838000  1
  C  C23  1  0.61626300  0.00160100  0.81318400  1
  C  C24  1  0.38409600  0.99296700  0.19004900  1
  C  C25  1  0.08743200  0.73727900  0.94295100  1
  C  C26  1  0.58681500  0.44187700  0.23866800  1
  C  C27  1  0.19004900  0.38409600  0.99296700  1
  C  C28  1  0.44187700  0.23866800  0.58681500  1
  C  C29  1  0.26075400  0.05838000  0.91283000  1
  C  C30  1  0.23866800  0.58681500  0.44187700  1
  C  C31  1  0.00160100  0.81318400  0.61626300  1
  C  C32  1  0.05838000  0.91283000  0.26075400  1
  C  C33  1  0.88522500  0.68677700  0.49938300  1
  C  C34  1  0.68677700  0.49938300  0.88522500  1
  C  C35  1  0.49938300  0.88522500  0.68677700  1
