# generated using pymatgen
data_Cu27Ni9C5
_symmetry_space_group_name_H-M   'P 1'
_cell_length_a   13.65664682
_cell_length_b   13.65664682
_cell_length_c   13.65664682
_cell_angle_alpha   90.00000000
_cell_angle_beta   90.00000000
_cell_angle_gamma   90.00000000
_symmetry_Int_Tables_number   1
_chemical_formula_structural   Cu27Ni9C5
_chemical_formula_sum   'Cu108 Ni36 C20'
_cell_volume   2547.01929083
_cell_formula_units_Z   4
loop_
 _symmetry_equiv_pos_site_id
 _symmetry_equiv_pos_as_xyz
  1  'x, y, z'
loop_
 _atom_site_type_symbol
 _atom_site_label
 _atom_site_symmetry_multiplicity
 _atom_site_fract_x
 _atom_site_fract_y
 _atom_site_fract_z
 _atom_site_occupancy
  C  C0  1  0.12500000  0.18839367  0.43839367  1
  C  C1  1  0.37500000  0.81160633  0.93839367  1
  C  C2  1  0.87500000  0.68839367  0.06160633  1
  C  C3  1  0.43839367  0.12500000  0.18839367  1
  C  C4  1  0.93839367  0.37500000  0.81160633  1
  C  C5  1  0.62500000  0.31160633  0.56160633  1
  C  C6  1  0.56160633  0.62500000  0.31160633  1
  C  C7  1  0.06160633  0.87500000  0.68839367  1
  C  C8  1  0.18839367  0.43839367  0.12500000  1
  C  C9  1  0.68839367  0.06160633  0.87500000  1
  C  C10  1  0.31160633  0.56160633  0.62500000  1
  C  C11  1  0.81160633  0.93839367  0.37500000  1
  C  C12  1  0.04846667  0.04846667  0.04846667  1
  C  C13  1  0.45153333  0.95153333  0.54846667  1
  C  C14  1  0.95153333  0.54846667  0.45153333  1
  C  C15  1  0.79846667  0.29846667  0.20153333  1
  C  C16  1  0.54846667  0.45153333  0.95153333  1
  C  C17  1  0.70153333  0.70153333  0.70153333  1
  C  C18  1  0.29846667  0.20153333  0.79846667  1
  C  C19  1  0.20153333  0.79846667  0.29846667  1
  Ni  Ni20  1  0.10036964  0.41537868  0.36374820  1
  Ni  Ni21  1  0.39963036  0.58462132  0.86374820  1
  Ni  Ni22  1  0.89963036  0.91537868  0.13625180  1
  Ni  Ni23  1  0.36374820  0.10036964  0.41537868  1
  Ni  Ni24  1  0.16537868  0.35036964  0.88625180  1
  Ni  Ni25  1  0.60036964  0.08462132  0.63625180  1
  Ni  Ni26  1  0.86374820  0.39963036  0.58462132  1
  Ni  Ni27  1  0.33462132  0.64963036  0.38625180  1
  Ni  Ni28  1  0.13625180  0.89963036  0.91537868  1
  Ni  Ni29  1  0.66537868  0.14963036  0.11374820  1
  Ni  Ni30  1  0.63625180  0.60036964  0.08462132  1
  Ni  Ni31  1  0.83462132  0.85036964  0.61374820  1
  Ni  Ni32  1  0.41537868  0.36374820  0.10036964  1
  Ni  Ni33  1  0.85036964  0.61374820  0.83462132  1
  Ni  Ni34  1  0.91537868  0.13625180  0.89963036  1
  Ni  Ni35  1  0.64963036  0.38625180  0.33462132  1
  Ni  Ni36  1  0.08462132  0.63625180  0.60036964  1
  Ni  Ni37  1  0.35036964  0.88625180  0.16537868  1
  Ni  Ni38  1  0.58462132  0.86374820  0.39963036  1
  Ni  Ni39  1  0.14963036  0.11374820  0.66537868  1
  Ni  Ni40  1  0.88625180  0.16537868  0.35036964  1
  Ni  Ni41  1  0.38625180  0.33462132  0.64963036  1
  Ni  Ni42  1  0.61374820  0.83462132  0.85036964  1
  Ni  Ni43  1  0.11374820  0.66537868  0.14963036  1
  Ni  Ni44  1  0.12500000  0.01284979  0.26284979  1
  Ni  Ni45  1  0.37500000  0.98715021  0.76284979  1
  Ni  Ni46  1  0.87500000  0.51284979  0.23715021  1
  Ni  Ni47  1  0.26284979  0.12500000  0.01284979  1
  Ni  Ni48  1  0.76284979  0.37500000  0.98715021  1
  Ni  Ni49  1  0.62500000  0.48715021  0.73715021  1
  Ni  Ni50  1  0.73715021  0.62500000  0.48715021  1
  Ni  Ni51  1  0.23715021  0.87500000  0.51284979  1
  Ni  Ni52  1  0.01284979  0.26284979  0.12500000  1
  Ni  Ni53  1  0.51284979  0.23715021  0.87500000  1
  Ni  Ni54  1  0.48715021  0.73715021  0.62500000  1
  Ni  Ni55  1  0.98715021  0.76284979  0.37500000  1
  Cu  Cu56  1  0.12500000  0.94605678  0.19605678  1
  Cu  Cu57  1  0.37500000  0.05394322  0.69605678  1
  Cu  Cu58  1  0.87500000  0.44605678  0.30394322  1
  Cu  Cu59  1  0.19605678  0.12500000  0.94605678  1
  Cu  Cu60  1  0.69605678  0.37500000  0.05394322  1
  Cu  Cu61  1  0.62500000  0.55394322  0.80394322  1
  Cu  Cu62  1  0.80394322  0.62500000  0.55394322  1
  Cu  Cu63  1  0.30394322  0.87500000  0.44605678  1
  Cu  Cu64  1  0.94605678  0.19605678  0.12500000  1
  Cu  Cu65  1  0.44605678  0.30394322  0.87500000  1
  Cu  Cu66  1  0.55394322  0.80394322  0.62500000  1
  Cu  Cu67  1  0.05394322  0.69605678  0.37500000  1
  Cu  Cu68  1  0.05348951  0.39158747  0.44154629  1
  Cu  Cu69  1  0.44651049  0.60841253  0.94154629  1
  Cu  Cu70  1  0.94651049  0.89158747  0.05845371  1
  Cu  Cu71  1  0.44154629  0.05348951  0.39158747  1
  Cu  Cu72  1  0.14158747  0.30348951  0.80845371  1
  Cu  Cu73  1  0.55348951  0.10841253  0.55845371  1
  Cu  Cu74  1  0.94154629  0.44651049  0.60841253  1
  Cu  Cu75  1  0.35841253  0.69651049  0.30845371  1
  Cu  Cu76  1  0.05845371  0.94651049  0.89158747  1
  Cu  Cu77  1  0.64158747  0.19651049  0.19154629  1
  Cu  Cu78  1  0.55845371  0.55348951  0.10841253  1
  Cu  Cu79  1  0.85841253  0.80348951  0.69154629  1
  Cu  Cu80  1  0.39158747  0.44154629  0.05348951  1
  Cu  Cu81  1  0.80348951  0.69154629  0.85841253  1
  Cu  Cu82  1  0.89158747  0.05845371  0.94651049  1
  Cu  Cu83  1  0.69651049  0.30845371  0.35841253  1
  Cu  Cu84  1  0.10841253  0.55845371  0.55348951  1
  Cu  Cu85  1  0.30348951  0.80845371  0.14158747  1
  Cu  Cu86  1  0.60841253  0.94154629  0.44651049  1
  Cu  Cu87  1  0.19651049  0.19154629  0.64158747  1
  Cu  Cu88  1  0.80845371  0.14158747  0.30348951  1
  Cu  Cu89  1  0.30845371  0.35841253  0.69651049  1
  Cu  Cu90  1  0.69154629  0.85841253  0.80348951  1
  Cu  Cu91  1  0.19154629  0.64158747  0.19651049  1
  Cu  Cu92  1  0.08130205  0.49952120  0.32740718  1
  Cu  Cu93  1  0.41869795  0.50047880  0.82740718  1
  Cu  Cu94  1  0.91869795  0.99952120  0.17259282  1
  Cu  Cu95  1  0.32740718  0.08130205  0.49952120  1
  Cu  Cu96  1  0.24952120  0.33130205  0.92259282  1
  Cu  Cu97  1  0.58130205  0.00047880  0.67259282  1
  Cu  Cu98  1  0.82740718  0.41869795  0.50047880  1
  Cu  Cu99  1  0.25047880  0.66869795  0.42259282  1
  Cu  Cu100  1  0.17259282  0.91869795  0.99952120  1
  Cu  Cu101  1  0.74952120  0.16869795  0.07740718  1
  Cu  Cu102  1  0.67259282  0.58130205  0.00047880  1
  Cu  Cu103  1  0.75047880  0.83130205  0.57740718  1
  Cu  Cu104  1  0.49952120  0.32740718  0.08130205  1
  Cu  Cu105  1  0.83130205  0.57740718  0.75047880  1
  Cu  Cu106  1  0.99952120  0.17259282  0.91869795  1
  Cu  Cu107  1  0.66869795  0.42259282  0.25047880  1
  Cu  Cu108  1  0.00047880  0.67259282  0.58130205  1
  Cu  Cu109  1  0.33130205  0.92259282  0.24952120  1
  Cu  Cu110  1  0.50047880  0.82740718  0.41869795  1
  Cu  Cu111  1  0.16869795  0.07740718  0.74952120  1
  Cu  Cu112  1  0.92259282  0.24952120  0.33130205  1
  Cu  Cu113  1  0.42259282  0.25047880  0.66869795  1
  Cu  Cu114  1  0.57740718  0.75047880  0.83130205  1
  Cu  Cu115  1  0.07740718  0.74952120  0.16869795  1
  Cu  Cu116  1  0.16118825  0.35935040  0.32541871  1
  Cu  Cu117  1  0.33881175  0.64064960  0.82541871  1
  Cu  Cu118  1  0.83881175  0.85935040  0.17458129  1
  Cu  Cu119  1  0.32541871  0.16118825  0.35935040  1
  Cu  Cu120  1  0.10935040  0.41118825  0.92458129  1
  Cu  Cu121  1  0.66118825  0.14064960  0.67458129  1
  Cu  Cu122  1  0.82541871  0.33881175  0.64064960  1
  Cu  Cu123  1  0.39064960  0.58881175  0.42458129  1
  Cu  Cu124  1  0.17458129  0.83881175  0.85935040  1
  Cu  Cu125  1  0.60935040  0.08881175  0.07541871  1
  Cu  Cu126  1  0.67458129  0.66118825  0.14064960  1
  Cu  Cu127  1  0.89064960  0.91118825  0.57541871  1
  Cu  Cu128  1  0.35935040  0.32541871  0.16118825  1
  Cu  Cu129  1  0.91118825  0.57541871  0.89064960  1
  Cu  Cu130  1  0.85935040  0.17458129  0.83881175  1
  Cu  Cu131  1  0.58881175  0.42458129  0.39064960  1
  Cu  Cu132  1  0.14064960  0.67458129  0.66118825  1
  Cu  Cu133  1  0.41118825  0.92458129  0.10935040  1
  Cu  Cu134  1  0.64064960  0.82541871  0.33881175  1
  Cu  Cu135  1  0.08881175  0.07541871  0.60935040  1
  Cu  Cu136  1  0.92458129  0.10935040  0.41118825  1
  Cu  Cu137  1  0.42458129  0.39064960  0.58881175  1
  Cu  Cu138  1  0.57541871  0.89064960  0.91118825  1
  Cu  Cu139  1  0.07541871  0.60935040  0.08881175  1
  Cu  Cu140  1  0.09181178  0.09591083  0.24178028  1
  Cu  Cu141  1  0.40818822  0.90408917  0.74178028  1
  Cu  Cu142  1  0.90818822  0.59591083  0.25821972  1
  Cu  Cu143  1  0.24178028  0.09181178  0.09591083  1
  Cu  Cu144  1  0.84591083  0.34181178  0.00821972  1
  Cu  Cu145  1  0.59181178  0.40408917  0.75821972  1
  Cu  Cu146  1  0.74178028  0.40818822  0.90408917  1
  Cu  Cu147  1  0.65408917  0.65818822  0.50821972  1
  Cu  Cu148  1  0.25821972  0.90818822  0.59591083  1
  Cu  Cu149  1  0.34591083  0.15818822  0.99178028  1
  Cu  Cu150  1  0.75821972  0.59181178  0.40408917  1
  Cu  Cu151  1  0.15408917  0.84181178  0.49178028  1
  Cu  Cu152  1  0.09591083  0.24178028  0.09181178  1
  Cu  Cu153  1  0.84181178  0.49178028  0.15408917  1
  Cu  Cu154  1  0.59591083  0.25821972  0.90818822  1
  Cu  Cu155  1  0.65818822  0.50821972  0.65408917  1
  Cu  Cu156  1  0.40408917  0.75821972  0.59181178  1
  Cu  Cu157  1  0.34181178  0.00821972  0.84591083  1
  Cu  Cu158  1  0.90408917  0.74178028  0.40818822  1
  Cu  Cu159  1  0.15818822  0.99178028  0.34591083  1
  Cu  Cu160  1  0.00821972  0.84591083  0.34181178  1
  Cu  Cu161  1  0.50821972  0.65408917  0.65818822  1
  Cu  Cu162  1  0.49178028  0.15408917  0.84181178  1
  Cu  Cu163  1  0.99178028  0.34591083  0.15818822  1
