# generated using pymatgen
data_Cu3NiC36
_symmetry_space_group_name_H-M   'P 1'
_cell_length_a   8.61403900
_cell_length_b   8.62006690
_cell_length_c   8.62678927
_cell_angle_alpha   64.33987627
_cell_angle_beta   64.47102275
_cell_angle_gamma   64.19961754
_symmetry_Int_Tables_number   1
_chemical_formula_structural   Cu3NiC36
_chemical_formula_sum   'Cu3 Ni1 C36'
_cell_volume   496.08805507
_cell_formula_units_Z   1
loop_
 _symmetry_equiv_pos_site_id
 _symmetry_equiv_pos_as_xyz
  1  'x, y, z'
loop_
 _atom_site_type_symbol
 _atom_site_label
 _atom_site_symmetry_multiplicity
 _atom_site_fract_x
 _atom_site_fract_y
 _atom_site_fract_z
 _atom_site_occupancy
  C  C0  1  0.98336400  0.02012400  0.01068300  1
  C  C1  1  0.25444600  0.62368400  0.84436500  1
  C  C2  1  0.52304800  0.47993400  0.47564500  1
  C  C3  1  0.78321700  0.31740200  0.13795000  1
  C  C4  1  0.31263800  0.13583100  0.78557900  1
  C  C5  1  0.13760000  0.78770800  0.31594000  1
  Ni  Ni6  1  0.15866600  0.16214600  0.15983500  1
  Cu  Cu7  1  0.85363600  0.85578900  0.85243100  1
  Cu  Cu8  1  0.63937100  0.64550300  0.63734100  1
  Cu  Cu9  1  0.33567500  0.33600900  0.33997700  1
  C  C10  1  0.92828300  0.58004500  0.25486500  1
  C  C11  1  0.58024900  0.25525600  0.93057100  1
  C  C12  1  0.25165900  0.93424900  0.57379800  1
  C  C13  1  0.75792500  0.03973500  0.44548700  1
  C  C14  1  0.43933400  0.75790000  0.03354100  1
  C  C15  1  0.04385700  0.45071300  0.76042100  1
  C  C16  1  0.87758200  0.51314300  0.69734900  1
  C  C17  1  0.68002400  0.89075000  0.48245300  1
  C  C18  1  0.90136500  0.75968000  0.09498400  1
  C  C19  1  0.45005900  0.68671600  0.88746800  1
  C  C20  1  0.73911700  0.57770200  0.40214100  1
  C  C21  1  0.99370900  0.41188600  0.19522900  1
  C  C22  1  0.76064200  0.09715300  0.89858900  1
  C  C23  1  0.57267700  0.40775400  0.74288900  1
  C  C24  1  0.39502600  0.73846200  0.58251600  1
  C  C25  1  0.83025500  0.98779000  0.60199600  1
  C  C26  1  0.91732800  0.04613000  0.26646400  1
  C  C27  1  0.61526400  0.80586800  0.96371800  1
  C  C28  1  0.40962400  0.20112600  0.99251500  1
  C  C29  1  0.10065100  0.89822700  0.76066100  1
  C  C30  1  0.19455800  0.99177700  0.40739600  1
  C  C31  1  0.61668200  0.23152100  0.42254500  1
  C  C32  1  0.41786000  0.62059300  0.22497700  1
  C  C33  1  0.26955900  0.92860300  0.04110200  1
  C  C34  1  0.03199300  0.60594500  0.81723900  1
  C  C35  1  0.23029500  0.41070200  0.61716700  1
  C  C36  1  0.59652200  0.32183100  0.05980500  1
  C  C37  1  0.03874100  0.27575400  0.92397600  1
  C  C38  1  0.31923100  0.06487100  0.58568800  1
  C  C39  1  0.05826700  0.59298900  0.32370100  1
