# generated using pymatgen
data_CuNi3C10
_symmetry_space_group_name_H-M   'P 1'
_cell_length_a   7.73996800
_cell_length_b   7.74133506
_cell_length_c   8.50748825
_cell_angle_alpha   66.77336511
_cell_angle_beta   65.63298660
_cell_angle_gamma   60.23567054
_symmetry_Int_Tables_number   1
_chemical_formula_structural   CuNi3C10
_chemical_formula_sum   'Cu2 Ni6 C20'
_cell_volume   391.33076885
_cell_formula_units_Z   2
loop_
 _symmetry_equiv_pos_site_id
 _symmetry_equiv_pos_as_xyz
  1  'x, y, z'
loop_
 _atom_site_type_symbol
 _atom_site_label
 _atom_site_symmetry_multiplicity
 _atom_site_fract_x
 _atom_site_fract_y
 _atom_site_fract_z
 _atom_site_occupancy
  Ni  Ni0  1  0.28531900  0.14238500  0.99867000  1
  Ni  Ni1  1  0.71468100  0.85761500  0.00133000  1
  Ni  Ni2  1  0.57369800  0.28662700  0.99605500  1
  Ni  Ni3  1  0.42630200  0.71337300  0.00394500  1
  Ni  Ni4  1  0.85799400  0.42953000  0.99650700  1
  Ni  Ni5  1  0.14200600  0.57047000  0.00349300  1
  Cu  Cu6  1  0.93945600  0.93860000  0.20499000  1
  Cu  Cu7  1  0.06054400  0.06140000  0.79501000  1
  C  C8  1  0.43224000  0.86982300  0.13056100  1
  C  C9  1  0.56776000  0.13017700  0.86943900  1
  C  C10  1  0.00716200  0.17086800  0.13632800  1
  C  C11  1  0.99283800  0.82913200  0.86367200  1
  C  C12  1  0.69711500  0.01741000  0.13742300  1
  C  C13  1  0.30288500  0.98259000  0.86257700  1
  C  C14  1  0.29544600  0.29583900  0.12608700  1
  C  C15  1  0.70455400  0.70416100  0.87391300  1
  C  C16  1  0.58336900  0.43723600  0.12692800  1
  C  C17  1  0.41663100  0.56276400  0.87307200  1
  C  C18  1  0.86227000  0.58483200  0.12981500  1
  C  C19  1  0.13773000  0.41516800  0.87018500  1
  C  C20  1  0.16544400  0.69136400  0.15003100  1
  C  C21  1  0.83455600  0.30863600  0.84996900  1
  C  C22  1  0.71204700  0.73665700  0.49387200  1
  C  C23  1  0.28795300  0.26334300  0.50612800  1
  C  C24  1  0.99194400  0.92539200  0.49905200  1
  C  C25  1  0.00805600  0.07460800  0.50094800  1
  C  C26  1  0.52689100  0.85098300  0.51561000  1
  C  C27  1  0.47310900  0.14901700  0.48439000  1
