# generated using pymatgen
data_Cu4Ni2C
_symmetry_space_group_name_H-M   'P 1'
_cell_length_a   6.17887316
_cell_length_b   9.19739600
_cell_length_c   7.66216993
_cell_angle_alpha   90.00000000
_cell_angle_beta   99.85767823
_cell_angle_gamma   90.00000000
_symmetry_Int_Tables_number   1
_chemical_formula_structural   Cu4Ni2C
_chemical_formula_sum   'Cu16 Ni8 C4'
_cell_volume   429.00884058
_cell_formula_units_Z   4
loop_
 _symmetry_equiv_pos_site_id
 _symmetry_equiv_pos_as_xyz
  1  'x, y, z'
loop_
 _atom_site_type_symbol
 _atom_site_label
 _atom_site_symmetry_multiplicity
 _atom_site_fract_x
 _atom_site_fract_y
 _atom_site_fract_z
 _atom_site_occupancy
  C  C0  1  0.19139900  0.63874500  0.40144300  1
  C  C1  1  0.80860100  0.36125500  0.59855700  1
  C  C2  1  0.30860100  0.13874500  0.09855700  1
  C  C3  1  0.69139900  0.86125500  0.90144300  1
  Ni  Ni4  1  0.62881500  0.38040300  0.19005200  1
  Ni  Ni5  1  0.37118500  0.61959700  0.80994800  1
  Ni  Ni6  1  0.87118500  0.88040300  0.30994800  1
  Ni  Ni7  1  0.12881500  0.11959700  0.69005200  1
  Ni  Ni8  1  0.85704500  0.80494400  0.17003300  1
  Ni  Ni9  1  0.14295500  0.19505600  0.82996700  1
  Ni  Ni10  1  0.64295500  0.30494400  0.32996700  1
  Ni  Ni11  1  0.35704500  0.69505600  0.67003300  1
  Cu  Cu12  1  0.97857200  0.68108700  0.17744500  1
  Cu  Cu13  1  0.02142800  0.31891300  0.82255500  1
  Cu  Cu14  1  0.52142800  0.18108700  0.32255500  1
  Cu  Cu15  1  0.47857200  0.81891300  0.67744500  1
  Cu  Cu16  1  0.15476300  0.45154800  0.40640900  1
  Cu  Cu17  1  0.84523700  0.54845200  0.59359100  1
  Cu  Cu18  1  0.34523700  0.95154800  0.09359100  1
  Cu  Cu19  1  0.65476300  0.04845200  0.90640900  1
  Cu  Cu20  1  0.42986000  0.66814000  0.32159400  1
  Cu  Cu21  1  0.57014000  0.33186000  0.67840600  1
  Cu  Cu22  1  0.07014000  0.16814000  0.17840600  1
  Cu  Cu23  1  0.92986000  0.83186000  0.82159400  1
  Cu  Cu24  1  0.01122800  0.82687500  0.44249900  1
  Cu  Cu25  1  0.98877200  0.17312500  0.55750100  1
  Cu  Cu26  1  0.48877200  0.32687500  0.05750100  1
  Cu  Cu27  1  0.51122800  0.67312500  0.94249900  1
