# generated using pymatgen
data_Cu2Ni8C67
_symmetry_space_group_name_H-M   'P 1'
_cell_length_a   9.70024300
_cell_length_b   10.02100579
_cell_length_c   10.43977074
_cell_angle_alpha   87.08815123
_cell_angle_beta   101.76210746
_cell_angle_gamma   118.28387935
_symmetry_Int_Tables_number   1
_chemical_formula_structural   Cu2Ni8C67
_chemical_formula_sum   'Cu2 Ni8 C67'
_cell_volume   873.65328115
_cell_formula_units_Z   1
loop_
 _symmetry_equiv_pos_site_id
 _symmetry_equiv_pos_as_xyz
  1  'x, y, z'
loop_
 _atom_site_type_symbol
 _atom_site_label
 _atom_site_symmetry_multiplicity
 _atom_site_fract_x
 _atom_site_fract_y
 _atom_site_fract_z
 _atom_site_occupancy
  C  C0  1  0.50000000  0.00000000  0.50000000  1
  C  C1  1  0.46027900  0.21184500  0.62493000  1
  C  C2  1  0.53972100  0.78815500  0.37507000  1
  C  C3  1  0.62709500  0.22590900  0.70377300  1
  C  C4  1  0.37290500  0.77409100  0.29622700  1
  C  C5  1  0.66619900  0.28010200  0.36699600  1
  C  C6  1  0.33380100  0.71989800  0.63300400  1
  C  C7  1  0.71066900  0.15346700  0.34682100  1
  C  C8  1  0.28933100  0.84653300  0.65317900  1
  C  C9  1  0.08392200  0.86105000  0.39567200  1
  C  C10  1  0.91607800  0.13895000  0.60432800  1
  C  C11  1  0.29491600  0.00646100  0.33089100  1
  C  C12  1  0.70508400  0.99353900  0.66910900  1
  C  C13  1  0.86695500  0.43861800  0.83331100  1
  C  C14  1  0.13304500  0.56138200  0.16668900  1
  C  C15  1  0.83011900  0.30295500  0.92244400  1
  C  C16  1  0.16988100  0.69704500  0.07755600  1
  C  C17  1  0.31767000  0.35583300  0.96894800  1
  C  C18  1  0.68233000  0.64416700  0.03105200  1
  C  C19  1  0.06077800  0.26907000  0.18554600  1
  C  C20  1  0.93922200  0.73093000  0.81445400  1
  C  C21  1  0.67095100  0.56752500  0.48156200  1
  C  C22  1  0.32904900  0.43247500  0.51843800  1
  C  C23  1  0.52258700  0.48940900  0.33398300  1
  C  C24  1  0.47741300  0.51059100  0.66601700  1
  C  C25  1  0.51095300  0.65352600  0.16468200  1
  C  C26  1  0.48904700  0.34647400  0.83531800  1
  C  C27  1  0.67799100  0.83663900  0.16191000  1
  C  C28  1  0.32200900  0.16336100  0.83809000  1
  C  C29  1  0.84965800  0.82731400  0.50540600  1
  C  C30  1  0.15034200  0.17268600  0.49459400  1
  C  C31  1  0.88097400  0.94331900  0.36884200  1
  C  C32  1  0.11902600  0.05668100  0.63115800  1
  C  C33  1  0.79704900  0.49148800  0.14332200  1
  C  C34  1  0.20295100  0.50851200  0.85667800  1
  C  C35  1  0.59214200  0.41861700  0.15255700  1
  C  C36  1  0.40785800  0.58138300  0.84744300  1
  C  C37  1  0.02362500  0.92700900  0.08145800  1
  C  C38  1  0.97637500  0.07299100  0.91854200  1
  C  C39  1  0.96922200  0.86477700  0.11982500  1
  C  C40  1  0.03077800  0.13522300  0.88017500  1
  C  C41  1  0.93059200  0.60094900  0.49286900  1
  C  C42  1  0.06940800  0.39905100  0.50713100  1
  C  C43  1  0.00135000  0.59977100  0.34816600  1
  C  C44  1  0.99865000  0.40022900  0.65183400  1
  C  C45  1  0.64903700  0.56911400  0.37417000  1
  C  C46  1  0.35096300  0.43088600  0.62583000  1
  C  C47  1  0.64335600  0.72026400  0.19276600  1
  C  C48  1  0.35664400  0.27973600  0.80723400  1
  C  C49  1  0.85104500  0.82770300  0.39897300  1
  C  C50  1  0.14895500  0.17229700  0.60102700  1
  C  C51  1  0.71402200  0.51616000  0.18256700  1
  C  C52  1  0.28597800  0.48384000  0.81743300  1
  C  C53  1  0.28903500  0.14544100  0.17530000  1
  C  C54  1  0.71096500  0.85455900  0.82470000  1
  C  C55  1  0.92048500  0.62767800  0.38732100  1
  C  C56  1  0.07951500  0.37232200  0.61267900  1
  Ni  Ni57  1  0.68275400  0.72313700  0.33621400  1
  Ni  Ni58  1  0.31724600  0.27686300  0.66378600  1
  Ni  Ni59  1  0.75208900  0.52110400  0.32605500  1
  Ni  Ni60  1  0.24791100  0.47889600  0.67394500  1
  Ni  Ni61  1  0.72479800  0.65847400  0.12985100  1
  Ni  Ni62  1  0.27520200  0.34152600  0.87014900  1
  Ni  Ni63  1  0.96187500  0.78417600  0.36481500  1
  Ni  Ni64  1  0.03812500  0.21582400  0.63518500  1
  Cu  Cu65  1  0.94311900  0.29602700  0.18618700  1
  Cu  Cu66  1  0.05688100  0.70397300  0.81381300  1
  C  C67  1  0.54807200  0.18769100  0.62120600  1
  C  C68  1  0.45192800  0.81230900  0.37879400  1
  C  C69  1  0.61969100  0.16977000  0.34807500  1
  C  C70  1  0.38030900  0.83023000  0.65192500  1
  C  C71  1  0.29086200  0.99171600  0.42324000  1
  C  C72  1  0.70913800  0.00828400  0.57676000  1
  C  C73  1  0.77871200  0.34864300  0.85886600  1
  C  C74  1  0.22128800  0.65135700  0.14113400  1
  C  C75  1  0.25538700  0.24060500  0.17829700  1
  C  C76  1  0.74461300  0.75939500  0.82170300  1
