# generated using pymatgen
data_Cu5Ni3C40
_symmetry_space_group_name_H-M   'P 1'
_cell_length_a   5.22927753
_cell_length_b   5.23047098
_cell_length_c   20.76279912
_cell_angle_alpha   89.11067202
_cell_angle_beta   90.93524978
_cell_angle_gamma   60.25588343
_symmetry_Int_Tables_number   1
_chemical_formula_structural   Cu5Ni3C40
_chemical_formula_sum   'Cu5 Ni3 C40'
_cell_volume   492.82690699
_cell_formula_units_Z   1
loop_
 _symmetry_equiv_pos_site_id
 _symmetry_equiv_pos_as_xyz
  1  'x, y, z'
loop_
 _atom_site_type_symbol
 _atom_site_label
 _atom_site_symmetry_multiplicity
 _atom_site_fract_x
 _atom_site_fract_y
 _atom_site_fract_z
 _atom_site_occupancy
  C  C0  1  0.32103205  0.65265997  0.66647466  1
  C  C1  1  0.35001747  0.67624460  0.91580052  1
  C  C2  1  0.32125849  0.65056989  0.16633312  1
  C  C3  1  0.34739958  0.67883791  0.41673193  1
  C  C4  1  0.65081763  0.33862908  0.79143897  1
  C  C5  1  0.66418648  0.34704304  0.54099176  1
  C  C6  1  0.65161553  0.33550091  0.29189606  1
  C  C7  1  0.66213558  0.34735506  0.04082477  1
  Ni  Ni8  1  0.33071970  0.00261492  0.05834746  1
  Ni  Ni9  1  0.99875356  0.32287488  0.68305165  1
  Ni  Ni10  1  0.99690729  0.32473962  0.18398943  1
  Cu  Cu11  1  0.32807287  0.99788955  0.55790205  1
  Cu  Cu12  1  0.67754509  0.99412031  0.93330895  1
  Cu  Cu13  1  0.68313892  0.99772761  0.43342085  1
  Cu  Cu14  1  0.98824930  0.67285440  0.80891206  1
  Cu  Cu15  1  0.00177597  0.67475041  0.30855698  1
  C  C16  1  0.00084426  0.34272415  0.93647133  1
  C  C17  1  0.00216226  0.33892814  0.43702559  1
  C  C18  1  0.33483550  0.00340459  0.81217325  1
  C  C19  1  0.33220185  0.00719791  0.31273213  1
  C  C20  1  0.65983499  0.99661227  0.68681672  1
  C  C21  1  0.65925283  0.99726124  0.18779697  1
  C  C22  1  0.99353740  0.66860751  0.56137327  1
  C  C23  1  0.99539891  0.66596808  0.06180772  1
  C  C24  1  0.07201629  0.25387546  0.79245413  1
  C  C25  1  0.06769869  0.25411522  0.29278502  1
  C  C26  1  0.25743802  0.07372847  0.95071986  1
  C  C27  1  0.02746856  0.58713276  0.91730618  1
  C  C28  1  0.25655610  0.07111958  0.45208562  1
  C  C29  1  0.02437122  0.58400021  0.41727478  1
  C  C30  1  0.58434750  0.03117077  0.82698208  1
  C  C31  1  0.26813346  0.64849382  0.56766742  1
  C  C32  1  0.58124160  0.03036169  0.32777277  1
  C  C33  1  0.27141676  0.63774376  0.06898754  1
  C  C34  1  0.35380540  0.73209072  0.81864377  1
  C  C35  1  0.35159284  0.73267349  0.31876822  1
  C  C36  1  0.62752910  0.27402165  0.69410542  1
  C  C37  1  0.62685988  0.27411507  0.19479093  1
  C  C38  1  0.72890114  0.36529550  0.94340173  1
  C  C39  1  0.42294807  0.96421641  0.66599588  1
  C  C40  1  0.72681166  0.36307445  0.44345370  1
  C  C41  1  0.42273244  0.96351437  0.16693154  1
  C  C42  1  0.96942641  0.41976886  0.57649080  1
  C  C43  1  0.95947464  0.42367039  0.07730534  1
  C  C44  1  0.74679259  0.93270902  0.54159176  1
  C  C45  1  0.75435596  0.93289110  0.04094752  1
  C  C46  1  0.93290235  0.74810442  0.70239525  1
  C  C47  1  0.93228581  0.74819769  0.20316350  1
