# generated using pymatgen
data_Cu5(Ni3C11)3
_symmetry_space_group_name_H-M   'P 1'
_cell_length_a   13.05535573
_cell_length_b   12.96318788
_cell_length_c   24.54099767
_cell_angle_alpha   100.36387737
_cell_angle_beta   81.05095302
_cell_angle_gamma   70.46009253
_symmetry_Int_Tables_number   1
_chemical_formula_structural   Cu5(Ni3C11)3
_chemical_formula_sum   'Cu10 Ni18 C66'
_cell_volume   3744.54334244
_cell_formula_units_Z   2
loop_
 _symmetry_equiv_pos_site_id
 _symmetry_equiv_pos_as_xyz
  1  'x, y, z'
loop_
 _atom_site_type_symbol
 _atom_site_label
 _atom_site_symmetry_multiplicity
 _atom_site_fract_x
 _atom_site_fract_y
 _atom_site_fract_z
 _atom_site_occupancy
  Ni  Ni0  1  0.75169053  0.91456572  0.92559104  1
  Ni  Ni1  1  0.91141475  0.31628070  0.96658046  1
  Ni  Ni2  1  0.97742789  0.47633852  0.19349440  1
  Ni  Ni3  1  0.73914565  0.86379171  0.33665587  1
  Ni  Ni4  1  0.85945708  0.24260986  0.38065490  1
  Ni  Ni5  1  0.60360283  0.68084763  0.54412373  1
  Ni  Ni6  1  0.74944020  0.07450165  0.56469578  1
  Ni  Ni7  1  0.64699867  0.76436859  0.12043868  1
  Ni  Ni8  1  0.78039116  0.13650786  0.15649945  1
  Ni  Ni9  1  0.21960884  0.86349214  0.84350055  1
  Ni  Ni10  1  0.35300133  0.23563141  0.87956132  1
  Ni  Ni11  1  0.25055980  0.92549835  0.43530422  1
  Ni  Ni12  1  0.39639717  0.31915237  0.45587627  1
  Ni  Ni13  1  0.14054292  0.75739014  0.61934510  1
  Ni  Ni14  1  0.26085435  0.13620829  0.66334413  1
  Ni  Ni15  1  0.02257211  0.52366148  0.80650560  1
  Ni  Ni16  1  0.08858525  0.68371930  0.03341954  1
  Ni  Ni17  1  0.24830947  0.08543428  0.07440896  1
  Cu  Cu18  1  0.95324545  0.37919316  0.58574690  1
  Cu  Cu19  1  0.86274180  0.17856013  0.76306337  1
  Cu  Cu20  1  0.64495942  0.85980817  0.73442427  1
  Cu  Cu21  1  0.54332504  0.62873400  0.92829015  1
  Cu  Cu22  1  0.46077788  0.46462551  0.68523459  1
  Cu  Cu23  1  0.53922212  0.53537449  0.31476541  1
  Cu  Cu24  1  0.45667496  0.37126600  0.07170985  1
  Cu  Cu25  1  0.35504058  0.14019183  0.26557573  1
  Cu  Cu26  1  0.13725820  0.82143987  0.23693663  1
  Cu  Cu27  1  0.04675455  0.62080684  0.41425310  1
  C  C28  1  0.86153587  0.76742988  0.78648316  1
  C  C29  1  0.85374548  0.94256138  0.67250550  1
  C  C30  1  0.79536471  0.62577518  0.91729446  1
  C  C31  1  0.95072220  0.73842438  0.19364404  1
  C  C32  1  0.99704736  0.15347770  0.63485097  1
  C  C33  1  0.92726262  0.05735846  0.87447490  1
  C  C34  1  0.81142062  0.65515301  0.62589851  1
  C  C35  1  0.81594568  0.44247590  0.73707712  1
  C  C36  1  0.77758791  0.81123627  0.47938785  1
  C  C37  1  0.88273586  0.58865946  0.33475061  1
  C  C38  1  0.88121946  0.47377831  0.47005366  1
  C  C39  1  0.95411686  0.15226450  0.48667903  1
  C  C40  1  0.71039104  0.35790415  0.88254100  1
  C  C41  1  0.81874850  0.88749943  0.05888252  1
  C  C42  1  0.54303704  0.82333009  0.85736154  1
  C  C43  1  0.89338673  0.55599783  0.07134404  1
  C  C44  1  0.56510208  0.95324828  0.62669626  1
  C  C45  1  0.95846860  0.24744248  0.09432658  1
  C  C46  1  0.69463524  0.39591187  0.58704008  1
  C  C47  1  0.62927931  0.97819694  0.22337032  1
  C  C48  1  0.79740827  0.34703943  0.26412743  1
  C  C49  1  0.68163739  0.65989635  0.23732773  1
  C  C50  1  0.87467761  0.03788367  0.27526848  1
  C  C51  1  0.64494507  0.24383028  0.70550614  1
  C  C52  1  0.49760650  0.70742508  0.68952804  1
  C  C53  1  0.64038164  0.08269595  0.82462864  1
  C  C54  1  0.53817116  0.75349669  0.40929912  1
  C  C55  1  0.43622525  0.57499510  0.82070320  1
  C  C56  1  0.60806778  0.44663258  0.42755974  1
  C  C57  1  0.28128530  0.80297570  0.97260663  1
  C  C58  1  0.39032143  0.46440899  0.95976047  1
  C  C59  1  0.67761070  0.11996858  0.43633936  1
  C  C60  1  0.46799433  0.14147474  0.98058136  1
  C  C61  1  0.53200567  0.85852526  0.01941864  1
  C  C62  1  0.32238930  0.88003142  0.56366064  1
  C  C63  1  0.60967857  0.53559101  0.04023953  1
  C  C64  1  0.71871470  0.19702430  0.02739337  1
  C  C65  1  0.39193222  0.55336742  0.57244026  1
  C  C66  1  0.56377475  0.42500490  0.17929680  1
  C  C67  1  0.46182884  0.24650331  0.59070088  1
  C  C68  1  0.35961836  0.91730405  0.17537136  1
  C  C69  1  0.50239350  0.29257492  0.31047196  1
  C  C70  1  0.35505493  0.75616972  0.29449386  1
  C  C71  1  0.12532239  0.96211633  0.72473152  1
  C  C72  1  0.31836261  0.34010365  0.76267227  1
  C  C73  1  0.20259173  0.65296057  0.73587257  1
  C  C74  1  0.37072069  0.02180306  0.77662968  1
  C  C75  1  0.30536476  0.60408813  0.41295992  1
  C  C76  1  0.04153140  0.75255752  0.90567342  1
  C  C77  1  0.43489792  0.04675172  0.37330374  1
  C  C78  1  0.10661327  0.44400217  0.92865596  1
  C  C79  1  0.45696296  0.17666991  0.14263846  1
  C  C80  1  0.18125150  0.11250057  0.94111748  1
  C  C81  1  0.28960896  0.64209585  0.11745900  1
  C  C82  1  0.04588314  0.84773550  0.51332097  1
  C  C83  1  0.11878054  0.52622169  0.52994634  1
  C  C84  1  0.11726414  0.41134054  0.66524939  1
  C  C85  1  0.22241209  0.18876373  0.52061215  1
  C  C86  1  0.18405432  0.55752410  0.26292288  1
  C  C87  1  0.18857938  0.34484699  0.37410149  1
  C  C88  1  0.07273738  0.94264154  0.12552510  1
  C  C89  1  0.00295264  0.84652230  0.36514903  1
  C  C90  1  0.04927780  0.26157562  0.80635596  1
  C  C91  1  0.20463529  0.37422482  0.08270554  1
  C  C92  1  0.14625452  0.05743862  0.32749450  1
  C  C93  1  0.13846413  0.23257012  0.21351684  1
