# generated using pymatgen
data_Cu3NiC34
_symmetry_space_group_name_H-M   'P 1'
_cell_length_a   8.46459585
_cell_length_b   8.46459585
_cell_length_c   8.24604900
_cell_angle_alpha   90.00000000
_cell_angle_beta   90.00000000
_cell_angle_gamma   119.99999886
_symmetry_Int_Tables_number   1
_chemical_formula_structural   Cu3NiC34
_chemical_formula_sum   'Cu3 Ni1 C34'
_cell_volume   511.66887859
_cell_formula_units_Z   1
loop_
 _symmetry_equiv_pos_site_id
 _symmetry_equiv_pos_as_xyz
  1  'x, y, z'
loop_
 _atom_site_type_symbol
 _atom_site_label
 _atom_site_symmetry_multiplicity
 _atom_site_fract_x
 _atom_site_fract_y
 _atom_site_fract_z
 _atom_site_occupancy
  Ni  Ni0  1  0.33333300  0.66666700  0.50000000  1
  Cu  Cu1  1  0.00000000  0.00000000  0.00000000  1
  Cu  Cu2  1  0.66666700  0.33333300  0.00000000  1
  Cu  Cu3  1  0.66666700  0.33333300  0.50000000  1
  C  C4  1  0.33333300  0.66666700  0.14313100  1
  C  C5  1  0.00000000  0.00000000  0.35618500  1
  C  C6  1  0.00000000  0.00000000  0.64381500  1
  C  C7  1  0.33333300  0.66666700  0.85686900  1
  C  C8  1  0.99783800  0.49891900  0.26456600  1
  C  C9  1  0.50108100  0.49891900  0.26456600  1
  C  C10  1  0.50108100  0.00216200  0.26456600  1
  C  C11  1  0.33482400  0.16741200  0.23495600  1
  C  C12  1  0.83258800  0.16741200  0.23495600  1
  C  C13  1  0.83258800  0.66517600  0.23495600  1
  C  C14  1  0.33482400  0.16741200  0.76504400  1
  C  C15  1  0.83258800  0.16741200  0.76504400  1
  C  C16  1  0.83258800  0.66517600  0.76504400  1
  C  C17  1  0.99783800  0.49891900  0.73543400  1
  C  C18  1  0.50108100  0.49891900  0.73543400  1
  C  C19  1  0.50108100  0.00216200  0.73543400  1
  C  C20  1  0.66727800  0.83363900  0.24957900  1
  C  C21  1  0.16636100  0.83363900  0.24957900  1
  C  C22  1  0.16636100  0.33272200  0.24957900  1
  C  C23  1  0.66727800  0.83363900  0.75042100  1
  C  C24  1  0.16636100  0.83363900  0.75042100  1
  C  C25  1  0.16636100  0.33272200  0.75042100  1
  C  C26  1  0.62924800  0.66252500  0.00000000  1
  C  C27  1  0.33747500  0.96672300  0.00000000  1
  C  C28  1  0.03327700  0.37075200  0.00000000  1
  C  C29  1  0.62924800  0.96672300  0.00000000  1
  C  C30  1  0.33747500  0.37075200  0.00000000  1
  C  C31  1  0.03327700  0.66252500  0.00000000  1
  C  C32  1  0.70549100  0.00441400  0.50000000  1
  C  C33  1  0.99558600  0.70107800  0.50000000  1
  C  C34  1  0.29892200  0.29450900  0.50000000  1
  C  C35  1  0.70549100  0.70107800  0.50000000  1
  C  C36  1  0.99558600  0.29450900  0.50000000  1
  C  C37  1  0.29892200  0.00441400  0.50000000  1
