# generated using pymatgen
data_Cu6Ni6C
_symmetry_space_group_name_H-M   'P 1'
_cell_length_a   5.09072000
_cell_length_b   6.38650956
_cell_length_c   6.38650956
_cell_angle_alpha   102.77779740
_cell_angle_beta   113.48772573
_cell_angle_gamma   66.51227427
_symmetry_Int_Tables_number   1
_chemical_formula_structural   Cu6Ni6C
_chemical_formula_sum   'Cu6 Ni6 C1'
_cell_volume   174.17560383
_cell_formula_units_Z   1
loop_
 _symmetry_equiv_pos_site_id
 _symmetry_equiv_pos_as_xyz
  1  'x, y, z'
loop_
 _atom_site_type_symbol
 _atom_site_label
 _atom_site_symmetry_multiplicity
 _atom_site_fract_x
 _atom_site_fract_y
 _atom_site_fract_z
 _atom_site_occupancy
  C  C0  1  0.00000000  0.00000000  0.00000000  1
  Ni  Ni1  1  0.50000000  0.00000000  0.50000000  1
  Ni  Ni2  1  0.00000000  0.00000000  0.50000000  1
  Ni  Ni3  1  0.50000000  0.50000000  0.00000000  1
  Ni  Ni4  1  0.00000000  0.50000000  0.00000000  1
  Ni  Ni5  1  0.50000000  0.79001500  0.79001500  1
  Ni  Ni6  1  0.50000000  0.20998500  0.20998500  1
  Cu  Cu7  1  0.64381400  0.35618600  0.64381400  1
  Cu  Cu8  1  0.35618600  0.64381400  0.35618600  1
  Cu  Cu9  1  0.00000000  0.34690200  0.34690200  1
  Cu  Cu10  1  0.00000000  0.65309800  0.65309800  1
  Cu  Cu11  1  0.71925700  0.78074300  0.21925700  1
  Cu  Cu12  1  0.28074300  0.21925700  0.78074300  1
