# generated using pymatgen
data_Cu3Ni13C4
_symmetry_space_group_name_H-M   'P 1'
_cell_length_a   6.86471504
_cell_length_b   6.86471504
_cell_length_c   20.17954283
_cell_angle_alpha   80.18365452
_cell_angle_beta   80.18365452
_cell_angle_gamma   45.37322125
_symmetry_Int_Tables_number   1
_chemical_formula_structural   Cu3Ni13C4
_chemical_formula_sum   'Cu3 Ni13 C4'
_cell_volume   665.13159815
_cell_formula_units_Z   1
loop_
 _symmetry_equiv_pos_site_id
 _symmetry_equiv_pos_as_xyz
  1  'x, y, z'
loop_
 _atom_site_type_symbol
 _atom_site_label
 _atom_site_symmetry_multiplicity
 _atom_site_fract_x
 _atom_site_fract_y
 _atom_site_fract_z
 _atom_site_occupancy
  C  C0  1  0.67923000  0.67923000  0.14669700  1
  C  C1  1  0.17763800  0.17763800  0.64822900  1
  C  C2  1  0.82261100  0.82261100  0.35394800  1
  C  C3  1  0.32215600  0.32215600  0.85187700  1
  Ni  Ni4  1  0.53048500  0.53048500  0.33424900  1
  Ni  Ni5  1  0.03079300  0.03079300  0.83288300  1
  Ni  Ni6  1  0.97523800  0.97523800  0.16718500  1
  Ni  Ni7  1  0.46886000  0.46886000  0.66755100  1
  Ni  Ni8  1  0.11054600  0.11054600  0.43739100  1
  Ni  Ni9  1  0.60578100  0.60578100  0.93732200  1
  Ni  Ni10  1  0.38909600  0.38909600  0.06107200  1
  Ni  Ni11  1  0.89431600  0.89431600  0.56280100  1
  Ni  Ni12  1  0.37293100  0.37293100  0.47733600  1
  Ni  Ni13  1  0.87409300  0.87409300  0.97594600  1
  Ni  Ni14  1  0.12798500  0.12798500  0.02216900  1
  Ni  Ni15  1  0.62475500  0.62475500  0.52361800  1
  Ni  Ni16  1  0.36407100  0.36407100  0.22406000  1
  Cu  Cu17  1  0.86577800  0.86577800  0.72526900  1
  Cu  Cu18  1  0.12938400  0.12938400  0.27510900  1
  Cu  Cu19  1  0.63425200  0.63425200  0.77528600  1
