# generated using pymatgen
data_Cu23(Ni4C13)2
_symmetry_space_group_name_H-M   'P 1'
_cell_length_a   8.68697110
_cell_length_b   8.68697110
_cell_length_c   17.36896979
_cell_angle_alpha   90.00000000
_cell_angle_beta   90.00000000
_cell_angle_gamma   90.00000000
_symmetry_Int_Tables_number   1
_chemical_formula_structural   Cu23(Ni4C13)2
_chemical_formula_sum   'Cu46 Ni16 C52'
_cell_volume   1310.72267670
_cell_formula_units_Z   2
loop_
 _symmetry_equiv_pos_site_id
 _symmetry_equiv_pos_as_xyz
  1  'x, y, z'
loop_
 _atom_site_type_symbol
 _atom_site_label
 _atom_site_symmetry_multiplicity
 _atom_site_fract_x
 _atom_site_fract_y
 _atom_site_fract_z
 _atom_site_occupancy
  C  C0  1  0.50000000  -0.00000000  0.17235812  1
  C  C1  1  -0.00000000  0.50000000  0.32764188  1
  C  C2  1  -0.00000000  0.50000000  0.82764188  1
  C  C3  1  0.50000000  -0.00000000  0.67235812  1
  C  C4  1  -0.00000000  0.50000000  0.03650092  1
  C  C5  1  0.50000000  -0.00000000  0.46349908  1
  C  C6  1  0.50000000  -0.00000000  0.96349908  1
  C  C7  1  -0.00000000  0.50000000  0.53650092  1
  C  C8  1  0.58944600  0.34420170  0.06759119  1
  C  C9  1  0.41055400  0.65579830  0.06759119  1
  C  C10  1  0.08944600  0.84420170  0.43240881  1
  C  C11  1  0.91055400  0.15579830  0.43240881  1
  C  C12  1  0.34420170  0.41055400  0.93240881  1
  C  C13  1  0.65579830  0.58944600  0.93240881  1
  C  C14  1  0.84420170  0.91055400  0.56759119  1
  C  C15  1  0.15579830  0.08944600  0.56759119  1
  C  C16  1  0.87475282  0.14074905  0.20020845  1
  C  C17  1  0.12524718  0.85925095  0.20020845  1
  C  C18  1  0.37475282  0.64074905  0.29979155  1
  C  C19  1  0.62524718  0.35925095  0.29979155  1
  C  C20  1  0.14074905  0.12524718  0.79979155  1
  C  C21  1  0.85925095  0.87475282  0.79979155  1
  C  C22  1  0.64074905  0.62524718  0.70020845  1
  C  C23  1  0.35925095  0.37475282  0.70020845  1
  C  C24  1  0.14986061  0.14229711  0.08181052  1
  C  C25  1  0.85013939  0.85770289  0.08181052  1
  C  C26  1  0.64986061  0.64229711  0.41818948  1
  C  C27  1  0.35013939  0.35770289  0.41818948  1
  C  C28  1  0.14229711  0.85013939  0.91818948  1
  C  C29  1  0.85770289  0.14986061  0.91818948  1
  C  C30  1  0.64229711  0.35013939  0.58181052  1
  C  C31  1  0.35770289  0.64986061  0.58181052  1
  C  C32  1  0.50000000  0.50000000  0.19556268  1
  C  C33  1  -0.00000000  -0.00000000  0.30443732  1
  C  C34  1  0.50000000  0.50000000  0.80443732  1
  C  C35  1  -0.00000000  -0.00000000  0.69556268  1
  C  C36  1  0.64988272  0.81893640  0.29325341  1
  C  C37  1  0.35011728  0.18106360  0.29325341  1
  C  C38  1  0.14988272  0.31893640  0.20674659  1
  C  C39  1  0.85011728  0.68106360  0.20674659  1
  C  C40  1  0.81893640  0.35011728  0.70674659  1
  C  C41  1  0.18106360  0.64988272  0.70674659  1
  C  C42  1  0.31893640  0.85011728  0.79325341  1
  C  C43  1  0.68106360  0.14988272  0.79325341  1
  C  C44  1  0.76828041  0.94868094  0.29237006  1
  C  C45  1  0.23171959  0.05131906  0.29237006  1
  C  C46  1  0.26828041  0.44868094  0.20762994  1
  C  C47  1  0.73171959  0.55131906  0.20762994  1
  C  C48  1  0.94868094  0.23171959  0.70762994  1
  C  C49  1  0.05131906  0.76828041  0.70762994  1
  C  C50  1  0.44868094  0.73171959  0.79237006  1
  C  C51  1  0.55131906  0.26828041  0.79237006  1
  Ni  Ni52  1  0.82710017  0.22492241  0.15808274  1
  Ni  Ni53  1  0.17289983  0.77507759  0.15808274  1
  Ni  Ni54  1  0.32710017  0.72492241  0.34191726  1
  Ni  Ni55  1  0.67289983  0.27507759  0.34191726  1
  Ni  Ni56  1  0.22492241  0.17289983  0.84191726  1
  Ni  Ni57  1  0.77507759  0.82710017  0.84191726  1
  Ni  Ni58  1  0.72492241  0.67289983  0.65808274  1
  Ni  Ni59  1  0.27507759  0.32710017  0.65808274  1
  Ni  Ni60  1  0.24869714  0.20172304  0.05415974  1
  Ni  Ni61  1  0.75130286  0.79827696  0.05415974  1
  Ni  Ni62  1  0.74869714  0.70172304  0.44584026  1
  Ni  Ni63  1  0.25130286  0.29827696  0.44584026  1
  Ni  Ni64  1  0.20172304  0.75130286  0.94584026  1
  Ni  Ni65  1  0.79827696  0.24869714  0.94584026  1
  Ni  Ni66  1  0.70172304  0.25130286  0.55415974  1
  Ni  Ni67  1  0.29827696  0.74869714  0.55415974  1
  Cu  Cu68  1  0.67950366  0.21768341  0.15101414  1
  Cu  Cu69  1  0.32049634  0.78231659  0.15101414  1
  Cu  Cu70  1  0.17950366  0.71768341  0.34898586  1
  Cu  Cu71  1  0.82049634  0.28231659  0.34898586  1
  Cu  Cu72  1  0.21768341  0.32049634  0.84898586  1
  Cu  Cu73  1  0.78231659  0.67950366  0.84898586  1
  Cu  Cu74  1  0.71768341  0.82049634  0.65101414  1
  Cu  Cu75  1  0.28231659  0.17950366  0.65101414  1
  Cu  Cu76  1  0.91690546  0.31350189  0.12423795  1
  Cu  Cu77  1  0.08309454  0.68649811  0.12423795  1
  Cu  Cu78  1  0.41690546  0.81350189  0.37576205  1
  Cu  Cu79  1  0.58309454  0.18649811  0.37576205  1
  Cu  Cu80  1  0.31350189  0.08309454  0.87576205  1
  Cu  Cu81  1  0.68649811  0.91690546  0.87576205  1
  Cu  Cu82  1  0.81350189  0.58309454  0.62423795  1
  Cu  Cu83  1  0.18649811  0.41690546  0.62423795  1
  Cu  Cu84  1  0.38229741  0.15255789  0.06662559  1
  Cu  Cu85  1  0.61770259  0.84744211  0.06662559  1
  Cu  Cu86  1  0.88229741  0.65255789  0.43337441  1
  Cu  Cu87  1  0.11770259  0.34744211  0.43337441  1
  Cu  Cu88  1  0.15255789  0.61770259  0.93337441  1
  Cu  Cu89  1  0.84744211  0.38229741  0.93337441  1
  Cu  Cu90  1  0.65255789  0.11770259  0.56662559  1
  Cu  Cu91  1  0.34744211  0.88229741  0.56662559  1
  Cu  Cu92  1  0.20997857  0.31650149  0.01208482  1
  Cu  Cu93  1  0.79002143  0.68349851  0.01208482  1
  Cu  Cu94  1  0.70997857  0.81650149  0.48791518  1
  Cu  Cu95  1  0.29002143  0.18349851  0.48791518  1
  Cu  Cu96  1  0.31650149  0.79002143  0.98791518  1
  Cu  Cu97  1  0.68349851  0.20997857  0.98791518  1
  Cu  Cu98  1  0.81650149  0.29002143  0.51208482  1
  Cu  Cu99  1  0.18349851  0.70997857  0.51208482  1
  Cu  Cu100  1  0.50000000  0.50000000  0.13909339  1
  Cu  Cu101  1  -0.00000000  -0.00000000  0.36090661  1
  Cu  Cu102  1  0.50000000  0.50000000  0.86090661  1
  Cu  Cu103  1  -0.00000000  -0.00000000  0.63909339  1
  Cu  Cu104  1  0.50000000  0.50000000  -0.00000000  1
  Cu  Cu105  1  -0.00000000  -0.00000000  0.50000000  1
  Cu  Cu106  1  0.68981325  0.90063894  0.26016452  1
  Cu  Cu107  1  0.31018675  0.09936106  0.26016452  1
  Cu  Cu108  1  0.18981325  0.40063894  0.23983548  1
  Cu  Cu109  1  0.81018675  0.59936106  0.23983548  1
  Cu  Cu110  1  0.90063894  0.31018675  0.73983548  1
  Cu  Cu111  1  0.09936106  0.68981325  0.73983548  1
  Cu  Cu112  1  0.40063894  0.81018675  0.76016452  1
  Cu  Cu113  1  0.59936106  0.18981325  0.76016452  1
