# generated using pymatgen
data_Cu12Ni3C4
_symmetry_space_group_name_H-M   'P 1'
_cell_length_a   9.46019932
_cell_length_b   9.46019932
_cell_length_c   9.46019939
_cell_angle_alpha   109.45409965
_cell_angle_beta   109.45409965
_cell_angle_gamma   109.45409413
_symmetry_Int_Tables_number   1
_chemical_formula_structural   Cu12Ni3C4
_chemical_formula_sum   'Cu24 Ni6 C8'
_cell_volume   652.15974949
_cell_formula_units_Z   2
loop_
 _symmetry_equiv_pos_site_id
 _symmetry_equiv_pos_as_xyz
  1  'x, y, z'
loop_
 _atom_site_type_symbol
 _atom_site_label
 _atom_site_symmetry_multiplicity
 _atom_site_fract_x
 _atom_site_fract_y
 _atom_site_fract_z
 _atom_site_occupancy
  C  C0  1  0.50000000  0.50000000  0.50000000  1
  C  C1  1  0.66560100  0.16316900  0.32411400  1
  C  C2  1  0.32411400  0.66560100  0.16316900  1
  C  C3  1  0.16316900  0.32411400  0.66560100  1
  C  C4  1  0.33439900  0.83683100  0.67588600  1
  C  C5  1  0.67588600  0.33439900  0.83683100  1
  C  C6  1  0.83683100  0.67588600  0.33439900  1
  C  C7  1  0.00000000  0.00000000  0.00000000  1
  Ni  Ni8  1  0.25405500  0.03150500  0.38136800  1
  Ni  Ni9  1  0.38136800  0.25405500  0.03150500  1
  Ni  Ni10  1  0.03150500  0.38136800  0.25405500  1
  Ni  Ni11  1  0.74594500  0.96849500  0.61863200  1
  Ni  Ni12  1  0.61863200  0.74594500  0.96849500  1
  Ni  Ni13  1  0.96849500  0.61863200  0.74594500  1
  Cu  Cu14  1  0.09071000  0.57388900  0.83570000  1
  Cu  Cu15  1  0.83570000  0.09071000  0.57388900  1
  Cu  Cu16  1  0.57388900  0.83570000  0.09071000  1
  Cu  Cu17  1  0.90929000  0.42611100  0.16430000  1
  Cu  Cu18  1  0.16430000  0.90929000  0.42611100  1
  Cu  Cu19  1  0.42611100  0.16430000  0.90929000  1
  Cu  Cu20  1  0.01521700  0.68595700  0.63960300  1
  Cu  Cu21  1  0.63960300  0.01521700  0.68595700  1
  Cu  Cu22  1  0.68595700  0.63960300  0.01521700  1
  Cu  Cu23  1  0.98478300  0.31404300  0.36039700  1
  Cu  Cu24  1  0.36039700  0.98478300  0.31404300  1
  Cu  Cu25  1  0.31404300  0.36039700  0.98478300  1
  Cu  Cu26  1  0.02201000  0.23114300  0.10710100  1
  Cu  Cu27  1  0.10710100  0.02201000  0.23114300  1
  Cu  Cu28  1  0.52354600  0.35095200  0.21238700  1
  Cu  Cu29  1  0.35095200  0.21238700  0.52354600  1
  Cu  Cu30  1  0.21238700  0.52354600  0.35095200  1
  Cu  Cu31  1  0.47645400  0.64904800  0.78761300  1
  Cu  Cu32  1  0.64904800  0.78761300  0.47645400  1
  Cu  Cu33  1  0.78761300  0.47645400  0.64904800  1
  Cu  Cu34  1  0.76885700  0.89289900  0.97799000  1
  Cu  Cu35  1  0.89289900  0.97799000  0.76885700  1
  Cu  Cu36  1  0.97799000  0.76885700  0.89289900  1
  Cu  Cu37  1  0.23114300  0.10710100  0.02201000  1
