# generated using pymatgen
data_CuNi6C
_symmetry_space_group_name_H-M   'P 1'
_cell_length_a   5.22464100
_cell_length_b   6.71384500
_cell_length_c   11.46021700
_cell_angle_alpha   90.00000000
_cell_angle_beta   90.00000000
_cell_angle_gamma   90.00000000
_symmetry_Int_Tables_number   1
_chemical_formula_structural   CuNi6C
_chemical_formula_sum   'Cu2 Ni12 C2'
_cell_volume   401.99495794
_cell_formula_units_Z   2
loop_
 _symmetry_equiv_pos_site_id
 _symmetry_equiv_pos_as_xyz
  1  'x, y, z'
loop_
 _atom_site_type_symbol
 _atom_site_label
 _atom_site_symmetry_multiplicity
 _atom_site_fract_x
 _atom_site_fract_y
 _atom_site_fract_z
 _atom_site_occupancy
  C  C0  1  0.50000000  0.50000000  0.16028300  1
  C  C1  1  0.50000000  0.00000000  0.66028300  1
  Ni  Ni2  1  0.00000000  0.23281100  0.08025900  1
  Ni  Ni3  1  0.00000000  0.76718900  0.08025900  1
  Ni  Ni4  1  0.00000000  0.50000000  0.83974800  1
  Ni  Ni5  1  0.50000000  0.23019300  0.91173500  1
  Ni  Ni6  1  0.50000000  0.76980700  0.91173500  1
  Ni  Ni7  1  0.50000000  0.50000000  0.66578500  1
  Ni  Ni8  1  0.00000000  0.73281100  0.58025900  1
  Ni  Ni9  1  0.00000000  0.26718900  0.58025900  1
  Ni  Ni10  1  0.00000000  0.00000000  0.33974800  1
  Ni  Ni11  1  0.50000000  0.73019300  0.41173500  1
  Ni  Ni12  1  0.50000000  0.26980700  0.41173500  1
  Ni  Ni13  1  0.50000000  0.00000000  0.16578500  1
  Cu  Cu14  1  0.00000000  0.50000000  0.35019600  1
  Cu  Cu15  1  0.00000000  0.00000000  0.85019600  1
