# generated using pymatgen
data_CuNi3C20
_symmetry_space_group_name_H-M   'P 1'
_cell_length_a   7.91324522
_cell_length_b   7.91324522
_cell_length_c   16.06711240
_cell_angle_alpha   101.85676267
_cell_angle_beta   101.85676267
_cell_angle_gamma   90.54997292
_symmetry_Int_Tables_number   1
_chemical_formula_structural   CuNi3C20
_chemical_formula_sum   'Cu2 Ni6 C40'
_cell_volume   962.22832248
_cell_formula_units_Z   2
loop_
 _symmetry_equiv_pos_site_id
 _symmetry_equiv_pos_as_xyz
  1  'x, y, z'
loop_
 _atom_site_type_symbol
 _atom_site_label
 _atom_site_symmetry_multiplicity
 _atom_site_fract_x
 _atom_site_fract_y
 _atom_site_fract_z
 _atom_site_occupancy
  Ni  Ni0  1  0.12780700  0.48934600  0.15541900  1
  Ni  Ni1  1  0.51065400  0.87219300  0.34458100  1
  Ni  Ni2  1  0.87219300  0.51065400  0.84458100  1
  Ni  Ni3  1  0.48934600  0.12780700  0.65541900  1
  Ni  Ni4  1  0.06889900  0.93110100  0.25000000  1
  Ni  Ni5  1  0.93110100  0.06889900  0.75000000  1
  Cu  Cu6  1  0.00000000  0.50000000  0.50000000  1
  Cu  Cu7  1  0.50000000  0.00000000  0.00000000  1
  C  C8  1  0.04698300  0.74883900  0.49330500  1
  C  C9  1  0.25116100  0.95301700  0.00669500  1
  C  C10  1  0.95301700  0.25116100  0.50669500  1
  C  C11  1  0.74883900  0.04698300  0.99330500  1
  C  C12  1  0.21210500  0.45031900  0.48116700  1
  C  C13  1  0.54968100  0.78789500  0.01883300  1
  C  C14  1  0.78789500  0.54968100  0.51883300  1
  C  C15  1  0.45031900  0.21210500  0.98116700  1
  C  C16  1  0.90314400  0.44200900  0.36841500  1
  C  C17  1  0.55799100  0.09685600  0.13158500  1
  C  C18  1  0.09685600  0.55799100  0.63158500  1
  C  C19  1  0.44200900  0.90314400  0.86841500  1
  C  C20  1  0.01314400  0.70243000  0.22961800  1
  C  C21  1  0.29757000  0.98685600  0.27038200  1
  C  C22  1  0.98685600  0.29757000  0.77038200  1
  C  C23  1  0.70243000  0.01314400  0.72961800  1
  C  C24  1  0.73429600  0.47900700  0.15329300  1
  C  C25  1  0.52099300  0.26570400  0.34670700  1
  C  C26  1  0.26570400  0.52099300  0.84670700  1
  C  C27  1  0.47900700  0.73429600  0.65329300  1
  C  C28  1  0.86232700  0.39023200  0.13946400  1
  C  C29  1  0.60976800  0.13767300  0.36053600  1
  C  C30  1  0.13767300  0.60976800  0.86053600  1
  C  C31  1  0.39023200  0.86232700  0.63946400  1
  C  C32  1  0.13343400  0.29775600  0.08207000  1
  C  C33  1  0.70224400  0.86656600  0.41793000  1
  C  C34  1  0.86656600  0.70224400  0.91793000  1
  C  C35  1  0.29775600  0.13343400  0.58207000  1
  C  C36  1  0.20854600  0.64247800  0.10876400  1
  C  C37  1  0.35752200  0.79145400  0.39123600  1
  C  C38  1  0.79145400  0.35752200  0.89123600  1
  C  C39  1  0.64247800  0.20854600  0.60876400  1
  C  C40  1  0.27407300  0.46786100  0.24763400  1
  C  C41  1  0.53213900  0.72592700  0.25236600  1
  C  C42  1  0.72592700  0.53213900  0.75236600  1
  C  C43  1  0.46786100  0.27407300  0.74763400  1
  C  C44  1  0.96704500  0.01135800  0.16210700  1
  C  C45  1  0.98864200  0.03295500  0.33789300  1
  C  C46  1  0.03295500  0.98864200  0.83789300  1
  C  C47  1  0.01135800  0.96704500  0.66210700  1
