# generated using pymatgen
data_Cu3(NiC)2
_symmetry_space_group_name_H-M   'P 1'
_cell_length_a   5.65081900
_cell_length_b   6.81276800
_cell_length_c   8.60738400
_cell_angle_alpha   113.31284325
_cell_angle_beta   109.16284006
_cell_angle_gamma   90.00000000
_symmetry_Int_Tables_number   1
_chemical_formula_structural   Cu3(NiC)2
_chemical_formula_sum   'Cu6 Ni4 C4'
_cell_volume   284.20775406
_cell_formula_units_Z   2
loop_
 _symmetry_equiv_pos_site_id
 _symmetry_equiv_pos_as_xyz
  1  'x, y, z'
loop_
 _atom_site_type_symbol
 _atom_site_label
 _atom_site_symmetry_multiplicity
 _atom_site_fract_x
 _atom_site_fract_y
 _atom_site_fract_z
 _atom_site_occupancy
  C  C0  1  0.37259300  0.12259300  0.74518700  1
  C  C1  1  0.62740700  0.87740700  0.25481300  1
  C  C2  1  0.86234900  0.61234900  0.72469800  1
  C  C3  1  0.13765100  0.38765100  0.27530200  1
  Ni  Ni4  1  0.69882100  0.68632600  0.87265200  1
  Ni  Ni5  1  0.82616900  0.31367400  0.12734800  1
  Ni  Ni6  1  0.30117900  0.31367400  0.12734800  1
  Ni  Ni7  1  0.17383100  0.68632600  0.87265200  1
  Cu  Cu8  1  0.50000000  0.50000000  0.50000000  1
  Cu  Cu9  1  0.00000000  0.50000000  0.50000000  1
  Cu  Cu10  1  0.83429600  0.86467800  0.66859300  1
  Cu  Cu11  1  0.16570400  0.13532200  0.33140700  1
  Cu  Cu12  1  0.16570400  0.69608500  0.33140700  1
  Cu  Cu13  1  0.83429600  0.30391500  0.66859300  1
