# generated using pymatgen
data_Cu10NiC3
_symmetry_space_group_name_H-M   'P 1'
_cell_length_a   6.84611500
_cell_length_b   8.14814200
_cell_length_c   8.36581400
_cell_angle_alpha   90.00000000
_cell_angle_beta   90.00000000
_cell_angle_gamma   90.00000000
_symmetry_Int_Tables_number   1
_chemical_formula_structural   Cu10NiC3
_chemical_formula_sum   'Cu20 Ni2 C6'
_cell_volume   466.67118257
_cell_formula_units_Z   2
loop_
 _symmetry_equiv_pos_site_id
 _symmetry_equiv_pos_as_xyz
  1  'x, y, z'
loop_
 _atom_site_type_symbol
 _atom_site_label
 _atom_site_symmetry_multiplicity
 _atom_site_fract_x
 _atom_site_fract_y
 _atom_site_fract_z
 _atom_site_occupancy
  C  C0  1  0.00000000  0.01029400  0.25000000  1
  C  C1  1  0.00000000  0.98970600  0.75000000  1
  C  C2  1  0.50000000  0.74359900  0.25000000  1
  C  C3  1  0.50000000  0.25640100  0.75000000  1
  C  C4  1  0.50000000  0.27627500  0.25000000  1
  C  C5  1  0.50000000  0.72372500  0.75000000  1
  Ni  Ni6  1  0.98048200  0.50000000  0.00000000  1
  Ni  Ni7  1  0.01951800  0.50000000  0.50000000  1
  Cu  Cu8  1  0.33065000  0.50938000  0.24377600  1
  Cu  Cu9  1  0.66935000  0.49062000  0.74377600  1
  Cu  Cu10  1  0.66935000  0.50938000  0.25622400  1
  Cu  Cu11  1  0.33065000  0.49062000  0.75622400  1
  Cu  Cu12  1  0.50000000  0.00998000  0.25000000  1
  Cu  Cu13  1  0.50000000  0.99002000  0.75000000  1
  Cu  Cu14  1  0.20060300  0.18539800  0.73081500  1
  Cu  Cu15  1  0.79939700  0.81460200  0.23081500  1
  Cu  Cu16  1  0.79939700  0.18539800  0.76918500  1
  Cu  Cu17  1  0.20060300  0.81460200  0.26918500  1
  Cu  Cu18  1  0.49207900  0.27749300  0.99978900  1
  Cu  Cu19  1  0.50792100  0.72250700  0.49978900  1
  Cu  Cu20  1  0.50792100  0.27749300  0.50021100  1
  Cu  Cu21  1  0.49207900  0.72250700  0.00021100  1
  Cu  Cu22  1  0.02706700  0.00000000  0.00000000  1
  Cu  Cu23  1  0.97293300  0.00000000  0.50000000  1
  Cu  Cu24  1  0.19754700  0.20885200  0.24829400  1
  Cu  Cu25  1  0.80245300  0.79114800  0.74829400  1
  Cu  Cu26  1  0.80245300  0.20885200  0.25170600  1
  Cu  Cu27  1  0.19754700  0.79114800  0.75170600  1
