# generated using pymatgen
data_CuNiC2
_symmetry_space_group_name_H-M   'P 1'
_cell_length_a   13.58764502
_cell_length_b   13.11091557
_cell_length_c   13.11091562
_cell_angle_alpha   59.18889532
_cell_angle_beta   58.78970835
_cell_angle_gamma   58.78971097
_symmetry_Int_Tables_number   1
_chemical_formula_structural   CuNiC2
_chemical_formula_sum   'Cu1 Ni1 C2'
_cell_volume   1610.90872324
_cell_formula_units_Z   1
loop_
 _symmetry_equiv_pos_site_id
 _symmetry_equiv_pos_as_xyz
  1  'x, y, z'
loop_
 _atom_site_type_symbol
 _atom_site_label
 _atom_site_symmetry_multiplicity
 _atom_site_fract_x
 _atom_site_fract_y
 _atom_site_fract_z
 _atom_site_occupancy
  C  C0  1  0.74946201  0.00000000  -0.00000000  1
  C  C1  1  0.25053799  -0.00000000  0.00000000  1
  Ni  Ni2  1  0.00000000  0.00000000  -0.00000000  1
  Cu  Cu3  1  0.50000000  0.00000000  -0.00000000  1
