# generated using pymatgen
data_CuNiC14
_symmetry_space_group_name_H-M   'P 1'
_cell_length_a   15.23715200
_cell_length_b   8.53761200
_cell_length_c   8.83282041
_cell_angle_alpha   74.67059107
_cell_angle_beta   90.00000000
_cell_angle_gamma   90.00000000
_symmetry_Int_Tables_number   1
_chemical_formula_structural   CuNiC14
_chemical_formula_sum   'Cu4 Ni4 C56'
_cell_volume   1108.17068024
_cell_formula_units_Z   4
loop_
 _symmetry_equiv_pos_site_id
 _symmetry_equiv_pos_as_xyz
  1  'x, y, z'
loop_
 _atom_site_type_symbol
 _atom_site_label
 _atom_site_symmetry_multiplicity
 _atom_site_fract_x
 _atom_site_fract_y
 _atom_site_fract_z
 _atom_site_occupancy
  C  C0  1  0.20756300  0.46886200  0.19443300  1
  C  C1  1  0.79243700  0.53113800  0.80556700  1
  C  C2  1  0.70756300  0.53113800  0.30556700  1
  C  C3  1  0.29243700  0.46886200  0.69443300  1
  C  C4  1  0.26728200  0.00728800  0.83695600  1
  C  C5  1  0.73271800  0.99271200  0.16304400  1
  C  C6  1  0.76728200  0.99271200  0.66304400  1
  C  C7  1  0.23271800  0.00728800  0.33695600  1
  C  C8  1  0.61428300  0.75222800  0.91103300  1
  C  C9  1  0.38571700  0.24777200  0.08896700  1
  C  C10  1  0.11428300  0.24777200  0.58896700  1
  C  C11  1  0.88571700  0.75222800  0.41103300  1
  Ni  Ni12  1  0.37929500  0.29271200  0.42152200  1
  Ni  Ni13  1  0.62070500  0.70728800  0.57847800  1
  Ni  Ni14  1  0.87929500  0.70728800  0.07847800  1
  Ni  Ni15  1  0.12070500  0.29271200  0.92152200  1
  Cu  Cu16  1  0.42427500  0.68974700  0.16334200  1
  Cu  Cu17  1  0.57572500  0.31025300  0.83665800  1
  Cu  Cu18  1  0.92427500  0.31025300  0.33665800  1
  Cu  Cu19  1  0.07572500  0.68974700  0.66334200  1
  C  C20  1  0.10122200  0.87753100  0.91749400  1
  C  C21  1  0.89877800  0.12246900  0.08250600  1
  C  C22  1  0.60122200  0.12246900  0.58250600  1
  C  C23  1  0.39877800  0.87753100  0.41749400  1
  C  C24  1  0.38014100  0.29349700  0.58981900  1
  C  C25  1  0.61985900  0.70650300  0.41018100  1
  C  C26  1  0.88014100  0.70650300  0.91018100  1
  C  C27  1  0.11985900  0.29349700  0.08981900  1
  C  C28  1  0.12398900  0.73661900  0.98332500  1
  C  C29  1  0.87601100  0.26338100  0.01667500  1
  C  C30  1  0.62398900  0.26338100  0.51667500  1
  C  C31  1  0.37601100  0.73661900  0.48332500  1
  C  C32  1  0.92321300  0.09634500  0.68830700  1
  C  C33  1  0.07678700  0.90365500  0.31169300  1
  C  C34  1  0.42321300  0.90365500  0.81169300  1
  C  C35  1  0.57678700  0.09634500  0.18830700  1
  C  C36  1  0.49823300  0.72405700  0.13473700  1
  C  C37  1  0.50176700  0.27594300  0.86526300  1
  C  C38  1  0.99823300  0.27594300  0.36526300  1
  C  C39  1  0.00176700  0.72405700  0.63473700  1
  C  C40  1  0.95810200  0.66714300  0.18200300  1
  C  C41  1  0.04189800  0.33285700  0.81799700  1
  C  C42  1  0.45810200  0.33285700  0.31799700  1
  C  C43  1  0.54189800  0.66714300  0.68200300  1
  C  C44  1  0.35022400  0.65738900  0.19220400  1
  C  C45  1  0.64977600  0.34261100  0.80779600  1
  C  C46  1  0.85022400  0.34261100  0.30779600  1
  C  C47  1  0.14977600  0.65738900  0.69220400  1
  C  C48  1  0.39645100  0.76028600  0.84836300  1
  C  C49  1  0.60354900  0.23971400  0.15163700  1
  C  C50  1  0.89645100  0.23971400  0.65163700  1
  C  C51  1  0.10354900  0.76028600  0.34836300  1
  C  C52  1  0.29816600  0.24582400  0.34674900  1
  C  C53  1  0.70183400  0.75417600  0.65325100  1
  C  C54  1  0.79816600  0.75417600  0.15325100  1
  C  C55  1  0.20183400  0.24582400  0.84674900  1
  C  C56  1  0.19664400  0.01287700  0.59567800  1
  C  C57  1  0.80335600  0.98712300  0.40432200  1
  C  C58  1  0.69664400  0.98712300  0.90432200  1
  C  C59  1  0.30335600  0.01287700  0.09567800  1
  C  C60  1  0.20077700  0.47019500  0.46176900  1
  C  C61  1  0.79922300  0.52980500  0.53823100  1
  C  C62  1  0.70077700  0.52980500  0.03823100  1
  C  C63  1  0.29922300  0.47019500  0.96176900  1
