# generated using pymatgen
data_Cu2(NiC3)3
_symmetry_space_group_name_H-M   'P 1'
_cell_length_a   11.57910077
_cell_length_b   7.28299434
_cell_length_c   12.27603400
_cell_angle_alpha   90.00000000
_cell_angle_beta   90.00000000
_cell_angle_gamma   87.82798587
_symmetry_Int_Tables_number   1
_chemical_formula_structural   Cu2(NiC3)3
_chemical_formula_sum   'Cu8 Ni12 C36'
_cell_volume   1034.50062361
_cell_formula_units_Z   4
loop_
 _symmetry_equiv_pos_site_id
 _symmetry_equiv_pos_as_xyz
  1  'x, y, z'
loop_
 _atom_site_type_symbol
 _atom_site_label
 _atom_site_symmetry_multiplicity
 _atom_site_fract_x
 _atom_site_fract_y
 _atom_site_fract_z
 _atom_site_occupancy
  C  C0  1  0.09850800  0.91096400  0.68751100  1
  C  C1  1  0.90149200  0.08903600  0.18751100  1
  C  C2  1  0.38554500  0.39368300  0.83150200  1
  C  C3  1  0.61445500  0.60631700  0.33150200  1
  Ni  Ni4  1  0.38039800  0.86595300  0.19584400  1
  Ni  Ni5  1  0.61960200  0.13404700  0.69584400  1
  Ni  Ni6  1  0.12756600  0.36559200  0.32716300  1
  Ni  Ni7  1  0.87243400  0.63440800  0.82716300  1
  Ni  Ni8  1  0.16361500  0.62503000  0.93974200  1
  Ni  Ni9  1  0.83638500  0.37497000  0.43974200  1
  Ni  Ni10  1  0.34043800  0.62213900  0.44571100  1
  Ni  Ni11  1  0.65956200  0.37786100  0.94571100  1
  Ni  Ni12  1  0.13571100  0.14395800  0.99120200  1
  Ni  Ni13  1  0.86428900  0.85604200  0.49120200  1
  Ni  Ni14  1  0.35870100  0.11381500  0.49546500  1
  Ni  Ni15  1  0.64129900  0.88618500  0.99546500  1
  Cu  Cu16  1  0.10253400  0.37435100  0.66934000  1
  Cu  Cu17  1  0.89746600  0.62564900  0.16934000  1
  Cu  Cu18  1  0.40721400  0.36137900  0.17356800  1
  Cu  Cu19  1  0.59278600  0.63862100  0.67356800  1
  Cu  Cu20  1  0.11795500  0.87662300  0.32498600  1
  Cu  Cu21  1  0.88204500  0.12337700  0.82498600  1
  Cu  Cu22  1  0.38229900  0.88029100  0.82115400  1
  Cu  Cu23  1  0.61770100  0.11970900  0.32115400  1
  C  C24  1  0.02071000  0.84206600  0.87676600  1
  C  C25  1  0.97929000  0.15793400  0.37676600  1
  C  C26  1  0.46868100  0.85259700  0.37891700  1
  C  C27  1  0.53131900  0.14740300  0.87891700  1
  C  C28  1  0.04067400  0.32547900  0.14611700  1
  C  C29  1  0.95932600  0.67452100  0.64611700  1
  C  C30  1  0.45986200  0.34194100  0.64857900  1
  C  C31  1  0.54013800  0.65805900  0.14857900  1
  C  C32  1  0.02409200  0.41022500  0.88282200  1
  C  C33  1  0.97590800  0.58977500  0.38282200  1
  C  C34  1  0.48382500  0.40184000  0.39841800  1
  C  C35  1  0.51617500  0.59816000  0.89841800  1
  C  C36  1  0.03430900  0.88067600  0.12286000  1
  C  C37  1  0.96569100  0.11932400  0.62286000  1
  C  C38  1  0.47804100  0.93788900  0.63228500  1
  C  C39  1  0.52195900  0.06211100  0.13228500  1
  C  C40  1  0.22323600  0.87058300  0.53299800  1
  C  C41  1  0.77676400  0.12941700  0.03299800  1
  C  C42  1  0.27535800  0.87597300  0.02194000  1
  C  C43  1  0.72464200  0.12402700  0.52194000  1
  C  C44  1  0.22616300  0.37576800  0.49902100  1
  C  C45  1  0.77383700  0.62423200  0.99902100  1
  C  C46  1  0.27797800  0.36847000  0.00319100  1
  C  C47  1  0.72202200  0.63153000  0.50319100  1
  C  C48  1  0.21343700  0.11416300  0.80247600  1
  C  C49  1  0.78656300  0.88583700  0.30247600  1
  C  C50  1  0.28107900  0.12776600  0.30399000  1
  C  C51  1  0.71892100  0.87223400  0.80399000  1
  C  C52  1  0.24224200  0.61277000  0.76621600  1
  C  C53  1  0.75775800  0.38723000  0.26621600  1
  C  C54  1  0.26225900  0.61384000  0.27422000  1
  C  C55  1  0.73774200  0.38616000  0.77422000  1
