# generated using pymatgen
data_Cu2NiC34
_symmetry_space_group_name_H-M   'P 1'
_cell_length_a   8.58848974
_cell_length_b   8.69728436
_cell_length_c   8.68144493
_cell_angle_alpha   59.99527107
_cell_angle_beta   60.99381633
_cell_angle_gamma   60.66846163
_symmetry_Int_Tables_number   1
_chemical_formula_structural   Cu2NiC34
_chemical_formula_sum   'Cu2 Ni1 C34'
_cell_volume   464.19209771
_cell_formula_units_Z   1
loop_
 _symmetry_equiv_pos_site_id
 _symmetry_equiv_pos_as_xyz
  1  'x, y, z'
loop_
 _atom_site_type_symbol
 _atom_site_label
 _atom_site_symmetry_multiplicity
 _atom_site_fract_x
 _atom_site_fract_y
 _atom_site_fract_z
 _atom_site_occupancy
  C  C0  1  0.87766700  0.37632700  0.37747400  1
  Ni  Ni1  1  0.59170300  0.13593400  0.13812300  1
  Cu  Cu2  1  0.00267100  0.99759200  0.99644200  1
  Cu  Cu3  1  0.47360000  0.50857600  0.50800000  1
  C  C4  1  0.03317700  0.65550400  0.65927700  1
  C  C5  1  0.42841700  0.85944500  0.85488300  1
  C  C6  1  0.23215500  0.25387100  0.25393800  1
  C  C7  1  0.24527300  0.25647400  0.55007300  1
  C  C8  1  0.23769300  0.94793200  0.25495000  1
  C  C9  1  0.24696500  0.55177600  0.94406000  1
  C  C10  1  0.72368900  0.46877100  0.05613600  1
  C  C11  1  0.73309000  0.05099200  0.75538800  1
  C  C12  1  0.72497200  0.75421500  0.46894200  1
  C  C13  1  0.06478000  0.11016000  0.31418400  1
  C  C14  1  0.07220600  0.50409000  0.10840200  1
  C  C15  1  0.06896600  0.31642500  0.49937700  1
  C  C16  1  0.22961900  0.09966300  0.74333700  1
  C  C17  1  0.41573200  0.19944900  0.38457800  1
  C  C18  1  0.26520900  0.42116000  0.55835400  1
  C  C19  1  0.21756400  0.92879100  0.09786200  1
  C  C20  1  0.26125600  0.75457200  0.41920600  1
  C  C21  1  0.54946300  0.61034600  0.99888000  1
  C  C22  1  0.26378200  0.55733000  0.75296500  1
  C  C23  1  0.76208500  0.26596800  0.07252200  1
  C  C24  1  0.55899300  0.99245900  0.84713000  1
  C  C25  1  0.41286600  0.00181600  0.19473300  1
  C  C26  1  0.23382300  0.74535000  0.91685500  1
  C  C27  1  0.68459000  0.46317000  0.25542400  1
  C  C28  1  0.41994000  0.38201600  0.99776200  1
  C  C29  1  0.68745600  0.25202600  0.60321100  1
  C  C30  1  0.77923800  0.06476100  0.90268900  1
  C  C31  1  0.68118700  0.60169000  0.46375800  1
  C  C32  1  0.55537300  0.84395700  0.60722700  1
  C  C33  1  0.76500400  0.90275300  0.26493800  1
  C  C34  1  0.90633000  0.66936400  0.51795800  1
  C  C35  1  0.90251500  0.51802000  0.90989100  1
  C  C36  1  0.90970300  0.90694400  0.67295000  1
