# generated using pymatgen
data_CuNiC5
_symmetry_space_group_name_H-M   'P 1'
_cell_length_a   5.18191626
_cell_length_b   5.18893922
_cell_length_c   19.63184190
_cell_angle_alpha   92.40881877
_cell_angle_beta   85.17154102
_cell_angle_gamma   119.95523202
_symmetry_Int_Tables_number   1
_chemical_formula_structural   CuNiC5
_chemical_formula_sum   'Cu6 Ni6 C30'
_cell_volume   455.73503410
_cell_formula_units_Z   6
loop_
 _symmetry_equiv_pos_site_id
 _symmetry_equiv_pos_as_xyz
  1  'x, y, z'
loop_
 _atom_site_type_symbol
 _atom_site_label
 _atom_site_symmetry_multiplicity
 _atom_site_fract_x
 _atom_site_fract_y
 _atom_site_fract_z
 _atom_site_occupancy
  C  C0  1  0.07797700  0.18484800  0.26466600  1
  C  C1  1  0.89312800  0.81515200  0.76466600  1
  Ni  Ni2  1  0.33389500  0.16624500  0.49759000  1
  Ni  Ni3  1  0.82854100  0.16116200  0.99709900  1
  Ni  Ni4  1  0.66738000  0.83883800  0.49709900  1
  Ni  Ni5  1  0.16764900  0.83375500  0.99759000  1
  Ni  Ni6  1  0.38013200  0.85402900  0.35945700  1
  Ni  Ni7  1  0.52610200  0.14597100  0.85945700  1
  Cu  Cu8  1  0.47890600  0.85901300  0.13885100  1
  Cu  Cu9  1  0.61989300  0.14098700  0.63885100  1
  Cu  Cu10  1  0.69585300  0.51194200  0.35762200  1
  Cu  Cu11  1  0.82309800  0.51727500  0.13852100  1
  Cu  Cu12  1  0.30582300  0.48272500  0.63852100  1
  Cu  Cu13  1  0.18391100  0.48805800  0.85762200  1
  C  C14  1  0.02403100  0.29154400  0.42633100  1
  C  C15  1  0.27313900  0.29663800  0.06490000  1
  C  C16  1  0.97650100  0.70336200  0.56490000  1
  C  C17  1  0.73248700  0.70845600  0.92633100  1
  C  C18  1  0.45121500  0.19389100  0.32557000  1
  C  C19  1  0.69759200  0.18578700  0.17255200  1
  C  C20  1  0.51180400  0.81421300  0.67255200  1
  C  C21  1  0.25732400  0.80610900  0.82557000  1
  C  C22  1  0.02995300  0.55540700  0.33907700  1
  C  C23  1  0.57452000  0.61872100  0.16198800  1
  C  C24  1  0.95579800  0.38127900  0.66198800  1
  C  C25  1  0.47454600  0.44459300  0.83907700  1
  C  C26  1  0.62715600  0.50652500  0.44264000  1
  C  C27  1  0.87466100  0.50090800  0.05602500  1
  C  C28  1  0.37375400  0.49909200  0.55602500  1
  C  C29  1  0.12063100  0.49347500  0.94264000  1
  C  C30  1  0.40350100  0.89162500  0.44859600  1
  C  C31  1  0.48206800  0.87887600  0.05677900  1
  C  C32  1  0.60319100  0.12112400  0.55677900  1
  C  C33  1  0.51187700  0.10837500  0.94859600  1
  C  C34  1  0.66122500  0.77645700  0.32448600  1
  C  C35  1  0.13692300  0.74251400  0.17393300  1
  C  C36  1  0.39440900  0.25748600  0.67393300  1
  C  C37  1  0.88476800  0.22354300  0.82448600  1
  C  C38  1  0.01744100  0.12800300  0.45013900  1
  C  C39  1  0.09594600  0.11413400  0.05318000  1
  C  C40  1  0.98181200  0.88586600  0.55318000  1
  C  C41  1  0.88943800  0.87199700  0.95013900  1
