# generated using pymatgen
data_CuNiC3
_symmetry_space_group_name_H-M   'P 1'
_cell_length_a   5.66371264
_cell_length_b   5.66371264
_cell_length_c   5.66371229
_cell_angle_alpha   56.24663943
_cell_angle_beta   56.24663943
_cell_angle_gamma   56.24663549
_symmetry_Int_Tables_number   1
_chemical_formula_structural   CuNiC3
_chemical_formula_sum   'Cu2 Ni2 C6'
_cell_volume   117.30801031
_cell_formula_units_Z   2
loop_
 _symmetry_equiv_pos_site_id
 _symmetry_equiv_pos_as_xyz
  1  'x, y, z'
loop_
 _atom_site_type_symbol
 _atom_site_label
 _atom_site_symmetry_multiplicity
 _atom_site_fract_x
 _atom_site_fract_y
 _atom_site_fract_z
 _atom_site_occupancy
  Ni  Ni0  1  0.35684400  0.35684400  0.35684400  1
  Ni  Ni1  1  0.64315600  0.64315600  0.64315600  1
  Cu  Cu2  1  0.14698400  0.14698400  0.14698400  1
  Cu  Cu3  1  0.85301600  0.85301600  0.85301600  1
  C  C4  1  0.44850500  0.75601100  0.04825200  1
  C  C5  1  0.75601100  0.04825200  0.44850500  1
  C  C6  1  0.95174800  0.55149500  0.24398900  1
  C  C7  1  0.04825200  0.44850500  0.75601100  1
  C  C8  1  0.24398900  0.95174800  0.55149500  1
  C  C9  1  0.55149500  0.24398900  0.95174800  1
