# generated using pymatgen
data_Cu3NiC4
_symmetry_space_group_name_H-M   'P 1'
_cell_length_a   9.34169111
_cell_length_b   9.34169111
_cell_length_c   17.25969050
_cell_angle_alpha   68.30552362
_cell_angle_beta   68.30552362
_cell_angle_gamma   53.79756124
_symmetry_Int_Tables_number   1
_chemical_formula_structural   Cu3NiC4
_chemical_formula_sum   'Cu12 Ni4 C16'
_cell_volume   1106.08071811
_cell_formula_units_Z   4
loop_
 _symmetry_equiv_pos_site_id
 _symmetry_equiv_pos_as_xyz
  1  'x, y, z'
loop_
 _atom_site_type_symbol
 _atom_site_label
 _atom_site_symmetry_multiplicity
 _atom_site_fract_x
 _atom_site_fract_y
 _atom_site_fract_z
 _atom_site_occupancy
  C  C0  1  0.42938200  0.47973700  0.71606700  1
  C  C1  1  0.52026300  0.57061800  0.78393300  1
  C  C2  1  0.57061800  0.52026300  0.28393300  1
  C  C3  1  0.47973700  0.42938200  0.21606700  1
  C  C4  1  0.22515400  0.09289800  0.59082500  1
  C  C5  1  0.90710200  0.77484600  0.90917500  1
  C  C6  1  0.77484600  0.90710200  0.40917500  1
  C  C7  1  0.09289800  0.22515400  0.09082500  1
  Ni  Ni8  1  0.62820500  0.10066400  0.61593500  1
  Ni  Ni9  1  0.89933600  0.37179500  0.88406500  1
  Ni  Ni10  1  0.37179500  0.89933600  0.38406500  1
  Ni  Ni11  1  0.10066400  0.62820500  0.11593500  1
  Cu  Cu12  1  0.61619000  0.47017600  0.58677500  1
  Cu  Cu13  1  0.52982400  0.38381000  0.91322500  1
  Cu  Cu14  1  0.38381000  0.52982400  0.41322500  1
  Cu  Cu15  1  0.47017600  0.61619000  0.08677500  1
  Cu  Cu16  1  0.43217400  0.23458700  0.80525700  1
  Cu  Cu17  1  0.76541300  0.56782600  0.69474300  1
  Cu  Cu18  1  0.56782600  0.76541300  0.19474300  1
  Cu  Cu19  1  0.23458700  0.43217400  0.30525700  1
  Cu  Cu20  1  0.17058600  0.71584000  0.67231000  1
  Cu  Cu21  1  0.28416000  0.82941400  0.82769000  1
  Cu  Cu22  1  0.82941400  0.28416000  0.32769000  1
  Cu  Cu23  1  0.71584000  0.17058600  0.17231000  1
  C  C24  1  0.18032900  0.06559900  0.54508900  1
  C  C25  1  0.93440100  0.81967100  0.95491100  1
  C  C26  1  0.81967100  0.93440100  0.45491100  1
  C  C27  1  0.06559900  0.18032900  0.04508900  1
  C  C28  1  0.87983900  0.72952500  0.86358800  1
  C  C29  1  0.27047500  0.12016100  0.63641200  1
  C  C30  1  0.12016100  0.27047500  0.13641200  1
  C  C31  1  0.72952500  0.87983900  0.36358800  1
