# generated using pymatgen
data_Cu3NiC16
_symmetry_space_group_name_H-M   'P 1'
_cell_length_a   5.91100302
_cell_length_b   5.93701001
_cell_length_c   8.35254700
_cell_angle_alpha   90.00000000
_cell_angle_beta   90.00000000
_cell_angle_gamma   90.00808761
_symmetry_Int_Tables_number   1
_chemical_formula_structural   Cu3NiC16
_chemical_formula_sum   'Cu3 Ni1 C16'
_cell_volume   293.12164291
_cell_formula_units_Z   1
loop_
 _symmetry_equiv_pos_site_id
 _symmetry_equiv_pos_as_xyz
  1  'x, y, z'
loop_
 _atom_site_type_symbol
 _atom_site_label
 _atom_site_symmetry_multiplicity
 _atom_site_fract_x
 _atom_site_fract_y
 _atom_site_fract_z
 _atom_site_occupancy
  Ni  Ni0  1  0.49636000  0.01255400  0.25000000  1
  Cu  Cu1  1  0.00880600  0.52625900  0.25000000  1
  Cu  Cu2  1  0.50635300  0.96977200  0.75000000  1
  Cu  Cu3  1  0.99797000  0.47865700  0.75000000  1
  C  C4  1  0.50000100  0.49716900  0.99751200  1
  C  C5  1  0.00126100  0.00118200  0.50309900  1
  C  C6  1  0.50000100  0.49716900  0.50248800  1
  C  C7  1  0.00126100  0.00118200  0.99690100  1
  C  C8  1  0.57446700  0.49718400  0.25000000  1
  C  C9  1  0.94714300  0.98078800  0.25000000  1
  C  C10  1  0.42667500  0.51178100  0.75000000  1
  C  C11  1  0.07883200  0.02325400  0.75000000  1
  C  C12  1  0.27069500  0.77164800  0.02693200  1
  C  C13  1  0.21636900  0.28360800  0.46277800  1
  C  C14  1  0.71995300  0.22036600  0.54027100  1
  C  C15  1  0.77341900  0.72590200  0.95893000  1
  C  C16  1  0.71995300  0.22036600  0.95972900  1
  C  C17  1  0.77341900  0.72590200  0.54107000  1
  C  C18  1  0.27069500  0.77164800  0.47306800  1
  C  C19  1  0.21636900  0.28360800  0.03722200  1
