# generated using pymatgen
data_Cu17Ni5C3
_symmetry_space_group_name_H-M   'P 1'
_cell_length_a   7.58102048
_cell_length_b   7.58102048
_cell_length_c   17.31565324
_cell_angle_alpha   78.34980268
_cell_angle_beta   78.34980268
_cell_angle_gamma   76.36115703
_symmetry_Int_Tables_number   1
_chemical_formula_structural   Cu17Ni5C3
_chemical_formula_sum   'Cu34 Ni10 C6'
_cell_volume   934.64436060
_cell_formula_units_Z   2
loop_
 _symmetry_equiv_pos_site_id
 _symmetry_equiv_pos_as_xyz
  1  'x, y, z'
loop_
 _atom_site_type_symbol
 _atom_site_label
 _atom_site_symmetry_multiplicity
 _atom_site_fract_x
 _atom_site_fract_y
 _atom_site_fract_z
 _atom_site_occupancy
  C  C0  1  0.73506000  0.66023700  0.57973600  1
  C  C1  1  0.33976300  0.26494000  0.92026400  1
  C  C2  1  0.26494000  0.33976300  0.42026400  1
  C  C3  1  0.66023700  0.73506000  0.07973600  1
  C  C4  1  0.06004400  0.93995600  0.75000000  1
  C  C5  1  0.93995600  0.06004400  0.25000000  1
  Ni  Ni6  1  0.38161400  0.61838600  0.75000000  1
  Ni  Ni7  1  0.61838600  0.38161400  0.25000000  1
  Ni  Ni8  1  0.71222200  0.73508900  0.84671800  1
  Ni  Ni9  1  0.26491100  0.28777800  0.65328200  1
  Ni  Ni10  1  0.28777800  0.26491100  0.15328200  1
  Ni  Ni11  1  0.73508900  0.71222200  0.34671800  1
  Ni  Ni12  1  0.15961900  0.83685800  0.93984200  1
  Ni  Ni13  1  0.16314200  0.84038100  0.56015800  1
  Ni  Ni14  1  0.84038100  0.16314200  0.06015800  1
  Ni  Ni15  1  0.83685800  0.15961900  0.43984200  1
  Cu  Cu16  1  0.51376700  0.48623300  0.75000000  1
  Cu  Cu17  1  0.48623300  0.51376700  0.25000000  1
  Cu  Cu18  1  0.21754400  0.59803300  0.78183100  1
  Cu  Cu19  1  0.40196700  0.78245600  0.71816900  1
  Cu  Cu20  1  0.78245600  0.40196700  0.21816900  1
  Cu  Cu21  1  0.59803300  0.21754400  0.28183100  1
  Cu  Cu22  1  0.62549400  0.62455000  0.88802900  1
  Cu  Cu23  1  0.37545000  0.37450600  0.61197100  1
  Cu  Cu24  1  0.37450600  0.37545000  0.11197100  1
  Cu  Cu25  1  0.62455000  0.62549400  0.38802900  1
  Cu  Cu26  1  0.83060900  0.72007500  0.78640600  1
  Cu  Cu27  1  0.27992500  0.16939100  0.71359400  1
  Cu  Cu28  1  0.16939100  0.27992500  0.21359400  1
  Cu  Cu29  1  0.72007500  0.83060900  0.28640600  1
  Cu  Cu30  1  0.67267100  0.91268200  0.87530800  1
  Cu  Cu31  1  0.08731800  0.32732900  0.62469200  1
  Cu  Cu32  1  0.32732900  0.08731800  0.12469200  1
  Cu  Cu33  1  0.91268200  0.67267100  0.37530800  1
  Cu  Cu34  1  0.06822900  0.71395200  0.94777600  1
  Cu  Cu35  1  0.28604800  0.93177100  0.55222400  1
  Cu  Cu36  1  0.93177100  0.28604800  0.05222400  1
  Cu  Cu37  1  0.71395200  0.06822900  0.44777600  1
  Cu  Cu38  1  0.23099100  0.86075600  0.99490300  1
  Cu  Cu39  1  0.13924400  0.76900900  0.50509700  1
  Cu  Cu40  1  0.76900900  0.13924400  0.00509700  1
  Cu  Cu41  1  0.86075600  0.23099100  0.49490300  1
  Cu  Cu42  1  0.18199100  0.94509900  0.87106400  1
  Cu  Cu43  1  0.05490100  0.81800900  0.62893600  1
  Cu  Cu44  1  0.81800900  0.05490100  0.12893600  1
  Cu  Cu45  1  0.94509900  0.18199100  0.37106400  1
  Cu  Cu46  1  0.77232900  0.03449300  0.82601500  1
  Cu  Cu47  1  0.96550700  0.22767100  0.67398500  1
  Cu  Cu48  1  0.22767100  0.96550700  0.17398500  1
  Cu  Cu49  1  0.03449300  0.77232900  0.32601500  1
