# generated using pymatgen
data_Cu(NiC8)2
_symmetry_space_group_name_H-M   'P 1'
_cell_length_a   10.32263400
_cell_length_b   10.32263400
_cell_length_c   10.32263400
_cell_angle_alpha   90.00000000
_cell_angle_beta   90.00000000
_cell_angle_gamma   90.00000000
_symmetry_Int_Tables_number   1
_chemical_formula_structural   Cu(NiC8)2
_chemical_formula_sum   'Cu4 Ni8 C64'
_cell_volume   1099.94656478
_cell_formula_units_Z   4
loop_
 _symmetry_equiv_pos_site_id
 _symmetry_equiv_pos_as_xyz
  1  'x, y, z'
loop_
 _atom_site_type_symbol
 _atom_site_label
 _atom_site_symmetry_multiplicity
 _atom_site_fract_x
 _atom_site_fract_y
 _atom_site_fract_z
 _atom_site_occupancy
  Ni  Ni0  1  0.32139400  0.82139400  0.67860600  1
  Ni  Ni1  1  0.82139400  0.67860600  0.32139400  1
  Ni  Ni2  1  0.67860600  0.32139400  0.82139400  1
  Ni  Ni3  1  0.17860600  0.17860600  0.17860600  1
  Ni  Ni4  1  0.54212900  0.04212900  0.45787100  1
  Ni  Ni5  1  0.04212900  0.45787100  0.54212900  1
  Ni  Ni6  1  0.45787100  0.54212900  0.04212900  1
  Ni  Ni7  1  0.95787100  0.95787100  0.95787100  1
  Cu  Cu8  1  0.83505800  0.33505800  0.16494200  1
  Cu  Cu9  1  0.33505800  0.16494200  0.83505800  1
  Cu  Cu10  1  0.16494200  0.83505800  0.33505800  1
  Cu  Cu11  1  0.66494200  0.66494200  0.66494200  1
  C  C12  1  0.10671700  0.60671700  0.89328300  1
  C  C13  1  0.60671700  0.89328300  0.10671700  1
  C  C14  1  0.89328300  0.10671700  0.60671700  1
  C  C15  1  0.39328300  0.39328300  0.39328300  1
  C  C16  1  0.13452300  0.51278300  0.20355000  1
  C  C17  1  0.79645000  0.63452300  0.98721700  1
  C  C18  1  0.01278300  0.29645000  0.86547700  1
  C  C19  1  0.63452300  0.98721700  0.79645000  1
  C  C20  1  0.29645000  0.86547700  0.01278300  1
  C  C21  1  0.51278300  0.20355000  0.13452300  1
  C  C22  1  0.86547700  0.01278300  0.29645000  1
  C  C23  1  0.20355000  0.13452300  0.51278300  1
  C  C24  1  0.98721700  0.79645000  0.63452300  1
  C  C25  1  0.36547700  0.48721700  0.70355000  1
  C  C26  1  0.70355000  0.36547700  0.48721700  1
  C  C27  1  0.48721700  0.70355000  0.36547700  1
  C  C28  1  0.16440300  0.51537600  0.05466600  1
  C  C29  1  0.94533400  0.66440300  0.98462400  1
  C  C30  1  0.01537600  0.44533400  0.83559700  1
  C  C31  1  0.66440300  0.98462400  0.94533400  1
  C  C32  1  0.44533400  0.83559700  0.01537600  1
  C  C33  1  0.51537600  0.05466600  0.16440300  1
  C  C34  1  0.83559700  0.01537600  0.44533400  1
  C  C35  1  0.05466600  0.16440300  0.51537600  1
  C  C36  1  0.98462400  0.94533400  0.66440300  1
  C  C37  1  0.33559700  0.48462400  0.55466600  1
  C  C38  1  0.55466600  0.33559700  0.48462400  1
  C  C39  1  0.48462400  0.55466600  0.33559700  1
  C  C40  1  0.24391100  0.54476200  0.77459300  1
  C  C41  1  0.22540700  0.74391100  0.95523800  1
  C  C42  1  0.04476200  0.72540700  0.75608900  1
  C  C43  1  0.74391100  0.95523800  0.22540700  1
  C  C44  1  0.72540700  0.75608900  0.04476200  1
  C  C45  1  0.54476200  0.77459300  0.24391100  1
  C  C46  1  0.75608900  0.04476200  0.72540700  1
  C  C47  1  0.77459300  0.24391100  0.54476200  1
  C  C48  1  0.95523800  0.22540700  0.74391100  1
  C  C49  1  0.25608900  0.45523800  0.27459300  1
  C  C50  1  0.27459300  0.25608900  0.45523800  1
  C  C51  1  0.45523800  0.27459300  0.25608900  1
  C  C52  1  0.75618000  0.39644200  0.35276600  1
  C  C53  1  0.64723400  0.25618000  0.10355800  1
  C  C54  1  0.89644200  0.14723400  0.24382000  1
  C  C55  1  0.25618000  0.10355800  0.64723400  1
  C  C56  1  0.14723400  0.24382000  0.89644200  1
  C  C57  1  0.39644200  0.35276600  0.75618000  1
  C  C58  1  0.24382000  0.89644200  0.14723400  1
  C  C59  1  0.35276600  0.75618000  0.39644200  1
  C  C60  1  0.10355800  0.64723400  0.25618000  1
  C  C61  1  0.74382000  0.60355800  0.85276600  1
  C  C62  1  0.85276600  0.74382000  0.60355800  1
  C  C63  1  0.60355800  0.85276600  0.74382000  1
  C  C64  1  0.02059900  0.42065600  0.23126200  1
  C  C65  1  0.76873800  0.52059900  0.07934400  1
  C  C66  1  0.92065600  0.26873800  0.97940100  1
  C  C67  1  0.52059900  0.07934400  0.76873800  1
  C  C68  1  0.26873800  0.97940100  0.92065600  1
  C  C69  1  0.42065600  0.23126200  0.02059900  1
  C  C70  1  0.97940100  0.92065600  0.26873800  1
  C  C71  1  0.23126200  0.02059900  0.42065600  1
  C  C72  1  0.07934400  0.76873800  0.52059900  1
  C  C73  1  0.47940100  0.57934400  0.73126200  1
  C  C74  1  0.73126200  0.47940100  0.57934400  1
  C  C75  1  0.57934400  0.73126200  0.47940100  1
