# generated using pymatgen
data_CuNi10C23
_symmetry_space_group_name_H-M   'P 1'
_cell_length_a   10.10458708
_cell_length_b   10.10458708
_cell_length_c   5.30428938
_cell_angle_alpha   75.67640998
_cell_angle_beta   75.67640998
_cell_angle_gamma   73.08995343
_symmetry_Int_Tables_number   1
_chemical_formula_structural   CuNi10C23
_chemical_formula_sum   'Cu1 Ni10 C23'
_cell_volume   492.98525681
_cell_formula_units_Z   1
loop_
 _symmetry_equiv_pos_site_id
 _symmetry_equiv_pos_as_xyz
  1  'x, y, z'
loop_
 _atom_site_type_symbol
 _atom_site_label
 _atom_site_symmetry_multiplicity
 _atom_site_fract_x
 _atom_site_fract_y
 _atom_site_fract_z
 _atom_site_occupancy
  C  C0  1  0.50000000  0.50000000  0.50000000  1
  C  C1  1  0.22151700  0.22151700  0.76454500  1
  C  C2  1  0.77848300  0.77848300  0.23545500  1
  Ni  Ni3  1  0.08044800  0.64747700  0.66061900  1
  Ni  Ni4  1  0.64747700  0.08044800  0.66061900  1
  Ni  Ni5  1  0.91955200  0.35252300  0.33938100  1
  Ni  Ni6  1  0.35252300  0.91955200  0.33938100  1
  Ni  Ni7  1  0.21728100  0.49662100  0.15187900  1
  Ni  Ni8  1  0.49662100  0.21728100  0.15187900  1
  Ni  Ni9  1  0.78271900  0.50337900  0.84812100  1
  Ni  Ni10  1  0.50337900  0.78271900  0.84812100  1
  Ni  Ni11  1  0.87060500  0.12939500  0.00000000  1
  Ni  Ni12  1  0.12939500  0.87060500  0.00000000  1
  Cu  Cu13  1  0.00000000  0.00000000  0.50000000  1
  C  C14  1  0.10095700  0.37710500  0.17458600  1
  C  C15  1  0.37710500  0.10095700  0.17458600  1
  C  C16  1  0.89904300  0.62289500  0.82541400  1
  C  C17  1  0.62289500  0.89904300  0.82541400  1
  C  C18  1  0.16212500  0.67857800  0.92690400  1
  C  C19  1  0.67857800  0.16212500  0.92690400  1
  C  C20  1  0.83787500  0.32142200  0.07309600  1
  C  C21  1  0.32142200  0.83787500  0.07309600  1
  C  C22  1  0.06278200  0.06278200  0.09823400  1
  C  C23  1  0.93721800  0.93721800  0.90176600  1
  C  C24  1  0.21782000  0.50064900  0.50999600  1
  C  C25  1  0.50064900  0.21782000  0.50999600  1
  C  C26  1  0.78218000  0.49935100  0.49000400  1
  C  C27  1  0.49935100  0.78218000  0.49000400  1
  C  C28  1  0.40058700  0.40058700  0.00551200  1
  C  C29  1  0.59941300  0.59941300  0.99448800  1
  C  C30  1  0.95109700  0.19438100  0.62168700  1
  C  C31  1  0.19438100  0.95109700  0.62168700  1
  C  C32  1  0.04890300  0.80561900  0.37831300  1
  C  C33  1  0.80561900  0.04890300  0.37831300  1
