# generated using pymatgen
data_Cu4NiC
_symmetry_space_group_name_H-M   'P 1'
_cell_length_a   4.81605849
_cell_length_b   4.81605849
_cell_length_c   7.37938611
_cell_angle_alpha   88.22677401
_cell_angle_beta   88.22677401
_cell_angle_gamma   65.91174818
_symmetry_Int_Tables_number   1
_chemical_formula_structural   Cu4NiC
_chemical_formula_sum   'Cu8 Ni2 C2'
_cell_volume   156.14926400
_cell_formula_units_Z   2
loop_
 _symmetry_equiv_pos_site_id
 _symmetry_equiv_pos_as_xyz
  1  'x, y, z'
loop_
 _atom_site_type_symbol
 _atom_site_label
 _atom_site_symmetry_multiplicity
 _atom_site_fract_x
 _atom_site_fract_y
 _atom_site_fract_z
 _atom_site_occupancy
  C  C0  1  0.00000000  0.00000000  0.00000000  1
  C  C1  1  0.00000000  0.00000000  0.50000000  1
  Ni  Ni2  1  0.36355400  0.36355400  0.78659800  1
  Ni  Ni3  1  0.63644600  0.63644600  0.21340200  1
  Cu  Cu4  1  0.29032000  0.29032000  0.60963000  1
  Cu  Cu5  1  0.70968000  0.70968000  0.39037000  1
  Cu  Cu6  1  0.70600700  0.24028900  0.80280500  1
  Cu  Cu7  1  0.29399300  0.75971100  0.19719500  1
  Cu  Cu8  1  0.75971100  0.29399300  0.19719500  1
  Cu  Cu9  1  0.24028900  0.70600700  0.80280500  1
  Cu  Cu10  1  0.24335200  0.24335200  0.94433200  1
  Cu  Cu11  1  0.75664800  0.75664800  0.05566800  1
