# generated using pymatgen
data_Cu6Ni18C
_symmetry_space_group_name_H-M   'P 1'
_cell_length_a   6.45728500
_cell_length_b   7.58076319
_cell_length_c   11.19703647
_cell_angle_alpha   73.21597323
_cell_angle_beta   73.24092672
_cell_angle_gamma   64.79239835
_symmetry_Int_Tables_number   1
_chemical_formula_structural   Cu6Ni18C
_chemical_formula_sum   'Cu12 Ni36 C2'
_cell_volume   466.05437921
_cell_formula_units_Z   2
loop_
 _symmetry_equiv_pos_site_id
 _symmetry_equiv_pos_as_xyz
  1  'x, y, z'
loop_
 _atom_site_type_symbol
 _atom_site_label
 _atom_site_symmetry_multiplicity
 _atom_site_fract_x
 _atom_site_fract_y
 _atom_site_fract_z
 _atom_site_occupancy
  C  C0  1  0.60801700  0.73887000  0.24658200  1
  C  C1  1  0.40653100  0.23887000  0.74658200  1
  Ni  Ni2  1  0.60432700  0.82012500  0.47194200  1
  Ni  Ni3  1  0.10360600  0.32012500  0.97194200  1
  Ni  Ni4  1  0.63156000  0.56966300  0.48873200  1
  Ni  Ni5  1  0.31004400  0.06966300  0.98873200  1
  Ni  Ni6  1  0.88147300  0.63473700  0.42290800  1
  Ni  Ni7  1  0.06088100  0.13473700  0.92290800  1
  Ni  Ni8  1  0.27683000  0.00025500  0.39337700  1
  Ni  Ni9  1  0.32953700  0.50025500  0.89337700  1
  Ni  Ni10  1  0.15994500  0.99612300  0.26789000  1
  Ni  Ni11  1  0.57604100  0.49612300  0.76789000  1
  Ni  Ni12  1  0.18511100  0.80274900  0.40537500  1
  Ni  Ni13  1  0.60676500  0.30274900  0.90537500  1
  Ni  Ni14  1  0.60483300  0.06871300  0.30138900  1
  Ni  Ni15  1  0.02506400  0.56871300  0.80138900  1
  Ni  Ni16  1  0.83907700  0.99571300  0.17078200  1
  Ni  Ni17  1  0.99442800  0.49571300  0.67078200  1
  Ni  Ni18  1  0.54591400  0.12320600  0.14575300  1
  Ni  Ni19  1  0.18512700  0.62320600  0.64575300  1
  Ni  Ni20  1  0.85745200  0.36512400  0.18971900  1
  Ni  Ni21  1  0.58770500  0.86512400  0.68971900  1
  Ni  Ni22  1  0.00242700  0.41644100  0.28286400  1
  Ni  Ni23  1  0.29826800  0.91644100  0.78286400  1
  Ni  Ni24  1  0.75234800  0.35352600  0.35680100  1
  Ni  Ni25  1  0.53732500  0.85352600  0.85680100  1
  Ni  Ni26  1  0.52181600  0.51996400  0.12213500  1
  Ni  Ni27  1  0.83608500  0.01996400  0.62213500  1
  Ni  Ni28  1  0.30214800  0.57250600  0.26112800  1
  Ni  Ni29  1  0.86421800  0.07250600  0.76112800  1
  Ni  Ni30  1  0.29200100  0.75902900  0.12006200  1
  Ni  Ni31  1  0.82890700  0.25902900  0.62006200  1
  Ni  Ni32  1  0.80407600  0.63032100  0.01258400  1
  Ni  Ni33  1  0.55301900  0.13032100  0.51258400  1
  Ni  Ni34  1  0.74228200  0.89041700  0.99209600  1
  Ni  Ni35  1  0.37520500  0.39041700  0.49209600  1
  Ni  Ni36  1  0.97801500  0.71152200  0.06685800  1
  Ni  Ni37  1  0.24360500  0.21152200  0.56685800  1
  Cu  Cu38  1  0.69218700  0.68826500  0.42818000  1
  Cu  Cu39  1  0.19136700  0.18826500  0.92818000  1
  Cu  Cu40  1  0.26868500  0.90355500  0.33979700  1
  Cu  Cu41  1  0.48796300  0.40355500  0.83979700  1
  Cu  Cu42  1  0.65649700  0.01247800  0.21292000  1
  Cu  Cu43  1  0.11810400  0.51247800  0.71292000  1
  Cu  Cu44  1  0.83203500  0.43265200  0.26968400  1
  Cu  Cu45  1  0.46562900  0.93265200  0.76968400  1
  Cu  Cu46  1  0.40974300  0.63498200  0.17862100  1
  Cu  Cu47  1  0.77665400  0.13498200  0.67862100  1
  Cu  Cu48  1  0.79960500  0.74516200  0.05571900  1
  Cu  Cu49  1  0.39951400  0.24516200  0.55571900  1
