# generated using pymatgen
data_CuNiC11
_symmetry_space_group_name_H-M   'P 1'
_cell_length_a   10.05625000
_cell_length_b   8.10054800
_cell_length_c   9.20708261
_cell_angle_alpha   63.55552583
_cell_angle_beta   90.00000000
_cell_angle_gamma   90.00000000
_symmetry_Int_Tables_number   1
_chemical_formula_structural   CuNiC11
_chemical_formula_sum   'Cu4 Ni4 C44'
_cell_volume   671.54214293
_cell_formula_units_Z   4
loop_
 _symmetry_equiv_pos_site_id
 _symmetry_equiv_pos_as_xyz
  1  'x, y, z'
loop_
 _atom_site_type_symbol
 _atom_site_label
 _atom_site_symmetry_multiplicity
 _atom_site_fract_x
 _atom_site_fract_y
 _atom_site_fract_z
 _atom_site_occupancy
  C  C0  1  0.36569100  0.65750300  0.42516400  1
  C  C1  1  0.13430900  0.65750300  0.92516400  1
  C  C2  1  0.63430900  0.34249700  0.57483600  1
  C  C3  1  0.86569100  0.34249700  0.07483600  1
  Ni  Ni4  1  0.62560000  0.72850000  0.75690100  1
  Ni  Ni5  1  0.87440000  0.72850000  0.25690100  1
  Ni  Ni6  1  0.37440000  0.27150000  0.24309900  1
  Ni  Ni7  1  0.12560000  0.27150000  0.74309900  1
  Cu  Cu8  1  0.62035300  0.07951500  0.05261800  1
  Cu  Cu9  1  0.87964700  0.07951500  0.55261800  1
  Cu  Cu10  1  0.37964700  0.92048500  0.94738200  1
  Cu  Cu11  1  0.12035300  0.92048500  0.44738200  1
  C  C12  1  0.65967100  0.01245500  0.35909600  1
  C  C13  1  0.84032900  0.01245500  0.85909600  1
  C  C14  1  0.34032900  0.98754500  0.64090400  1
  C  C15  1  0.15967100  0.98754500  0.14090400  1
  C  C16  1  0.41253400  0.38054500  0.85172900  1
  C  C17  1  0.08746600  0.38054500  0.35172900  1
  C  C18  1  0.58746600  0.61945500  0.14827100  1
  C  C19  1  0.91253400  0.61945500  0.64827100  1
  C  C20  1  0.76416700  0.15675000  0.89290000  1
  C  C21  1  0.73583300  0.15675000  0.39290000  1
  C  C22  1  0.23583300  0.84325000  0.10710000  1
  C  C23  1  0.26416700  0.84325000  0.60710000  1
  C  C24  1  0.74673900  0.95690300  0.24421200  1
  C  C25  1  0.75326100  0.95690300  0.74421200  1
  C  C26  1  0.25326100  0.04309700  0.75578800  1
  C  C27  1  0.24673900  0.04309700  0.25578800  1
  C  C28  1  0.53796700  0.10861900  0.24390000  1
  C  C29  1  0.96203300  0.10861900  0.74390000  1
  C  C30  1  0.46203300  0.89138100  0.75610000  1
  C  C31  1  0.03796700  0.89138100  0.25610000  1
  C  C32  1  0.61416800  0.84494600  0.51171700  1
  C  C33  1  0.88583200  0.84494600  0.01171700  1
  C  C34  1  0.38583200  0.15505400  0.48828300  1
  C  C35  1  0.11416800  0.15505400  0.98828300  1
  C  C36  1  0.36844000  0.39910300  0.00391800  1
  C  C37  1  0.13156000  0.39910300  0.50391800  1
  C  C38  1  0.63156000  0.60089700  0.99608200  1
  C  C39  1  0.86844000  0.60089700  0.49608200  1
  C  C40  1  0.29232400  0.40158300  0.74033200  1
  C  C41  1  0.20767600  0.40158300  0.24033200  1
  C  C42  1  0.70767600  0.59841700  0.25966800  1
  C  C43  1  0.79232400  0.59841700  0.75966800  1
  C  C44  1  0.51321600  0.53076700  0.74686400  1
  C  C45  1  0.98678400  0.53076700  0.24686400  1
  C  C46  1  0.48678400  0.46923300  0.25313600  1
  C  C47  1  0.01321600  0.46923300  0.75313600  1
  C  C48  1  0.47684500  0.18735900  0.89784700  1
  C  C49  1  0.02315500  0.18735900  0.39784700  1
  C  C50  1  0.52315500  0.81264100  0.10215300  1
  C  C51  1  0.97684500  0.81264100  0.60215300  1
