# generated using pymatgen
data_Cu9NiC2
_symmetry_space_group_name_H-M   'P 1'
_cell_length_a   18.64204300
_cell_length_b   6.86210500
_cell_length_c   8.83284478
_cell_angle_alpha   63.04374977
_cell_angle_beta   90.00000000
_cell_angle_gamma   90.00000000
_symmetry_Int_Tables_number   1
_chemical_formula_structural   Cu9NiC2
_chemical_formula_sum   'Cu36 Ni4 C8'
_cell_volume   1007.16622958
_cell_formula_units_Z   4
loop_
 _symmetry_equiv_pos_site_id
 _symmetry_equiv_pos_as_xyz
  1  'x, y, z'
loop_
 _atom_site_type_symbol
 _atom_site_label
 _atom_site_symmetry_multiplicity
 _atom_site_fract_x
 _atom_site_fract_y
 _atom_site_fract_z
 _atom_site_occupancy
  C  C0  1  0.93097700  0.52023500  0.86542300  1
  C  C1  1  0.43097700  0.47976500  0.63457700  1
  C  C2  1  0.06902300  0.47976500  0.13457700  1
  C  C3  1  0.56902300  0.52023500  0.36542300  1
  C  C4  1  0.86994900  0.99015900  0.46976000  1
  C  C5  1  0.36994900  0.00984100  0.03024000  1
  C  C6  1  0.13005100  0.00984100  0.53024000  1
  C  C7  1  0.63005100  0.99015900  0.96976000  1
  Ni  Ni8  1  0.86859500  0.22063800  0.48519300  1
  Ni  Ni9  1  0.36859500  0.77936200  0.01480700  1
  Ni  Ni10  1  0.13140500  0.77936200  0.51480700  1
  Ni  Ni11  1  0.63140500  0.22063800  0.98519300  1
  Cu  Cu12  1  0.86171500  0.51915400  0.00919600  1
  Cu  Cu13  1  0.36171500  0.48084600  0.49080400  1
  Cu  Cu14  1  0.13828500  0.48084600  0.99080400  1
  Cu  Cu15  1  0.63828500  0.51915400  0.50919600  1
  Cu  Cu16  1  0.98471000  0.51644300  0.69657400  1
  Cu  Cu17  1  0.48471000  0.48355700  0.80342600  1
  Cu  Cu18  1  0.01529000  0.48355700  0.30342600  1
  Cu  Cu19  1  0.51529000  0.51644300  0.19657400  1
  Cu  Cu20  1  0.00150100  0.70293000  0.93972100  1
  Cu  Cu21  1  0.50150100  0.29707000  0.56027900  1
  Cu  Cu22  1  0.99849900  0.29707000  0.06027900  1
  Cu  Cu23  1  0.49849900  0.70293000  0.43972100  1
  Cu  Cu24  1  0.87074500  0.81936500  0.65330700  1
  Cu  Cu25  1  0.37074500  0.18063500  0.84669300  1
  Cu  Cu26  1  0.12925500  0.18063500  0.34669300  1
  Cu  Cu27  1  0.62925500  0.81936500  0.15330700  1
  Cu  Cu28  1  0.80350100  0.98165800  0.38673300  1
  Cu  Cu29  1  0.30350100  0.01834200  0.11326700  1
  Cu  Cu30  1  0.19649900  0.01834200  0.61326700  1
  Cu  Cu31  1  0.69649900  0.98165800  0.88673300  1
  Cu  Cu32  1  0.93565100  0.98877800  0.38157600  1
  Cu  Cu33  1  0.43565100  0.01122200  0.11842400  1
  Cu  Cu34  1  0.06434900  0.01122200  0.61842400  1
  Cu  Cu35  1  0.56434900  0.98877800  0.88157600  1
  Cu  Cu36  1  0.87564300  0.97434000  0.04726900  1
  Cu  Cu37  1  0.37564300  0.02566000  0.45273100  1
  Cu  Cu38  1  0.12435700  0.02566000  0.95273100  1
  Cu  Cu39  1  0.62435700  0.97434000  0.54726900  1
  Cu  Cu40  1  0.85664500  0.17214400  0.92778100  1
  Cu  Cu41  1  0.35664500  0.82785600  0.57221900  1
  Cu  Cu42  1  0.14335500  0.82785600  0.07221900  1
  Cu  Cu43  1  0.64335500  0.17214400  0.42778100  1
  Cu  Cu44  1  0.67438900  0.84700800  0.62554000  1
  Cu  Cu45  1  0.17438900  0.15299200  0.87446000  1
  Cu  Cu46  1  0.32561100  0.15299200  0.37446000  1
  Cu  Cu47  1  0.82561100  0.84700800  0.12554000  1
