# generated using pymatgen
data_Cu2Ni4C3
_symmetry_space_group_name_H-M   'P 1'
_cell_length_a   4.60712100
_cell_length_b   5.52750400
_cell_length_c   7.69187447
_cell_angle_alpha   86.72455666
_cell_angle_beta   90.00000000
_cell_angle_gamma   90.00000000
_symmetry_Int_Tables_number   1
_chemical_formula_structural   Cu2Ni4C3
_chemical_formula_sum   'Cu4 Ni8 C6'
_cell_volume   195.56035960
_cell_formula_units_Z   2
loop_
 _symmetry_equiv_pos_site_id
 _symmetry_equiv_pos_as_xyz
  1  'x, y, z'
loop_
 _atom_site_type_symbol
 _atom_site_label
 _atom_site_symmetry_multiplicity
 _atom_site_fract_x
 _atom_site_fract_y
 _atom_site_fract_z
 _atom_site_occupancy
  C  C0  1  0.46960300  0.66743000  0.84019500  1
  C  C1  1  0.53039700  0.33257000  0.15980500  1
  C  C2  1  0.50000000  0.00000000  0.50000000  1
  C  C3  1  0.96960300  0.83257000  0.15980500  1
  C  C4  1  0.00000000  0.50000000  0.50000000  1
  C  C5  1  0.03039700  0.16743000  0.84019500  1
  Ni  Ni6  1  0.80918400  0.79716000  0.39213200  1
  Ni  Ni7  1  0.80960300  0.12931200  0.05976200  1
  Ni  Ni8  1  0.69039700  0.62931200  0.05976200  1
  Ni  Ni9  1  0.69081600  0.29716000  0.39213200  1
  Ni  Ni10  1  0.30918400  0.70284000  0.60786800  1
  Ni  Ni11  1  0.30960300  0.37068800  0.94023800  1
  Ni  Ni12  1  0.19081600  0.20284000  0.60786800  1
  Ni  Ni13  1  0.19039700  0.87068800  0.94023800  1
  Cu  Cu14  1  0.79310500  0.46174300  0.74627900  1
  Cu  Cu15  1  0.70689500  0.96174300  0.74627900  1
  Cu  Cu16  1  0.29310500  0.03825700  0.25372100  1
  Cu  Cu17  1  0.20689500  0.53825700  0.25372100  1
