# generated using pymatgen
data_Cu2Ni3C4
_symmetry_space_group_name_H-M   'P 1'
_cell_length_a   10.60505973
_cell_length_b   10.60505973
_cell_length_c   15.15119100
_cell_angle_alpha   90.00000000
_cell_angle_beta   90.00000000
_cell_angle_gamma   143.09635649
_symmetry_Int_Tables_number   1
_chemical_formula_structural   Cu2Ni3C4
_chemical_formula_sum   'Cu8 Ni12 C16'
_cell_volume   1023.21077309
_cell_formula_units_Z   4
loop_
 _symmetry_equiv_pos_site_id
 _symmetry_equiv_pos_as_xyz
  1  'x, y, z'
loop_
 _atom_site_type_symbol
 _atom_site_label
 _atom_site_symmetry_multiplicity
 _atom_site_fract_x
 _atom_site_fract_y
 _atom_site_fract_z
 _atom_site_occupancy
  Ni  Ni0  1  0.10274800  0.43670600  0.67680900  1
  Ni  Ni1  1  0.74086600  0.74086600  0.68003200  1
  Ni  Ni2  1  0.24086600  0.24086600  0.81996800  1
  Ni  Ni3  1  0.75913400  0.75913400  0.18003200  1
  Ni  Ni4  1  0.93670600  0.60274800  0.82319100  1
  Ni  Ni5  1  0.56329400  0.89725200  0.32319100  1
  Ni  Ni6  1  0.39725200  0.06329400  0.17680900  1
  Ni  Ni7  1  0.06329400  0.39725200  0.17680900  1
  Ni  Ni8  1  0.89725200  0.56329400  0.32319100  1
  Ni  Ni9  1  0.43670600  0.10274800  0.67680900  1
  Ni  Ni10  1  0.60274800  0.93670700  0.82319100  1
  Ni  Ni11  1  0.25913400  0.25913400  0.31996800  1
  Cu  Cu12  1  0.91917500  0.08082500  0.00000000  1
  Cu  Cu13  1  0.58082500  0.41917500  0.50000000  1
  Cu  Cu14  1  0.08082500  0.91917500  0.00000000  1
  Cu  Cu15  1  0.41917500  0.58082500  0.50000000  1
  Cu  Cu16  1  0.75519300  0.24480700  0.00000000  1
  Cu  Cu17  1  0.74480700  0.25519300  0.50000000  1
  Cu  Cu18  1  0.24480700  0.75519300  0.00000000  1
  Cu  Cu19  1  0.25519300  0.74480700  0.50000000  1
  C  C20  1  0.08815000  0.91185000  0.50000000  1
  C  C21  1  0.41185000  0.58815000  0.00000000  1
  C  C22  1  0.91185000  0.08815000  0.50000000  1
  C  C23  1  0.58815000  0.41185000  0.00000000  1
  C  C24  1  0.87696600  0.56148800  0.10357600  1
  C  C25  1  0.43851200  0.12303400  0.89642400  1
  C  C26  1  0.62303400  0.93851200  0.60357600  1
  C  C27  1  0.93851200  0.62303400  0.60357600  1
  C  C28  1  0.12303400  0.43851200  0.89642400  1
  C  C29  1  0.56148800  0.87696600  0.10357600  1
  C  C30  1  0.37696600  0.06148800  0.39642400  1
  C  C31  1  0.20337600  0.20337600  0.59243900  1
  C  C32  1  0.70337600  0.70337600  0.90756100  1
  C  C33  1  0.29662400  0.29662400  0.09243900  1
  C  C34  1  0.06148800  0.37696600  0.39642400  1
  C  C35  1  0.79662400  0.79662400  0.40756100  1
