# generated using pymatgen
data_Cu2NiC16
_symmetry_space_group_name_H-M   'P 1'
_cell_length_a   5.94396256
_cell_length_b   5.96579235
_cell_length_c   9.62056136
_cell_angle_alpha   66.14289677
_cell_angle_beta   83.98463795
_cell_angle_gamma   100.32794215
_symmetry_Int_Tables_number   1
_chemical_formula_structural   Cu2NiC16
_chemical_formula_sum   'Cu2 Ni1 C16'
_cell_volume   300.92639875
_cell_formula_units_Z   1
loop_
 _symmetry_equiv_pos_site_id
 _symmetry_equiv_pos_as_xyz
  1  'x, y, z'
loop_
 _atom_site_type_symbol
 _atom_site_label
 _atom_site_symmetry_multiplicity
 _atom_site_fract_x
 _atom_site_fract_y
 _atom_site_fract_z
 _atom_site_occupancy
  C  C0  1  0.04424300  0.60775300  0.84782200  1
  C  C1  1  0.93930900  0.32081200  0.24043800  1
  C  C2  1  0.47649800  0.18471800  0.83749100  1
  C  C3  1  0.34601400  0.91594200  0.23748700  1
  Ni  Ni4  1  0.83654900  0.99645900  0.66604200  1
  Cu  Cu5  1  0.47740400  0.52852000  0.04228200  1
  Cu  Cu6  1  0.92671300  0.98070400  0.04432400  1
  C  C7  1  0.73745800  0.63518500  0.48455200  1
  C  C8  1  0.38341800  0.27697800  0.48275100  1
  C  C9  1  0.21856200  0.28291100  0.99923300  1
  C  C10  1  0.18965000  0.74845400  0.04678600  1
  C  C11  1  0.70611700  0.25969000  0.04524200  1
  C  C12  1  0.72959600  0.87307800  0.89666300  1
  C  C13  1  0.77059000  0.65751300  0.66420200  1
  C  C14  1  0.35588200  0.29606600  0.29128600  1
  C  C15  1  0.17943700  0.05943500  0.66083600  1
  C  C16  1  0.91140900  0.85869400  0.29428100  1
  C  C17  1  0.41805800  0.60106000  0.47690700  1
  C  C18  1  0.71023500  0.27317100  0.51994700  1
