# generated using pymatgen
data_CuNiC18
_symmetry_space_group_name_H-M   'P 1'
_cell_length_a   5.33150940
_cell_length_b   7.47547545
_cell_length_c   14.83557620
_cell_angle_alpha   93.59853222
_cell_angle_beta   89.92608664
_cell_angle_gamma   110.86271281
_symmetry_Int_Tables_number   1
_chemical_formula_structural   CuNiC18
_chemical_formula_sum   'Cu2 Ni2 C36'
_cell_volume   551.28384382
_cell_formula_units_Z   2
loop_
 _symmetry_equiv_pos_site_id
 _symmetry_equiv_pos_as_xyz
  1  'x, y, z'
loop_
 _atom_site_type_symbol
 _atom_site_label
 _atom_site_symmetry_multiplicity
 _atom_site_fract_x
 _atom_site_fract_y
 _atom_site_fract_z
 _atom_site_occupancy
  C  C0  1  0.11084500  0.37025700  0.62677600  1
  C  C1  1  0.26031400  0.36884100  0.12661700  1
  C  C2  1  0.89118500  0.63178300  0.37355700  1
  C  C3  1  0.74141300  0.63180600  0.87317100  1
  Ni  Ni4  1  0.43639700  0.00491600  0.74982700  1
  Ni  Ni5  1  0.56561700  0.00052500  0.24993400  1
  C  C6  1  0.09916600  0.23825200  0.87364000  1
  C  C7  1  0.90302900  0.76161600  0.12649500  1
  C  C8  1  0.14178000  0.23948000  0.37350900  1
  C  C9  1  0.85992500  0.76280900  0.62648700  1
  Cu  Cu10  1  0.50070300  0.99998400  0.99991100  1
  Cu  Cu11  1  0.50142100  0.00152700  0.49975600  1
  C  C12  1  0.90065700  0.99418500  0.33800200  1
  C  C13  1  0.88016200  0.28452500  0.45413000  1
  C  C14  1  0.12123700  0.71836700  0.54584500  1
  C  C15  1  0.64829300  0.50721800  0.59727000  1
  C  C16  1  0.60364000  0.09659500  0.62464900  1
  C  C17  1  0.51065200  0.90786900  0.87450200  1
  C  C18  1  0.40351900  0.28361900  0.95407800  1
  C  C19  1  0.90540400  0.00670900  0.16261200  1
  C  C20  1  0.38367700  0.32101900  0.77066400  1
  C  C21  1  0.35231000  0.49524800  0.40243300  1
  C  C22  1  0.81354300  0.21794600  0.78894000  1
  C  C23  1  0.14500500  0.49490300  0.90072000  1
  C  C24  1  0.41115800  0.21889300  0.28984300  1
  C  C25  1  0.19135400  0.78252700  0.21050900  1
  C  C26  1  0.49094300  0.09332200  0.12518100  1
  C  C27  1  0.62098200  0.67420900  0.22921400  1
  C  C28  1  0.12901400  0.83922400  0.01020000  1
  C  C29  1  0.10208100  0.00800800  0.66216000  1
  C  C30  1  0.87229600  0.16063900  0.98994900  1
  C  C31  1  0.71316700  0.84261900  0.51066900  1
  C  C32  1  0.59782300  0.71656500  0.04608200  1
  C  C33  1  0.59136400  0.78427100  0.70994000  1
  C  C34  1  0.94833100  0.32613200  0.27124500  1
  C  C35  1  0.28890100  0.16056400  0.48881600  1
  C  C36  1  0.39889500  0.90652300  0.37450600  1
  C  C37  1  0.09454100  0.99227300  0.83809200  1
  C  C38  1  0.05243200  0.67412600  0.72854100  1
  C  C39  1  0.85825800  0.50563800  0.09818400  1
