# generated using pymatgen
data_CuNiC5
_symmetry_space_group_name_H-M   'P 1'
_cell_length_a   6.88532884
_cell_length_b   6.88532884
_cell_length_c   4.27319100
_cell_angle_alpha   90.00000000
_cell_angle_beta   90.00000000
_cell_angle_gamma   141.78474442
_symmetry_Int_Tables_number   1
_chemical_formula_structural   CuNiC5
_chemical_formula_sum   'Cu2 Ni2 C10'
_cell_volume   125.32103179
_cell_formula_units_Z   2
loop_
 _symmetry_equiv_pos_site_id
 _symmetry_equiv_pos_as_xyz
  1  'x, y, z'
loop_
 _atom_site_type_symbol
 _atom_site_label
 _atom_site_symmetry_multiplicity
 _atom_site_fract_x
 _atom_site_fract_y
 _atom_site_fract_z
 _atom_site_occupancy
  Ni  Ni0  1  0.67926100  0.32073900  0.75000000  1
  Ni  Ni1  1  0.32073900  0.67926100  0.25000000  1
  Cu  Cu2  1  0.09091700  0.90908300  0.25000000  1
  Cu  Cu3  1  0.90908300  0.09091700  0.75000000  1
  C  C4  1  0.21702700  0.40121000  0.52960300  1
  C  C5  1  0.59879000  0.78297300  0.97039700  1
  C  C6  1  0.78297300  0.59879000  0.02960300  1
  C  C7  1  0.40121000  0.21702700  0.47039700  1
  C  C8  1  0.96080100  0.35017000  0.97051800  1
  C  C9  1  0.64983000  0.03919900  0.52948200  1
  C  C10  1  0.03919900  0.64983000  0.47051800  1
  C  C11  1  0.35017000  0.96080100  0.02948200  1
  C  C12  1  0.16442400  0.16442400  0.00000000  1
  C  C13  1  0.83557600  0.83557600  0.50000000  1
