# generated using pymatgen
data_CuNi2C11
_symmetry_space_group_name_H-M   'P 1'
_cell_length_a   3.97471100
_cell_length_b   3.95968400
_cell_length_c   12.99687200
_cell_angle_alpha   90.00000000
_cell_angle_beta   90.00000000
_cell_angle_gamma   90.00000000
_symmetry_Int_Tables_number   1
_chemical_formula_structural   CuNi2C11
_chemical_formula_sum   'Cu1 Ni2 C11'
_cell_volume   204.55256383
_cell_formula_units_Z   1
loop_
 _symmetry_equiv_pos_site_id
 _symmetry_equiv_pos_as_xyz
  1  'x, y, z'
loop_
 _atom_site_type_symbol
 _atom_site_label
 _atom_site_symmetry_multiplicity
 _atom_site_fract_x
 _atom_site_fract_y
 _atom_site_fract_z
 _atom_site_occupancy
  Ni  Ni0  1  0.50000000  0.50000000  0.10877600  1
  Ni  Ni1  1  0.50000000  0.50000000  0.79343300  1
  Cu  Cu2  1  0.00000000  0.50000000  0.26852400  1
  C  C3  1  0.50000000  0.50000000  0.51066000  1
  C  C4  1  0.00000000  0.00000000  0.97698800  1
  C  C5  1  0.00000000  0.00000000  0.39940100  1
  C  C6  1  0.00000000  0.00000000  0.63506600  1
  C  C7  1  0.50000000  0.00000000  0.39825100  1
  C  C8  1  0.50000000  0.00000000  0.62920600  1
  C  C9  1  0.00000000  0.00000000  0.13049900  1
  C  C10  1  0.00000000  0.00000000  0.83904500  1
  C  C11  1  0.00000000  0.50000000  0.40461000  1
  C  C12  1  0.00000000  0.50000000  0.62871100  1
  C  C13  1  0.00000000  0.50000000  0.98238600  1
