# generated using pymatgen
data_Cu7Ni15C8
_symmetry_space_group_name_H-M   'P 1'
_cell_length_a   8.65784001
_cell_length_b   8.65784001
_cell_length_c   8.65784001
_cell_angle_alpha   120.07782181
_cell_angle_beta   119.90707211
_cell_angle_gamma   90.01314634
_symmetry_Int_Tables_number   1
_chemical_formula_structural   Cu7Ni15C8
_chemical_formula_sum   'Cu7 Ni15 C8'
_cell_volume   458.94646677
_cell_formula_units_Z   1
loop_
 _symmetry_equiv_pos_site_id
 _symmetry_equiv_pos_as_xyz
  1  'x, y, z'
loop_
 _atom_site_type_symbol
 _atom_site_label
 _atom_site_symmetry_multiplicity
 _atom_site_fract_x
 _atom_site_fract_y
 _atom_site_fract_z
 _atom_site_occupancy
  C  C0  1  0.78984300  0.28906200  0.07263000  1
  C  C1  1  0.21643200  0.28906200  0.49921900  1
  C  C2  1  0.21000400  0.71000400  0.50000000  1
  C  C3  1  0.21643200  0.71721300  0.92737000  1
  C  C4  1  0.78984300  0.71721300  0.50078100  1
  C  C5  1  0.78395200  0.28395200  0.50000000  1
  C  C6  1  0.37902000  0.12272900  0.74370900  1
  C  C7  1  0.37902000  0.63531100  0.25629100  1
  Ni  Ni8  1  0.99816800  0.49816800  0.50000000  1
  Ni  Ni9  1  0.15325200  0.34458800  0.19133500  1
  Ni  Ni10  1  0.15325200  0.96191700  0.80866500  1
  Ni  Ni11  1  0.15074500  0.34636000  0.80438500  1
  Ni  Ni12  1  0.54197400  0.34636000  0.19561500  1
  Ni  Ni13  1  0.84574000  0.65262400  0.80688500  1
  Ni  Ni14  1  0.84574000  0.03885500  0.19311500  1
  Ni  Ni15  1  0.84390100  0.65379500  0.19010600  1
  Ni  Ni16  1  0.46368900  0.65379500  0.80989400  1
  Ni  Ni17  1  0.37951600  0.12171700  0.25779900  1
  Ni  Ni18  1  0.86391900  0.12171700  0.74220100  1
  Ni  Ni19  1  0.62177800  0.87787800  0.25610000  1
  Ni  Ni20  1  0.62177800  0.36567800  0.74390000  1
  Ni  Ni21  1  0.62111500  0.87815400  0.74296100  1
  Ni  Ni22  1  0.13519200  0.87815400  0.25703900  1
  Cu  Cu23  1  0.00128800  0.00009600  0.50164300  1
  Cu  Cu24  1  0.49845300  0.00009600  0.99880800  1
  Cu  Cu25  1  0.49771900  0.49771900  0.00000000  1
  Cu  Cu26  1  0.49845300  0.49964500  0.49835700  1
  Cu  Cu27  1  0.00128800  0.49964500  0.00119200  1
  Cu  Cu28  1  0.99906200  0.99906200  0.00000000  1
  Cu  Cu29  1  0.49942800  0.99942800  0.50000000  1
