# generated using pymatgen
data_CuNiC8
_symmetry_space_group_name_H-M   'P 1'
_cell_length_a   5.97170104
_cell_length_b   5.97170104
_cell_length_c   8.65325424
_cell_angle_alpha   90.00000000
_cell_angle_beta   90.00000000
_cell_angle_gamma   90.00000000
_symmetry_Int_Tables_number   1
_chemical_formula_structural   CuNiC8
_chemical_formula_sum   'Cu2 Ni2 C16'
_cell_volume   308.58554529
_cell_formula_units_Z   2
loop_
 _symmetry_equiv_pos_site_id
 _symmetry_equiv_pos_as_xyz
  1  'x, y, z'
loop_
 _atom_site_type_symbol
 _atom_site_label
 _atom_site_symmetry_multiplicity
 _atom_site_fract_x
 _atom_site_fract_y
 _atom_site_fract_z
 _atom_site_occupancy
  Ni  Ni0  1  0.50000000  0.00000000  0.25000000  1
  Ni  Ni1  1  -0.00000000  0.50000000  0.75000000  1
  C  C2  1  -0.00000000  0.00000000  0.00000000  1
  C  C3  1  0.50000000  0.50000000  0.50000000  1
  Cu  Cu4  1  -0.00000000  0.50000000  0.25000000  1
  Cu  Cu5  1  0.50000000  0.00000000  0.75000000  1
  C  C6  1  -0.00000000  0.00000000  0.50000000  1
  C  C7  1  0.50000000  0.50000000  0.00000000  1
  C  C8  1  -0.00000000  0.00000000  0.26037293  1
  C  C9  1  0.50000000  0.50000000  0.23962707  1
  C  C10  1  -0.00000000  0.00000000  0.73962707  1
  C  C11  1  0.50000000  0.50000000  0.76037293  1
  C  C12  1  0.33632881  0.19197803  0.99755820  1
  C  C13  1  0.66367119  0.80802197  0.99755820  1
  C  C14  1  0.80802197  0.33632881  0.00244180  1
  C  C15  1  0.19197803  0.66367119  0.00244180  1
  C  C16  1  0.83632881  0.30802197  0.49755820  1
  C  C17  1  0.16367119  0.69197803  0.49755820  1
  C  C18  1  0.30802197  0.16367119  0.50244180  1
  C  C19  1  0.69197803  0.83632881  0.50244180  1
