# generated using pymatgen
data_CuNiC4
_symmetry_space_group_name_H-M   'P 1'
_cell_length_a   5.69525802
_cell_length_b   6.91391828
_cell_length_c   7.26158642
_cell_angle_alpha   90.00012900
_cell_angle_beta   66.90914331
_cell_angle_gamma   89.99885789
_symmetry_Int_Tables_number   1
_chemical_formula_structural   CuNiC4
_chemical_formula_sum   'Cu4 Ni4 C16'
_cell_volume   263.02817178
_cell_formula_units_Z   4
loop_
 _symmetry_equiv_pos_site_id
 _symmetry_equiv_pos_as_xyz
  1  'x, y, z'
loop_
 _atom_site_type_symbol
 _atom_site_label
 _atom_site_symmetry_multiplicity
 _atom_site_fract_x
 _atom_site_fract_y
 _atom_site_fract_z
 _atom_site_occupancy
  Ni  Ni0  1  0.00405900  0.00000300  0.49196900  1
  Ni  Ni1  1  0.74592600  0.50000100  0.00803100  1
  Ni  Ni2  1  0.25362000  0.49999200  0.99274200  1
  Ni  Ni3  1  0.49633800  0.99999900  0.50726400  1
  Cu  Cu4  1  0.77727000  0.49999400  0.50020200  1
  Cu  Cu5  1  0.52705200  0.99999200  0.99976300  1
  Cu  Cu6  1  0.22303400  0.50001200  0.50016700  1
  Cu  Cu7  1  0.97282700  0.00000700  0.99983900  1
  C  C8  1  0.25026900  0.81007700  0.99931600  1
  C  C9  1  0.00092100  0.27942300  0.49846500  1
  C  C10  1  0.74910700  0.77943600  0.00153500  1
  C  C11  1  0.49968100  0.31002300  0.50069400  1
  C  C12  1  0.25027400  0.18994200  0.99931600  1
  C  C13  1  0.00091400  0.72058800  0.49848100  1
  C  C14  1  0.74910400  0.22055400  0.00154400  1
  C  C15  1  0.49968800  0.68996900  0.50069200  1
  C  C16  1  0.61295500  0.49998900  0.78789200  1
  C  C17  1  0.36599500  0.99996800  0.28772700  1
  C  C18  1  0.09905300  0.50001600  0.78790000  1
  C  C19  1  0.84610400  0.00000500  0.28770700  1
  C  C20  1  0.38398400  0.50002900  0.21225500  1
  C  C21  1  0.13700800  0.00000700  0.71213600  1
  C  C22  1  0.90388800  0.49999200  0.21227500  1
  C  C23  1  0.65092900  0.99998100  0.71208600  1
