# generated using pymatgen
data_Cu24NiC14
_symmetry_space_group_name_H-M   'P 1'
_cell_length_a   7.94921057
_cell_length_b   13.00800000
_cell_length_c   13.08687921
_cell_angle_alpha   119.80081635
_cell_angle_beta   103.73270041
_cell_angle_gamma   90.00000000
_symmetry_Int_Tables_number   1
_chemical_formula_structural   Cu24NiC14
_chemical_formula_sum   'Cu48 Ni2 C28'
_cell_volume   1129.47790687
_cell_formula_units_Z   2
loop_
 _symmetry_equiv_pos_site_id
 _symmetry_equiv_pos_as_xyz
  1  'x, y, z'
loop_
 _atom_site_type_symbol
 _atom_site_label
 _atom_site_symmetry_multiplicity
 _atom_site_fract_x
 _atom_site_fract_y
 _atom_site_fract_z
 _atom_site_occupancy
  C  C0  1  0.00000000  0.88358700  0.00000000  1
  C  C1  1  0.00000000  0.11641300  0.00000000  1
  C  C2  1  0.00000000  0.65550400  0.00000000  1
  C  C3  1  0.00000000  0.34449600  0.00000000  1
  C  C4  1  0.98569500  0.87262800  0.74525700  1
  C  C5  1  0.01430500  0.12737200  0.25474300  1
  C  C6  1  0.99679500  0.62651300  0.75628900  1
  C  C7  1  0.99679500  0.12977600  0.75628900  1
  C  C8  1  0.00320500  0.37348700  0.24371100  1
  C  C9  1  0.00320500  0.87022400  0.24371100  1
  C  C10  1  0.00021200  0.37925100  0.75850200  1
  C  C11  1  0.99978800  0.62074900  0.24149800  1
  C  C12  1  0.95093500  0.63859600  0.50036700  1
  C  C13  1  0.95093500  0.86177100  0.50036700  1
  C  C14  1  0.04906500  0.36140400  0.49963300  1
  C  C15  1  0.04906500  0.13822900  0.49963300  1
  C  C16  1  0.64078700  0.41571800  0.59225900  1
  C  C17  1  0.64078700  0.17654100  0.59225900  1
  C  C18  1  0.35921300  0.58428200  0.40774100  1
  C  C19  1  0.35921300  0.82345900  0.40774100  1
  C  C20  1  0.62921000  0.42210100  0.35539700  1
  C  C21  1  0.62921000  0.93329600  0.35539700  1
  C  C22  1  0.37079000  0.57789900  0.64460300  1
  C  C23  1  0.37079000  0.06670400  0.64460300  1
  C  C24  1  0.63082700  0.18137000  0.12270800  1
  C  C25  1  0.63082700  0.94133700  0.12270800  1
  C  C26  1  0.36917300  0.81863000  0.87729200  1
  C  C27  1  0.36917300  0.05866300  0.87729200  1
  Ni  Ni28  1  0.80836200  0.44647900  0.89295900  1
  Ni  Ni29  1  0.19163800  0.55352100  0.10704100  1
  Cu  Cu30  1  0.50000000  0.83109100  0.00000000  1
  Cu  Cu31  1  0.50000000  0.16890900  0.00000000  1
  Cu  Cu32  1  0.41804500  0.93467900  0.86935800  1
  Cu  Cu33  1  0.58195500  0.06532100  0.13064200  1
  Cu  Cu34  1  0.41778200  0.70455300  0.76801700  1
  Cu  Cu35  1  0.41778200  0.06346400  0.76801700  1
  Cu  Cu36  1  0.58221800  0.29544700  0.23198300  1
  Cu  Cu37  1  0.58221800  0.93653600  0.23198300  1
  Cu  Cu38  1  0.50968900  0.49566600  0.66956100  1
  Cu  Cu39  1  0.50968900  0.17389500  0.66956100  1
  Cu  Cu40  1  0.49031100  0.50433400  0.33043900  1
  Cu  Cu41  1  0.49031100  0.82610500  0.33043900  1
  Cu  Cu42  1  0.41118900  0.59928400  0.54124400  1
  Cu  Cu43  1  0.41118900  0.94196100  0.54124400  1
  Cu  Cu44  1  0.58881100  0.40071600  0.45875600  1
  Cu  Cu45  1  0.58881100  0.05803900  0.45875600  1
  Cu  Cu46  1  0.40431600  0.71416100  0.42832200  1
  Cu  Cu47  1  0.59568400  0.28583900  0.57167800  1
  Cu  Cu48  1  0.85221600  0.45964900  0.65504300  1
  Cu  Cu49  1  0.85221600  0.19539400  0.65504300  1
  Cu  Cu50  1  0.14778400  0.54035100  0.34495700  1
  Cu  Cu51  1  0.14778400  0.80460600  0.34495700  1
  Cu  Cu52  1  0.83821900  0.47299300  0.39281100  1
  Cu  Cu53  1  0.83821900  0.91981800  0.39281100  1
  Cu  Cu54  1  0.16178100  0.52700700  0.60718900  1
  Cu  Cu55  1  0.16178100  0.08018200  0.60718900  1
  Cu  Cu56  1  0.84307200  0.20098400  0.14164900  1
  Cu  Cu57  1  0.84307200  0.94066500  0.14164900  1
  Cu  Cu58  1  0.15692800  0.79901600  0.85835100  1
  Cu  Cu59  1  0.15692800  0.05933500  0.85835100  1
  Cu  Cu60  1  0.89647900  0.94403500  0.88806900  1
  Cu  Cu61  1  0.10352100  0.05596500  0.11193100  1
  Cu  Cu62  1  0.87831100  0.71709200  0.90422500  1
  Cu  Cu63  1  0.87831100  0.18713300  0.90422500  1
  Cu  Cu64  1  0.12168900  0.28290800  0.09577500  1
  Cu  Cu65  1  0.12168900  0.81286700  0.09577500  1
  Cu  Cu66  1  0.88694600  0.68549700  0.65131800  1
  Cu  Cu67  1  0.88694600  0.96582000  0.65131800  1
  Cu  Cu68  1  0.11305400  0.31450300  0.34868200  1
  Cu  Cu69  1  0.11305400  0.03418000  0.34868200  1
  Cu  Cu70  1  0.88814800  0.68643200  0.37286500  1
  Cu  Cu71  1  0.11185200  0.31356800  0.62713500  1
  Cu  Cu72  1  0.92383100  0.20083500  0.40167100  1
  Cu  Cu73  1  0.07616900  0.79916500  0.59832900  1
  Cu  Cu74  1  0.90081200  0.43298800  0.13732600  1
  Cu  Cu75  1  0.90081200  0.70433800  0.13732600  1
  Cu  Cu76  1  0.09918800  0.56701200  0.86267400  1
  Cu  Cu77  1  0.09918800  0.29566200  0.86267400  1
