# generated using pymatgen
data_CuNi3C10
_symmetry_space_group_name_H-M   'P 1'
_cell_length_a   6.71531732
_cell_length_b   6.71531732
_cell_length_c   5.52577800
_cell_angle_alpha   90.00000000
_cell_angle_beta   90.00000000
_cell_angle_gamma   131.66452138
_symmetry_Int_Tables_number   1
_chemical_formula_structural   CuNi3C10
_chemical_formula_sum   'Cu1 Ni3 C10'
_cell_volume   186.15562324
_cell_formula_units_Z   1
loop_
 _symmetry_equiv_pos_site_id
 _symmetry_equiv_pos_as_xyz
  1  'x, y, z'
loop_
 _atom_site_type_symbol
 _atom_site_label
 _atom_site_symmetry_multiplicity
 _atom_site_fract_x
 _atom_site_fract_y
 _atom_site_fract_z
 _atom_site_occupancy
  Ni  Ni0  1  0.64474500  0.35525500  0.00000000  1
  Ni  Ni1  1  0.35644400  0.64355600  0.00000000  1
  Ni  Ni2  1  0.85423600  0.14576400  0.50000000  1
  Cu  Cu3  1  0.13369000  0.86631000  0.50000000  1
  C  C4  1  0.50006900  0.49993100  0.50000000  1
  C  C5  1  0.00032300  0.99967700  0.00000000  1
  C  C6  1  0.25010800  0.23749600  0.26119100  1
  C  C7  1  0.76250400  0.74989200  0.73880900  1
  C  C8  1  0.76250400  0.74989200  0.26119100  1
  C  C9  1  0.25010800  0.23749600  0.73880900  1
  C  C10  1  0.84288200  0.15711800  0.00000000  1
  C  C11  1  0.32210400  0.67789600  0.50000000  1
  C  C12  1  0.65928900  0.34071100  0.50000000  1
  C  C13  1  0.16099500  0.83900500  0.00000000  1
