# generated using pymatgen
data_CuNiC14
_symmetry_space_group_name_H-M   'P 1'
_cell_length_a   6.74197801
_cell_length_b   6.69746201
_cell_length_c   11.29322919
_cell_angle_alpha   90.00000000
_cell_angle_beta   90.00000000
_cell_angle_gamma   119.78182611
_symmetry_Int_Tables_number   1
_chemical_formula_structural   CuNiC14
_chemical_formula_sum   'Cu1 Ni1 C14'
_cell_volume   442.58526782
_cell_formula_units_Z   1
loop_
 _symmetry_equiv_pos_site_id
 _symmetry_equiv_pos_as_xyz
  1  'x, y, z'
loop_
 _atom_site_type_symbol
 _atom_site_label
 _atom_site_symmetry_multiplicity
 _atom_site_fract_x
 _atom_site_fract_y
 _atom_site_fract_z
 _atom_site_occupancy
  Ni  Ni0  1  0.28773934  0.89386917  0.12500000  1
  Cu  Cu1  1  0.28159111  0.39079506  0.12500000  1
  C  C2  1  0.10139153  0.30069527  0.62500000  1
  C  C3  1  0.10176215  0.80088058  0.62500000  1
  C  C4  1  0.78405169  0.39458978  0.12500000  1
  C  C5  1  0.64529984  0.32278626  0.62500000  1
  C  C6  1  0.78405169  0.88946090  0.12500000  1
  C  C7  1  0.64529984  0.82251258  0.62500000  1
  C  C8  1  0.29692373  0.15125419  0.42289026  1
  C  C9  1  0.29692373  0.15125419  0.82710974  1
  C  C10  1  0.29692373  0.64567054  0.42289026  1
  C  C11  1  0.29692373  0.64567054  0.82710974  1
  C  C12  1  0.79749713  0.14874906  0.37904179  1
  C  C13  1  0.79749713  0.14874906  0.87095821  1
  C  C14  1  0.79306180  0.64653140  0.38034225  1
  C  C15  1  0.79306180  0.64653140  0.86965775  1
