# generated using pymatgen
data_Cu8Ni2C
_symmetry_space_group_name_H-M   'P 1'
_cell_length_a   5.19207700
_cell_length_b   10.35553000
_cell_length_c   11.68028900
_cell_angle_alpha   90.00000000
_cell_angle_beta   90.00000000
_cell_angle_gamma   90.00000000
_symmetry_Int_Tables_number   1
_chemical_formula_structural   Cu8Ni2C
_chemical_formula_sum   'Cu32 Ni8 C4'
_cell_volume   628.01070129
_cell_formula_units_Z   4
loop_
 _symmetry_equiv_pos_site_id
 _symmetry_equiv_pos_as_xyz
  1  'x, y, z'
loop_
 _atom_site_type_symbol
 _atom_site_label
 _atom_site_symmetry_multiplicity
 _atom_site_fract_x
 _atom_site_fract_y
 _atom_site_fract_z
 _atom_site_occupancy
  C  C0  1  0.50000000  0.00000000  0.50000000  1
  C  C1  1  0.00000000  0.50000000  0.50000000  1
  C  C2  1  0.50000000  0.50000000  0.00000000  1
  C  C3  1  0.00000000  0.00000000  0.00000000  1
  Ni  Ni4  1  0.64049000  0.32886200  0.61677600  1
  Ni  Ni5  1  0.14049000  0.17113800  0.38322400  1
  Ni  Ni6  1  0.35951000  0.82886200  0.88322400  1
  Ni  Ni7  1  0.85951000  0.67113800  0.11677600  1
  Ni  Ni8  1  0.35951000  0.67113800  0.38322400  1
  Ni  Ni9  1  0.85951000  0.82886200  0.61677600  1
  Ni  Ni10  1  0.64049000  0.17113800  0.11677600  1
  Ni  Ni11  1  0.14049000  0.32886200  0.88322400  1
  Cu  Cu12  1  0.83528500  0.45711000  0.37357700  1
  Cu  Cu13  1  0.33528500  0.04289000  0.62642300  1
  Cu  Cu14  1  0.16471500  0.95711000  0.12642300  1
  Cu  Cu15  1  0.66471500  0.54289000  0.87357700  1
  Cu  Cu16  1  0.16471500  0.54289000  0.62642300  1
  Cu  Cu17  1  0.66471500  0.95711000  0.37357700  1
  Cu  Cu18  1  0.83528500  0.04289000  0.87357700  1
  Cu  Cu19  1  0.33528500  0.45711000  0.12642300  1
  Cu  Cu20  1  0.83106700  0.54505300  0.09980800  1
  Cu  Cu21  1  0.33106700  0.95494700  0.90019200  1
  Cu  Cu22  1  0.16893300  0.04505300  0.40019200  1
  Cu  Cu23  1  0.66893300  0.45494700  0.59980800  1
  Cu  Cu24  1  0.16893300  0.45494700  0.90019200  1
  Cu  Cu25  1  0.66893300  0.04505300  0.09980800  1
  Cu  Cu26  1  0.83106700  0.95494700  0.59980800  1
  Cu  Cu27  1  0.33106700  0.54505300  0.40019200  1
  Cu  Cu28  1  0.55698900  0.70439400  0.33134200  1
  Cu  Cu29  1  0.05698900  0.79560600  0.66865800  1
  Cu  Cu30  1  0.44301100  0.20439400  0.16865800  1
  Cu  Cu31  1  0.94301100  0.29560600  0.83134200  1
  Cu  Cu32  1  0.44301100  0.29560600  0.66865800  1
  Cu  Cu33  1  0.94301100  0.20439400  0.33134200  1
  Cu  Cu34  1  0.55698900  0.79560600  0.83134200  1
  Cu  Cu35  1  0.05698900  0.70439400  0.16865800  1
  Cu  Cu36  1  0.19335200  0.74626000  0.41951000  1
  Cu  Cu37  1  0.69335200  0.75374000  0.58049000  1
  Cu  Cu38  1  0.80664800  0.24626000  0.08049000  1
  Cu  Cu39  1  0.30664800  0.25374000  0.91951000  1
  Cu  Cu40  1  0.80664800  0.25374000  0.58049000  1
  Cu  Cu41  1  0.30664800  0.24626000  0.41951000  1
  Cu  Cu42  1  0.19335200  0.75374000  0.91951000  1
  Cu  Cu43  1  0.69335200  0.74626000  0.08049000  1
