# generated using pymatgen
data_CuNiC8
_symmetry_space_group_name_H-M   'P 1'
_cell_length_a   5.97278209
_cell_length_b   5.97278209
_cell_length_c   5.97278223
_cell_angle_alpha   47.97452177
_cell_angle_beta   47.97452177
_cell_angle_gamma   47.97451962
_symmetry_Int_Tables_number   1
_chemical_formula_structural   CuNiC8
_chemical_formula_sum   'Cu1 Ni1 C8'
_cell_volume   107.71113145
_cell_formula_units_Z   1
loop_
 _symmetry_equiv_pos_site_id
 _symmetry_equiv_pos_as_xyz
  1  'x, y, z'
loop_
 _atom_site_type_symbol
 _atom_site_label
 _atom_site_symmetry_multiplicity
 _atom_site_fract_x
 _atom_site_fract_y
 _atom_site_fract_z
 _atom_site_occupancy
  Ni  Ni0  1  0.50000000  0.50000000  0.50000000  1
  Cu  Cu1  1  0.00000000  0.00000000  0.00000000  1
  C  C2  1  0.25328700  0.25328700  0.25328700  1
  C  C3  1  0.74671300  0.74671300  0.74671300  1
  C  C4  1  0.54317800  0.97224800  0.24054200  1
  C  C5  1  0.24054200  0.54317800  0.97224800  1
  C  C6  1  0.97224800  0.24054200  0.54317800  1
  C  C7  1  0.75945800  0.45682200  0.02775200  1
  C  C8  1  0.02775200  0.75945800  0.45682200  1
  C  C9  1  0.45682200  0.02775200  0.75945800  1
