# generated using pymatgen
data_Cu8NiC
_symmetry_space_group_name_H-M   'P 1'
_cell_length_a   14.01364900
_cell_length_b   5.87951400
_cell_length_c   9.82835852
_cell_angle_alpha   54.67905348
_cell_angle_beta   90.00000000
_cell_angle_gamma   90.00000000
_symmetry_Int_Tables_number   1
_chemical_formula_structural   Cu8NiC
_chemical_formula_sum   'Cu32 Ni4 C4'
_cell_volume   660.73083634
_cell_formula_units_Z   4
loop_
 _symmetry_equiv_pos_site_id
 _symmetry_equiv_pos_as_xyz
  1  'x, y, z'
loop_
 _atom_site_type_symbol
 _atom_site_label
 _atom_site_symmetry_multiplicity
 _atom_site_fract_x
 _atom_site_fract_y
 _atom_site_fract_z
 _atom_site_occupancy
  C  C0  1  0.61103100  0.34690700  0.77050100  1
  C  C1  1  0.38896900  0.65309300  0.22949900  1
  C  C2  1  0.11103100  0.65309300  0.72949900  1
  C  C3  1  0.88896900  0.34690700  0.27050100  1
  Ni  Ni4  1  0.39975500  0.98553200  0.82254800  1
  Ni  Ni5  1  0.60024500  0.01446800  0.17745200  1
  Ni  Ni6  1  0.89975500  0.01446800  0.67745200  1
  Ni  Ni7  1  0.10024500  0.98553200  0.32254800  1
  Cu  Cu8  1  0.12825100  0.71353700  0.89380600  1
  Cu  Cu9  1  0.87174900  0.28646300  0.10619400  1
  Cu  Cu10  1  0.62825100  0.28646300  0.60619400  1
  Cu  Cu11  1  0.37174900  0.71353700  0.39380600  1
  Cu  Cu12  1  0.62770900  0.93904000  0.86565900  1
  Cu  Cu13  1  0.37229100  0.06096000  0.13434100  1
  Cu  Cu14  1  0.12770900  0.06096000  0.63434100  1
  Cu  Cu15  1  0.87229100  0.93904000  0.36565900  1
  Cu  Cu16  1  0.40700900  0.86763800  0.72470400  1
  Cu  Cu17  1  0.59299100  0.13236200  0.27529600  1
  Cu  Cu18  1  0.90700900  0.13236200  0.77529600  1
  Cu  Cu19  1  0.09299100  0.86763800  0.22470400  1
  Cu  Cu20  1  0.72868500  0.41264000  0.76518400  1
  Cu  Cu21  1  0.27131500  0.58736000  0.23481600  1
  Cu  Cu22  1  0.22868500  0.58736000  0.73481600  1
  Cu  Cu23  1  0.77131500  0.41264000  0.26518400  1
  Cu  Cu24  1  0.07211200  0.30801000  0.84690000  1
  Cu  Cu25  1  0.92788800  0.69199000  0.15310000  1
  Cu  Cu26  1  0.57211200  0.69199000  0.65310000  1
  Cu  Cu27  1  0.42788800  0.30801000  0.34690000  1
  Cu  Cu28  1  0.29907500  0.07185000  0.80436700  1
  Cu  Cu29  1  0.70092500  0.92815000  0.19563300  1
  Cu  Cu30  1  0.79907500  0.92815000  0.69563300  1
  Cu  Cu31  1  0.20092500  0.07185000  0.30436700  1
  Cu  Cu32  1  0.46383400  0.22926200  0.75606900  1
  Cu  Cu33  1  0.53616600  0.77073800  0.24393100  1
  Cu  Cu34  1  0.96383400  0.77073800  0.74393100  1
  Cu  Cu35  1  0.03616600  0.22926200  0.25606900  1
  Cu  Cu36  1  0.42520500  0.76603600  0.00145000  1
  Cu  Cu37  1  0.57479500  0.23396400  0.99855000  1
  Cu  Cu38  1  0.92520500  0.23396400  0.49855000  1
  Cu  Cu39  1  0.07479500  0.76603600  0.50145000  1
