# generated using pymatgen
data_CuNi10C43
_symmetry_space_group_name_H-M   'P 1'
_cell_length_a   9.61898600
_cell_length_b   10.01187975
_cell_length_c   13.57716956
_cell_angle_alpha   106.61211507
_cell_angle_beta   105.22083861
_cell_angle_gamma   90.41430995
_symmetry_Int_Tables_number   1
_chemical_formula_structural   CuNi10C43
_chemical_formula_sum   'Cu2 Ni20 C86'
_cell_volume   1204.21382877
_cell_formula_units_Z   2
loop_
 _symmetry_equiv_pos_site_id
 _symmetry_equiv_pos_as_xyz
  1  'x, y, z'
loop_
 _atom_site_type_symbol
 _atom_site_label
 _atom_site_symmetry_multiplicity
 _atom_site_fract_x
 _atom_site_fract_y
 _atom_site_fract_z
 _atom_site_occupancy
  C  C0  1  0.11673600  0.63307800  0.38280100  1
  C  C1  1  0.88326400  0.36692200  0.61719900  1
  C  C2  1  0.22220300  0.66412100  0.30017400  1
  C  C3  1  0.77779700  0.33587900  0.69982600  1
  C  C4  1  0.14522200  0.80381700  0.37515600  1
  C  C5  1  0.85477800  0.19618300  0.62484400  1
  C  C6  1  0.11187400  0.78026600  0.49158700  1
  C  C7  1  0.88812600  0.21973400  0.50841300  1
  C  C8  1  0.28109200  0.55773900  0.38671300  1
  C  C9  1  0.71890800  0.44226100  0.61328700  1
  C  C10  1  0.40669200  0.66659900  0.35739700  1
  C  C11  1  0.59330800  0.33340100  0.64260300  1
  C  C12  1  0.32480600  0.82967800  0.37526500  1
  C  C13  1  0.67519400  0.17032200  0.62473500  1
  C  C14  1  0.25325500  0.90493800  0.50015900  1
  C  C15  1  0.74674500  0.09506200  0.49984100  1
  C  C16  1  0.26859200  0.80977100  0.59657000  1
  C  C17  1  0.73140800  0.19022900  0.40343000  1
  C  C18  1  0.20632300  0.63316900  0.51335800  1
  C  C19  1  0.79367700  0.36683100  0.48664200  1
  C  C20  1  0.53721300  0.50865300  0.28505400  1
  C  C21  1  0.46278700  0.49134700  0.71494600  1
  C  C22  1  0.64119500  0.66318400  0.37185100  1
  C  C23  1  0.35880500  0.33681600  0.62814900  1
  C  C24  1  0.52855000  0.79027300  0.23408500  1
  C  C25  1  0.47145000  0.20972700  0.76591500  1
  C  C26  1  0.43750700  0.62957000  0.14788100  1
  C  C27  1  0.56249300  0.37043000  0.85211900  1
  C  C28  1  0.68518000  0.53326500  0.15186600  1
  C  C29  1  0.31482000  0.46673500  0.84813400  1
  C  C30  1  0.76661900  0.70241100  0.22806700  1
  C  C31  1  0.23338100  0.29758900  0.77193300  1
  C  C32  1  0.55339800  0.62431100  0.00357200  1
  C  C33  1  0.44660200  0.37568900  0.99642800  1
  C  C34  1  0.62640500  0.79623600  0.07925400  1
  C  C35  1  0.37359500  0.20376400  0.92074600  1
  C  C36  1  0.80566300  0.55289600  0.00410000  1
  C  C37  1  0.19433700  0.44710400  0.99590000  1
  C  C38  1  0.76219200  0.69115400  0.94623900  1
  C  C39  1  0.23780800  0.30884600  0.05376100  1
  C  C40  1  0.87720100  0.72700800  0.07878500  1
  C  C41  1  0.12279900  0.27299200  0.92121500  1
  C  C42  1  0.26799000  0.98378300  0.73539400  1
  C  C43  1  0.73201000  0.01621700  0.26460600  1
  C  C44  1  0.41892000  0.88817400  0.75944400  1
  C  C45  1  0.58108000  0.11182600  0.24055600  1
  C  C46  1  0.11069200  0.77393700  0.73800600  1
  C  C47  1  0.88930800  0.22606300  0.26199400  1
  C  C48  1  0.27182500  0.69710500  0.77742500  1
  C  C49  1  0.72817500  0.30289500  0.22257500  1
  C  C50  1  0.19337700  0.98205800  0.89958200  1
  C  C51  1  0.80662300  0.01794200  0.10041800  1
  C  C52  1  0.35875300  0.91157700  0.93970900  1
  C  C53  1  0.64124700  0.08842300  0.06029100  1
  C  C54  1  0.06021100  0.77308200  0.91492800  1
  C  C55  1  0.93978900  0.22691800  0.08507200  1
  C  C56  1  0.22742300  0.70812800  0.95924600  1
  C  C57  1  0.77257700  0.29187200  0.04075400  1
  C  C58  1  0.13178600  0.99067100  0.07261100  1
  C  C59  1  0.86821400  0.00932900  0.92738900  1
  C  C60  1  0.14207900  0.83754700  0.11542100  1
  C  C61  1  0.85792100  0.16245300  0.88457900  1
  C  C62  1  0.30222700  0.92845500  0.11638500  1
  C  C63  1  0.69777300  0.07154500  0.88361500  1
  C  C64  1  0.01099800  0.55342000  0.34027300  1
  C  C65  1  0.98900200  0.44658000  0.65972700  1
  C  C66  1  0.17252800  0.62111800  0.20529600  1
  C  C67  1  0.82747200  0.37888200  0.79470400  1
  C  C68  1  0.06240400  0.86661700  0.32723000  1
  C  C69  1  0.93759600  0.13338300  0.67277000  1
  C  C70  1  0.99773700  0.80752100  0.50790900  1
  C  C71  1  0.00226300  0.19247900  0.49209100  1
  C  C72  1  0.36079800  0.91445500  0.33831800  1
  C  C73  1  0.63920200  0.08554500  0.66168200  1
  C  C74  1  0.25279300  0.02910800  0.52845300  1
  C  C75  1  0.74720700  0.97089200  0.47154700  1
  C  C76  1  0.16938200  0.54741900  0.54902300  1
  C  C77  1  0.83061800  0.45258100  0.45097700  1
  C  C78  1  0.41438400  0.60799200  0.43978900  1
  C  C79  1  0.58561600  0.39200800  0.56021100  1
  C  C80  1  0.44260700  0.79515800  0.43340000  1
  C  C81  1  0.55739300  0.20484200  0.56660000  1
  C  C82  1  0.36754900  0.87459600  0.56441300  1
  C  C83  1  0.63245100  0.12540400  0.43558700  1
  C  C84  1  0.33579700  0.68785000  0.57391600  1
  C  C85  1  0.66420300  0.31215000  0.42608400  1
  Ni  Ni86  1  0.53853100  0.62362400  0.30889100  1
  Ni  Ni87  1  0.46146900  0.37637600  0.69110900  1
  Ni  Ni88  1  0.53682500  0.67653700  0.21254400  1
  Ni  Ni89  1  0.46317500  0.32346300  0.78745600  1
  Ni  Ni90  1  0.66728200  0.64515900  0.16774600  1
  Ni  Ni91  1  0.33271800  0.35484100  0.83225400  1
  Ni  Ni92  1  0.64948500  0.68568900  0.06491000  1
  Ni  Ni93  1  0.35051500  0.31431100  0.93509000  1
  Ni  Ni94  1  0.78066700  0.66289200  0.02087600  1
  Ni  Ni95  1  0.21933300  0.33710800  0.97912400  1
  Ni  Ni96  1  0.30090800  0.87619000  0.72205300  1
  Ni  Ni97  1  0.69909200  0.12381000  0.27794700  1
  Ni  Ni98  1  0.22710700  0.79871800  0.78029900  1
  Ni  Ni99  1  0.77289300  0.20128200  0.21970100  1
  Ni  Ni100  1  0.24274200  0.88244600  0.89674900  1
  Ni  Ni101  1  0.75725800  0.11755400  0.10325100  1
  Ni  Ni102  1  0.17539800  0.80548600  0.95776300  1
  Ni  Ni103  1  0.82460200  0.19451400  0.04223700  1
  Ni  Ni104  1  0.18800600  0.89522700  0.07184900  1
  Ni  Ni105  1  0.81199400  0.10477300  0.92815100  1
  Cu  Cu106  1  0.28533500  0.32972600  0.33734300  1
  Cu  Cu107  1  0.71466500  0.67027400  0.66265700  1
