# generated using pymatgen
data_Cu3(Ni2C3)5
_symmetry_space_group_name_H-M   'P 1'
_cell_length_a   7.06097399
_cell_length_b   7.06097399
_cell_length_c   11.63130130
_cell_angle_alpha   88.50203355
_cell_angle_beta   88.50203355
_cell_angle_gamma   83.18249356
_symmetry_Int_Tables_number   1
_chemical_formula_structural   Cu3(Ni2C3)5
_chemical_formula_sum   'Cu6 Ni20 C30'
_cell_volume   575.45370778
_cell_formula_units_Z   2
loop_
 _symmetry_equiv_pos_site_id
 _symmetry_equiv_pos_as_xyz
  1  'x, y, z'
loop_
 _atom_site_type_symbol
 _atom_site_label
 _atom_site_symmetry_multiplicity
 _atom_site_fract_x
 _atom_site_fract_y
 _atom_site_fract_z
 _atom_site_occupancy
  C  C0  1  0.81537500  0.18462500  0.25000000  1
  C  C1  1  0.18462500  0.81537500  0.75000000  1
  Ni  Ni2  1  0.08504300  0.41500900  0.29997800  1
  Ni  Ni3  1  0.58499100  0.91495700  0.20002200  1
  Ni  Ni4  1  0.91495700  0.58499100  0.70002200  1
  Ni  Ni5  1  0.41500900  0.08504300  0.79997800  1
  Ni  Ni6  1  0.08865800  0.41175300  0.16257900  1
  Ni  Ni7  1  0.58824700  0.91134200  0.33742100  1
  Ni  Ni8  1  0.91134200  0.58824700  0.83742100  1
  Ni  Ni9  1  0.41175300  0.08865800  0.66257900  1
  Ni  Ni10  1  0.76077200  0.10508800  0.01653900  1
  Ni  Ni11  1  0.89491200  0.23922800  0.48346100  1
  Ni  Ni12  1  0.23922800  0.89491200  0.98346100  1
  Ni  Ni13  1  0.10508800  0.76077200  0.51653900  1
  Ni  Ni14  1  0.75504000  0.33894500  0.01937200  1
  Ni  Ni15  1  0.66105500  0.24496000  0.48062800  1
  Ni  Ni16  1  0.24496000  0.66105500  0.98062800  1
  Ni  Ni17  1  0.33894500  0.75504000  0.51937200  1
  Ni  Ni18  1  0.47162300  0.43132300  0.30654300  1
  Ni  Ni19  1  0.56867700  0.52837700  0.19345700  1
  Ni  Ni20  1  0.52837700  0.56867700  0.69345700  1
  Ni  Ni21  1  0.43132300  0.47162300  0.80654300  1
  Cu  Cu22  1  0.10967600  0.89032400  0.25000000  1
  Cu  Cu23  1  0.89032400  0.10967600  0.75000000  1
  Cu  Cu24  1  0.27604500  0.29279100  0.49607800  1
  Cu  Cu25  1  0.70720900  0.72395500  0.00392200  1
  Cu  Cu26  1  0.72395500  0.70720900  0.50392200  1
  Cu  Cu27  1  0.29279100  0.27604500  0.99607800  1
  C  C28  1  0.00233000  0.41080600  0.23247700  1
  C  C29  1  0.58919400  0.99767000  0.26752300  1
  C  C30  1  0.99767000  0.58919400  0.76752300  1
  C  C31  1  0.41080600  0.00233000  0.73247700  1
  C  C32  1  0.76034000  0.21774200  0.06519600  1
  C  C33  1  0.78225800  0.23966000  0.43480400  1
  C  C34  1  0.23966000  0.78225800  0.93480400  1
  C  C35  1  0.21774200  0.76034000  0.56519600  1
  C  C36  1  0.57876500  0.42123500  0.25000000  1
  C  C37  1  0.42123500  0.57876500  0.75000000  1
  C  C38  1  0.24099800  0.75900200  0.25000000  1
  C  C39  1  0.75900200  0.24099800  0.75000000  1
  C  C40  1  0.98033400  0.90791700  0.17296800  1
  C  C41  1  0.09208300  0.01966600  0.32703200  1
  C  C42  1  0.01966600  0.09208300  0.82703200  1
  C  C43  1  0.90791700  0.98033400  0.67296800  1
  C  C44  1  0.12414200  0.25869400  0.54555400  1
  C  C45  1  0.74130600  0.87585800  0.95444600  1
  C  C46  1  0.87585800  0.74130600  0.45444600  1
  C  C47  1  0.25869400  0.12414200  0.04555400  1
  C  C48  1  0.27597700  0.39033800  0.40262500  1
  C  C49  1  0.60966200  0.72402300  0.09737500  1
  C  C50  1  0.72402300  0.60966200  0.59737500  1
  C  C51  1  0.39033800  0.27597700  0.90262500  1
  C  C52  1  0.43560400  0.23031700  0.54184900  1
  C  C53  1  0.76968300  0.56439600  0.95815100  1
  C  C54  1  0.56439600  0.76968300  0.45815100  1
  C  C55  1  0.23031700  0.43560400  0.04184900  1
