# generated using pymatgen
data_Cu2Ni5C6
_symmetry_space_group_name_H-M   'P 1'
_cell_length_a   11.26263300
_cell_length_b   11.26263300
_cell_length_c   5.65845900
_cell_angle_alpha   90.00000000
_cell_angle_beta   90.00000000
_cell_angle_gamma   90.00000000
_symmetry_Int_Tables_number   1
_chemical_formula_structural   Cu2Ni5C6
_chemical_formula_sum   'Cu8 Ni20 C24'
_cell_volume   717.75799477
_cell_formula_units_Z   4
loop_
 _symmetry_equiv_pos_site_id
 _symmetry_equiv_pos_as_xyz
  1  'x, y, z'
loop_
 _atom_site_type_symbol
 _atom_site_label
 _atom_site_symmetry_multiplicity
 _atom_site_fract_x
 _atom_site_fract_y
 _atom_site_fract_z
 _atom_site_occupancy
  Ni  Ni0  1  0.22940400  0.09776300  0.91518600  1
  Ni  Ni1  1  0.27059600  0.59776300  0.91518600  1
  Ni  Ni2  1  0.77059600  0.90223700  0.91518600  1
  Ni  Ni3  1  0.72940400  0.40223700  0.91518600  1
  Ni  Ni4  1  0.90223700  0.22940400  0.08481400  1
  Ni  Ni5  1  0.59776300  0.72940400  0.08481400  1
  Ni  Ni6  1  0.09776300  0.77059600  0.08481400  1
  Ni  Ni7  1  0.40223700  0.27059600  0.08481400  1
  Ni  Ni8  1  0.50000000  0.00000000  0.00000000  1
  Ni  Ni9  1  0.00000000  0.50000000  0.00000000  1
  Ni  Ni10  1  0.43980900  0.31347700  0.59838900  1
  Ni  Ni11  1  0.06019100  0.81347700  0.59838900  1
  Ni  Ni12  1  0.56019100  0.68652300  0.59838900  1
  Ni  Ni13  1  0.93980900  0.18652300  0.59838900  1
  Ni  Ni14  1  0.68652300  0.43980900  0.40161100  1
  Ni  Ni15  1  0.81347700  0.93980900  0.40161100  1
  Ni  Ni16  1  0.31347700  0.56019100  0.40161100  1
  Ni  Ni17  1  0.18652300  0.06019100  0.40161100  1
  Ni  Ni18  1  0.50000000  0.00000000  0.50000000  1
  Ni  Ni19  1  0.00000000  0.50000000  0.50000000  1
  Cu  Cu20  1  0.61940500  0.20965700  0.75348600  1
  Cu  Cu21  1  0.88059500  0.70965700  0.75348600  1
  Cu  Cu22  1  0.38059500  0.79034300  0.75348600  1
  Cu  Cu23  1  0.11940500  0.29034300  0.75348600  1
  Cu  Cu24  1  0.79034300  0.61940500  0.24651400  1
  Cu  Cu25  1  0.70965700  0.11940500  0.24651400  1
  Cu  Cu26  1  0.20965700  0.38059500  0.24651400  1
  Cu  Cu27  1  0.29034300  0.88059500  0.24651400  1
  C  C28  1  0.47422000  0.17766800  0.84453400  1
  C  C29  1  0.02578000  0.67766800  0.84453400  1
  C  C30  1  0.52578000  0.82233200  0.84453400  1
  C  C31  1  0.97422000  0.32233200  0.84453400  1
  C  C32  1  0.82233200  0.47422000  0.15546600  1
  C  C33  1  0.67766800  0.97422000  0.15546600  1
  C  C34  1  0.17766800  0.52578000  0.15546600  1
  C  C35  1  0.32233200  0.02578000  0.15546600  1
  C  C36  1  0.62129600  0.35932400  0.66137500  1
  C  C37  1  0.87870400  0.85932400  0.66137500  1
  C  C38  1  0.37870400  0.64067600  0.66137500  1
  C  C39  1  0.12129600  0.14067600  0.66137500  1
  C  C40  1  0.64067600  0.62129600  0.33862500  1
  C  C41  1  0.85932400  0.12129600  0.33862500  1
  C  C42  1  0.35932400  0.37870400  0.33862500  1
  C  C43  1  0.14067600  0.87870400  0.33862500  1
  C  C44  1  0.21245200  0.28754800  0.00000000  1
  C  C45  1  0.28754800  0.78754800  0.00000000  1
  C  C46  1  0.78754800  0.71245200  0.00000000  1
  C  C47  1  0.71245200  0.21245200  0.00000000  1
  C  C48  1  0.62140100  0.12140100  0.50000000  1
  C  C49  1  0.87859900  0.62140100  0.50000000  1
  C  C50  1  0.37859900  0.87859900  0.50000000  1
  C  C51  1  0.12140100  0.37859900  0.50000000  1
