# generated using pymatgen
data_Cu2Ni13C5
_symmetry_space_group_name_H-M   'P 1'
_cell_length_a   10.17573282
_cell_length_b   10.17573282
_cell_length_c   14.61365000
_cell_angle_alpha   90.00000000
_cell_angle_beta   90.00000000
_cell_angle_gamma   100.12480897
_symmetry_Int_Tables_number   1
_chemical_formula_structural   Cu2Ni13C5
_chemical_formula_sum   'Cu4 Ni26 C10'
_cell_volume   1489.61376709
_cell_formula_units_Z   2
loop_
 _symmetry_equiv_pos_site_id
 _symmetry_equiv_pos_as_xyz
  1  'x, y, z'
loop_
 _atom_site_type_symbol
 _atom_site_label
 _atom_site_symmetry_multiplicity
 _atom_site_fract_x
 _atom_site_fract_y
 _atom_site_fract_z
 _atom_site_occupancy
  C  C0  1  0.21536100  0.21536100  0.25000000  1
  C  C1  1  0.78463900  0.78463900  0.75000000  1
  C  C2  1  0.29124800  0.29124800  0.09002300  1
  C  C3  1  0.70875200  0.70875200  0.90997700  1
  C  C4  1  0.29124800  0.29124800  0.40997700  1
  C  C5  1  0.70875200  0.70875200  0.59002300  1
  C  C6  1  0.25195600  0.97986300  0.25000000  1
  C  C7  1  0.02013700  0.74804400  0.75000000  1
  C  C8  1  0.74804400  0.02013700  0.75000000  1
  C  C9  1  0.97986300  0.25195600  0.25000000  1
  Ni  Ni10  1  0.50322600  0.50322600  0.25000000  1
  Ni  Ni11  1  0.49677400  0.49677400  0.75000000  1
  Ni  Ni12  1  0.35131800  0.20077400  0.98924100  1
  Ni  Ni13  1  0.79922600  0.64868200  0.01075900  1
  Ni  Ni14  1  0.35131800  0.20077400  0.51075900  1
  Ni  Ni15  1  0.79922600  0.64868200  0.48924100  1
  Ni  Ni16  1  0.64868200  0.79922600  0.01075900  1
  Ni  Ni17  1  0.20077400  0.35131800  0.98924100  1
  Ni  Ni18  1  0.64868200  0.79922600  0.48924100  1
  Ni  Ni19  1  0.20077400  0.35131800  0.51075900  1
  Ni  Ni20  1  0.22471300  0.22471300  0.97089400  1
  Ni  Ni21  1  0.77528700  0.77528700  0.02910600  1
  Ni  Ni22  1  0.22471300  0.22471300  0.52910600  1
  Ni  Ni23  1  0.77528700  0.77528700  0.47089400  1
  Ni  Ni24  1  0.32354500  0.86490100  0.33000300  1
  Ni  Ni25  1  0.13509900  0.67645500  0.66999700  1
  Ni  Ni26  1  0.32354500  0.86490100  0.16999700  1
  Ni  Ni27  1  0.13509900  0.67645500  0.83000300  1
  Ni  Ni28  1  0.67645500  0.13509900  0.66999700  1
  Ni  Ni29  1  0.86490100  0.32354500  0.33000300  1
  Ni  Ni30  1  0.67645500  0.13509900  0.83000300  1
  Ni  Ni31  1  0.86490100  0.32354500  0.16999700  1
  Ni  Ni32  1  0.39650900  0.87767800  0.25000000  1
  Ni  Ni33  1  0.12232200  0.60349100  0.75000000  1
  Ni  Ni34  1  0.60349100  0.12232200  0.75000000  1
  Ni  Ni35  1  0.87767800  0.39650900  0.25000000  1
  Cu  Cu36  1  0.57768800  0.42703200  0.25000000  1
  Cu  Cu37  1  0.57296800  0.42231200  0.75000000  1
  Cu  Cu38  1  0.42231200  0.57296800  0.75000000  1
  Cu  Cu39  1  0.42703200  0.57768800  0.25000000  1
