# generated using pymatgen
data_Cu4NiC5
_symmetry_space_group_name_H-M   'P 1'
_cell_length_a   12.57634300
_cell_length_b   11.80737800
_cell_length_c   16.29683215
_cell_angle_alpha   55.83839078
_cell_angle_beta   90.00000000
_cell_angle_gamma   90.00000000
_symmetry_Int_Tables_number   1
_chemical_formula_structural   Cu4NiC5
_chemical_formula_sum   'Cu32 Ni8 C40'
_cell_volume   2002.42598532
_cell_formula_units_Z   8
loop_
 _symmetry_equiv_pos_site_id
 _symmetry_equiv_pos_as_xyz
  1  'x, y, z'
loop_
 _atom_site_type_symbol
 _atom_site_label
 _atom_site_symmetry_multiplicity
 _atom_site_fract_x
 _atom_site_fract_y
 _atom_site_fract_z
 _atom_site_occupancy
  C  C0  1  0.49780500  0.72504300  0.69150200  1
  C  C1  1  0.99780500  0.27495700  0.80849800  1
  C  C2  1  0.50219500  0.27495700  0.30849800  1
  C  C3  1  0.00219500  0.72504300  0.19150200  1
  C  C4  1  0.11053200  0.67992700  0.75354000  1
  C  C5  1  0.61053200  0.32007300  0.74646000  1
  C  C6  1  0.88946800  0.32007300  0.24646000  1
  C  C7  1  0.38946800  0.67992700  0.25354000  1
  C  C8  1  0.68635700  0.91702200  0.19566900  1
  C  C9  1  0.18635700  0.08297800  0.30433100  1
  C  C10  1  0.31364300  0.08297800  0.80433100  1
  C  C11  1  0.81364300  0.91702200  0.69566900  1
  Ni  Ni12  1  0.26105900  0.46149700  0.14921500  1
  Ni  Ni13  1  0.76105900  0.53850300  0.35078500  1
  Ni  Ni14  1  0.73894100  0.53850300  0.85078500  1
  Ni  Ni15  1  0.23894100  0.46149700  0.64921500  1
  Ni  Ni16  1  0.74738800  0.91727700  0.44519700  1
  Ni  Ni17  1  0.24738800  0.08272300  0.05480300  1
  Ni  Ni18  1  0.25261200  0.08272300  0.55480300  1
  Ni  Ni19  1  0.75261200  0.91727700  0.94519700  1
  Cu  Cu20  1  0.79035400  0.08843100  0.79281900  1
  Cu  Cu21  1  0.29035400  0.91156900  0.70718100  1
  Cu  Cu22  1  0.20964600  0.91156900  0.20718100  1
  Cu  Cu23  1  0.70964600  0.08843100  0.29281900  1
  Cu  Cu24  1  0.54454100  0.41096100  0.02918100  1
  Cu  Cu25  1  0.04454100  0.58903900  0.47081900  1
  Cu  Cu26  1  0.45545900  0.58903900  0.97081900  1
  Cu  Cu27  1  0.95545900  0.41096100  0.52918100  1
  Cu  Cu28  1  0.07376800  0.06839200  0.54943900  1
  Cu  Cu29  1  0.57376800  0.93160800  0.95056100  1
  Cu  Cu30  1  0.92623200  0.93160800  0.45056100  1
  Cu  Cu31  1  0.42623200  0.06839200  0.04943900  1
  Cu  Cu32  1  0.63897500  0.06150400  0.50058400  1
  Cu  Cu33  1  0.13897500  0.93849600  0.99941600  1
  Cu  Cu34  1  0.36102500  0.93849600  0.49941600  1
  Cu  Cu35  1  0.86102500  0.06150400  0.00058400  1
  Cu  Cu36  1  0.10778600  0.42637400  0.06829500  1
  Cu  Cu37  1  0.60778600  0.57362600  0.43170500  1
  Cu  Cu38  1  0.89221400  0.57362600  0.93170500  1
  Cu  Cu39  1  0.39221400  0.42637400  0.56829500  1
  Cu  Cu40  1  0.26484600  0.77533500  0.53905900  1
  Cu  Cu41  1  0.76484600  0.22466500  0.96094100  1
  Cu  Cu42  1  0.73515400  0.22466500  0.46094100  1
  Cu  Cu43  1  0.23515400  0.77533500  0.03905900  1
  Cu  Cu44  1  0.19589000  0.39755900  0.97301800  1
  Cu  Cu45  1  0.69589000  0.60244100  0.52698200  1
  Cu  Cu46  1  0.80411000  0.60244100  0.02698200  1
  Cu  Cu47  1  0.30411000  0.39755900  0.47301800  1
  Cu  Cu48  1  0.84541800  0.60746000  0.71232600  1
  Cu  Cu49  1  0.34541800  0.39254000  0.78767400  1
  Cu  Cu50  1  0.15458200  0.39254000  0.28767400  1
  Cu  Cu51  1  0.65458200  0.60746000  0.21232600  1
  C  C52  1  0.11334300  0.39975200  0.89916500  1
  C  C53  1  0.61334300  0.60024800  0.60083500  1
  C  C54  1  0.88665700  0.60024800  0.10083500  1
  C  C55  1  0.38665700  0.39975200  0.39916500  1
  C  C56  1  0.61152300  0.97832300  0.61342300  1
  C  C57  1  0.11152300  0.02167700  0.88657700  1
  C  C58  1  0.38847700  0.02167700  0.38657700  1
  C  C59  1  0.88847700  0.97832300  0.11342300  1
  C  C60  1  0.94314700  0.71006300  0.84538700  1
  C  C61  1  0.44314700  0.28993700  0.65461300  1
  C  C62  1  0.05685300  0.28993700  0.15461300  1
  C  C63  1  0.55685300  0.71006300  0.34538700  1
  C  C64  1  0.95978400  0.53617900  0.73464900  1
  C  C65  1  0.45978400  0.46382100  0.76535100  1
  C  C66  1  0.04021600  0.46382100  0.26535100  1
  C  C67  1  0.54021600  0.53617900  0.23464900  1
  C  C68  1  0.67830900  0.70014500  0.78073900  1
  C  C69  1  0.17830900  0.29985500  0.71926100  1
  C  C70  1  0.32169100  0.29985500  0.21926100  1
  C  C71  1  0.82169100  0.70014500  0.28073900  1
  C  C72  1  0.40819100  0.62361800  0.87362800  1
  C  C73  1  0.90819100  0.37638200  0.62637200  1
  C  C74  1  0.59180900  0.37638200  0.12637200  1
  C  C75  1  0.09180900  0.62361800  0.37362800  1
  C  C76  1  0.02345300  0.93834300  0.64560700  1
  C  C77  1  0.52345300  0.06165700  0.85439300  1
  C  C78  1  0.97654700  0.06165700  0.35439300  1
  C  C79  1  0.47654700  0.93834300  0.14560700  1
