# generated using pymatgen
data_Cu2(NiC3)3
_symmetry_space_group_name_H-M   'P 1'
_cell_length_a   5.29336253
_cell_length_b   5.29336253
_cell_length_c   14.47968119
_cell_angle_alpha   89.37314443
_cell_angle_beta   89.37314443
_cell_angle_gamma   119.26640457
_symmetry_Int_Tables_number   1
_chemical_formula_structural   Cu2(NiC3)3
_chemical_formula_sum   'Cu4 Ni6 C18'
_cell_volume   353.84604042
_cell_formula_units_Z   2
loop_
 _symmetry_equiv_pos_site_id
 _symmetry_equiv_pos_as_xyz
  1  'x, y, z'
loop_
 _atom_site_type_symbol
 _atom_site_label
 _atom_site_symmetry_multiplicity
 _atom_site_fract_x
 _atom_site_fract_y
 _atom_site_fract_z
 _atom_site_occupancy
  Ni  Ni0  1  0.00000000  0.00000000  0.00000000  1
  Ni  Ni1  1  0.34375500  0.65624500  0.00000000  1
  Ni  Ni2  1  0.65624500  0.34375500  0.00000000  1
  Ni  Ni3  1  0.00000000  0.00000000  0.50000000  1
  Ni  Ni4  1  0.33386000  0.66614000  0.50000000  1
  Ni  Ni5  1  0.66614000  0.33386000  0.50000000  1
  Cu  Cu6  1  0.99670300  0.33276500  0.80365400  1
  Cu  Cu7  1  0.33276500  0.99670300  0.80365400  1
  Cu  Cu8  1  0.00329700  0.66723500  0.19634600  1
  Cu  Cu9  1  0.66723500  0.00329700  0.19634600  1
  C  C10  1  0.99164600  0.32999400  0.92028400  1
  C  C11  1  0.32999400  0.99164600  0.92028400  1
  C  C12  1  0.00835400  0.67000600  0.07971600  1
  C  C13  1  0.67000600  0.00835400  0.07971600  1
  C  C14  1  0.68437500  0.68437500  0.93333300  1
  C  C15  1  0.31562500  0.31562500  0.06666700  1
  C  C16  1  0.14823800  0.66668600  0.76824100  1
  C  C17  1  0.66668600  0.14823800  0.76824100  1
  C  C18  1  0.85176200  0.33331400  0.23175900  1
  C  C19  1  0.33331400  0.85176200  0.23175900  1
  C  C20  1  0.18601100  0.18601100  0.76912900  1
  C  C21  1  0.81398900  0.81398900  0.23087100  1
  C  C22  1  0.01227100  0.68179300  0.56559500  1
  C  C23  1  0.68179300  0.01227100  0.56559500  1
  C  C24  1  0.98772900  0.31820700  0.43440500  1
  C  C25  1  0.31820700  0.98772900  0.43440500  1
  C  C26  1  0.34614500  0.34614500  0.56635700  1
  C  C27  1  0.65385500  0.65385500  0.43364300  1
