# generated using pymatgen
data_Cu4NiC
_symmetry_space_group_name_H-M   'P 1'
_cell_length_a   6.80182360
_cell_length_b   6.80182360
_cell_length_c   6.80182360
_cell_angle_alpha   112.96245862
_cell_angle_beta   112.96245862
_cell_angle_gamma   102.69400781
_symmetry_Int_Tables_number   1
_chemical_formula_structural   Cu4NiC
_chemical_formula_sum   'Cu16 Ni4 C4'
_cell_volume   239.74433807
_cell_formula_units_Z   4
loop_
 _symmetry_equiv_pos_site_id
 _symmetry_equiv_pos_as_xyz
  1  'x, y, z'
loop_
 _atom_site_type_symbol
 _atom_site_label
 _atom_site_symmetry_multiplicity
 _atom_site_fract_x
 _atom_site_fract_y
 _atom_site_fract_z
 _atom_site_occupancy
  C  C0  1  0.79740700  0.79740700  0.00000000  1
  C  C1  1  0.20259300  0.20259300  0.00000000  1
  C  C2  1  0.75000000  0.25000000  0.50000000  1
  C  C3  1  0.25000000  0.75000000  0.50000000  1
  Ni  Ni4  1  0.27142300  0.50000000  0.77142300  1
  Ni  Ni5  1  0.72857700  0.50000000  0.22857700  1
  Ni  Ni6  1  0.50000000  0.72857700  0.22857700  1
  Ni  Ni7  1  0.50000000  0.27142300  0.77142300  1
  Cu  Cu8  1  0.27521300  0.11156100  0.38677400  1
  Cu  Cu9  1  0.72478700  0.88843900  0.61322600  1
  Cu  Cu10  1  0.27521300  0.88843900  0.16365200  1
  Cu  Cu11  1  0.72478700  0.11156100  0.83634800  1
  Cu  Cu12  1  0.11156100  0.72478700  0.83634800  1
  Cu  Cu13  1  0.88843900  0.27521300  0.16365200  1
  Cu  Cu14  1  0.11156100  0.27521300  0.38677400  1
  Cu  Cu15  1  0.88843900  0.72478700  0.61322600  1
  Cu  Cu16  1  0.11387900  0.11387900  0.53334200  1
  Cu  Cu17  1  0.58053700  0.58053700  0.46665800  1
  Cu  Cu18  1  0.11387900  0.58053700  0.00000000  1
  Cu  Cu19  1  0.58053700  0.11387900  0.00000000  1
  Cu  Cu20  1  0.88612100  0.88612100  0.46665800  1
  Cu  Cu21  1  0.41946300  0.41946300  0.53334200  1
  Cu  Cu22  1  0.88612100  0.41946300  0.00000000  1
  Cu  Cu23  1  0.41946300  0.88612100  0.00000000  1
