# generated using pymatgen
data_Cu33(Ni4C3)2
_symmetry_space_group_name_H-M   'P 1'
_cell_length_a   9.21219097
_cell_length_b   10.23339242
_cell_length_c   10.87255471
_cell_angle_alpha   122.26305952
_cell_angle_beta   112.98871091
_cell_angle_gamma   88.47106012
_symmetry_Int_Tables_number   1
_chemical_formula_structural   Cu33(Ni4C3)2
_chemical_formula_sum   'Cu33 Ni8 C6'
_cell_volume   775.82977049
_cell_formula_units_Z   1
loop_
 _symmetry_equiv_pos_site_id
 _symmetry_equiv_pos_as_xyz
  1  'x, y, z'
loop_
 _atom_site_type_symbol
 _atom_site_label
 _atom_site_symmetry_multiplicity
 _atom_site_fract_x
 _atom_site_fract_y
 _atom_site_fract_z
 _atom_site_occupancy
  C  C0  1  0.83982300  0.91665100  0.60252600  1
  C  C1  1  0.16017700  0.08334900  0.39747400  1
  C  C2  1  0.81419300  0.78833900  0.20327600  1
  C  C3  1  0.18580700  0.21166100  0.79672400  1
  C  C4  1  0.16316400  0.81576000  0.50587900  1
  C  C5  1  0.83683600  0.18424000  0.49412100  1
  Ni  Ni6  1  0.35504100  0.71679700  0.85877400  1
  Ni  Ni7  1  0.64495900  0.28320300  0.14122600  1
  Ni  Ni8  1  0.58011200  0.88077500  0.66891100  1
  Ni  Ni9  1  0.41988800  0.11922500  0.33108900  1
  Ni  Ni10  1  0.83736200  0.52269300  0.66448000  1
  Ni  Ni11  1  0.16263800  0.47730700  0.33552000  1
  Ni  Ni12  1  0.68202100  0.47099700  0.92227100  1
  Ni  Ni13  1  0.31797900  0.52900300  0.07772900  1
  Cu  Cu14  1  0.88330300  0.73153400  0.38841000  1
  Cu  Cu15  1  0.11669700  0.26846600  0.61159000  1
  Cu  Cu16  1  0.45347100  0.87483000  0.68519300  1
  Cu  Cu17  1  0.54652900  0.12517000  0.31480700  1
  Cu  Cu18  1  0.62034600  0.33065300  0.81327100  1
  Cu  Cu19  1  0.37965400  0.66934700  0.18672900  1
  Cu  Cu20  1  0.35966600  0.62641000  0.72596400  1
  Cu  Cu21  1  0.64033400  0.37359000  0.27403600  1
  Cu  Cu22  1  0.10924200  0.96253800  0.72128300  1
  Cu  Cu23  1  0.89075800  0.03746200  0.27871700  1
  Cu  Cu24  1  0.91832200  0.17141200  0.70692800  1
  Cu  Cu25  1  0.08167800  0.82858800  0.29307200  1
  Cu  Cu26  1  0.59842200  0.76346900  0.55120500  1
  Cu  Cu27  1  0.40157800  0.23653100  0.44879500  1
  Cu  Cu28  1  0.83602900  0.52830100  0.00316600  1
  Cu  Cu29  1  0.16397100  0.47169900  0.99683400  1
  Cu  Cu30  1  0.71260900  0.92525200  0.38522400  1
  Cu  Cu31  1  0.28739100  0.07474800  0.61477600  1
  Cu  Cu32  1  0.22718000  0.70097400  0.86962100  1
  Cu  Cu33  1  0.77282000  0.29902600  0.13037900  1
  Cu  Cu34  1  0.30533900  0.99407100  0.23061900  1
  Cu  Cu35  1  0.69466100  0.00592900  0.76938100  1
  Cu  Cu36  1  0.00000000  0.00000000  0.50000000  1
  Cu  Cu37  1  0.47701000  0.82380400  0.98034300  1
  Cu  Cu38  1  0.52299000  0.17619600  0.01965700  1
  Cu  Cu39  1  0.91703100  0.46721300  0.58066800  1
  Cu  Cu40  1  0.08296900  0.53278700  0.41933200  1
  Cu  Cu41  1  0.84211400  0.66620500  0.74623400  1
  Cu  Cu42  1  0.15788600  0.33379500  0.25376600  1
  Cu  Cu43  1  0.59519700  0.57310800  0.96569900  1
  Cu  Cu44  1  0.40480300  0.42689200  0.03430100  1
  Cu  Cu45  1  0.75258800  0.42130900  0.65921500  1
  Cu  Cu46  1  0.24741200  0.57869100  0.34078500  1
