# generated using pymatgen
data_Cu2Ni8C5
_symmetry_space_group_name_H-M   'P 1'
_cell_length_a   7.08715800
_cell_length_b   9.77310300
_cell_length_c   12.38445300
_cell_angle_alpha   90.00000000
_cell_angle_beta   90.00000000
_cell_angle_gamma   90.00000000
_symmetry_Int_Tables_number   1
_chemical_formula_structural   Cu2Ni8C5
_chemical_formula_sum   'Cu8 Ni32 C20'
_cell_volume   857.79087135
_cell_formula_units_Z   4
loop_
 _symmetry_equiv_pos_site_id
 _symmetry_equiv_pos_as_xyz
  1  'x, y, z'
loop_
 _atom_site_type_symbol
 _atom_site_label
 _atom_site_symmetry_multiplicity
 _atom_site_fract_x
 _atom_site_fract_y
 _atom_site_fract_z
 _atom_site_occupancy
  C  C0  1  0.75000000  0.25383100  0.57255500  1
  C  C1  1  0.75000000  0.75383100  0.92744500  1
  C  C2  1  0.25000000  0.74616900  0.42744500  1
  C  C3  1  0.25000000  0.24616900  0.07255500  1
  Ni  Ni4  1  0.75000000  0.75569600  0.65333300  1
  Ni  Ni5  1  0.75000000  0.25569600  0.84666700  1
  Ni  Ni6  1  0.25000000  0.24430400  0.34666700  1
  Ni  Ni7  1  0.25000000  0.74430400  0.15333300  1
  Ni  Ni8  1  0.75000000  0.58322600  0.65989700  1
  Ni  Ni9  1  0.75000000  0.08322600  0.84010300  1
  Ni  Ni10  1  0.25000000  0.41677400  0.34010300  1
  Ni  Ni11  1  0.25000000  0.91677400  0.15989700  1
  Ni  Ni12  1  0.86987400  0.66327800  0.56049200  1
  Ni  Ni13  1  0.63012600  0.16327800  0.93950800  1
  Ni  Ni14  1  0.36987400  0.33672200  0.43950800  1
  Ni  Ni15  1  0.13012600  0.83672200  0.06049200  1
  Ni  Ni16  1  0.13012600  0.33672200  0.43950800  1
  Ni  Ni17  1  0.36987400  0.83672200  0.06049200  1
  Ni  Ni18  1  0.63012600  0.66327800  0.56049200  1
  Ni  Ni19  1  0.86987400  0.16327800  0.93950800  1
  Ni  Ni20  1  0.75000000  0.00833500  0.27058900  1
  Ni  Ni21  1  0.75000000  0.50833600  0.22941100  1
  Ni  Ni22  1  0.25000000  0.99166400  0.72941100  1
  Ni  Ni23  1  0.25000000  0.49166500  0.77058900  1
  Ni  Ni24  1  0.75000000  0.01760500  0.40680800  1
  Ni  Ni25  1  0.75000000  0.51760500  0.09319200  1
  Ni  Ni26  1  0.25000000  0.98239500  0.59319200  1
  Ni  Ni27  1  0.25000000  0.48239500  0.90680800  1
  Ni  Ni28  1  0.63087400  0.89028800  0.34323200  1
  Ni  Ni29  1  0.86912600  0.39028800  0.15676800  1
  Ni  Ni30  1  0.13087400  0.10971200  0.65676800  1
  Ni  Ni31  1  0.36912600  0.60971200  0.84323200  1
  Ni  Ni32  1  0.36912600  0.10971200  0.65676800  1
  Ni  Ni33  1  0.13087400  0.60971200  0.84323200  1
  Ni  Ni34  1  0.86912600  0.89028800  0.34323200  1
  Ni  Ni35  1  0.63087400  0.39028800  0.15676800  1
  C  C36  1  0.75000000  0.03262000  0.61135400  1
  C  C37  1  0.75000000  0.53262000  0.88864600  1
  C  C38  1  0.25000000  0.96738000  0.38864600  1
  C  C39  1  0.25000000  0.46738000  0.11135400  1
  C  C40  1  0.75000000  0.28379100  0.39708000  1
  C  C41  1  0.75000000  0.78379100  0.10292000  1
  C  C42  1  0.25000000  0.71620900  0.60292000  1
  C  C43  1  0.25000000  0.21620900  0.89708000  1
  C  C44  1  0.49778800  0.35158800  0.64151500  1
  C  C45  1  0.00221200  0.85158800  0.85848500  1
  C  C46  1  0.99778800  0.64841200  0.35848500  1
  C  C47  1  0.50221200  0.14841200  0.14151500  1
  C  C48  1  0.50221200  0.64841200  0.35848500  1
  C  C49  1  0.99778800  0.14841200  0.14151500  1
  C  C50  1  0.00221200  0.35158800  0.64151500  1
  C  C51  1  0.49778800  0.85158800  0.85848500  1
  Cu  Cu52  1  0.75000000  0.66650800  0.60856800  1
  Cu  Cu53  1  0.75000000  0.16650800  0.89143200  1
  Cu  Cu54  1  0.25000000  0.33349200  0.39143200  1
  Cu  Cu55  1  0.25000000  0.83349200  0.10856800  1
  Cu  Cu56  1  0.75000000  0.95187700  0.34082000  1
  Cu  Cu57  1  0.75000000  0.45187700  0.15918000  1
  Cu  Cu58  1  0.25000000  0.04812300  0.65918000  1
  Cu  Cu59  1  0.25000000  0.54812300  0.84082000  1
