# generated using pymatgen
data_Cu(NiC3)2
_symmetry_space_group_name_H-M   'P 1'
_cell_length_a   5.26326100
_cell_length_b   6.71754000
_cell_length_c   19.77941600
_cell_angle_alpha   90.00000000
_cell_angle_beta   90.00000000
_cell_angle_gamma   90.00000000
_symmetry_Int_Tables_number   1
_chemical_formula_structural   Cu(NiC3)2
_chemical_formula_sum   'Cu4 Ni8 C24'
_cell_volume   699.32432137
_cell_formula_units_Z   4
loop_
 _symmetry_equiv_pos_site_id
 _symmetry_equiv_pos_as_xyz
  1  'x, y, z'
loop_
 _atom_site_type_symbol
 _atom_site_label
 _atom_site_symmetry_multiplicity
 _atom_site_fract_x
 _atom_site_fract_y
 _atom_site_fract_z
 _atom_site_occupancy
  Ni  Ni0  1  0.30563600  0.82320200  0.12273400  1
  Ni  Ni1  1  0.80563600  0.67679800  0.87726600  1
  Ni  Ni2  1  0.19436400  0.17679800  0.62273400  1
  Ni  Ni3  1  0.69436400  0.32320200  0.37726600  1
  Ni  Ni4  1  0.30922400  0.78996000  0.77285700  1
  Ni  Ni5  1  0.80922400  0.71004000  0.22714300  1
  Ni  Ni6  1  0.19077600  0.21004000  0.27285700  1
  Ni  Ni7  1  0.69077600  0.28996000  0.72714300  1
  Cu  Cu8  1  0.70573500  0.44411200  0.10621600  1
  Cu  Cu9  1  0.20573500  0.05588800  0.89378400  1
  Cu  Cu10  1  0.79426500  0.55588800  0.60621600  1
  Cu  Cu11  1  0.29426500  0.94411200  0.39378400  1
  C  C12  1  0.32873500  0.05015800  0.94085200  1
  C  C13  1  0.82873500  0.44984200  0.05914800  1
  C  C14  1  0.17126500  0.94984200  0.44085200  1
  C  C15  1  0.67126500  0.55015800  0.55914800  1
  C  C16  1  0.07661200  0.88008400  0.06861400  1
  C  C17  1  0.57661200  0.61991600  0.93138600  1
  C  C18  1  0.42338800  0.11991600  0.56861400  1
  C  C19  1  0.92338800  0.38008400  0.43138600  1
  C  C20  1  0.41997200  0.59882900  0.09063800  1
  C  C21  1  0.91997200  0.90117100  0.90936200  1
  C  C22  1  0.08002800  0.40117100  0.59063800  1
  C  C23  1  0.58002800  0.09882900  0.40936200  1
  C  C24  1  0.34931500  0.74103500  0.69211000  1
  C  C25  1  0.84931500  0.75896500  0.30789000  1
  C  C26  1  0.15068500  0.25896500  0.19211000  1
  C  C27  1  0.65068500  0.24103500  0.80789000  1
  C  C28  1  0.16150100  0.76890300  0.20239600  1
  C  C29  1  0.66150100  0.73109700  0.79760400  1
  C  C30  1  0.33849900  0.23109700  0.70239600  1
  C  C31  1  0.83849900  0.26890300  0.29760400  1
  C  C32  1  0.15421900  0.58624100  0.80567200  1
  C  C33  1  0.65421900  0.91375900  0.19432800  1
  C  C34  1  0.34578100  0.41375900  0.30567200  1
  C  C35  1  0.84578100  0.08624100  0.69432800  1
