# generated using pymatgen
data_Cu3NiC44
_symmetry_space_group_name_H-M   'P 1'
_cell_length_a   6.70475854
_cell_length_b   7.51629580
_cell_length_c   11.85731624
_cell_angle_alpha   103.58405729
_cell_angle_beta   92.95111408
_cell_angle_gamma   93.63983968
_symmetry_Int_Tables_number   1
_chemical_formula_structural   Cu3NiC44
_chemical_formula_sum   'Cu3 Ni1 C44'
_cell_volume   578.30229654
_cell_formula_units_Z   1
loop_
 _symmetry_equiv_pos_site_id
 _symmetry_equiv_pos_as_xyz
  1  'x, y, z'
loop_
 _atom_site_type_symbol
 _atom_site_label
 _atom_site_symmetry_multiplicity
 _atom_site_fract_x
 _atom_site_fract_y
 _atom_site_fract_z
 _atom_site_occupancy
  C  C0  1  0.84227900  0.21416000  0.04996700  1
  C  C1  1  0.15948800  0.79024400  0.95384100  1
  C  C2  1  0.70377800  0.77021900  0.48065100  1
  C  C3  1  0.29876900  0.23132600  0.51739400  1
  Ni  Ni4  1  0.93294500  0.40522400  0.35218400  1
  Cu  Cu5  1  0.81222600  0.95505400  0.76866200  1
  Cu  Cu6  1  0.18231300  0.04540900  0.23118700  1
  Cu  Cu7  1  0.06638800  0.59468000  0.64924000  1
  C  C8  1  0.79090100  0.19448400  0.55627600  1
  C  C9  1  0.20959800  0.80857600  0.44637200  1
  C  C10  1  0.57703600  0.53603400  0.68649300  1
  C  C11  1  0.42079100  0.46531800  0.31297200  1
  C  C12  1  0.65726500  0.71514700  0.94472000  1
  C  C13  1  0.34441300  0.28451400  0.05391200  1
  C  C14  1  0.88317000  0.67469600  0.16379000  1
  C  C15  1  0.11583500  0.32428500  0.83601500  1
  C  C16  1  0.68472700  0.01417700  0.28522000  1
  C  C17  1  0.31610600  0.98298900  0.71176600  1
  C  C18  1  0.63984000  0.45175700  0.37801700  1
  C  C19  1  0.35608100  0.54847200  0.62322400  1
  C  C20  1  0.87158900  0.13172000  0.24535100  1
  C  C21  1  0.12699000  0.85587500  0.74421500  1
  C  C22  1  0.97358200  0.33611800  0.53332500  1
  C  C23  1  0.03233800  0.67489000  0.48092400  1
  C  C24  1  0.76358900  0.66818700  0.65464700  1
  C  C25  1  0.23470000  0.33209900  0.34509800  1
  C  C26  1  0.61852200  0.31844800  0.62266800  1
  C  C27  1  0.37734600  0.68213500  0.37682100  1
  C  C28  1  0.84793300  0.03268900  0.61767300  1
  C  C29  1  0.14592100  0.96830200  0.38435000  1
  C  C30  1  0.77145900  0.60097000  0.03178600  1
  C  C31  1  0.22973900  0.39971600  0.96704700  1
  C  C32  1  0.93691000  0.49196500  0.20562500  1
  C  C33  1  0.06577100  0.50658200  0.79076100  1
  C  C34  1  0.52838300  0.94939100  0.76492000  1
  C  C35  1  0.46701000  0.04650500  0.23788300  1
  C  C36  1  0.58034500  0.55733000  0.82518400  1
  C  C37  1  0.42083300  0.44108600  0.17393000  1
  C  C38  1  0.47480000  0.81134100  0.00671400  1
  C  C39  1  0.52776900  0.18849400  0.99269600  1
  C  C40  1  0.74109500  0.79617000  0.26165700  1
  C  C41  1  0.25542500  0.19894800  0.73883200  1
  C  C42  1  0.82930800  0.86210100  0.91420800  1
  C  C43  1  0.17288800  0.13593400  0.08294500  1
  C  C44  1  0.92250300  0.19540600  0.85543700  1
  C  C45  1  0.07651300  0.80454100  0.14479900  1
  C  C46  1  0.67659200  0.07313200  0.43133900  1
  C  C47  1  0.33619600  0.93315800  0.56726200  1
