# generated using pymatgen
data_Cu23(Ni3C8)2
_symmetry_space_group_name_H-M   'P 1'
_cell_length_a   8.88920100
_cell_length_b   8.88920100
_cell_length_c   12.82242800
_cell_angle_alpha   90.00000000
_cell_angle_beta   90.00000000
_cell_angle_gamma   90.00000000
_symmetry_Int_Tables_number   1
_chemical_formula_structural   Cu23(Ni3C8)2
_chemical_formula_sum   'Cu46 Ni12 C32'
_cell_volume   1013.20126189
_cell_formula_units_Z   2
loop_
 _symmetry_equiv_pos_site_id
 _symmetry_equiv_pos_as_xyz
  1  'x, y, z'
loop_
 _atom_site_type_symbol
 _atom_site_label
 _atom_site_symmetry_multiplicity
 _atom_site_fract_x
 _atom_site_fract_y
 _atom_site_fract_z
 _atom_site_occupancy
  Ni  Ni0  1  0.50000000  0.50000000  0.28921700  1
  Ni  Ni1  1  0.00000000  0.00000000  0.78921700  1
  Ni  Ni2  1  0.50000000  0.50000000  0.71078300  1
  Ni  Ni3  1  0.00000000  0.00000000  0.21078300  1
  Ni  Ni4  1  0.27362000  0.72638000  0.50000000  1
  Ni  Ni5  1  0.72638000  0.27362000  0.50000000  1
  Ni  Ni6  1  0.22638000  0.22638000  0.00000000  1
  Ni  Ni7  1  0.77362000  0.77362000  0.00000000  1
  Ni  Ni8  1  0.71305300  0.71305300  0.50000000  1
  Ni  Ni9  1  0.28694700  0.28694700  0.50000000  1
  Ni  Ni10  1  0.78694700  0.21305300  0.00000000  1
  Ni  Ni11  1  0.21305300  0.78694700  0.00000000  1
  Cu  Cu12  1  0.50000000  0.50000000  0.00000000  1
  Cu  Cu13  1  0.00000000  0.00000000  0.50000000  1
  Cu  Cu14  1  0.00000000  0.50000000  0.50000000  1
  Cu  Cu15  1  0.50000000  0.00000000  0.00000000  1
  Cu  Cu16  1  0.50000000  0.00000000  0.50000000  1
  Cu  Cu17  1  0.00000000  0.50000000  0.00000000  1
  Cu  Cu18  1  0.24708700  0.75291300  0.74837500  1
  Cu  Cu19  1  0.75291300  0.24708700  0.74837500  1
  Cu  Cu20  1  0.25291300  0.25291300  0.24837500  1
  Cu  Cu21  1  0.74708700  0.74708700  0.24837500  1
  Cu  Cu22  1  0.75291300  0.24708700  0.25162500  1
  Cu  Cu23  1  0.24708700  0.75291300  0.25162500  1
  Cu  Cu24  1  0.74708700  0.74708700  0.75162500  1
  Cu  Cu25  1  0.25291300  0.25291300  0.75162500  1
  Cu  Cu26  1  0.13660100  0.50430800  0.31930000  1
  Cu  Cu27  1  0.86339900  0.49569200  0.31930000  1
  Cu  Cu28  1  0.36339900  0.00430800  0.81930000  1
  Cu  Cu29  1  0.63660100  0.99569200  0.81930000  1
  Cu  Cu30  1  0.86339900  0.49569200  0.68070000  1
  Cu  Cu31  1  0.13660100  0.50430800  0.68070000  1
  Cu  Cu32  1  0.63660100  0.99569200  0.18070000  1
  Cu  Cu33  1  0.36339900  0.00430800  0.18070000  1
  Cu  Cu34  1  0.50430800  0.13660100  0.31930000  1
  Cu  Cu35  1  0.49569200  0.86339900  0.31930000  1
  Cu  Cu36  1  0.00430800  0.36339900  0.81930000  1
  Cu  Cu37  1  0.99569200  0.63660100  0.81930000  1
  Cu  Cu38  1  0.49569200  0.86339900  0.68070000  1
  Cu  Cu39  1  0.50430800  0.13660100  0.68070000  1
  Cu  Cu40  1  0.99569200  0.63660100  0.18070000  1
  Cu  Cu41  1  0.00430800  0.36339900  0.18070000  1
  Cu  Cu42  1  0.24543800  0.52199600  0.13963000  1
  Cu  Cu43  1  0.75456200  0.47800400  0.13963000  1
  Cu  Cu44  1  0.25456200  0.02199600  0.63963000  1
  Cu  Cu45  1  0.74543800  0.97800400  0.63963000  1
  Cu  Cu46  1  0.75456200  0.47800400  0.86037000  1
  Cu  Cu47  1  0.24543800  0.52199600  0.86037000  1
  Cu  Cu48  1  0.74543800  0.97800400  0.36037000  1
  Cu  Cu49  1  0.25456200  0.02199600  0.36037000  1
  Cu  Cu50  1  0.52199600  0.24543800  0.13963000  1
  Cu  Cu51  1  0.47800400  0.75456200  0.13963000  1
  Cu  Cu52  1  0.02199600  0.25456200  0.63963000  1
  Cu  Cu53  1  0.97800400  0.74543800  0.63963000  1
  Cu  Cu54  1  0.47800400  0.75456200  0.86037000  1
  Cu  Cu55  1  0.52199600  0.24543800  0.86037000  1
  Cu  Cu56  1  0.97800400  0.74543800  0.36037000  1
  Cu  Cu57  1  0.02199600  0.25456200  0.36037000  1
  C  C58  1  0.99745200  0.74048900  0.50000000  1
  C  C59  1  0.00254800  0.25951100  0.50000000  1
  C  C60  1  0.50254800  0.24048900  0.00000000  1
  C  C61  1  0.49745200  0.75951100  0.00000000  1
  C  C62  1  0.74048900  0.99745200  0.50000000  1
  C  C63  1  0.25951100  0.00254800  0.50000000  1
  C  C64  1  0.24048900  0.50254800  0.00000000  1
  C  C65  1  0.75951100  0.49745200  0.00000000  1
  C  C66  1  0.14669500  0.85330500  0.35178600  1
  C  C67  1  0.85330500  0.14669500  0.35178600  1
  C  C68  1  0.35330500  0.35330500  0.85178600  1
  C  C69  1  0.64669500  0.64669500  0.85178600  1
  C  C70  1  0.85330500  0.14669500  0.64821400  1
  C  C71  1  0.14669500  0.85330500  0.64821400  1
  C  C72  1  0.64669500  0.64669500  0.14821400  1
  C  C73  1  0.35330500  0.35330500  0.14821400  1
  C  C74  1  0.28753300  0.50768700  0.39895700  1
  C  C75  1  0.71246700  0.49231300  0.39895700  1
  C  C76  1  0.21246700  0.00768700  0.89895700  1
  C  C77  1  0.78753300  0.99231300  0.89895700  1
  C  C78  1  0.71246700  0.49231300  0.60104300  1
  C  C79  1  0.28753300  0.50768700  0.60104300  1
  C  C80  1  0.78753300  0.99231300  0.10104300  1
  C  C81  1  0.21246700  0.00768700  0.10104300  1
  C  C82  1  0.50768700  0.28753300  0.39895700  1
  C  C83  1  0.49231300  0.71246700  0.39895700  1
  C  C84  1  0.00768700  0.21246700  0.89895700  1
  C  C85  1  0.99231300  0.78753300  0.89895700  1
  C  C86  1  0.49231300  0.71246700  0.60104300  1
  C  C87  1  0.50768700  0.28753300  0.60104300  1
  C  C88  1  0.99231300  0.78753300  0.10104300  1
  C  C89  1  0.00768700  0.21246700  0.10104300  1
