# generated using pymatgen
data_CuNiC8
_symmetry_space_group_name_H-M   'P 1'
_cell_length_a   5.90713898
_cell_length_b   5.95376009
_cell_length_c   8.37039120
_cell_angle_alpha   91.16079606
_cell_angle_beta   89.15033016
_cell_angle_gamma   89.64627474
_symmetry_Int_Tables_number   1
_chemical_formula_structural   CuNiC8
_chemical_formula_sum   'Cu2 Ni2 C16'
_cell_volume   294.28510203
_cell_formula_units_Z   2
loop_
 _symmetry_equiv_pos_site_id
 _symmetry_equiv_pos_as_xyz
  1  'x, y, z'
loop_
 _atom_site_type_symbol
 _atom_site_label
 _atom_site_symmetry_multiplicity
 _atom_site_fract_x
 _atom_site_fract_y
 _atom_site_fract_z
 _atom_site_occupancy
  Ni  Ni0  1  0.99560220  0.02549634  0.25060858  1
  Ni  Ni1  1  0.00439780  0.97450366  0.74939142  1
  Cu  Cu2  1  0.50000000  0.00000000  -0.00000000  1
  Cu  Cu3  1  -0.00000000  0.50000000  0.50000000  1
  C  C4  1  0.50950541  0.54355041  0.25346578  1
  C  C5  1  0.49049459  0.45644959  0.74653422  1
  C  C6  1  -0.00000000  0.50000000  -0.00000000  1
  C  C7  1  0.50000000  0.00000000  0.50000000  1
  C  C8  1  0.18992480  0.25714879  0.95804026  1
  C  C9  1  0.32592248  0.74348775  0.54095524  1
  C  C10  1  0.81007520  0.74285121  0.04195974  1
  C  C11  1  0.67407752  0.25651225  0.45904476  1
  C  C12  1  0.24425807  0.68492244  0.95157768  1
  C  C13  1  0.25198006  0.18820989  0.52553946  1
  C  C14  1  0.75574193  0.31507756  0.04842232  1
  C  C15  1  0.74801994  0.81179011  0.47446054  1
  C  C16  1  0.44676199  0.95869796  0.28363800  1
  C  C17  1  0.08977267  0.50167815  0.21371535  1
  C  C18  1  0.55323801  0.04130204  0.71636200  1
  C  C19  1  0.91022733  0.49832185  0.78628465  1
