# generated using pymatgen
data_Cu18NiC17
_symmetry_space_group_name_H-M   'P 1'
_cell_length_a   9.03259900
_cell_length_b   11.26114700
_cell_length_c   18.49264800
_cell_angle_alpha   90.00000000
_cell_angle_beta   90.00000000
_cell_angle_gamma   90.00000000
_symmetry_Int_Tables_number   1
_chemical_formula_structural   Cu18NiC17
_chemical_formula_sum   'Cu72 Ni4 C68'
_cell_volume   1881.02453841
_cell_formula_units_Z   4
loop_
 _symmetry_equiv_pos_site_id
 _symmetry_equiv_pos_as_xyz
  1  'x, y, z'
loop_
 _atom_site_type_symbol
 _atom_site_label
 _atom_site_symmetry_multiplicity
 _atom_site_fract_x
 _atom_site_fract_y
 _atom_site_fract_z
 _atom_site_occupancy
  Ni  Ni0  1  0.00000000  0.13238200  0.25000000  1
  Ni  Ni1  1  0.00000000  0.86761800  0.75000000  1
  Ni  Ni2  1  0.50000000  0.36761800  0.75000000  1
  Ni  Ni3  1  0.50000000  0.63238200  0.25000000  1
  Cu  Cu4  1  0.21114200  0.03152500  0.06139300  1
  Cu  Cu5  1  0.78885800  0.96847500  0.93860700  1
  Cu  Cu6  1  0.28885800  0.46847500  0.56139300  1
  Cu  Cu7  1  0.78885800  0.03152500  0.43860700  1
  Cu  Cu8  1  0.71114200  0.53152500  0.43860700  1
  Cu  Cu9  1  0.21114200  0.96847500  0.56139300  1
  Cu  Cu10  1  0.71114200  0.46847500  0.93860700  1
  Cu  Cu11  1  0.28885800  0.53152500  0.06139300  1
  Cu  Cu12  1  0.03520600  0.35947900  0.31230600  1
  Cu  Cu13  1  0.96479400  0.64052100  0.68769400  1
  Cu  Cu14  1  0.46479400  0.14052100  0.81230600  1
  Cu  Cu15  1  0.96479400  0.35947900  0.18769400  1
  Cu  Cu16  1  0.53520600  0.85947900  0.18769400  1
  Cu  Cu17  1  0.03520600  0.64052100  0.81230600  1
  Cu  Cu18  1  0.53520600  0.14052100  0.68769400  1
  Cu  Cu19  1  0.46479400  0.85947900  0.31230600  1
  Cu  Cu20  1  0.02555300  0.11763800  0.58660500  1
  Cu  Cu21  1  0.97444700  0.88236200  0.41339500  1
  Cu  Cu22  1  0.47444700  0.38236200  0.08660500  1
  Cu  Cu23  1  0.97444700  0.11763800  0.91339500  1
  Cu  Cu24  1  0.52555300  0.61763800  0.91339500  1
  Cu  Cu25  1  0.02555300  0.88236200  0.08660500  1
  Cu  Cu26  1  0.52555300  0.38236200  0.41339500  1
  Cu  Cu27  1  0.47444700  0.61763800  0.58660500  1
  Cu  Cu28  1  0.00000000  0.29468300  0.25000000  1
  Cu  Cu29  1  0.00000000  0.70531700  0.75000000  1
  Cu  Cu30  1  0.50000000  0.20531700  0.75000000  1
  Cu  Cu31  1  0.50000000  0.79468300  0.25000000  1
  Cu  Cu32  1  0.16994800  0.09129200  0.12442500  1
  Cu  Cu33  1  0.83005200  0.90870800  0.87557500  1
  Cu  Cu34  1  0.33005200  0.40870800  0.62442500  1
  Cu  Cu35  1  0.83005200  0.09129200  0.37557500  1
  Cu  Cu36  1  0.66994800  0.59129200  0.37557500  1
  Cu  Cu37  1  0.16994800  0.90870800  0.62442500  1
  Cu  Cu38  1  0.66994800  0.40870800  0.87557500  1
  Cu  Cu39  1  0.33005200  0.59129200  0.12442500  1
  Cu  Cu40  1  0.03445200  0.48328600  0.31310700  1
  Cu  Cu41  1  0.96554800  0.51671400  0.68689300  1
  Cu  Cu42  1  0.46554800  0.01671400  0.81310700  1
  Cu  Cu43  1  0.96554800  0.48328600  0.18689300  1
  Cu  Cu44  1  0.53445200  0.98328600  0.18689300  1
  Cu  Cu45  1  0.03445200  0.51671400  0.81310700  1
  Cu  Cu46  1  0.53445200  0.01671400  0.68689300  1
  Cu  Cu47  1  0.46554800  0.98328600  0.31310700  1
  Cu  Cu48  1  0.05635900  0.04978300  0.16940900  1
  Cu  Cu49  1  0.94364100  0.95021700  0.83059100  1
  Cu  Cu50  1  0.44364100  0.45021700  0.66940900  1
  Cu  Cu51  1  0.94364100  0.04978300  0.33059100  1
  Cu  Cu52  1  0.55635900  0.54978300  0.33059100  1
  Cu  Cu53  1  0.05635900  0.95021700  0.66940900  1
  Cu  Cu54  1  0.55635900  0.45021700  0.83059100  1
  Cu  Cu55  1  0.44364100  0.54978300  0.16940900  1
  Cu  Cu56  1  0.36078700  0.42617900  0.04286500  1
  Cu  Cu57  1  0.63921200  0.57382100  0.95713500  1
  Cu  Cu58  1  0.13921300  0.07382100  0.54286500  1
  Cu  Cu59  1  0.63921200  0.42617900  0.45713500  1
  Cu  Cu60  1  0.86078800  0.92617900  0.45713500  1
  Cu  Cu61  1  0.36078700  0.57382100  0.54286500  1
  Cu  Cu62  1  0.86078800  0.07382100  0.95713500  1
  Cu  Cu63  1  0.13921300  0.92617900  0.04286500  1
  Cu  Cu64  1  0.51464100  0.44452500  0.14891300  1
  Cu  Cu65  1  0.48535900  0.55547500  0.85108700  1
  Cu  Cu66  1  0.98535900  0.05547500  0.64891300  1
  Cu  Cu67  1  0.48535900  0.44452500  0.35108700  1
  Cu  Cu68  1  0.01464100  0.94452500  0.35108700  1
  Cu  Cu69  1  0.51464100  0.55547500  0.64891300  1
  Cu  Cu70  1  0.01464100  0.05547500  0.85108700  1
  Cu  Cu71  1  0.98535900  0.94452500  0.14891300  1
  Cu  Cu72  1  0.00000000  0.54556200  0.25000000  1
  Cu  Cu73  1  0.00000000  0.45443800  0.75000000  1
  Cu  Cu74  1  0.50000000  0.95443800  0.75000000  1
  Cu  Cu75  1  0.50000000  0.04556200  0.25000000  1
  C  C76  1  0.06832400  0.30317500  0.37474500  1
  C  C77  1  0.93167600  0.69682500  0.62525500  1
  C  C78  1  0.43167600  0.19682500  0.87474500  1
  C  C79  1  0.93167600  0.30317500  0.12525500  1
  C  C80  1  0.56832400  0.80317500  0.12525500  1
  C  C81  1  0.06832400  0.69682500  0.87474500  1
  C  C82  1  0.56832400  0.19682500  0.62525500  1
  C  C83  1  0.43167600  0.80317500  0.37474500  1
  C  C84  1  0.43265500  0.04256100  0.37414900  1
  C  C85  1  0.56734500  0.95743900  0.62585100  1
  C  C86  1  0.06734500  0.45743900  0.87414900  1
  C  C87  1  0.56734500  0.04256100  0.12585100  1
  C  C88  1  0.93265500  0.54256100  0.12585100  1
  C  C89  1  0.43265500  0.95743900  0.87414900  1
  C  C90  1  0.93265500  0.45743900  0.62585100  1
  C  C91  1  0.06734500  0.54256100  0.37414900  1
  C  C92  1  0.54384900  0.28123800  0.06841200  1
  C  C93  1  0.45615100  0.71876200  0.93158800  1
  C  C94  1  0.95615100  0.21876200  0.56841200  1
  C  C95  1  0.45615100  0.28123800  0.43158800  1
  C  C96  1  0.04384900  0.78123800  0.43158800  1
  C  C97  1  0.54384900  0.71876200  0.56841200  1
  C  C98  1  0.04384900  0.21876200  0.93158800  1
  C  C99  1  0.95615100  0.78123800  0.06841200  1
  C  C100  1  0.17786300  0.13183900  0.48233900  1
  C  C101  1  0.82213700  0.86816100  0.51766100  1
  C  C102  1  0.32213700  0.36816100  0.98233900  1
  C  C103  1  0.82213700  0.13183900  0.01766100  1
  C  C104  1  0.67786300  0.63183900  0.01766100  1
  C  C105  1  0.17786300  0.86816100  0.98233900  1
  C  C106  1  0.67786300  0.36816100  0.51766100  1
  C  C107  1  0.32213700  0.63183900  0.48233900  1
  C  C108  1  0.31497900  0.07699200  0.01735900  1
  C  C109  1  0.68502100  0.92300800  0.98264100  1
  C  C110  1  0.18502100  0.42300800  0.51735900  1
  C  C111  1  0.68502100  0.07699200  0.48264100  1
  C  C112  1  0.81497900  0.57699200  0.48264100  1
  C  C113  1  0.31497900  0.92300800  0.51735900  1
  C  C114  1  0.81497900  0.42300800  0.98264100  1
  C  C115  1  0.18502100  0.57699200  0.01735900  1
  C  C116  1  0.23846600  0.19539800  0.13867000  1
  C  C117  1  0.76153400  0.80460200  0.86133000  1
  C  C118  1  0.26153400  0.30460200  0.63867000  1
  C  C119  1  0.76153400  0.19539800  0.36133000  1
  C  C120  1  0.73846600  0.69539800  0.36133000  1
  C  C121  1  0.23846600  0.80460200  0.63867000  1
  C  C122  1  0.73846600  0.30460200  0.86133000  1
  C  C123  1  0.26153400  0.69539800  0.13867000  1
  C  C124  1  0.37722700  0.39748300  0.30961000  1
  C  C125  1  0.62277300  0.60251700  0.69039000  1
  C  C126  1  0.12277300  0.10251700  0.80961000  1
  C  C127  1  0.62277300  0.39748300  0.19039000  1
  C  C128  1  0.87722700  0.89748300  0.19039000  1
  C  C129  1  0.37722700  0.60251700  0.80961000  1
  C  C130  1  0.87722700  0.10251700  0.69039000  1
  C  C131  1  0.12277300  0.89748300  0.30961000  1
  C  C132  1  0.17536000  0.13258000  0.27904000  1
  C  C133  1  0.82464000  0.86742000  0.72096000  1
  C  C134  1  0.32464000  0.36742000  0.77904000  1
  C  C135  1  0.82464000  0.13258000  0.22096000  1
  C  C136  1  0.67536000  0.63258000  0.22096000  1
  C  C137  1  0.17536000  0.86742000  0.77904000  1
  C  C138  1  0.67536000  0.36742000  0.72096000  1
  C  C139  1  0.32464000  0.63258000  0.27904000  1
  C  C140  1  0.00000000  0.66446200  0.25000000  1
  C  C141  1  0.00000000  0.33553800  0.75000000  1
  C  C142  1  0.50000000  0.83553800  0.75000000  1
  C  C143  1  0.50000000  0.16446200  0.25000000  1
