# generated using pymatgen
data_Cu2(Ni2C)3
_symmetry_space_group_name_H-M   'P 1'
_cell_length_a   7.83585600
_cell_length_b   6.71862400
_cell_length_c   14.76101000
_cell_angle_alpha   90.00000000
_cell_angle_beta   90.00000000
_cell_angle_gamma   90.00000000
_symmetry_Int_Tables_number   1
_chemical_formula_structural   Cu2(Ni2C)3
_chemical_formula_sum   'Cu8 Ni24 C12'
_cell_volume   777.11064452
_cell_formula_units_Z   4
loop_
 _symmetry_equiv_pos_site_id
 _symmetry_equiv_pos_as_xyz
  1  'x, y, z'
loop_
 _atom_site_type_symbol
 _atom_site_label
 _atom_site_symmetry_multiplicity
 _atom_site_fract_x
 _atom_site_fract_y
 _atom_site_fract_z
 _atom_site_occupancy
  C  C0  1  0.77828400  0.75000000  0.37143700  1
  C  C1  1  0.72171600  0.75000000  0.87143700  1
  C  C2  1  0.22171600  0.25000000  0.62856300  1
  C  C3  1  0.27828400  0.25000000  0.12856300  1
  Ni  Ni4  1  0.57548900  0.75000000  0.35793800  1
  Ni  Ni5  1  0.92451100  0.75000000  0.85793800  1
  Ni  Ni6  1  0.42451100  0.25000000  0.64206200  1
  Ni  Ni7  1  0.07548900  0.25000000  0.14206200  1
  Ni  Ni8  1  0.83237400  0.02138400  0.39530400  1
  Ni  Ni9  1  0.66762600  0.47861600  0.89530400  1
  Ni  Ni10  1  0.16762600  0.52138400  0.60469600  1
  Ni  Ni11  1  0.33237400  0.97861600  0.10469600  1
  Ni  Ni12  1  0.16762600  0.97861600  0.60469600  1
  Ni  Ni13  1  0.33237400  0.52138400  0.10469600  1
  Ni  Ni14  1  0.83237400  0.47861600  0.39530400  1
  Ni  Ni15  1  0.66762600  0.02138400  0.89530400  1
  Ni  Ni16  1  0.84172400  0.75000000  0.26065400  1
  Ni  Ni17  1  0.65827600  0.75000000  0.76065400  1
  Ni  Ni18  1  0.15827600  0.25000000  0.73934600  1
  Ni  Ni19  1  0.34172400  0.25000000  0.23934600  1
  Ni  Ni20  1  0.81489600  0.75000000  0.53108100  1
  Ni  Ni21  1  0.68510400  0.75000000  0.03108100  1
  Ni  Ni22  1  0.18510400  0.25000000  0.46891900  1
  Ni  Ni23  1  0.31489600  0.25000000  0.96891900  1
  Ni  Ni24  1  0.17493100  0.75000000  0.12078800  1
  Ni  Ni25  1  0.32506900  0.75000000  0.62078800  1
  Ni  Ni26  1  0.82506900  0.25000000  0.87921200  1
  Ni  Ni27  1  0.67493100  0.25000000  0.37921200  1
  Cu  Cu28  1  0.64951800  0.95297900  0.09222100  1
  Cu  Cu29  1  0.85048200  0.54702100  0.59222100  1
  Cu  Cu30  1  0.35048200  0.45297900  0.90777900  1
  Cu  Cu31  1  0.14951800  0.04702100  0.40777900  1
  Cu  Cu32  1  0.35048200  0.04702100  0.90777900  1
  Cu  Cu33  1  0.14951800  0.45297900  0.40777900  1
  Cu  Cu34  1  0.64951800  0.54702100  0.09222100  1
  Cu  Cu35  1  0.85048200  0.95297900  0.59222100  1
  C  C36  1  0.08243000  0.75000000  0.05562500  1
  C  C37  1  0.41757000  0.75000000  0.55562500  1
  C  C38  1  0.91757000  0.25000000  0.94437500  1
  C  C39  1  0.58243000  0.25000000  0.44437500  1
  C  C40  1  0.15175200  0.75000000  0.20170500  1
  C  C41  1  0.34824800  0.75000000  0.70170500  1
  C  C42  1  0.84824800  0.25000000  0.79829500  1
  C  C43  1  0.65175200  0.25000000  0.29829500  1
