# generated using pymatgen
data_CuNiC8
_symmetry_space_group_name_H-M   'P 1'
_cell_length_a   5.31873200
_cell_length_b   7.98062782
_cell_length_c   5.33297043
_cell_angle_alpha   88.43310783
_cell_angle_beta   90.00007645
_cell_angle_gamma   90.00019795
_symmetry_Int_Tables_number   1
_chemical_formula_structural   CuNiC8
_chemical_formula_sum   'Cu2 Ni2 C16'
_cell_volume   226.28299620
_cell_formula_units_Z   2
loop_
 _symmetry_equiv_pos_site_id
 _symmetry_equiv_pos_as_xyz
  1  'x, y, z'
loop_
 _atom_site_type_symbol
 _atom_site_label
 _atom_site_symmetry_multiplicity
 _atom_site_fract_x
 _atom_site_fract_y
 _atom_site_fract_z
 _atom_site_occupancy
  Ni  Ni0  1  0.50037900  0.49970400  0.00038100  1
  Ni  Ni1  1  0.99932500  0.99991800  0.50055200  1
  C  C2  1  0.02497400  0.26009700  0.01589300  1
  C  C3  1  0.52492900  0.23994500  0.48402600  1
  C  C4  1  0.97510100  0.73994000  0.98402900  1
  C  C5  1  0.47506000  0.76009500  0.51588900  1
  Cu  Cu6  1  0.00007400  0.50002100  0.49994900  1
  Cu  Cu7  1  0.49991300  0.99998700  0.99994400  1
  C  C8  1  0.31073400  0.41363900  0.64105400  1
  C  C9  1  0.81074700  0.08641800  0.85884300  1
  C  C10  1  0.68930700  0.58641200  0.35884100  1
  C  C11  1  0.18931600  0.91364600  0.14105600  1
  C  C12  1  0.16031100  0.55411300  0.18132600  1
  C  C13  1  0.66026200  0.94591800  0.31855700  1
  C  C14  1  0.83976600  0.44592100  0.81856400  1
  C  C15  1  0.33971300  0.05411400  0.68131600  1
  C  C16  1  0.39698800  0.22806100  0.11827100  1
  C  C17  1  0.89695800  0.27199500  0.38162100  1
  C  C18  1  0.10306000  0.72805500  0.61827200  1
  C  C19  1  0.60308300  0.77200100  0.88162000  1
