# generated using pymatgen
data_Cu7Ni2C3
_symmetry_space_group_name_H-M   'P 1'
_cell_length_a   7.51082030
_cell_length_b   7.51082030
_cell_length_c   7.51082030
_cell_angle_alpha   107.09496488
_cell_angle_beta   107.09496488
_cell_angle_gamma   114.33602590
_symmetry_Int_Tables_number   1
_chemical_formula_structural   Cu7Ni2C3
_chemical_formula_sum   'Cu14 Ni4 C6'
_cell_volume   324.38822583
_cell_formula_units_Z   2
loop_
 _symmetry_equiv_pos_site_id
 _symmetry_equiv_pos_as_xyz
  1  'x, y, z'
loop_
 _atom_site_type_symbol
 _atom_site_label
 _atom_site_symmetry_multiplicity
 _atom_site_fract_x
 _atom_site_fract_y
 _atom_site_fract_z
 _atom_site_occupancy
  C  C0  1  0.78272600  0.50000000  0.28272600  1
  C  C1  1  0.50000000  0.21727400  0.71727400  1
  C  C2  1  0.25000000  0.75000000  0.50000000  1
  C  C3  1  0.50000000  0.78272600  0.28272600  1
  C  C4  1  0.21727400  0.50000000  0.71727400  1
  C  C5  1  0.75000000  0.25000000  0.50000000  1
  Ni  Ni6  1  0.45876100  0.45876100  0.47824600  1
  Ni  Ni7  1  0.98051500  0.98051500  0.52175400  1
  Ni  Ni8  1  0.54123900  0.01948500  0.00000000  1
  Ni  Ni9  1  0.01948500  0.54123900  0.00000000  1
  Cu  Cu10  1  0.38796000  0.56550500  0.40595800  1
  Cu  Cu11  1  0.56550500  0.38796000  0.40595800  1
  Cu  Cu12  1  0.41962000  0.41962000  0.62725900  1
  Cu  Cu13  1  0.15954700  0.98200200  0.59404200  1
  Cu  Cu14  1  0.98200200  0.15954700  0.59404200  1
  Cu  Cu15  1  0.79236000  0.79236000  0.37274100  1
  Cu  Cu16  1  0.61204000  0.01799800  0.17754500  1
  Cu  Cu17  1  0.43449500  0.84045300  0.82245500  1
  Cu  Cu18  1  0.58038000  0.20764000  0.00000000  1
  Cu  Cu19  1  0.84045300  0.43449500  0.82245500  1
  Cu  Cu20  1  0.01799800  0.61204000  0.17754500  1
  Cu  Cu21  1  0.20764000  0.58038000  0.00000000  1
  Cu  Cu22  1  0.50000000  0.00000000  0.50000000  1
  Cu  Cu23  1  0.00000000  0.50000000  0.50000000  1
