# generated using pymatgen
data_CuNi2C17
_symmetry_space_group_name_H-M   'P 1'
_cell_length_a   8.92901322
_cell_length_b   8.92901322
_cell_length_c   6.60101757
_cell_angle_alpha   73.35174823
_cell_angle_beta   73.35174823
_cell_angle_gamma   92.80117007
_symmetry_Int_Tables_number   1
_chemical_formula_structural   CuNi2C17
_chemical_formula_sum   'Cu2 Ni4 C34'
_cell_volume   478.14318251
_cell_formula_units_Z   2
loop_
 _symmetry_equiv_pos_site_id
 _symmetry_equiv_pos_as_xyz
  1  'x, y, z'
loop_
 _atom_site_type_symbol
 _atom_site_label
 _atom_site_symmetry_multiplicity
 _atom_site_fract_x
 _atom_site_fract_y
 _atom_site_fract_z
 _atom_site_occupancy
  Ni  Ni0  1  0.26602200  0.73397800  0.50000000  1
  Ni  Ni1  1  0.73100400  0.26899600  0.00000000  1
  Ni  Ni2  1  0.37358700  0.06597300  0.61340900  1
  Ni  Ni3  1  0.93402700  0.62641300  0.38659100  1
  Cu  Cu4  1  0.61920500  0.93603300  0.88113200  1
  Cu  Cu5  1  0.06396700  0.38079500  0.11886800  1
  C  C6  1  0.49970900  0.50004000  0.25130600  1
  C  C7  1  0.49996000  0.50029100  0.74869400  1
  C  C8  1  0.99213900  0.00786100  0.50000000  1
  C  C9  1  0.01181200  0.98818800  0.00000000  1
  C  C10  1  0.65288100  0.87531100  0.37638800  1
  C  C11  1  0.12468900  0.34711900  0.62361200  1
  C  C12  1  0.34787400  0.12760600  0.12119000  1
  C  C13  1  0.87239400  0.65212600  0.87881000  1
  C  C14  1  0.71669800  0.28330200  0.50000000  1
  C  C15  1  0.28634300  0.71365700  0.00000000  1
  C  C16  1  0.60526600  0.95085500  0.56739900  1
  C  C17  1  0.04914500  0.39473400  0.43260100  1
  C  C18  1  0.40547600  0.04802500  0.93569400  1
  C  C19  1  0.95197500  0.59452400  0.06430600  1
  C  C20  1  0.31848600  0.99908700  0.35076500  1
  C  C21  1  0.00091300  0.68151400  0.64923500  1
  C  C22  1  0.66098100  0.99842800  0.14560100  1
  C  C23  1  0.00157200  0.33901900  0.85439900  1
  C  C24  1  0.25821900  0.82086100  0.78775300  1
  C  C25  1  0.17913900  0.74178100  0.21224700  1
  C  C26  1  0.73774000  0.16181300  0.71501800  1
  C  C27  1  0.83818700  0.26226000  0.28498200  1
  C  C28  1  0.26683600  0.47210600  0.57318000  1
  C  C29  1  0.52789400  0.73316400  0.42682000  1
  C  C30  1  0.73392200  0.52552300  0.92070000  1
  C  C31  1  0.47447700  0.26607800  0.07930000  1
  C  C32  1  0.16520800  0.17651700  0.64754800  1
  C  C33  1  0.82348300  0.83479200  0.35245200  1
  C  C34  1  0.81197700  0.81625700  0.87623500  1
  C  C35  1  0.18374300  0.18802300  0.12376500  1
  C  C36  1  0.55198000  0.25842600  0.47748000  1
  C  C37  1  0.74157400  0.44802000  0.52252000  1
  C  C38  1  0.46203000  0.74253400  0.99606400  1
  C  C39  1  0.25746600  0.53797000  0.00393600  1
