# generated using pymatgen
data_Cu21(Ni3C)2
_symmetry_space_group_name_H-M   'P 1'
_cell_length_a   13.77487397
_cell_length_b   15.57468411
_cell_length_c   16.75634900
_cell_angle_alpha   90.00000000
_cell_angle_beta   90.00000000
_cell_angle_gamma   90.00000000
_symmetry_Int_Tables_number   1
_chemical_formula_structural   Cu21(Ni3C)2
_chemical_formula_sum   'Cu168 Ni48 C16'
_cell_volume   3594.89556494
_cell_formula_units_Z   8
loop_
 _symmetry_equiv_pos_site_id
 _symmetry_equiv_pos_as_xyz
  1  'x, y, z'
loop_
 _atom_site_type_symbol
 _atom_site_label
 _atom_site_symmetry_multiplicity
 _atom_site_fract_x
 _atom_site_fract_y
 _atom_site_fract_z
 _atom_site_occupancy
  C  C0  1  0.76001037  0.70124134  0.99251954  1
  C  C1  1  0.73998963  0.20124134  0.00748046  1
  C  C2  1  0.26001037  0.29875866  0.50748046  1
  C  C3  1  0.23998963  0.79875866  0.49251954  1
  C  C4  1  0.23998963  0.29875866  0.00748046  1
  C  C5  1  0.26001037  0.79875866  0.99251954  1
  C  C6  1  0.73998963  0.70124134  0.49251954  1
  C  C7  1  0.76001037  0.20124134  0.50748046  1
  C  C8  1  0.87367328  0.89544108  0.74856661  1
  C  C9  1  0.62632672  0.39544108  0.25143339  1
  C  C10  1  0.37367328  0.10455892  0.75143339  1
  C  C11  1  0.12632672  0.60455892  0.24856661  1
  C  C12  1  0.12632672  0.10455892  0.25143339  1
  C  C13  1  0.37367328  0.60455892  0.74856661  1
  C  C14  1  0.62632672  0.89544108  0.24856661  1
  C  C15  1  0.87367328  0.39544108  0.75143339  1
  Ni  Ni16  1  0.97626461  0.86515479  0.90671632  1
  Ni  Ni17  1  0.52373539  0.36515479  0.09328368  1
  Ni  Ni18  1  0.47626461  0.13484521  0.59328368  1
  Ni  Ni19  1  0.02373539  0.63484521  0.40671632  1
  Ni  Ni20  1  0.02373539  0.13484521  0.09328368  1
  Ni  Ni21  1  0.47626461  0.63484521  0.90671632  1
  Ni  Ni22  1  0.52373539  0.86515479  0.40671632  1
  Ni  Ni23  1  0.97626461  0.36515479  0.59328368  1
  Ni  Ni24  1  0.74235897  0.73884208  0.75317803  1
  Ni  Ni25  1  0.75764103  0.23884208  0.24682197  1
  Ni  Ni26  1  0.24235897  0.26115792  0.74682197  1
  Ni  Ni27  1  0.25764103  0.76115792  0.25317803  1
  Ni  Ni28  1  0.25764103  0.26115792  0.24682197  1
  Ni  Ni29  1  0.24235897  0.76115792  0.75317803  1
  Ni  Ni30  1  0.75764103  0.73884208  0.25317803  1
  Ni  Ni31  1  0.74235897  0.23884208  0.74682197  1
  Ni  Ni32  1  0.96802291  0.84926504  0.59029562  1
  Ni  Ni33  1  0.53197709  0.34926504  0.40970438  1
  Ni  Ni34  1  0.46802291  0.15073496  0.90970438  1
  Ni  Ni35  1  0.03197709  0.65073496  0.09029562  1
  Ni  Ni36  1  0.03197709  0.15073496  0.40970438  1
  Ni  Ni37  1  0.46802291  0.65073496  0.59029562  1
  Ni  Ni38  1  0.53197709  0.84926504  0.09029562  1
  Ni  Ni39  1  0.96802291  0.34926504  0.90970438  1
  Ni  Ni40  1  0.79440090  0.95090020  0.91017727  1
  Ni  Ni41  1  0.70559910  0.45090020  0.08982273  1
  Ni  Ni42  1  0.29440090  0.04909980  0.58982273  1
  Ni  Ni43  1  0.20559910  0.54909980  0.41017727  1
  Ni  Ni44  1  0.20559910  0.04909980  0.08982273  1
  Ni  Ni45  1  0.29440090  0.54909980  0.91017727  1
  Ni  Ni46  1  0.70559910  0.95090020  0.41017727  1
  Ni  Ni47  1  0.79440090  0.45090020  0.58982273  1
  Ni  Ni48  1  0.94717779  0.02969006  0.63141132  1
  Ni  Ni49  1  0.55282221  0.52969006  0.36858868  1
  Ni  Ni50  1  0.44717779  0.97030994  0.86858868  1
  Ni  Ni51  1  0.05282221  0.47030994  0.13141132  1
  Ni  Ni52  1  0.05282221  0.97030994  0.36858868  1
  Ni  Ni53  1  0.44717779  0.47030994  0.63141132  1
  Ni  Ni54  1  0.55282221  0.02969006  0.13141132  1
  Ni  Ni55  1  0.94717779  0.52969006  0.86858868  1
  Ni  Ni56  1  0.67103536  0.88161515  0.66604019  1
  Ni  Ni57  1  0.82896464  0.38161515  0.33395981  1
  Ni  Ni58  1  0.17103536  0.11838485  0.83395981  1
  Ni  Ni59  1  0.32896464  0.61838485  0.16604019  1
  Ni  Ni60  1  0.32896464  0.11838485  0.33395981  1
  Ni  Ni61  1  0.17103536  0.61838485  0.66604019  1
  Ni  Ni62  1  0.82896464  0.88161515  0.16604019  1
  Ni  Ni63  1  0.67103536  0.38161515  0.83395981  1
  Cu  Cu64  1  0.76608027  0.69723196  0.67915119  1
  Cu  Cu65  1  0.73391973  0.19723196  0.32084881  1
  Cu  Cu66  1  0.26608027  0.30276804  0.82084881  1
  Cu  Cu67  1  0.23391973  0.80276804  0.17915119  1
  Cu  Cu68  1  0.23391973  0.30276804  0.32084881  1
  Cu  Cu69  1  0.26608027  0.80276804  0.67915119  1
  Cu  Cu70  1  0.73391973  0.69723196  0.17915119  1
  Cu  Cu71  1  0.76608027  0.19723196  0.82084881  1
  Cu  Cu72  1  0.82497612  0.79617162  0.78261423  1
  Cu  Cu73  1  0.67502388  0.29617162  0.21738577  1
  Cu  Cu74  1  0.32497612  0.20382838  0.71738577  1
  Cu  Cu75  1  0.17502388  0.70382838  0.28261423  1
  Cu  Cu76  1  0.17502388  0.20382838  0.21738577  1
  Cu  Cu77  1  0.32497612  0.70382838  0.78261423  1
  Cu  Cu78  1  0.67502388  0.79617162  0.28261423  1
  Cu  Cu79  1  0.82497612  0.29617162  0.71738577  1
  Cu  Cu80  1  0.90706573  0.79471501  0.54299445  1
  Cu  Cu81  1  0.59293427  0.29471501  0.45700555  1
  Cu  Cu82  1  0.40706573  0.20528499  0.95700555  1
  Cu  Cu83  1  0.09293427  0.70528499  0.04299445  1
  Cu  Cu84  1  0.09293427  0.20528499  0.45700555  1
  Cu  Cu85  1  0.40706573  0.70528499  0.54299445  1
  Cu  Cu86  1  0.59293427  0.79471501  0.04299445  1
  Cu  Cu87  1  0.90706573  0.29471501  0.95700555  1
  Cu  Cu88  1  0.65513887  0.80847573  0.73729323  1
  Cu  Cu89  1  0.84486113  0.30847573  0.26270677  1
  Cu  Cu90  1  0.15513887  0.19152427  0.76270677  1
  Cu  Cu91  1  0.34486113  0.69152427  0.23729323  1
  Cu  Cu92  1  0.34486113  0.19152427  0.26270677  1
  Cu  Cu93  1  0.15513887  0.69152427  0.73729323  1
  Cu  Cu94  1  0.84486113  0.80847573  0.23729323  1
  Cu  Cu95  1  0.65513887  0.30847573  0.76270677  1
  Cu  Cu96  1  0.92764381  0.94537340  0.57111331  1
  Cu  Cu97  1  0.57235619  0.44537340  0.42888669  1
  Cu  Cu98  1  0.42764381  0.05462660  0.92888669  1
  Cu  Cu99  1  0.07235619  0.55462660  0.07111331  1
  Cu  Cu100  1  0.07235619  0.05462660  0.42888669  1
  Cu  Cu101  1  0.42764381  0.55462660  0.57111331  1
  Cu  Cu102  1  0.57235619  0.94537340  0.07111331  1
  Cu  Cu103  1  0.92764381  0.44537340  0.92888669  1
  Cu  Cu104  1  0.80667558  0.95772686  0.82012552  1
  Cu  Cu105  1  0.69332442  0.45772686  0.17987448  1
  Cu  Cu106  1  0.30667558  0.04227314  0.67987448  1
  Cu  Cu107  1  0.19332442  0.54227314  0.32012552  1
  Cu  Cu108  1  0.19332442  0.04227314  0.17987448  1
  Cu  Cu109  1  0.30667558  0.54227314  0.82012552  1
  Cu  Cu110  1  0.69332442  0.95772686  0.32012552  1
  Cu  Cu111  1  0.80667558  0.45772686  0.67987448  1
  Cu  Cu112  1  0.97230800  0.88238661  0.81719082  1
  Cu  Cu113  1  0.52769200  0.38238661  0.18280918  1
  Cu  Cu114  1  0.47230800  0.11761339  0.68280918  1
  Cu  Cu115  1  0.02769200  0.61761339  0.31719082  1
  Cu  Cu116  1  0.02769200  0.11761339  0.18280918  1
  Cu  Cu117  1  0.47230800  0.61761339  0.81719082  1
  Cu  Cu118  1  0.52769200  0.88238661  0.31719082  1
  Cu  Cu119  1  0.97230800  0.38238661  0.68280918  1
  Cu  Cu120  1  0.90752412  0.94352532  0.94186013  1
  Cu  Cu121  1  0.59247588  0.44352532  0.05813987  1
  Cu  Cu122  1  0.40752412  0.05647468  0.55813987  1
  Cu  Cu123  1  0.09247588  0.55647468  0.44186013  1
  Cu  Cu124  1  0.09247588  0.05647468  0.05813987  1
  Cu  Cu125  1  0.40752412  0.55647468  0.94186013  1
  Cu  Cu126  1  0.59247588  0.94352532  0.44186013  1
  Cu  Cu127  1  0.90752412  0.44352532  0.55813987  1
  Cu  Cu128  1  0.92415104  0.99342281  0.71381231  1
  Cu  Cu129  1  0.57584896  0.49342281  0.28618769  1
  Cu  Cu130  1  0.42415104  0.00657719  0.78618769  1
  Cu  Cu131  1  0.07584896  0.50657719  0.21381231  1
  Cu  Cu132  1  0.07584896  0.00657719  0.28618769  1
  Cu  Cu133  1  0.42415104  0.50657719  0.71381231  1
  Cu  Cu134  1  0.57584896  0.99342281  0.21381231  1
  Cu  Cu135  1  0.92415104  0.49342281  0.78618769  1
  Cu  Cu136  1  0.74389327  0.87415245  0.93265819  1
  Cu  Cu137  1  0.75610673  0.37415245  0.06734181  1
  Cu  Cu138  1  0.24389327  0.12584755  0.56734181  1
  Cu  Cu139  1  0.25610673  0.62584755  0.43265819  1
  Cu  Cu140  1  0.25610673  0.12584755  0.06734181  1
  Cu  Cu141  1  0.24389327  0.62584755  0.93265819  1
  Cu  Cu142  1  0.75610673  0.87415245  0.43265819  1
  Cu  Cu143  1  0.74389327  0.37415245  0.56734181  1
  Cu  Cu144  1  0.93196131  0.78472306  0.92781838  1
  Cu  Cu145  1  0.56803869  0.28472306  0.07218162  1
  Cu  Cu146  1  0.43196131  0.21527694  0.57218162  1
  Cu  Cu147  1  0.06803869  0.71527694  0.42781838  1
  Cu  Cu148  1  0.06803869  0.21527694  0.07218162  1
  Cu  Cu149  1  0.43196131  0.71527694  0.92781838  1
  Cu  Cu150  1  0.56803869  0.78472306  0.42781838  1
  Cu  Cu151  1  0.93196131  0.28472306  0.57218162  1
  Cu  Cu152  1  0.07003548  0.88549903  0.93748143  1
  Cu  Cu153  1  0.42996452  0.38549903  0.06251857  1
  Cu  Cu154  1  0.57003548  0.11450097  0.56251857  1
  Cu  Cu155  1  0.92996452  0.61450097  0.43748143  1
  Cu  Cu156  1  0.92996452  0.11450097  0.06251857  1
  Cu  Cu157  1  0.57003548  0.61450097  0.93748143  1
  Cu  Cu158  1  0.42996452  0.88549903  0.43748143  1
  Cu  Cu159  1  0.07003548  0.38549903  0.56251857  1
  Cu  Cu160  1  0.76420029  0.03169554  0.94188139  1
  Cu  Cu161  1  0.73579971  0.53169554  0.05811861  1
  Cu  Cu162  1  0.26420029  0.96830446  0.55811861  1
  Cu  Cu163  1  0.23579971  0.46830446  0.44188139  1
  Cu  Cu164  1  0.23579971  0.96830446  0.05811861  1
  Cu  Cu165  1  0.26420029  0.46830446  0.94188139  1
  Cu  Cu166  1  0.73579971  0.03169554  0.44188139  1
  Cu  Cu167  1  0.76420029  0.53169554  0.55811861  1
  Cu  Cu168  1  0.94777075  0.83753615  0.67875869  1
  Cu  Cu169  1  0.55222925  0.33753615  0.32124131  1
  Cu  Cu170  1  0.44777075  0.16246385  0.82124131  1
  Cu  Cu171  1  0.05222925  0.66246385  0.17875869  1
  Cu  Cu172  1  0.05222925  0.16246385  0.32124131  1
  Cu  Cu173  1  0.44777075  0.66246385  0.67875869  1
  Cu  Cu174  1  0.55222925  0.83753615  0.17875869  1
  Cu  Cu175  1  0.94777075  0.33753615  0.82124131  1
  Cu  Cu176  1  0.70693023  0.69031924  0.81956510  1
  Cu  Cu177  1  0.79306977  0.19031924  0.18043490  1
  Cu  Cu178  1  0.20693023  0.30968076  0.68043490  1
  Cu  Cu179  1  0.29306977  0.80968076  0.31956510  1
  Cu  Cu180  1  0.29306977  0.30968076  0.18043490  1
  Cu  Cu181  1  0.20693023  0.80968076  0.81956510  1
  Cu  Cu182  1  0.79306977  0.69031924  0.31956510  1
  Cu  Cu183  1  0.70693023  0.19031924  0.68043490  1
  Cu  Cu184  1  0.77667241  0.90794568  0.67851505  1
  Cu  Cu185  1  0.72332759  0.40794568  0.32148495  1
  Cu  Cu186  1  0.27667241  0.09205432  0.82148495  1
  Cu  Cu187  1  0.22332759  0.59205432  0.17851505  1
  Cu  Cu188  1  0.22332759  0.09205432  0.32148495  1
  Cu  Cu189  1  0.27667241  0.59205432  0.67851505  1
  Cu  Cu190  1  0.72332759  0.90794568  0.17851505  1
  Cu  Cu191  1  0.77667241  0.40794568  0.82148495  1
  Cu  Cu192  1  0.07080397  0.84779948  0.57671290  1
  Cu  Cu193  1  0.42919603  0.34779948  0.42328710  1
  Cu  Cu194  1  0.57080397  0.15220052  0.92328710  1
  Cu  Cu195  1  0.92919603  0.65220052  0.07671290  1
  Cu  Cu196  1  0.92919603  0.15220052  0.42328710  1
  Cu  Cu197  1  0.57080397  0.65220052  0.57671290  1
  Cu  Cu198  1  0.42919603  0.84779948  0.07671290  1
  Cu  Cu199  1  0.07080397  0.34779948  0.92328710  1
  Cu  Cu200  1  0.66296523  0.83731595  0.59091725  1
  Cu  Cu201  1  0.83703477  0.33731595  0.40908275  1
  Cu  Cu202  1  0.16296523  0.16268405  0.90908275  1
  Cu  Cu203  1  0.33703477  0.66268405  0.09091725  1
  Cu  Cu204  1  0.33703477  0.16268405  0.40908275  1
  Cu  Cu205  1  0.16296523  0.66268405  0.59091725  1
  Cu  Cu206  1  0.83703477  0.83731595  0.09091725  1
  Cu  Cu207  1  0.66296523  0.33731595  0.90908275  1
  Cu  Cu208  1  0.04639574  0.05399815  0.62560564  1
  Cu  Cu209  1  0.45360426  0.55399815  0.37439436  1
  Cu  Cu210  1  0.54639574  0.94600185  0.87439436  1
  Cu  Cu211  1  0.95360426  0.44600185  0.12560564  1
  Cu  Cu212  1  0.95360426  0.94600185  0.37439436  1
  Cu  Cu213  1  0.54639574  0.44600185  0.62560564  1
  Cu  Cu214  1  0.45360426  0.05399815  0.12560564  1
  Cu  Cu215  1  0.04639574  0.55399815  0.87439436  1
  Cu  Cu216  1  0.87226864  0.08732422  0.60538051  1
  Cu  Cu217  1  0.62773136  0.58732422  0.39461949  1
  Cu  Cu218  1  0.37226864  0.91267578  0.89461949  1
  Cu  Cu219  1  0.12773136  0.41267578  0.10538051  1
  Cu  Cu220  1  0.12773136  0.91267578  0.39461949  1
  Cu  Cu221  1  0.37226864  0.41267578  0.60538051  1
  Cu  Cu222  1  0.62773136  0.08732422  0.10538051  1
  Cu  Cu223  1  0.87226864  0.58732422  0.89461949  1
  Cu  Cu224  1  0.60434542  0.94756421  0.68603467  1
  Cu  Cu225  1  0.89565458  0.44756421  0.31396533  1
  Cu  Cu226  1  0.10434542  0.05243579  0.81396533  1
  Cu  Cu227  1  0.39565458  0.55243579  0.18603467  1
  Cu  Cu228  1  0.39565458  0.05243579  0.31396533  1
  Cu  Cu229  1  0.10434542  0.55243579  0.68603467  1
  Cu  Cu230  1  0.89565458  0.94756421  0.18603467  1
  Cu  Cu231  1  0.60434542  0.44756421  0.81396533  1
