# generated using pymatgen
data_Cu5NiC3
_symmetry_space_group_name_H-M   'P 1'
_cell_length_a   8.19887700
_cell_length_b   6.09989400
_cell_length_c   6.20258142
_cell_angle_alpha   82.83848548
_cell_angle_beta   90.00000000
_cell_angle_gamma   90.00000000
_symmetry_Int_Tables_number   1
_chemical_formula_structural   Cu5NiC3
_chemical_formula_sum   'Cu10 Ni2 C6'
_cell_volume   307.78522730
_cell_formula_units_Z   2
loop_
 _symmetry_equiv_pos_site_id
 _symmetry_equiv_pos_as_xyz
  1  'x, y, z'
loop_
 _atom_site_type_symbol
 _atom_site_label
 _atom_site_symmetry_multiplicity
 _atom_site_fract_x
 _atom_site_fract_y
 _atom_site_fract_z
 _atom_site_occupancy
  C  C0  1  0.25000000  0.07695800  0.47885200  1
  C  C1  1  0.75000000  0.92304200  0.52114800  1
  C  C2  1  0.25000000  0.50615100  0.91893400  1
  C  C3  1  0.75000000  0.49384900  0.08106600  1
  C  C4  1  0.50000000  0.00000000  0.00000000  1
  C  C5  1  0.00000000  0.00000000  0.00000000  1
  Ni  Ni6  1  0.25000000  0.56115100  0.45009100  1
  Ni  Ni7  1  0.75000000  0.43884900  0.54990900  1
  Cu  Cu8  1  0.47105700  0.23489300  0.16830300  1
  Cu  Cu9  1  0.52894300  0.76510700  0.83169700  1
  Cu  Cu10  1  0.97105700  0.76510700  0.83169700  1
  Cu  Cu11  1  0.02894300  0.23489300  0.16830300  1
  Cu  Cu12  1  0.99245600  0.79996100  0.25794800  1
  Cu  Cu13  1  0.00754400  0.20003900  0.74205200  1
  Cu  Cu14  1  0.49245600  0.20003900  0.74205200  1
  Cu  Cu15  1  0.50754400  0.79996100  0.25794800  1
  Cu  Cu16  1  0.25000000  0.96152700  0.97669200  1
  Cu  Cu17  1  0.75000000  0.03847300  0.02330800  1
