# generated using pymatgen
data_Cu4NiC17
_symmetry_space_group_name_H-M   'P 1'
_cell_length_a   7.29735968
_cell_length_b   13.77314101
_cell_length_c   14.18977297
_cell_angle_alpha   90.00000000
_cell_angle_beta   90.00000000
_cell_angle_gamma   101.00302323
_symmetry_Int_Tables_number   1
_chemical_formula_structural   Cu4NiC17
_chemical_formula_sum   'Cu16 Ni4 C68'
_cell_volume   1399.96221796
_cell_formula_units_Z   4
loop_
 _symmetry_equiv_pos_site_id
 _symmetry_equiv_pos_as_xyz
  1  'x, y, z'
loop_
 _atom_site_type_symbol
 _atom_site_label
 _atom_site_symmetry_multiplicity
 _atom_site_fract_x
 _atom_site_fract_y
 _atom_site_fract_z
 _atom_site_occupancy
  C  C0  1  0.17253501  0.28170366  0.05495731  1
  C  C1  1  0.32746499  0.21829634  0.55495731  1
  C  C2  1  0.82746499  0.71829634  0.94504269  1
  C  C3  1  0.67253501  0.78170366  0.44504269  1
  C  C4  1  0.73752951  0.29597912  0.27045175  1
  C  C5  1  0.76247049  0.20402088  0.77045175  1
  C  C6  1  0.26247049  0.70402088  0.72954825  1
  C  C7  1  0.23752951  0.79597912  0.22954825  1
  C  C8  1  0.75548112  0.98495822  0.10655880  1
  C  C9  1  0.74451888  0.51504178  0.60655880  1
  C  C10  1  0.24451888  0.01504178  0.89344120  1
  C  C11  1  0.25548112  0.48495822  0.39344120  1
  Ni  Ni12  1  0.61375925  0.49345089  0.09804471  1
  Ni  Ni13  1  0.88624075  0.00654911  0.59804471  1
  Ni  Ni14  1  0.38624075  0.50654911  0.90195529  1
  Ni  Ni15  1  0.11375925  0.99345089  0.40195529  1
  Cu  Cu16  1  0.65953262  0.26029086  0.02779347  1
  Cu  Cu17  1  0.84046738  0.23970914  0.52779347  1
  Cu  Cu18  1  0.34046738  0.73970914  0.97220653  1
  Cu  Cu19  1  0.15953262  0.76029086  0.47220653  1
  Cu  Cu20  1  0.84079510  0.45093582  0.89073418  1
  Cu  Cu21  1  0.65920490  0.04906418  0.39073418  1
  Cu  Cu22  1  0.15920490  0.54906418  0.10926582  1
  Cu  Cu23  1  0.34079510  0.95093582  0.60926582  1
  Cu  Cu24  1  0.24600071  0.23206360  0.31261013  1
  Cu  Cu25  1  0.25399929  0.26793640  0.81261013  1
  Cu  Cu26  1  0.75399929  0.76793640  0.68738987  1
  Cu  Cu27  1  0.74600071  0.73206360  0.18738987  1
  Cu  Cu28  1  0.24732715  0.05091846  0.17036520  1
  Cu  Cu29  1  0.25267285  0.44908154  0.67036520  1
  Cu  Cu30  1  0.75267285  0.94908154  0.82963480  1
  Cu  Cu31  1  0.74732715  0.55091846  0.32963480  1
  C  C32  1  0.79162062  0.20010785  0.09928958  1
  C  C33  1  0.70837938  0.29989215  0.59928958  1
  C  C34  1  0.20837938  0.79989215  0.90071042  1
  C  C35  1  0.29162062  0.70010785  0.40071042  1
  C  C36  1  0.48359731  0.17918887  0.97724714  1
  C  C37  1  0.01640269  0.32081113  0.47724714  1
  C  C38  1  0.51640269  0.82081113  0.02275286  1
  C  C39  1  0.98359731  0.67918887  0.52275286  1
  C  C40  1  0.56425315  0.34173167  0.09771060  1
  C  C41  1  0.93574685  0.15826833  0.59771060  1
  C  C42  1  0.43574685  0.65826833  0.90228940  1
  C  C43  1  0.06425315  0.84173167  0.40228940  1
  C  C44  1  0.82736787  0.32521537  0.94122148  1
  C  C45  1  0.67263213  0.17478463  0.44122148  1
  C  C46  1  0.17263213  0.67478463  0.05877852  1
  C  C47  1  0.32736787  0.82521537  0.55877852  1
  C  C48  1  0.67759254  0.51350564  0.94675725  1
  C  C49  1  0.82240746  0.98649436  0.44675725  1
  C  C50  1  0.32240746  0.48649436  0.05324275  1
  C  C51  1  0.17759254  0.01350564  0.55324275  1
  C  C52  1  0.77668727  0.42644337  0.77798538  1
  C  C53  1  0.72331273  0.07355663  0.27798538  1
  C  C54  1  0.22331273  0.57355663  0.22201462  1
  C  C55  1  0.27668727  0.92644337  0.72201462  1
  C  C56  1  0.06513066  0.51675026  0.89247367  1
  C  C57  1  0.43486934  0.98324974  0.39247367  1
  C  C58  1  0.93486934  0.48324974  0.10752633  1
  C  C59  1  0.56513066  0.01675026  0.60752633  1
  C  C60  1  0.10402915  0.30081534  0.25712260  1
  C  C61  1  0.39597085  0.19918466  0.75712260  1
  C  C62  1  0.89597085  0.69918466  0.74287740  1
  C  C63  1  0.60402915  0.80081534  0.24287740  1
  C  C64  1  0.41310256  0.31058254  0.37510902  1
  C  C65  1  0.08689744  0.18941746  0.87510902  1
  C  C66  1  0.58689744  0.68941746  0.62489098  1
  C  C67  1  0.91310256  0.81058254  0.12489098  1
  C  C68  1  0.14294459  0.14323543  0.39112000  1
  C  C69  1  0.35705541  0.35676457  0.89112000  1
  C  C70  1  0.85705541  0.85676457  0.60888000  1
  C  C71  1  0.64294459  0.64323543  0.10888000  1
  C  C72  1  0.36215376  0.17200377  0.22127634  1
  C  C73  1  0.13784624  0.32799623  0.72127634  1
  C  C74  1  0.63784624  0.82799623  0.77872366  1
  C  C75  1  0.86215376  0.67200377  0.27872366  1
  C  C76  1  0.11539679  0.07735797  0.07647866  1
  C  C77  1  0.38460321  0.42264203  0.57647866  1
  C  C78  1  0.88460321  0.92264203  0.92352134  1
  C  C79  1  0.61539679  0.57735797  0.42352134  1
  C  C80  1  0.39160358  0.97631927  0.13127224  1
  C  C81  1  0.10839642  0.52368073  0.63127224  1
  C  C82  1  0.60839642  0.02368073  0.86872776  1
  C  C83  1  0.89160358  0.47631927  0.36872776  1
  C  C84  1  0.10216721  0.98426771  0.25237064  1
  C  C85  1  0.39783279  0.51573229  0.75237064  1
  C  C86  1  0.89783279  0.01573229  0.74762936  1
  C  C87  1  0.60216721  0.48426771  0.24762936  1
