# generated using pymatgen
data_Cu6NiC17
_symmetry_space_group_name_H-M   'P 1'
_cell_length_a   8.68795497
_cell_length_b   9.20054185
_cell_length_c   16.06728662
_cell_angle_alpha   90.01299124
_cell_angle_beta   90.01193669
_cell_angle_gamma   92.63419754
_symmetry_Int_Tables_number   1
_chemical_formula_structural   Cu6NiC17
_chemical_formula_sum   'Cu24 Ni4 C68'
_cell_volume   1282.96358937
_cell_formula_units_Z   4
loop_
 _symmetry_equiv_pos_site_id
 _symmetry_equiv_pos_as_xyz
  1  'x, y, z'
loop_
 _atom_site_type_symbol
 _atom_site_label
 _atom_site_symmetry_multiplicity
 _atom_site_fract_x
 _atom_site_fract_y
 _atom_site_fract_z
 _atom_site_occupancy
  Ni  Ni0  1  0.67959737  0.56044002  0.39611528  1
  Ni  Ni1  1  0.32039296  0.43959167  0.60393285  1
  Ni  Ni2  1  0.82033123  0.93960747  0.89608295  1
  Ni  Ni3  1  0.17970149  0.06044344  0.10390955  1
  Cu  Cu4  1  0.14135588  0.69609087  0.17752351  1
  Cu  Cu5  1  0.85863009  0.30387822  0.82243639  1
  Cu  Cu6  1  0.35885279  0.80379942  0.67758541  1
  Cu  Cu7  1  0.64143720  0.19618429  0.32256131  1
  Cu  Cu8  1  0.95893562  0.95010102  0.67563588  1
  Cu  Cu9  1  0.04110789  0.05001977  0.32440106  1
  Cu  Cu10  1  0.54094567  0.54989801  0.17566413  1
  Cu  Cu11  1  0.45905463  0.44991841  0.82432340  1
  Cu  Cu12  1  0.73040610  0.57664128  0.64448358  1
  Cu  Cu13  1  0.26949214  0.42329735  0.35557206  1
  Cu  Cu14  1  0.76948875  0.92322930  0.14443638  1
  Cu  Cu15  1  0.23053046  0.07682761  0.85556446  1
  Cu  Cu16  1  0.05295392  0.71501081  0.48658959  1
  Cu  Cu17  1  0.94712682  0.28488569  0.51344044  1
  Cu  Cu18  1  0.44705615  0.78496309  0.98652823  1
  Cu  Cu19  1  0.55284397  0.21499884  0.01339741  1
  Cu  Cu20  1  0.70074950  0.93520428  0.49550254  1
  Cu  Cu21  1  0.29932588  0.06484771  0.50450631  1
  Cu  Cu22  1  0.79921021  0.56472764  0.99542673  1
  Cu  Cu23  1  0.20076969  0.43514650  0.00444973  1
  Cu  Cu24  1  0.42235478  0.83147439  0.33469520  1
  Cu  Cu25  1  0.57762867  0.16846084  0.66537125  1
  Cu  Cu26  1  0.07756694  0.66825238  0.83470649  1
  Cu  Cu27  1  0.92253699  0.33179278  0.16523151  1
  C  C28  1  0.42976831  0.97298979  0.17323897  1
  C  C29  1  0.57020830  0.02702050  0.82670533  1
  C  C30  1  0.07020084  0.52705972  0.67333105  1
  C  C31  1  0.92996804  0.47301836  0.32671791  1
  C  C32  1  0.06378097  0.85534854  0.00068607  1
  C  C33  1  0.93613475  0.14461975  0.99926301  1
  C  C34  1  0.43610602  0.64461206  0.50071918  1
  C  C35  1  0.56387387  0.35535719  0.49935676  1
  C  C36  1  0.82017602  0.77901111  0.30682714  1
  C  C37  1  0.17989241  0.22101837  0.69323542  1
  C  C38  1  0.67986620  0.72097559  0.80682407  1
  C  C39  1  0.32010593  0.27900473  0.19313643  1
  C  C40  1  0.93688832  0.82213886  0.25034117  1
  C  C41  1  0.06315706  0.17786275  0.74964378  1
  C  C42  1  0.56308205  0.67790424  0.75034079  1
  C  C43  1  0.43692572  0.32207927  0.24967698  1
  C  C44  1  0.70493960  0.40277266  0.53249016  1
  C  C45  1  0.29506180  0.59722630  0.46752192  1
  C  C46  1  0.79499610  0.09715300  0.03252038  1
  C  C47  1  0.20507336  0.90283920  0.96748545  1
  C  C48  1  0.84415775  0.78104000  0.57897360  1
  C  C49  1  0.15584943  0.21890713  0.42103927  1
  C  C50  1  0.65583560  0.71908413  0.07899499  1
  C  C51  1  0.34412304  0.28102403  0.92099727  1
  C  C52  1  0.03113245  0.88208777  0.08318397  1
  C  C53  1  0.96883882  0.11791762  0.91681737  1
  C  C54  1  0.46877902  0.61791113  0.58316074  1
  C  C55  1  0.53122609  0.38204975  0.41681862  1
  C  C56  1  0.46416439  0.99013905  0.09001850  1
  C  C57  1  0.53582429  0.00983262  0.90997557  1
  C  C58  1  0.03586296  0.50985644  0.59002960  1
  C  C59  1  0.96409668  0.49014435  0.40995864  1
  C  C60  1  0.28680433  0.92581223  0.20340014  1
  C  C61  1  0.71317386  0.07421080  0.79661295  1
  C  C62  1  0.21313161  0.57419529  0.70335145  1
  C  C63  1  0.78676494  0.42571777  0.29661659  1
  C  C64  1  0.45717335  0.28209211  0.54981527  1
  C  C65  1  0.54287728  0.71797135  0.45015185  1
  C  C66  1  0.04286286  0.21797332  0.04987569  1
  C  C67  1  0.95719588  0.78210688  0.95017474  1
  C  C68  1  0.19322252  0.89757265  0.40209748  1
  C  C69  1  0.80673445  0.10242632  0.59790584  1
  C  C70  1  0.30674095  0.60254231  0.90211056  1
  C  C71  1  0.69328572  0.39750989  0.09793327  1
  C  C72  1  0.00892651  0.53269015  0.08924783  1
  C  C73  1  0.99115696  0.46733186  0.91076250  1
  C  C74  1  0.49106066  0.96734744  0.58923844  1
  C  C75  1  0.50887629  0.03273098  0.41070776  1
  C  C76  1  0.16341140  0.87555163  0.58575474  1
  C  C77  1  0.83655058  0.12442865  0.41417961  1
  C  C78  1  0.33664120  0.62444344  0.08576715  1
  C  C79  1  0.66329741  0.37563488  0.91417274  1
  C  C80  1  0.15323535  0.87679312  0.76827493  1
  C  C81  1  0.84669475  0.12312942  0.23172698  1
  C  C82  1  0.34681749  0.62328515  0.26829126  1
  C  C83  1  0.65319737  0.37674850  0.73166557  1
  C  C84  1  0.82110098  0.76995365  0.77611139  1
  C  C85  1  0.17881833  0.23000126  0.22393201  1
  C  C86  1  0.67887778  0.73005187  0.27609406  1
  C  C87  1  0.32103139  0.26998801  0.72389928  1
  C  C88  1  0.85013108  0.79862395  0.39064668  1
  C  C89  1  0.14981591  0.20138499  0.60935039  1
  C  C90  1  0.64977039  0.70139956  0.89066339  1
  C  C91  1  0.35019983  0.29861578  0.10933690  1
  C  C92  1  0.54717055  0.99667788  0.23094704  1
  C  C93  1  0.45283505  0.00334051  0.76905324  1
  C  C94  1  0.95286559  0.50334631  0.73096690  1
  C  C95  1  0.04706944  0.49663099  0.26905964  1
