# generated using pymatgen
data_Cu2NiC33
_symmetry_space_group_name_H-M   'P 1'
_cell_length_a   8.52010519
_cell_length_b   8.52010519
_cell_length_c   8.52010481
_cell_angle_alpha   60.95679372
_cell_angle_beta   60.95679372
_cell_angle_gamma   60.95679410
_symmetry_Int_Tables_number   1
_chemical_formula_structural   Cu2NiC33
_chemical_formula_sum   'Cu2 Ni1 C33'
_cell_volume   446.76882718
_cell_formula_units_Z   1
loop_
 _symmetry_equiv_pos_site_id
 _symmetry_equiv_pos_as_xyz
  1  'x, y, z'
loop_
 _atom_site_type_symbol
 _atom_site_label
 _atom_site_symmetry_multiplicity
 _atom_site_fract_x
 _atom_site_fract_y
 _atom_site_fract_z
 _atom_site_occupancy
  C  C0  1  0.64478300  0.64478300  0.64478300  1
  C  C1  1  0.85654800  0.85654800  0.85654800  1
  C  C2  1  0.35475000  0.35475000  0.35475000  1
  Ni  Ni3  1  0.14097300  0.14097300  0.14097300  1
  Cu  Cu4  1  0.00054600  0.00054600  0.00054600  1
  Cu  Cu5  1  0.50096800  0.50096800  0.50096800  1
  C  C6  1  0.95337700  0.24914800  0.54594600  1
  C  C7  1  0.54594600  0.95337700  0.24914800  1
  C  C8  1  0.24914800  0.54594600  0.95337700  1
  C  C9  1  0.74837800  0.45489400  0.04628100  1
  C  C10  1  0.45489400  0.04628100  0.74837800  1
  C  C11  1  0.04628100  0.74837800  0.45489400  1
  C  C12  1  0.49875300  0.11668100  0.31647000  1
  C  C13  1  0.31647000  0.49875300  0.11668100  1
  C  C14  1  0.11668100  0.31647000  0.49875300  1
  C  C15  1  0.94139900  0.09035200  0.74495300  1
  C  C16  1  0.98900400  0.18424300  0.39312000  1
  C  C17  1  0.75655300  0.41207500  0.56584300  1
  C  C18  1  0.74495300  0.94139900  0.09035200  1
  C  C19  1  0.56584300  0.75655300  0.41207500  1
  C  C20  1  0.81616900  0.61665400  0.99864800  1
  C  C21  1  0.41207500  0.56584300  0.75655300  1
  C  C22  1  0.90225500  0.25948900  0.05485600  1
  C  C23  1  0.61665400  0.99864800  0.81616900  1
  C  C24  1  0.39312000  0.98900400  0.18424300  1
  C  C25  1  0.09035200  0.74495300  0.94139900  1
  C  C26  1  0.58690900  0.44595200  0.24220800  1
  C  C27  1  0.18424300  0.39312000  0.98900400  1
  C  C28  1  0.44595200  0.24220800  0.58690900  1
  C  C29  1  0.25948900  0.05485600  0.90225500  1
  C  C30  1  0.24220800  0.58690900  0.44595200  1
  C  C31  1  0.99864800  0.81616900  0.61665400  1
  C  C32  1  0.05485600  0.90225500  0.25948900  1
  C  C33  1  0.88596300  0.67617500  0.50869500  1
  C  C34  1  0.67617500  0.50869500  0.88596300  1
  C  C35  1  0.50869500  0.88596300  0.67617500  1
