# generated using pymatgen
data_Cu2NiC16
_symmetry_space_group_name_H-M   'P 1'
_cell_length_a   9.98464263
_cell_length_b   9.98464263
_cell_length_c   9.98464264
_cell_angle_alpha   33.72932630
_cell_angle_beta   33.72932630
_cell_angle_gamma   33.72932711
_symmetry_Int_Tables_number   1
_chemical_formula_structural   Cu2NiC16
_chemical_formula_sum   'Cu2 Ni1 C16'
_cell_volume   273.44649469
_cell_formula_units_Z   1
loop_
 _symmetry_equiv_pos_site_id
 _symmetry_equiv_pos_as_xyz
  1  'x, y, z'
loop_
 _atom_site_type_symbol
 _atom_site_label
 _atom_site_symmetry_multiplicity
 _atom_site_fract_x
 _atom_site_fract_y
 _atom_site_fract_z
 _atom_site_occupancy
  C  C0  1  0.70797700  0.70797700  0.70797700  1
  C  C1  1  0.29202300  0.29202300  0.29202300  1
  C  C2  1  0.86993400  0.86993400  0.86993400  1
  C  C3  1  0.13006600  0.13006600  0.13006600  1
  Ni  Ni4  1  0.00000000  0.00000000  0.00000000  1
  Cu  Cu5  1  0.58088400  0.58088400  0.58088400  1
  Cu  Cu6  1  0.41911600  0.41911600  0.41911600  1
  C  C7  1  0.21969500  0.69193000  0.21969500  1
  C  C8  1  0.21969500  0.21969500  0.69193000  1
  C  C9  1  0.69193000  0.21969500  0.21969500  1
  C  C10  1  0.78030500  0.30807000  0.78030500  1
  C  C11  1  0.78030500  0.78030500  0.30807000  1
  C  C12  1  0.30807000  0.78030500  0.78030500  1
  C  C13  1  0.38957800  0.85805400  0.38957800  1
  C  C14  1  0.38957800  0.38957800  0.85805400  1
  C  C15  1  0.85805400  0.38957800  0.38957800  1
  C  C16  1  0.61042200  0.14194600  0.61042200  1
  C  C17  1  0.61042200  0.61042200  0.14194600  1
  C  C18  1  0.14194600  0.61042200  0.61042200  1
