# generated using pymatgen
data_CuNiC11
_symmetry_space_group_name_H-M   'P 1'
_cell_length_a   14.85955200
_cell_length_b   6.32271000
_cell_length_c   11.77445301
_cell_angle_alpha   66.68204815
_cell_angle_beta   90.00000000
_cell_angle_gamma   90.00000000
_symmetry_Int_Tables_number   1
_chemical_formula_structural   CuNiC11
_chemical_formula_sum   'Cu4 Ni4 C44'
_cell_volume   1015.88582310
_cell_formula_units_Z   4
loop_
 _symmetry_equiv_pos_site_id
 _symmetry_equiv_pos_as_xyz
  1  'x, y, z'
loop_
 _atom_site_type_symbol
 _atom_site_label
 _atom_site_symmetry_multiplicity
 _atom_site_fract_x
 _atom_site_fract_y
 _atom_site_fract_z
 _atom_site_occupancy
  Ni  Ni0  1  0.00000000  0.50000000  0.50000000  1
  Ni  Ni1  1  0.50000000  0.50000000  0.00000000  1
  Ni  Ni2  1  0.00000000  0.50000000  0.00000000  1
  Ni  Ni3  1  0.50000000  0.50000000  0.50000000  1
  Cu  Cu4  1  0.73923500  0.79137000  0.21825000  1
  Cu  Cu5  1  0.76076500  0.79137000  0.71825000  1
  Cu  Cu6  1  0.26076500  0.20863000  0.78175000  1
  Cu  Cu7  1  0.23923500  0.20863000  0.28175000  1
  C  C8  1  0.67127900  0.14272500  0.06299500  1
  C  C9  1  0.82872100  0.14272500  0.56299500  1
  C  C10  1  0.32872100  0.85727500  0.93700500  1
  C  C11  1  0.17127900  0.85727500  0.43700500  1
  C  C12  1  0.06794900  0.86446400  0.11959700  1
  C  C13  1  0.43205100  0.86446400  0.61959700  1
  C  C14  1  0.93205100  0.13553600  0.88040300  1
  C  C15  1  0.56794900  0.13553600  0.38040300  1
  C  C16  1  0.76967000  0.44429700  0.21153900  1
  C  C17  1  0.73033000  0.44429700  0.71153900  1
  C  C18  1  0.23033000  0.55570300  0.78846100  1
  C  C19  1  0.26967000  0.55570300  0.28846100  1
  C  C20  1  0.82677700  0.89318800  0.36372500  1
  C  C21  1  0.67322300  0.89318800  0.86372500  1
  C  C22  1  0.17322300  0.10681200  0.63627500  1
  C  C23  1  0.32677700  0.10681200  0.13627500  1
  C  C24  1  0.06471400  0.80261000  0.38475400  1
  C  C25  1  0.43528600  0.80261000  0.88475400  1
  C  C26  1  0.93528600  0.19739000  0.61524600  1
  C  C27  1  0.56471400  0.19739000  0.11524600  1
  C  C28  1  0.87266800  0.62790500  0.46744900  1
  C  C29  1  0.62733200  0.62790500  0.96744900  1
  C  C30  1  0.12733200  0.37209500  0.53255100  1
  C  C31  1  0.37266800  0.37209500  0.03255100  1
  C  C32  1  0.98594300  0.48459300  0.30779000  1
  C  C33  1  0.51405700  0.48459300  0.80779000  1
  C  C34  1  0.01405700  0.51540700  0.69221000  1
  C  C35  1  0.48594300  0.51540700  0.19221000  1
  C  C36  1  0.90037400  0.31743500  0.95176800  1
  C  C37  1  0.59962600  0.31743500  0.45176800  1
  C  C38  1  0.09962600  0.68256500  0.04823200  1
  C  C39  1  0.40037400  0.68256500  0.54823200  1
  C  C40  1  0.90951100  0.86101200  0.98669100  1
  C  C41  1  0.59048900  0.86101200  0.48669100  1
  C  C42  1  0.09048900  0.13898800  0.01330900  1
  C  C43  1  0.40951100  0.13898800  0.51330900  1
  C  C44  1  0.98201200  0.28120800  0.18503900  1
  C  C45  1  0.51798800  0.28120800  0.68503900  1
  C  C46  1  0.01798800  0.71879200  0.81496100  1
  C  C47  1  0.48201200  0.71879200  0.31496100  1
  C  C48  1  0.99844900  0.28265100  0.29781200  1
  C  C49  1  0.50155100  0.28265100  0.79781200  1
  C  C50  1  0.00155100  0.71734900  0.70218800  1
  C  C51  1  0.49844900  0.71734900  0.20218800  1
