# generated using pymatgen
data_CuNiC12
_symmetry_space_group_name_H-M   'P 1'
_cell_length_a   6.29233500
_cell_length_b   7.30655300
_cell_length_c   14.16946400
_cell_angle_alpha   90.00000000
_cell_angle_beta   90.00000000
_cell_angle_gamma   90.00000000
_symmetry_Int_Tables_number   1
_chemical_formula_structural   CuNiC12
_chemical_formula_sum   'Cu4 Ni4 C48'
_cell_volume   651.44506311
_cell_formula_units_Z   4
loop_
 _symmetry_equiv_pos_site_id
 _symmetry_equiv_pos_as_xyz
  1  'x, y, z'
loop_
 _atom_site_type_symbol
 _atom_site_label
 _atom_site_symmetry_multiplicity
 _atom_site_fract_x
 _atom_site_fract_y
 _atom_site_fract_z
 _atom_site_occupancy
  Ni  Ni0  1  0.25000000  0.88944800  0.77578300  1
  Ni  Ni1  1  0.25000000  0.61055200  0.27578300  1
  Ni  Ni2  1  0.75000000  0.11055200  0.22421700  1
  Ni  Ni3  1  0.75000000  0.38944800  0.72421700  1
  C  C4  1  0.25000000  0.34655500  0.88196400  1
  C  C5  1  0.75000000  0.65344500  0.11803600  1
  C  C6  1  0.75000000  0.84655500  0.61803600  1
  C  C7  1  0.25000000  0.15344500  0.38196400  1
  Cu  Cu8  1  0.00000000  0.00000000  0.00000000  1
  Cu  Cu9  1  0.00000000  0.50000000  0.50000000  1
  Cu  Cu10  1  0.50000000  0.50000000  0.50000000  1
  Cu  Cu11  1  0.50000000  0.00000000  0.00000000  1
  C  C12  1  0.75000000  0.35461800  0.93198400  1
  C  C13  1  0.25000000  0.64538200  0.06801600  1
  C  C14  1  0.25000000  0.85461800  0.56801600  1
  C  C15  1  0.75000000  0.14538200  0.43198400  1
  C  C16  1  0.25000000  0.38335400  0.69523300  1
  C  C17  1  0.75000000  0.61664600  0.30476700  1
  C  C18  1  0.75000000  0.88335400  0.80476700  1
  C  C19  1  0.25000000  0.11664600  0.19523300  1
  C  C20  1  0.53920900  0.60901000  0.36113100  1
  C  C21  1  0.03920900  0.39099000  0.63886900  1
  C  C22  1  0.46079100  0.10901000  0.13886900  1
  C  C23  1  0.96079100  0.89099000  0.86113100  1
  C  C24  1  0.46079100  0.39099000  0.63886900  1
  C  C25  1  0.96079100  0.60901000  0.36113100  1
  C  C26  1  0.53920900  0.89099000  0.86113100  1
  C  C27  1  0.03920900  0.10901000  0.13886900  1
  C  C28  1  0.75000000  0.33285200  0.47873500  1
  C  C29  1  0.25000000  0.66714800  0.52126500  1
  C  C30  1  0.25000000  0.83285200  0.02126500  1
  C  C31  1  0.75000000  0.16714800  0.97873500  1
  C  C32  1  0.25000000  0.14469300  0.94366500  1
  C  C33  1  0.75000000  0.85530700  0.05633500  1
  C  C34  1  0.75000000  0.64469300  0.55633500  1
  C  C35  1  0.25000000  0.35530700  0.44366500  1
  C  C36  1  0.25000000  0.20441900  0.75716100  1
  C  C37  1  0.75000000  0.79558100  0.24283900  1
  C  C38  1  0.75000000  0.70441900  0.74283900  1
  C  C39  1  0.25000000  0.29558100  0.25716100  1
  C  C40  1  0.93733900  0.12610400  0.36116300  1
  C  C41  1  0.43733900  0.87389600  0.63883700  1
  C  C42  1  0.06266100  0.62610400  0.13883700  1
  C  C43  1  0.56266100  0.37389600  0.86116300  1
  C  C44  1  0.06266100  0.87389600  0.63883700  1
  C  C45  1  0.56266100  0.12610400  0.36116300  1
  C  C46  1  0.93733900  0.37389600  0.86116300  1
  C  C47  1  0.43733900  0.62610400  0.13883700  1
  C  C48  1  0.25000000  0.95829700  0.27115500  1
  C  C49  1  0.75000000  0.04170300  0.72884500  1
  C  C50  1  0.75000000  0.45829700  0.22884500  1
  C  C51  1  0.25000000  0.54170300  0.77115500  1
  C  C52  1  0.25000000  0.99712400  0.49093800  1
  C  C53  1  0.75000000  0.00287600  0.50906200  1
  C  C54  1  0.75000000  0.49712400  0.00906200  1
  C  C55  1  0.25000000  0.50287600  0.99093800  1
