# generated using pymatgen
data_Cu4Ni7
_symmetry_space_group_name_H-M   'P 1'
_cell_length_a   5.77020300
_cell_length_b   5.77020300
_cell_length_c   18.17889500
_cell_angle_alpha   90.00000000
_cell_angle_beta   90.00000000
_cell_angle_gamma   90.00000000
_symmetry_Int_Tables_number   1
_chemical_formula_structural   Cu4Ni7
_chemical_formula_sum   'Cu16 Ni28'
_cell_volume   605.27072034
_cell_formula_units_Z   4
loop_
 _symmetry_equiv_pos_site_id
 _symmetry_equiv_pos_as_xyz
  1  'x, y, z'
loop_
 _atom_site_type_symbol
 _atom_site_label
 _atom_site_symmetry_multiplicity
 _atom_site_fract_x
 _atom_site_fract_y
 _atom_site_fract_z
 _atom_site_occupancy
  Ni  Ni0  1  0.19368800  0.15072600  0.38561600  1
  Ni  Ni1  1  0.80631200  0.84927400  0.38561600  1
  Ni  Ni2  1  0.19368800  0.84927400  0.88561600  1
  Ni  Ni3  1  0.80631200  0.15072600  0.88561600  1
  Ni  Ni4  1  0.15072600  0.80631200  0.61438400  1
  Ni  Ni5  1  0.84927400  0.19368800  0.61438400  1
  Ni  Ni6  1  0.84927400  0.80631200  0.11438400  1
  Ni  Ni7  1  0.15072600  0.19368800  0.11438400  1
  Ni  Ni8  1  0.84697000  0.32802000  0.31652700  1
  Ni  Ni9  1  0.15303000  0.67198000  0.31652700  1
  Ni  Ni10  1  0.84697000  0.67198000  0.81652700  1
  Ni  Ni11  1  0.15303000  0.32802000  0.81652700  1
  Ni  Ni12  1  0.32802000  0.15303000  0.68347300  1
  Ni  Ni13  1  0.67198000  0.84697000  0.68347300  1
  Ni  Ni14  1  0.67198000  0.15303000  0.18347300  1
  Ni  Ni15  1  0.32802000  0.84697000  0.18347300  1
  Ni  Ni16  1  0.34017500  0.34017500  0.25000000  1
  Ni  Ni17  1  0.65982500  0.65982500  0.25000000  1
  Ni  Ni18  1  0.34017500  0.65982500  0.75000000  1
  Ni  Ni19  1  0.65982500  0.34017500  0.75000000  1
  Ni  Ni20  1  0.22864000  0.34852800  0.53963900  1
  Ni  Ni21  1  0.77136000  0.65147200  0.53963900  1
  Ni  Ni22  1  0.22864000  0.65147200  0.03963900  1
  Ni  Ni23  1  0.77136000  0.34852800  0.03963900  1
  Ni  Ni24  1  0.34852800  0.77136000  0.46036100  1
  Ni  Ni25  1  0.65147200  0.22864000  0.46036100  1
  Ni  Ni26  1  0.65147200  0.77136000  0.96036100  1
  Ni  Ni27  1  0.34852800  0.22864000  0.96036100  1
  Cu  Cu28  1  0.00000000  0.00000000  0.50000000  1
  Cu  Cu29  1  0.00000000  0.00000000  0.00000000  1
  Cu  Cu30  1  0.00000000  0.50000000  0.43518900  1
  Cu  Cu31  1  0.00000000  0.50000000  0.93518900  1
  Cu  Cu32  1  0.50000000  0.00000000  0.56481100  1
  Cu  Cu33  1  0.50000000  0.00000000  0.06481100  1
  Cu  Cu34  1  0.50000000  0.50000000  0.36963600  1
  Cu  Cu35  1  0.50000000  0.50000000  0.86963600  1
  Cu  Cu36  1  0.50000000  0.50000000  0.63036400  1
  Cu  Cu37  1  0.50000000  0.50000000  0.13036400  1
  Cu  Cu38  1  0.50000000  0.00000000  0.30752600  1
  Cu  Cu39  1  0.50000000  0.00000000  0.80752600  1
  Cu  Cu40  1  0.00000000  0.50000000  0.69247400  1
  Cu  Cu41  1  0.00000000  0.50000000  0.19247400  1
  Cu  Cu42  1  0.00000000  0.00000000  0.25000000  1
  Cu  Cu43  1  0.00000000  0.00000000  0.75000000  1
