# generated using pymatgen
data_Cu2Ni2C7
_symmetry_space_group_name_H-M   'P 1'
_cell_length_a   10.01838519
_cell_length_b   10.92610207
_cell_length_c   16.67099391
_cell_angle_alpha   110.06241521
_cell_angle_beta   77.08553793
_cell_angle_gamma   111.95189911
_symmetry_Int_Tables_number   1
_chemical_formula_structural   Cu2Ni2C7
_chemical_formula_sum   'Cu8 Ni8 C28'
_cell_volume   1580.29881663
_cell_formula_units_Z   4
loop_
 _symmetry_equiv_pos_site_id
 _symmetry_equiv_pos_as_xyz
  1  'x, y, z'
loop_
 _atom_site_type_symbol
 _atom_site_label
 _atom_site_symmetry_multiplicity
 _atom_site_fract_x
 _atom_site_fract_y
 _atom_site_fract_z
 _atom_site_occupancy
  C  C0  1  0.04268145  0.71099354  0.51032191  1
  C  C1  1  0.95731855  0.28900646  0.48967809  1
  C  C2  1  0.43531492  0.27536060  0.03009645  1
  C  C3  1  0.56468508  0.72463940  0.96990355  1
  C  C4  1  0.62188833  0.87250141  0.43010892  1
  C  C5  1  0.37811167  0.12749859  0.56989108  1
  C  C6  1  0.76478891  0.23214178  0.93123649  1
  C  C7  1  0.23521109  0.76785822  0.06876351  1
  C  C8  1  0.73924684  0.70235482  0.62396091  1
  C  C9  1  0.26075316  0.29764518  0.37603909  1
  C  C10  1  0.73218399  0.29229400  0.09562908  1
  C  C11  1  0.26781601  0.70770600  0.90437092  1
  C  C12  1  0.24427094  0.68571970  0.82738488  1
  C  C13  1  0.75572906  0.31428030  0.17261512  1
  C  C14  1  0.32812873  0.31973525  0.30745779  1
  C  C15  1  0.67187127  0.68026475  0.69254221  1
  C  C16  1  0.04186270  0.89998341  0.69845490  1
  C  C17  1  0.95813730  0.10001659  0.30154510  1
  C  C18  1  0.40763333  0.35407678  0.14538824  1
  C  C19  1  0.59236667  0.64592322  0.85461176  1
  Ni  Ni20  1  0.81835217  0.72646018  0.53093830  1
  Ni  Ni21  1  0.18164783  0.27353982  0.46906170  1
  Ni  Ni22  1  0.68878109  0.33772240  0.02506002  1
  Ni  Ni23  1  0.31121891  0.66227760  0.97493998  1
  Ni  Ni24  1  0.07594822  0.75853237  0.65512946  1
  Ni  Ni25  1  0.92405178  0.24146763  0.34487054  1
  Ni  Ni26  1  0.45431918  0.31993005  0.22478447  1
  Ni  Ni27  1  0.54568082  0.68006995  0.77521553  1
  Cu  Cu28  1  0.26948933  0.65937211  0.47246925  1
  Cu  Cu29  1  0.73051067  0.34062789  0.52753075  1
  Cu  Cu30  1  0.24201645  0.11006771  0.94927352  1
  Cu  Cu31  1  0.75798355  0.88993229  0.05072648  1
  Cu  Cu32  1  0.02275705  0.66181076  0.35813485  1
  Cu  Cu33  1  0.97724295  0.33818924  0.64186515  1
  Cu  Cu34  1  0.64637399  0.13811520  0.84273944  1
  Cu  Cu35  1  0.35362601  0.86188480  0.15726056  1
  C  C36  1  0.64089083  0.95548832  0.49454528  1
  C  C37  1  0.35910917  0.04451168  0.50545472  1
  C  C38  1  0.76681064  0.47638197  0.01492084  1
  C  C39  1  0.23318936  0.52361803  0.98507916  1
  C  C40  1  0.01777678  0.00310824  0.73402331  1
  C  C41  1  0.98222322  0.99689176  0.26597669  1
  C  C42  1  0.77544482  0.32710504  0.24317759  1
  C  C43  1  0.22455518  0.67289496  0.75682241  1
