# generated using pymatgen
data_Cu6Ni3C4
_symmetry_space_group_name_H-M   'P 1'
_cell_length_a   3.70391600
_cell_length_b   4.68142336
_cell_length_c   47.45330470
_cell_angle_alpha   91.41874027
_cell_angle_beta   90.00000000
_cell_angle_gamma   90.00000000
_symmetry_Int_Tables_number   1
_chemical_formula_structural   Cu6Ni3C4
_chemical_formula_sum   'Cu24 Ni12 C16'
_cell_volume   822.56903022
_cell_formula_units_Z   4
loop_
 _symmetry_equiv_pos_site_id
 _symmetry_equiv_pos_as_xyz
  1  'x, y, z'
loop_
 _atom_site_type_symbol
 _atom_site_label
 _atom_site_symmetry_multiplicity
 _atom_site_fract_x
 _atom_site_fract_y
 _atom_site_fract_z
 _atom_site_occupancy
  C  C0  1  0.25000000  0.09931500  0.04204100  1
  C  C1  1  0.25000000  0.17198700  0.16325500  1
  C  C2  1  0.25000000  0.19328700  0.27926500  1
  C  C3  1  0.25000000  0.21481400  0.39556000  1
  C  C4  1  0.25000000  0.24879700  0.51144400  1
  C  C5  1  0.25000000  0.29232200  0.63326100  1
  C  C6  1  0.25000000  0.34362900  0.77910300  1
  C  C7  1  0.25000000  0.13554400  0.91039800  1
  C  C8  1  0.75000000  0.65983100  0.11703500  1
  C  C9  1  0.75000000  0.70535900  0.34936400  1
  C  C10  1  0.75000000  0.68611000  0.23312600  1
  C  C11  1  0.75000000  0.73321100  0.46553600  1
  C  C12  1  0.75000000  0.76605300  0.58086800  1
  C  C13  1  0.75000000  0.81605600  0.72687400  1
  C  C14  1  0.75000000  0.72584800  0.85141000  1
  C  C15  1  0.75000000  0.66771000  0.98024500  1
  Ni  Ni16  1  0.25000000  0.76669000  0.00906100  1
  Ni  Ni17  1  0.25000000  0.66637900  0.14264800  1
  Ni  Ni18  1  0.25000000  0.69178200  0.25898100  1
  Ni  Ni19  1  0.25000000  0.70961100  0.37524800  1
  Ni  Ni20  1  0.25000000  0.73916800  0.49139300  1
  Ni  Ni21  1  0.25000000  0.67609700  0.60329000  1
  Ni  Ni22  1  0.25000000  0.71631400  0.75015500  1
  Ni  Ni23  1  0.25000000  0.88463800  0.86707300  1
  Ni  Ni24  1  0.75000000  0.16386200  0.13476900  1
  Ni  Ni25  1  0.75000000  0.18830800  0.25035200  1
  Ni  Ni26  1  0.75000000  0.20761800  0.36665400  1
  Ni  Ni27  1  0.75000000  0.23784000  0.48258600  1
  Cu  Cu28  1  0.25000000  0.80139400  0.94901100  1
  Cu  Cu29  1  0.75000000  0.35934500  0.08050900  1
  Cu  Cu30  1  0.75000000  0.86617500  0.06488300  1
  Cu  Cu31  1  0.75000000  0.42871300  0.19073000  1
  Cu  Cu32  1  0.75000000  0.44583000  0.30706400  1
  Cu  Cu33  1  0.75000000  0.59377600  0.79844900  1
  Cu  Cu34  1  0.75000000  0.93389500  0.19134500  1
  Cu  Cu35  1  0.75000000  0.95151600  0.30736100  1
  Cu  Cu36  1  0.75000000  0.46708700  0.42361100  1
  Cu  Cu37  1  0.75000000  0.50539500  0.53884300  1
  Cu  Cu38  1  0.75000000  0.15973000  0.82553900  1
  Cu  Cu39  1  0.75000000  0.47897500  0.65503500  1
  Cu  Cu40  1  0.75000000  0.97289400  0.42337400  1
  Cu  Cu41  1  0.75000000  0.01101100  0.53923500  1
  Cu  Cu42  1  0.75000000  0.06469900  0.77312800  1
  Cu  Cu43  1  0.75000000  0.98641700  0.68597700  1
  Cu  Cu44  1  0.75000000  0.26976700  0.59130200  1
  Cu  Cu45  1  0.75000000  0.32453000  0.73142500  1
  Cu  Cu46  1  0.75000000  0.36579000  0.93369000  1
  Cu  Cu47  1  0.75000000  0.98766100  0.63152300  1
  Cu  Cu48  1  0.75000000  0.15844200  0.97988000  1
  Cu  Cu49  1  0.75000000  0.33641700  0.87998000  1
  Cu  Cu50  1  0.75000000  0.33542500  0.02770500  1
  Cu  Cu51  1  0.75000000  0.85193800  0.90640800  1
