# generated using pymatgen
data_CuNi3C4
_symmetry_space_group_name_H-M   'P 1'
_cell_length_a   5.91302700
_cell_length_b   8.56621800
_cell_length_c   14.94036600
_cell_angle_alpha   90.00000000
_cell_angle_beta   90.00000000
_cell_angle_gamma   90.00000000
_symmetry_Int_Tables_number   1
_chemical_formula_structural   CuNi3C4
_chemical_formula_sum   'Cu4 Ni12 C16'
_cell_volume   756.76357686
_cell_formula_units_Z   4
loop_
 _symmetry_equiv_pos_site_id
 _symmetry_equiv_pos_as_xyz
  1  'x, y, z'
loop_
 _atom_site_type_symbol
 _atom_site_label
 _atom_site_symmetry_multiplicity
 _atom_site_fract_x
 _atom_site_fract_y
 _atom_site_fract_z
 _atom_site_occupancy
  C  C0  1  0.00000000  0.50000000  0.50000000  1
  C  C1  1  0.50000000  0.00000000  0.00000000  1
  C  C2  1  0.50000000  0.50000000  0.50000000  1
  C  C3  1  0.00000000  0.00000000  0.00000000  1
  Ni  Ni4  1  0.36244500  0.04445800  0.37366400  1
  Ni  Ni5  1  0.13755500  0.45554200  0.87366400  1
  Ni  Ni6  1  0.86244500  0.95554200  0.62633600  1
  Ni  Ni7  1  0.63755500  0.54445800  0.12633600  1
  Ni  Ni8  1  0.63755500  0.95554200  0.62633600  1
  Ni  Ni9  1  0.86244500  0.54445800  0.12633600  1
  Ni  Ni10  1  0.13755500  0.04445800  0.37366400  1
  Ni  Ni11  1  0.36244500  0.45554200  0.87366400  1
  Ni  Ni12  1  0.25000000  0.81032400  0.25950400  1
  Ni  Ni13  1  0.25000000  0.68967600  0.75950400  1
  Ni  Ni14  1  0.75000000  0.18967600  0.74049600  1
  Ni  Ni15  1  0.75000000  0.31032400  0.24049600  1
  Cu  Cu16  1  0.25000000  0.91737600  0.31190600  1
  Cu  Cu17  1  0.25000000  0.58262400  0.81190600  1
  Cu  Cu18  1  0.75000000  0.08262400  0.68809400  1
  Cu  Cu19  1  0.75000000  0.41737600  0.18809400  1
  C  C20  1  0.75000000  0.64665700  0.40865900  1
  C  C21  1  0.75000000  0.85334300  0.90865900  1
  C  C22  1  0.25000000  0.35334300  0.59134100  1
  C  C23  1  0.25000000  0.14665700  0.09134100  1
  C  C24  1  0.75000000  0.56595100  0.61937800  1
  C  C25  1  0.75000000  0.93404900  0.11937800  1
  C  C26  1  0.25000000  0.43404900  0.38062200  1
  C  C27  1  0.25000000  0.06595100  0.88062200  1
  C  C28  1  0.75000000  0.28904100  0.47346800  1
  C  C29  1  0.75000000  0.21095900  0.97346800  1
  C  C30  1  0.25000000  0.71095900  0.52653200  1
  C  C31  1  0.25000000  0.78904100  0.02653200  1
