# generated using pymatgen
data_Cu3Ni3C11
_symmetry_space_group_name_H-M   'P 1'
_cell_length_a   7.62648032
_cell_length_b   9.43196894
_cell_length_c   8.58781959
_cell_angle_alpha   122.75589771
_cell_angle_beta   98.51097987
_cell_angle_gamma   99.52963675
_symmetry_Int_Tables_number   1
_chemical_formula_structural   Cu3Ni3C11
_chemical_formula_sum   'Cu6 Ni6 C22'
_cell_volume   490.87445462
_cell_formula_units_Z   2
loop_
 _symmetry_equiv_pos_site_id
 _symmetry_equiv_pos_as_xyz
  1  'x, y, z'
loop_
 _atom_site_type_symbol
 _atom_site_label
 _atom_site_symmetry_multiplicity
 _atom_site_fract_x
 _atom_site_fract_y
 _atom_site_fract_z
 _atom_site_occupancy
  C  C0  1  0.29479200  0.63641400  0.13559800  1
  C  C1  1  0.70519400  0.36352300  0.86436400  1
  Ni  Ni2  1  0.15188400  0.25922000  0.71341500  1
  Ni  Ni3  1  0.84813200  0.74074700  0.28653600  1
  Ni  Ni4  1  0.52664100  0.11949400  0.31617900  1
  Ni  Ni5  1  0.47337900  0.88048100  0.68374200  1
  Ni  Ni6  1  0.00852800  0.30553600  0.19909000  1
  Ni  Ni7  1  0.99142600  0.69450800  0.80100000  1
  Cu  Cu8  1  0.07103400  0.45789300  0.39020000  1
  Cu  Cu9  1  0.92893900  0.54213400  0.60990400  1
  Cu  Cu10  1  0.69613100  0.13186400  0.25711200  1
  Cu  Cu11  1  0.30389000  0.86845300  0.74290300  1
  Cu  Cu12  1  0.13260900  0.22516300  0.53023800  1
  Cu  Cu13  1  0.86748100  0.77477600  0.46972400  1
  C  C14  1  0.76660700  0.91798900  0.06946700  1
  C  C15  1  0.23332300  0.08207800  0.93066700  1
  C  C16  1  0.82445200  0.29514700  0.09271100  1
  C  C17  1  0.17548600  0.70492600  0.90742400  1
  C  C18  1  0.17095200  0.32294300  0.11192600  1
  C  C19  1  0.82898900  0.67713900  0.88811900  1
  C  C20  1  0.99756500  0.14496300  0.20972300  1
  C  C21  1  0.00245700  0.85504900  0.79026000  1
  C  C22  1  0.40384100  0.15716700  0.19333100  1
  C  C23  1  0.59602800  0.84291800  0.80681500  1
  C  C24  1  0.59262600  0.26716900  0.52973600  1
  C  C25  1  0.40722600  0.73272300  0.47031000  1
  C  C26  1  0.99021800  0.64524200  0.19604300  1
  C  C27  1  0.00973500  0.35457800  0.80378700  1
  C  C28  1  0.12566700  0.08187100  0.68837400  1
  C  C29  1  0.87446700  0.91803700  0.31160400  1
  C  C30  1  0.64875300  0.61453300  0.15346600  1
  C  C31  1  0.35123500  0.38543800  0.84654100  1
  C  C32  1  0.46196700  0.93281800  0.26170100  1
  C  C33  1  0.53834800  0.06706400  0.73798800  1
