# generated using pymatgen
data_Cu5(NiC12)2
_symmetry_space_group_name_H-M   'P 1'
_cell_length_a   5.26147224
_cell_length_b   11.37238683
_cell_length_c   11.93809766
_cell_angle_alpha   95.67923444
_cell_angle_beta   90.00000000
_cell_angle_gamma   90.00000000
_symmetry_Int_Tables_number   1
_chemical_formula_structural   Cu5(NiC12)2
_chemical_formula_sum   'Cu10 Ni4 C48'
_cell_volume   710.81576499
_cell_formula_units_Z   2
loop_
 _symmetry_equiv_pos_site_id
 _symmetry_equiv_pos_as_xyz
  1  'x, y, z'
loop_
 _atom_site_type_symbol
 _atom_site_label
 _atom_site_symmetry_multiplicity
 _atom_site_fract_x
 _atom_site_fract_y
 _atom_site_fract_z
 _atom_site_occupancy
  C  C0  1  0.71629379  0.76110637  0.94076364  1
  C  C1  1  0.26767747  0.22409190  0.06740614  1
  C  C2  1  0.73232253  0.72409190  0.56740614  1
  C  C3  1  0.28370621  0.26110637  0.44076364  1
  Ni  Ni4  1  0.23703596  0.92252841  0.98132484  1
  Ni  Ni5  1  0.75881727  0.07382668  0.01833442  1
  Ni  Ni6  1  0.24118273  0.57382668  0.51833442  1
  Ni  Ni7  1  0.76296404  0.42252841  0.48132484  1
  Cu  Cu8  1  0.54350402  0.88223926  0.20996168  1
  Cu  Cu9  1  0.45618710  0.11711812  0.78931374  1
  Cu  Cu10  1  0.54381290  0.61711812  0.28931374  1
  Cu  Cu11  1  0.45649598  0.38223926  0.70996168  1
  Cu  Cu12  1  0.19425358  0.75124458  0.74942149  1
  Cu  Cu13  1  0.80574642  0.25124458  0.24942149  1
  Cu  Cu14  1  0.94446697  0.98043829  0.76689647  1
  Cu  Cu15  1  0.05327463  0.01929198  0.23325732  1
  Cu  Cu16  1  0.94672537  0.51929198  0.73325732  1
  Cu  Cu17  1  0.05553303  0.48043829  0.26689647  1
  C  C18  1  0.97692141  0.67647753  0.12556306  1
  C  C19  1  0.02287021  0.32678714  0.86954701  1
  C  C20  1  0.97712979  0.82678714  0.36954701  1
  C  C21  1  0.02307859  0.17647753  0.62556306  1
  C  C22  1  0.18315529  0.67268281  0.03038215  1
  C  C23  1  0.83454394  0.32571124  0.97065262  1
  C  C24  1  0.16545606  0.82571124  0.47065262  1
  C  C25  1  0.81684471  0.17268281  0.53038215  1
  C  C26  1  0.50028989  0.53504292  0.91646431  1
  C  C27  1  0.49971011  0.03504292  0.41646431  1
  C  C28  1  0.46375904  0.53501293  0.04834189  1
  C  C29  1  0.53624096  0.03501293  0.54834189  1
  C  C30  1  0.82161483  0.92974557  0.26460436  1
  C  C31  1  0.17717106  0.06999864  0.73687023  1
  C  C32  1  0.82282894  0.56999864  0.23687023  1
  C  C33  1  0.17838517  0.42974557  0.76460436  1
  C  C34  1  0.35751490  0.81680459  0.85179969  1
  C  C35  1  0.64548622  0.18775663  0.14447483  1
  C  C36  1  0.35451378  0.68775663  0.64447483  1
  C  C37  1  0.64248510  0.31680459  0.35179969  1
  C  C38  1  0.03701167  0.71900170  0.06303648  1
  C  C39  1  0.98659871  0.28771990  0.93772258  1
  C  C40  1  0.01340129  0.78771990  0.43772258  1
  C  C41  1  0.96298833  0.21900170  0.56303648  1
  C  C42  1  0.99288498  0.65175627  0.79881338  1
  C  C43  1  0.00809906  0.34922855  0.19831744  1
  C  C44  1  0.99190094  0.84922855  0.69831744  1
  C  C45  1  0.00711502  0.15175627  0.29881338  1
  C  C46  1  0.67962582  0.46505138  0.78074209  1
  C  C47  1  0.32153824  0.53445347  0.21954827  1
  C  C48  1  0.67846176  0.03445347  0.71954827  1
  C  C49  1  0.32037418  0.96505138  0.28074209  1
  C  C50  1  0.51373769  0.75006547  0.24992512  1
  C  C51  1  0.48626231  0.25006547  0.74992512  1
  C  C52  1  0.52964165  0.89221361  0.07698919  1
  C  C53  1  0.47430744  0.11313236  0.92331821  1
  C  C54  1  0.52569256  0.61313236  0.42331821  1
  C  C55  1  0.47035835  0.39221361  0.57698919  1
  C  C56  1  0.07417015  0.03391908  0.09902701  1
  C  C57  1  0.92312351  0.96361032  0.90078904  1
  C  C58  1  0.07687649  0.46361032  0.40078904  1
  C  C59  1  0.92582985  0.53391908  0.59902701  1
  C  C60  1  0.46574900  0.58554229  0.98659130  1
  C  C61  1  0.53425100  0.08554229  0.48659130  1
