# generated using pymatgen
data_Cu12NiC8
_symmetry_space_group_name_H-M   'P 1'
_cell_length_a   7.93127000
_cell_length_b   10.87405176
_cell_length_c   10.87405176
_cell_angle_alpha   119.99999856
_cell_angle_beta   90.00000000
_cell_angle_gamma   90.00000000
_symmetry_Int_Tables_number   1
_chemical_formula_structural   Cu12NiC8
_chemical_formula_sum   'Cu24 Ni2 C16'
_cell_volume   812.18724457
_cell_formula_units_Z   2
loop_
 _symmetry_equiv_pos_site_id
 _symmetry_equiv_pos_as_xyz
  1  'x, y, z'
loop_
 _atom_site_type_symbol
 _atom_site_label
 _atom_site_symmetry_multiplicity
 _atom_site_fract_x
 _atom_site_fract_y
 _atom_site_fract_z
 _atom_site_occupancy
  C  C0  1  0.99921000  0.66666700  0.33333300  1
  C  C1  1  0.00079000  0.33333300  0.66666700  1
  C  C2  1  0.49921000  0.33333300  0.66666700  1
  C  C3  1  0.50079000  0.66666700  0.33333300  1
  C  C4  1  0.75000000  0.73291600  0.00710200  1
  C  C5  1  0.25000000  0.26708400  0.99289800  1
  C  C6  1  0.75000000  0.27418600  0.26708400  1
  C  C7  1  0.25000000  0.72581400  0.73291600  1
  C  C8  1  0.75000000  0.99289800  0.72581400  1
  C  C9  1  0.25000000  0.00710200  0.27418600  1
  C  C10  1  0.75000000  0.59996800  0.63455800  1
  C  C11  1  0.25000000  0.40003200  0.36544200  1
  C  C12  1  0.75000000  0.03459000  0.40003200  1
  C  C13  1  0.25000000  0.96541000  0.59996800  1
  C  C14  1  0.75000000  0.36544200  0.96541000  1
  C  C15  1  0.25000000  0.63455800  0.03459000  1
  Ni  Ni16  1  0.75000000  0.00000000  0.00000000  1
  Ni  Ni17  1  0.25000000  0.00000000  0.00000000  1
  Cu  Cu18  1  0.75000000  0.85088000  0.33160100  1
  Cu  Cu19  1  0.25000000  0.14912000  0.66839900  1
  Cu  Cu20  1  0.75000000  0.48072100  0.14912000  1
  Cu  Cu21  1  0.25000000  0.51927900  0.85088000  1
  Cu  Cu22  1  0.75000000  0.66839900  0.51927900  1
  Cu  Cu23  1  0.25000000  0.33160100  0.48072100  1
  Cu  Cu24  1  0.75000000  0.41474500  0.54710400  1
  Cu  Cu25  1  0.25000000  0.58525500  0.45289600  1
  Cu  Cu26  1  0.75000000  0.13236000  0.58525500  1
  Cu  Cu27  1  0.25000000  0.86764000  0.41474500  1
  Cu  Cu28  1  0.75000000  0.45289600  0.86764000  1
  Cu  Cu29  1  0.25000000  0.54710400  0.13236000  1
  Cu  Cu30  1  0.92761400  0.64876100  0.73856000  1
  Cu  Cu31  1  0.07238600  0.35123900  0.26144000  1
  Cu  Cu32  1  0.92761400  0.08979900  0.35123900  1
  Cu  Cu33  1  0.42761400  0.35123900  0.26144000  1
  Cu  Cu34  1  0.07238600  0.91020100  0.64876100  1
  Cu  Cu35  1  0.57238600  0.64876100  0.73856000  1
  Cu  Cu36  1  0.92761400  0.26144000  0.91020100  1
  Cu  Cu37  1  0.42761400  0.91020100  0.64876100  1
  Cu  Cu38  1  0.07238600  0.73856000  0.08979900  1
  Cu  Cu39  1  0.57238600  0.08979900  0.35123900  1
  Cu  Cu40  1  0.42761400  0.73856000  0.08979900  1
  Cu  Cu41  1  0.57238600  0.26144000  0.91020100  1
