# generated using pymatgen
data_Cu4NiC
_symmetry_space_group_name_H-M   'P 1'
_cell_length_a   4.87763404
_cell_length_b   4.87763404
_cell_length_c   8.62164600
_cell_angle_alpha   90.00000000
_cell_angle_beta   90.00000000
_cell_angle_gamma   120.00000054
_symmetry_Int_Tables_number   1
_chemical_formula_structural   Cu4NiC
_chemical_formula_sum   'Cu8 Ni2 C2'
_cell_volume   177.63937725
_cell_formula_units_Z   2
loop_
 _symmetry_equiv_pos_site_id
 _symmetry_equiv_pos_as_xyz
  1  'x, y, z'
loop_
 _atom_site_type_symbol
 _atom_site_label
 _atom_site_symmetry_multiplicity
 _atom_site_fract_x
 _atom_site_fract_y
 _atom_site_fract_z
 _atom_site_occupancy
  C  C0  1  0.00000000  0.00000000  0.50000000  1
  C  C1  1  0.00000000  0.00000000  0.00000000  1
  Ni  Ni2  1  0.33333300  0.66666700  0.20492900  1
  Ni  Ni3  1  0.66666700  0.33333300  0.79507100  1
  Cu  Cu4  1  0.08491400  0.34903800  0.14742900  1
  Cu  Cu5  1  0.65096200  0.73587500  0.14742900  1
  Cu  Cu6  1  0.34903800  0.08491400  0.85257100  1
  Cu  Cu7  1  0.26412500  0.91508600  0.14742900  1
  Cu  Cu8  1  0.73587500  0.65096200  0.85257100  1
  Cu  Cu9  1  0.91508600  0.26412500  0.85257100  1
  Cu  Cu10  1  0.33333300  0.66666700  0.37403600  1
  Cu  Cu11  1  0.66666700  0.33333300  0.62596400  1
