# generated using pymatgen
data_Cu8NiC20
_symmetry_space_group_name_H-M   'P 1'
_cell_length_a   10.59886138
_cell_length_b   12.55078923
_cell_length_c   3.58206639
_cell_angle_alpha   90.00000000
_cell_angle_beta   90.00000000
_cell_angle_gamma   89.52951908
_symmetry_Int_Tables_number   1
_chemical_formula_structural   Cu8NiC20
_chemical_formula_sum   'Cu8 Ni1 C20'
_cell_volume   476.48500456
_cell_formula_units_Z   1
loop_
 _symmetry_equiv_pos_site_id
 _symmetry_equiv_pos_as_xyz
  1  'x, y, z'
loop_
 _atom_site_type_symbol
 _atom_site_label
 _atom_site_symmetry_multiplicity
 _atom_site_fract_x
 _atom_site_fract_y
 _atom_site_fract_z
 _atom_site_occupancy
  C  C0  1  0.24351006  0.32756532  0.75000000  1
  C  C1  1  0.25519662  0.86067965  0.25000000  1
  C  C2  1  0.75121429  0.16773275  0.75000000  1
  C  C3  1  0.75135376  0.64269630  0.25000000  1
  Ni  Ni4  1  0.48603959  0.70787458  0.75000000  1
  Cu  Cu5  1  0.06615423  0.61601141  0.75000000  1
  Cu  Cu6  1  0.06914790  0.10336010  0.75000000  1
  Cu  Cu7  1  0.33818286  0.56793845  0.25000000  1
  Cu  Cu8  1  0.42914694  0.11155675  0.25000000  1
  Cu  Cu9  1  0.59991856  0.91848639  0.75000000  1
  Cu  Cu10  1  0.57083595  0.39658507  0.75000000  1
  Cu  Cu11  1  0.92355031  0.89234856  0.25000000  1
  Cu  Cu12  1  0.92480200  0.39375130  0.25000000  1
  C  C13  1  0.01527864  0.72027996  0.25000000  1
  C  C14  1  0.07491469  0.92437719  0.75000000  1
  C  C15  1  0.13131650  0.49044733  0.25000000  1
  C  C16  1  0.21108142  0.15363510  0.25000000  1
  C  C17  1  0.29603977  0.69354359  0.75000000  1
  C  C18  1  0.40032317  0.97671335  0.75000000  1
  C  C19  1  0.42134988  0.39986052  0.25000000  1
  C  C20  1  0.48206621  0.21513039  0.75000000  1
  C  C21  1  0.52598494  0.77729022  0.25000000  1
  C  C22  1  0.58466205  0.57510094  0.75000000  1
  C  C23  1  0.63249951  0.03450189  0.25000000  1
  C  C24  1  0.70977057  0.34417934  0.25000000  1
  C  C25  1  0.78721759  0.83767337  0.75000000  1
  C  C26  1  0.88611185  0.51689943  0.75000000  1
  C  C27  1  0.92240474  0.07465481  0.25000000  1
  C  C28  1  0.98492538  0.28308394  0.75000000  1
