# generated using pymatgen
data_CuNi3C28
_symmetry_space_group_name_H-M   'P 1'
_cell_length_a   6.68921200
_cell_length_b   7.18369380
_cell_length_c   8.81487786
_cell_angle_alpha   90.01919044
_cell_angle_beta   90.00716288
_cell_angle_gamma   114.17653646
_symmetry_Int_Tables_number   1
_chemical_formula_structural   CuNi3C28
_chemical_formula_sum   'Cu1 Ni3 C28'
_cell_volume   386.43010119
_cell_formula_units_Z   1
loop_
 _symmetry_equiv_pos_site_id
 _symmetry_equiv_pos_as_xyz
  1  'x, y, z'
loop_
 _atom_site_type_symbol
 _atom_site_label
 _atom_site_symmetry_multiplicity
 _atom_site_fract_x
 _atom_site_fract_y
 _atom_site_fract_z
 _atom_site_occupancy
  C  C0  1  0.74751600  0.25480900  0.07559300  1
  C  C1  1  0.25222900  0.24297000  0.57928300  1
  C  C2  1  0.25178400  0.74227100  0.92011500  1
  C  C3  1  0.74743000  0.75617600  0.42451400  1
  C  C4  1  0.25182900  0.98860800  0.24791300  1
  C  C5  1  0.75168300  0.50903200  0.74426300  1
  C  C6  1  0.74982000  0.01264900  0.74872700  1
  C  C7  1  0.24684300  0.48519900  0.25423300  1
  Ni  Ni8  1  0.24933700  0.74814300  0.56852700  1
  Ni  Ni9  1  0.24960400  0.24816500  0.93086700  1
  Ni  Ni10  1  0.75053700  0.25220700  0.42842300  1
  Cu  Cu11  1  0.75149700  0.75294200  0.06854400  1
  C  C12  1  0.24695500  0.74934600  0.18072500  1
  C  C13  1  0.75272500  0.75143300  0.68335200  1
  C  C14  1  0.75289400  0.25190500  0.81514100  1
  C  C15  1  0.24727600  0.24940000  0.32202900  1
  C  C16  1  0.56031500  0.58186800  0.19646600  1
  C  C17  1  0.43666200  0.90529300  0.68421600  1
  C  C18  1  0.43750500  0.40495500  0.81495100  1
  C  C19  1  0.56374500  0.09501900  0.31314800  1
  C  C20  1  0.15229200  0.88330600  0.46384600  1
  C  C21  1  0.85753700  0.60732300  0.95899300  1
  C  C22  1  0.84797200  0.11763600  0.53498600  1
  C  C23  1  0.15341900  0.38347700  0.03707000  1
  C  C24  1  0.34630800  0.11374200  0.03705700  1
  C  C25  1  0.65254500  0.38602500  0.53538600  1
  C  C26  1  0.64336500  0.89686900  0.95939700  1
  C  C27  1  0.34689200  0.61345700  0.46387200  1
  C  C28  1  0.93470000  0.40797600  0.31164200  1
  C  C29  1  0.06261800  0.09270700  0.81390300  1
  C  C30  1  0.06360700  0.59209400  0.68513000  1
  C  C31  1  0.94055800  0.92299700  0.19769000  1
