# generated using pymatgen
data_Cu2Ni3C8
_symmetry_space_group_name_H-M   'P 1'
_cell_length_a   6.13164704
_cell_length_b   6.13164704
_cell_length_c   13.44096987
_cell_angle_alpha   80.18250428
_cell_angle_beta   80.18250428
_cell_angle_gamma   68.29839738
_symmetry_Int_Tables_number   1
_chemical_formula_structural   Cu2Ni3C8
_chemical_formula_sum   'Cu4 Ni6 C16'
_cell_volume   459.45011206
_cell_formula_units_Z   2
loop_
 _symmetry_equiv_pos_site_id
 _symmetry_equiv_pos_as_xyz
  1  'x, y, z'
loop_
 _atom_site_type_symbol
 _atom_site_label
 _atom_site_symmetry_multiplicity
 _atom_site_fract_x
 _atom_site_fract_y
 _atom_site_fract_z
 _atom_site_occupancy
  Ni  Ni0  1  0.59661000  0.40339000  0.75000000  1
  Ni  Ni1  1  0.40339000  0.59661000  0.25000000  1
  Ni  Ni2  1  0.20255900  0.67866100  0.99265200  1
  Ni  Ni3  1  0.32133900  0.79744100  0.50734800  1
  Ni  Ni4  1  0.79744100  0.32133900  0.00734800  1
  Ni  Ni5  1  0.67866100  0.20255900  0.49265200  1
  Cu  Cu6  1  0.90972600  0.78740800  0.71852700  1
  Cu  Cu7  1  0.21259200  0.09027400  0.78147300  1
  Cu  Cu8  1  0.09027400  0.21259200  0.28147300  1
  Cu  Cu9  1  0.78740800  0.90972600  0.21852700  1
  C  C10  1  0.07215500  0.36944700  0.57954900  1
  C  C11  1  0.63055300  0.92784500  0.92045100  1
  C  C12  1  0.92784500  0.63055300  0.42045100  1
  C  C13  1  0.36944700  0.07215500  0.07954900  1
  C  C14  1  0.01681900  0.10959500  0.63006000  1
  C  C15  1  0.89040500  0.98318100  0.86994000  1
  C  C16  1  0.98318100  0.89040500  0.36994000  1
  C  C17  1  0.10959500  0.01681900  0.13006000  1
  C  C18  1  0.80337100  0.62212800  0.55395400  1
  C  C19  1  0.37787200  0.19662900  0.94604600  1
  C  C20  1  0.19662900  0.37787200  0.44604600  1
  C  C21  1  0.62212800  0.80337100  0.05395400  1
  C  C22  1  0.23012900  0.43441500  0.66067100  1
  C  C23  1  0.56558500  0.76987100  0.83932900  1
  C  C24  1  0.76987100  0.56558500  0.33932900  1
  C  C25  1  0.43441500  0.23012900  0.16067100  1
