# generated using pymatgen
data_Cu16Ni4C11
_symmetry_space_group_name_H-M   'P 1'
_cell_length_a   6.15632200
_cell_length_b   7.91832915
_cell_length_c   12.99650718
_cell_angle_alpha   90.50355556
_cell_angle_beta   90.39617329
_cell_angle_gamma   90.11209774
_symmetry_Int_Tables_number   1
_chemical_formula_structural   Cu16Ni4C11
_chemical_formula_sum   'Cu16 Ni4 C11'
_cell_volume   633.51002255
_cell_formula_units_Z   1
loop_
 _symmetry_equiv_pos_site_id
 _symmetry_equiv_pos_as_xyz
  1  'x, y, z'
loop_
 _atom_site_type_symbol
 _atom_site_label
 _atom_site_symmetry_multiplicity
 _atom_site_fract_x
 _atom_site_fract_y
 _atom_site_fract_z
 _atom_site_occupancy
  C  C0  1  0.00193600  0.25414900  0.83756200  1
  C  C1  1  0.50108300  0.26326600  0.65239700  1
  C  C2  1  0.50899900  0.25989800  0.15085400  1
  C  C3  1  0.50193500  0.74590700  0.65191100  1
  C  C4  1  0.50297400  0.74922100  0.15887900  1
  C  C5  1  0.00734500  0.76044800  0.83347500  1
  C  C6  1  0.93682200  0.67348400  0.48281200  1
  C  C7  1  0.51083000  0.00497500  0.92178200  1
  C  C8  1  0.51315900  0.97739700  0.41742000  1
  C  C9  1  0.01520900  0.52215500  0.07777000  1
  C  C10  1  0.01158500  0.23700500  0.34135200  1
  Ni  Ni11  1  0.00166600  0.01623000  0.58774400  1
  Ni  Ni12  1  0.00178400  0.99857000  0.08954900  1
  Ni  Ni13  1  0.49952100  0.50620700  0.90707600  1
  Ni  Ni14  1  0.51323900  0.49241800  0.40232200  1
  Cu  Cu15  1  0.10823700  0.00898000  0.93951400  1
  Cu  Cu16  1  0.10121600  0.99213800  0.43293500  1
  Cu  Cu17  1  0.66488400  0.00625400  0.59062700  1
  Cu  Cu18  1  0.66692400  0.00119500  0.09337100  1
  Cu  Cu19  1  0.10639300  0.23092300  0.65496800  1
  Cu  Cu20  1  0.11054800  0.22351900  0.16241800  1
  Cu  Cu21  1  0.60572700  0.28970600  0.83419300  1
  Cu  Cu22  1  0.62263300  0.26616100  0.33322900  1
  Cu  Cu23  1  0.16489900  0.50862600  0.90468200  1
  Cu  Cu24  1  0.18088300  0.49981200  0.37308600  1
  Cu  Cu25  1  0.61748100  0.49924200  0.55125500  1
  Cu  Cu26  1  0.61256900  0.50771000  0.05668500  1
  Cu  Cu27  1  0.60932000  0.71982100  0.83358800  1
  Cu  Cu28  1  0.65289700  0.69575500  0.33388100  1
  Cu  Cu29  1  0.10622400  0.79090800  0.64767300  1
  Cu  Cu30  1  0.11059500  0.79792000  0.16931400  1
