# generated using pymatgen
data_CuNiC4
_symmetry_space_group_name_H-M   'P 1'
_cell_length_a   6.15559000
_cell_length_b   7.45232888
_cell_length_c   6.59907474
_cell_angle_alpha   89.99998897
_cell_angle_beta   90.00000000
_cell_angle_gamma   65.60771038
_symmetry_Int_Tables_number   1
_chemical_formula_structural   CuNiC4
_chemical_formula_sum   'Cu4 Ni4 C16'
_cell_volume   275.70128898
_cell_formula_units_Z   4
loop_
 _symmetry_equiv_pos_site_id
 _symmetry_equiv_pos_as_xyz
  1  'x, y, z'
loop_
 _atom_site_type_symbol
 _atom_site_label
 _atom_site_symmetry_multiplicity
 _atom_site_fract_x
 _atom_site_fract_y
 _atom_site_fract_z
 _atom_site_occupancy
  Ni  Ni0  1  0.74999200  0.50001500  0.50000000  1
  Ni  Ni1  1  0.50000800  0.99998400  0.00000000  1
  Ni  Ni2  1  0.24999200  0.50001500  0.50000000  1
  Ni  Ni3  1  0.00000800  0.99998400  0.00000000  1
  Cu  Cu4  1  0.24998800  0.00002700  0.50000400  1
  Cu  Cu5  1  0.00001300  0.49997400  0.99999900  1
  Cu  Cu6  1  0.50001500  0.49997400  0.99999900  1
  Cu  Cu7  1  0.74998400  0.00002500  0.50000000  1
  C  C8  1  0.34579100  0.80841600  0.00000000  1
  C  C9  1  0.09579800  0.30840200  0.50000000  1
  C  C10  1  0.84579100  0.80841800  0.00000000  1
  C  C11  1  0.59579800  0.30840100  0.50000000  1
  C  C12  1  0.65420100  0.19159900  0.00000000  1
  C  C13  1  0.40421000  0.69158200  0.50000000  1
  C  C14  1  0.15420200  0.19159800  0.00000000  1
  C  C15  1  0.90420900  0.69158400  0.50000000  1
  C  C16  1  0.75000000  0.49999900  0.80065200  1
  C  C17  1  0.50000000  0.00000100  0.30065200  1
  C  C18  1  0.25000200  0.49999800  0.80065200  1
  C  C19  1  0.99999800  0.00000200  0.30065200  1
  C  C20  1  0.75000000  0.49999900  0.19934800  1
  C  C21  1  0.50000000  0.00000100  0.69934800  1
  C  C22  1  0.25000200  0.49999900  0.19934800  1
  C  C23  1  0.99999800  0.00000100  0.69934800  1
