# generated using pymatgen
data_Cu3Ni7
_symmetry_space_group_name_H-M   'P 1'
_cell_length_a   8.05764238
_cell_length_b   8.05764238
_cell_length_c   8.05764238
_cell_angle_alpha   109.47122063
_cell_angle_beta   109.47122063
_cell_angle_gamma   109.47122063
_symmetry_Int_Tables_number   1
_chemical_formula_structural   Cu3Ni7
_chemical_formula_sum   'Cu6 Ni14'
_cell_volume   402.71895845
_cell_formula_units_Z   2
loop_
 _symmetry_equiv_pos_site_id
 _symmetry_equiv_pos_as_xyz
  1  'x, y, z'
loop_
 _atom_site_type_symbol
 _atom_site_label
 _atom_site_symmetry_multiplicity
 _atom_site_fract_x
 _atom_site_fract_y
 _atom_site_fract_z
 _atom_site_occupancy
  Ni  Ni0  1  0.50000000  0.75000000  0.25000000  1
  Ni  Ni1  1  0.50000000  0.25000000  0.75000000  1
  Ni  Ni2  1  0.25000000  0.50000000  0.75000000  1
  Ni  Ni3  1  0.75000000  0.50000000  0.25000000  1
  Ni  Ni4  1  0.75000000  0.25000000  0.50000000  1
  Ni  Ni5  1  0.25000000  0.75000000  0.50000000  1
  Ni  Ni6  1  0.32216700  0.32216700  0.32216700  1
  Ni  Ni7  1  0.67783300  0.67783300  0.67783300  1
  Ni  Ni8  1  0.00000000  0.00000000  0.67783300  1
  Ni  Ni9  1  0.00000000  0.67783300  0.00000000  1
  Ni  Ni10  1  0.00000000  0.00000000  0.32216700  1
  Ni  Ni11  1  0.00000000  0.32216700  0.00000000  1
  Ni  Ni12  1  0.67783300  0.00000000  0.00000000  1
  Ni  Ni13  1  0.32216700  0.00000000  0.00000000  1
  Cu  Cu14  1  0.00000000  0.35605500  0.35605500  1
  Cu  Cu15  1  0.00000000  0.64394500  0.64394500  1
  Cu  Cu16  1  0.35605500  0.00000000  0.35605500  1
  Cu  Cu17  1  0.64394500  0.00000000  0.64394500  1
  Cu  Cu18  1  0.35605500  0.35605500  0.00000000  1
  Cu  Cu19  1  0.64394500  0.64394500  0.00000000  1
