# generated using pymatgen
data_CuNiC7
_symmetry_space_group_name_H-M   'P 1'
_cell_length_a   11.56233179
_cell_length_b   11.56233179
_cell_length_c   4.66620000
_cell_angle_alpha   90.00000000
_cell_angle_beta   90.00000000
_cell_angle_gamma   119.99999882
_symmetry_Int_Tables_number   1
_chemical_formula_structural   CuNiC7
_chemical_formula_sum   'Cu6 Ni6 C42'
_cell_volume   540.23764272
_cell_formula_units_Z   6
loop_
 _symmetry_equiv_pos_site_id
 _symmetry_equiv_pos_as_xyz
  1  'x, y, z'
loop_
 _atom_site_type_symbol
 _atom_site_label
 _atom_site_symmetry_multiplicity
 _atom_site_fract_x
 _atom_site_fract_y
 _atom_site_fract_z
 _atom_site_occupancy
  C  C0  1  0.51692500  0.85430200  0.91868500  1
  C  C1  1  0.33737700  0.48307500  0.91868500  1
  C  C2  1  0.14569800  0.66262300  0.91868500  1
  C  C3  1  0.48307500  0.33737700  0.91868500  1
  C  C4  1  0.85430200  0.51692500  0.91868500  1
  C  C5  1  0.66262300  0.14569800  0.91868500  1
  C  C6  1  0.67805200  0.85560900  0.45465600  1
  C  C7  1  0.17755600  0.32194800  0.45465600  1
  C  C8  1  0.14439100  0.82244400  0.45465600  1
  C  C9  1  0.32194800  0.17755600  0.45465600  1
  C  C10  1  0.85560900  0.67805200  0.45465600  1
  C  C11  1  0.82244400  0.14439100  0.45465600  1
  Ni  Ni12  1  0.33333300  0.66666700  0.41161500  1
  Ni  Ni13  1  0.66666700  0.33333300  0.41161500  1
  Ni  Ni14  1  0.00000000  0.34948600  0.98090200  1
  Ni  Ni15  1  0.34948600  0.00000000  0.98090200  1
  Ni  Ni16  1  0.65051400  0.65051400  0.98090200  1
  Ni  Ni17  1  0.00000000  0.00000000  0.07739600  1
  Cu  Cu18  1  0.00000000  0.53621500  0.44326200  1
  Cu  Cu19  1  0.53621500  0.00000000  0.44326200  1
  Cu  Cu20  1  0.46378500  0.46378500  0.44326200  1
  Cu  Cu21  1  0.00000000  0.11071000  0.96274500  1
  Cu  Cu22  1  0.11071000  0.00000000  0.96274500  1
  Cu  Cu23  1  0.88929000  0.88929000  0.96274500  1
  C  C24  1  0.00000000  0.79710900  0.77250000  1
  C  C25  1  0.79710900  0.00000000  0.77250000  1
  C  C26  1  0.20289100  0.20289100  0.77250000  1
  C  C27  1  0.47745900  0.75749800  0.30220900  1
  C  C28  1  0.28003900  0.52254100  0.30220900  1
  C  C29  1  0.24250200  0.71996100  0.30220900  1
  C  C30  1  0.52254100  0.28003900  0.30220900  1
  C  C31  1  0.75749800  0.47745900  0.30220900  1
  C  C32  1  0.71996100  0.24250200  0.30220900  1
  C  C33  1  0.00000000  0.26984100  0.25150400  1
  C  C34  1  0.26984100  0.00000000  0.25150400  1
  C  C35  1  0.73015900  0.73015900  0.25150400  1
  C  C36  1  0.60605900  0.73439800  0.80321400  1
  C  C37  1  0.12833900  0.39394100  0.80321400  1
  C  C38  1  0.26560200  0.87166100  0.80321400  1
  C  C39  1  0.39394100  0.12833900  0.80321400  1
  C  C40  1  0.73439800  0.60605900  0.80321400  1
  C  C41  1  0.87166100  0.26560200  0.80321400  1
  C  C42  1  0.00000000  0.47822400  0.07970700  1
  C  C43  1  0.47822400  0.00000000  0.07970700  1
  C  C44  1  0.52177600  0.52177600  0.07970700  1
  C  C45  1  0.33333300  0.66666700  0.74824800  1
  C  C46  1  0.66666700  0.33333300  0.74824800  1
  C  C47  1  0.00000000  0.72307000  0.05016800  1
  C  C48  1  0.72307000  0.00000000  0.05016800  1
  C  C49  1  0.27693000  0.27693000  0.05016800  1
  C  C50  1  0.00000000  0.59988000  0.58324600  1
  C  C51  1  0.59988000  0.00000000  0.58324600  1
  C  C52  1  0.40012000  0.40012000  0.58324600  1
  C  C53  1  0.00000000  0.00000000  0.40895500  1
