# generated using pymatgen
data_CuNi16C21
_symmetry_space_group_name_H-M   'P 1'
_cell_length_a   11.40364232
_cell_length_b   11.40364232
_cell_length_c   11.40364232
_cell_angle_alpha   113.55877009
_cell_angle_beta   113.55877009
_cell_angle_gamma   101.57327384
_symmetry_Int_Tables_number   1
_chemical_formula_structural   CuNi16C21
_chemical_formula_sum   'Cu1 Ni16 C21'
_cell_volume   1125.63622893
_cell_formula_units_Z   1
loop_
 _symmetry_equiv_pos_site_id
 _symmetry_equiv_pos_as_xyz
  1  'x, y, z'
loop_
 _atom_site_type_symbol
 _atom_site_label
 _atom_site_symmetry_multiplicity
 _atom_site_fract_x
 _atom_site_fract_y
 _atom_site_fract_z
 _atom_site_occupancy
  C  C0  1  0.50000000  0.50000000  0.00000000  1
  C  C1  1  0.78301400  0.78301400  0.00000000  1
  C  C2  1  0.21698600  0.21698600  0.00000000  1
  C  C3  1  0.16751300  0.16751300  0.33502500  1
  C  C4  1  0.83248700  0.83248700  0.66497500  1
  C  C5  1  0.16751300  0.83248700  0.00000000  1
  C  C6  1  0.83248700  0.16751300  0.00000000  1
  C  C7  1  0.17090400  0.50000000  0.67090400  1
  C  C8  1  0.82909600  0.50000000  0.32909600  1
  C  C9  1  0.50000000  0.82909600  0.32909600  1
  C  C10  1  0.50000000  0.17090400  0.67090400  1
  C  C11  1  0.75000000  0.25000000  0.50000000  1
  C  C12  1  0.25000000  0.75000000  0.50000000  1
  C  C13  1  0.91778500  0.41778500  0.83557000  1
  C  C14  1  0.58221500  0.08221500  0.16443000  1
  C  C15  1  0.91778500  0.08221500  0.50000000  1
  C  C16  1  0.58221500  0.41778500  0.50000000  1
  C  C17  1  0.41778500  0.58221500  0.50000000  1
  C  C18  1  0.08221500  0.91778500  0.50000000  1
  C  C19  1  0.41778500  0.91778500  0.83557000  1
  C  C20  1  0.08221500  0.58221500  0.16443000  1
  Ni  Ni21  1  0.84032800  0.18533700  0.34500900  1
  Ni  Ni22  1  0.84032800  0.49532000  0.65499100  1
  Ni  Ni23  1  0.18533700  0.84032800  0.34500900  1
  Ni  Ni24  1  0.49532000  0.84032800  0.65499100  1
  Ni  Ni25  1  0.15967200  0.81466300  0.65499100  1
  Ni  Ni26  1  0.15967200  0.50468000  0.34500900  1
  Ni  Ni27  1  0.81466300  0.15967200  0.65499100  1
  Ni  Ni28  1  0.50468000  0.15967200  0.34500900  1
  Ni  Ni29  1  0.83193600  0.83193600  0.35440200  1
  Ni  Ni30  1  0.47753400  0.47753400  0.64559800  1
  Ni  Ni31  1  0.83193600  0.47753400  0.00000000  1
  Ni  Ni32  1  0.47753400  0.83193600  0.00000000  1
  Ni  Ni33  1  0.16806400  0.16806400  0.64559800  1
  Ni  Ni34  1  0.52246600  0.52246600  0.35440200  1
  Ni  Ni35  1  0.16806400  0.52246600  0.00000000  1
  Ni  Ni36  1  0.52246600  0.16806400  0.00000000  1
  Cu  Cu37  1  0.00000000  0.00000000  0.00000000  1
