# generated using pymatgen
data_CuNiC
_symmetry_space_group_name_H-M   'P 1'
_cell_length_a   3.36460663
_cell_length_b   3.36460663
_cell_length_c   38.31476300
_cell_angle_alpha   90.00000000
_cell_angle_beta   90.00000000
_cell_angle_gamma   120.00001244
_symmetry_Int_Tables_number   1
_chemical_formula_structural   CuNiC
_chemical_formula_sum   'Cu4 Ni4 C4'
_cell_volume   375.63436260
_cell_formula_units_Z   4
loop_
 _symmetry_equiv_pos_site_id
 _symmetry_equiv_pos_as_xyz
  1  'x, y, z'
loop_
 _atom_site_type_symbol
 _atom_site_label
 _atom_site_symmetry_multiplicity
 _atom_site_fract_x
 _atom_site_fract_y
 _atom_site_fract_z
 _atom_site_occupancy
  Ni  Ni0  1  0.33333300  0.66666700  0.33139000  1
  Ni  Ni1  1  0.66666700  0.33333300  0.66861000  1
  Ni  Ni2  1  0.66666700  0.33333300  0.76777900  1
  Ni  Ni3  1  0.33333300  0.66666700  0.23222100  1
  C  C4  1  0.33333300  0.66666700  0.09392000  1
  C  C5  1  0.66666700  0.33333300  0.90608000  1
  C  C6  1  0.33333300  0.66666700  0.71817200  1
  C  C7  1  0.66666700  0.33333300  0.28182800  1
  Cu  Cu8  1  0.33333300  0.66666700  0.94557700  1
  Cu  Cu9  1  0.66666700  0.33333300  0.05442300  1
  Cu  Cu10  1  0.66666700  0.33333300  0.13345000  1
  Cu  Cu11  1  0.33333300  0.66666700  0.86655000  1
