# generated using pymatgen
data_CuNiC29
_symmetry_space_group_name_H-M   'P 1'
_cell_length_a   10.12123814
_cell_length_b   8.28953404
_cell_length_c   4.13633323
_cell_angle_alpha   90.00000000
_cell_angle_beta   90.00000000
_cell_angle_gamma   90.00000000
_symmetry_Int_Tables_number   1
_chemical_formula_structural   CuNiC29
_chemical_formula_sum   'Cu1 Ni1 C29'
_cell_volume   347.03979781
_cell_formula_units_Z   1
loop_
 _symmetry_equiv_pos_site_id
 _symmetry_equiv_pos_as_xyz
  1  'x, y, z'
loop_
 _atom_site_type_symbol
 _atom_site_label
 _atom_site_symmetry_multiplicity
 _atom_site_fract_x
 _atom_site_fract_y
 _atom_site_fract_z
 _atom_site_occupancy
  Ni  Ni0  1  0.94412789  0.50000000  0.00000000  1
  Cu  Cu1  1  0.97144877  0.00000000  0.00000000  1
  C  C2  1  0.54140613  0.00000000  0.00000000  1
  C  C3  1  0.48902225  0.50000000  0.00000000  1
  C  C4  1  0.00342033  0.25129997  0.50000000  1
  C  C5  1  0.00342033  0.74870003  0.50000000  1
  C  C6  1  0.47248667  0.22955412  0.50000000  1
  C  C7  1  0.47248667  0.77044588  0.50000000  1
  C  C8  1  0.17311503  0.00000000  0.50000000  1
  C  C9  1  0.26367170  0.50000000  0.50000000  1
  C  C10  1  0.77353016  0.00000000  0.50000000  1
  C  C11  1  0.69530388  0.50000000  0.50000000  1
  C  C12  1  0.24328778  0.26900270  0.00000000  1
  C  C13  1  0.24328778  0.73099730  0.00000000  1
  C  C14  1  0.71768243  0.25211668  0.00000000  1
  C  C15  1  0.71768243  0.74788332  0.00000000  1
  C  C16  1  0.29051351  0.50000000  0.00000000  1
  C  C17  1  0.74407440  0.00000000  0.00000000  1
  C  C18  1  0.68767918  0.50000000  0.00000000  1
  C  C19  1  0.27246261  0.21234372  0.50000000  1
  C  C20  1  0.27246261  0.78765628  0.50000000  1
  C  C21  1  0.77725135  0.26989814  0.50000000  1
  C  C22  1  0.77725135  0.73010186  0.50000000  1
  C  C23  1  0.97757355  0.00000000  0.50000000  1
  C  C24  1  0.07210132  0.50000000  0.50000000  1
  C  C25  1  0.54253663  0.00000000  0.50000000  1
  C  C26  1  0.48676019  0.50000000  0.50000000  1
  C  C27  1  0.05999134  0.20649437  0.00000000  1
  C  C28  1  0.05999134  0.79350563  0.00000000  1
  C  C29  1  0.50198520  0.23840724  0.00000000  1
  C  C30  1  0.50198520  0.76159276  0.00000000  1
