# generated using pymatgen
data_Cu8NiC28
_symmetry_space_group_name_H-M   'P 1'
_cell_length_a   5.10610476
_cell_length_b   9.20058409
_cell_length_c   9.65479518
_cell_angle_alpha   90.28763195
_cell_angle_beta   90.05401945
_cell_angle_gamma   91.13437102
_symmetry_Int_Tables_number   1
_chemical_formula_structural   Cu8NiC28
_chemical_formula_sum   'Cu8 Ni1 C28'
_cell_volume   453.47918046
_cell_formula_units_Z   1
loop_
 _symmetry_equiv_pos_site_id
 _symmetry_equiv_pos_as_xyz
  1  'x, y, z'
loop_
 _atom_site_type_symbol
 _atom_site_label
 _atom_site_symmetry_multiplicity
 _atom_site_fract_x
 _atom_site_fract_y
 _atom_site_fract_z
 _atom_site_occupancy
  Ni  Ni0  1  0.88708449  0.45065471  0.90117675  1
  Cu  Cu1  1  0.40437815  0.90767300  0.86665776  1
  Cu  Cu2  1  0.61405050  0.08459133  0.13398696  1
  Cu  Cu3  1  0.90000393  0.41213516  0.60871936  1
  Cu  Cu4  1  0.09613476  0.58745828  0.36487226  1
  Cu  Cu5  1  0.39703030  0.59564526  0.86652556  1
  Cu  Cu6  1  0.90191156  0.08259325  0.63222066  1
  Cu  Cu7  1  0.10087781  0.91839270  0.37103831  1
  Cu  Cu8  1  0.57994164  0.41402421  0.14021534  1
  C  C9  1  0.60592618  0.75072078  0.55268052  1
  C  C10  1  0.89690622  0.75967367  0.06593993  1
  C  C11  1  0.12528425  0.22371337  0.93988976  1
  C  C12  1  0.38963759  0.24747645  0.44060593  1
  C  C13  1  0.71056220  0.91227357  0.01635423  1
  C  C14  1  0.79956171  0.90664136  0.50518537  1
  C  C15  1  0.79281448  0.59344748  0.50297010  1
  C  C16  1  0.19651939  0.75665732  0.97301349  1
  C  C17  1  0.30322186  0.07619875  0.99142995  1
  C  C18  1  0.25728098  0.40259584  0.98151050  1
  C  C19  1  0.95426429  0.75427695  0.24660630  1
  C  C20  1  0.29553959  0.75214479  0.46496209  1
  C  C21  1  0.20200725  0.09453861  0.49873220  1
  C  C22  1  0.54719350  0.75506059  0.73429756  1
  C  C23  1  0.80267513  0.24755215  0.01836294  1
  C  C24  1  0.21365369  0.40776508  0.48857964  1
  C  C25  1  0.71801397  0.59745929  0.01098271  1
  C  C26  1  0.70036705  0.24721917  0.53238038  1
  C  C27  1  0.03394113  0.25293882  0.76054798  1
  C  C28  1  0.45179129  0.23863379  0.26086434  1
  C  C29  1  0.08172365  0.94379853  0.74915513  1
  C  C30  1  0.06426418  0.55474492  0.74661209  1
  C  C31  1  0.91199634  0.43832312  0.25760461  1
  C  C32  1  0.41751091  0.94433329  0.25452205  1
  C  C33  1  0.59221398  0.05808155  0.75129153  1
  C  C34  1  0.61165919  0.43952618  0.75647433  1
  C  C35  1  0.39846415  0.56999276  0.24773004  1
  C  C36  1  0.93109272  0.06390091  0.25419133  1
