# generated using pymatgen
data_CuNi5C2
_symmetry_space_group_name_H-M   'P 1'
_cell_length_a   8.67261315
_cell_length_b   8.67261315
_cell_length_c   9.18320900
_cell_angle_alpha   90.00000000
_cell_angle_beta   90.00000000
_cell_angle_gamma   149.75247871
_symmetry_Int_Tables_number   1
_chemical_formula_structural   CuNi5C2
_chemical_formula_sum   'Cu2 Ni10 C4'
_cell_volume   347.93484892
_cell_formula_units_Z   2
loop_
 _symmetry_equiv_pos_site_id
 _symmetry_equiv_pos_as_xyz
  1  'x, y, z'
loop_
 _atom_site_type_symbol
 _atom_site_label
 _atom_site_symmetry_multiplicity
 _atom_site_fract_x
 _atom_site_fract_y
 _atom_site_fract_z
 _atom_site_occupancy
  C  C0  1  0.20492800  0.79507200  0.25000000  1
  C  C1  1  0.79507200  0.20492800  0.75000000  1
  C  C2  1  0.00000000  0.00000000  0.50000000  1
  C  C3  1  0.00000000  0.00000000  0.00000000  1
  Ni  Ni4  1  0.81426900  0.18573100  0.39125800  1
  Ni  Ni5  1  0.18573100  0.81426900  0.60874200  1
  Ni  Ni6  1  0.81426900  0.18573100  0.10874200  1
  Ni  Ni7  1  0.18573100  0.81426900  0.89125800  1
  Ni  Ni8  1  0.65814200  0.34185800  0.48531200  1
  Ni  Ni9  1  0.34185800  0.65814200  0.51468800  1
  Ni  Ni10  1  0.65814200  0.34185800  0.01468800  1
  Ni  Ni11  1  0.34185800  0.65814200  0.98531200  1
  Ni  Ni12  1  0.39177700  0.60822300  0.25000000  1
  Ni  Ni13  1  0.60822300  0.39177700  0.75000000  1
  Cu  Cu14  1  0.55376800  0.44623200  0.25000000  1
  Cu  Cu15  1  0.44623200  0.55376800  0.75000000  1
