# generated using pymatgen
data_Cu2Ni10C
_symmetry_space_group_name_H-M   'P 1'
_cell_length_a   4.74356900
_cell_length_b   6.47459877
_cell_length_c   6.47459877
_cell_angle_alpha   97.26036451
_cell_angle_beta   111.48892575
_cell_angle_gamma   68.51107425
_symmetry_Int_Tables_number   1
_chemical_formula_structural   Cu2Ni10C
_chemical_formula_sum   'Cu2 Ni10 C1'
_cell_volume   172.16115825
_cell_formula_units_Z   1
loop_
 _symmetry_equiv_pos_site_id
 _symmetry_equiv_pos_as_xyz
  1  'x, y, z'
loop_
 _atom_site_type_symbol
 _atom_site_label
 _atom_site_symmetry_multiplicity
 _atom_site_fract_x
 _atom_site_fract_y
 _atom_site_fract_z
 _atom_site_occupancy
  C  C0  1  0.00000000  0.00000000  0.00000000  1
  Ni  Ni1  1  0.71665700  0.78334300  0.21665700  1
  Ni  Ni2  1  0.28334300  0.21665700  0.78334300  1
  Ni  Ni3  1  0.50000000  0.77868500  0.77868500  1
  Ni  Ni4  1  0.50000000  0.22131500  0.22131500  1
  Ni  Ni5  1  0.50000000  0.00000000  0.50000000  1
  Ni  Ni6  1  0.00000000  0.00000000  0.50000000  1
  Ni  Ni7  1  0.50000000  0.50000000  0.00000000  1
  Ni  Ni8  1  0.00000000  0.50000000  0.00000000  1
  Ni  Ni9  1  0.64140800  0.35859200  0.64140800  1
  Ni  Ni10  1  0.35859200  0.64140800  0.35859200  1
  Cu  Cu11  1  0.00000000  0.35747400  0.35747400  1
  Cu  Cu12  1  0.00000000  0.64252600  0.64252600  1
