# generated using pymatgen
data_CuNiC13
_symmetry_space_group_name_H-M   'P 1'
_cell_length_a   14.77935700
_cell_length_b   6.08740100
_cell_length_c   6.11931740
_cell_angle_alpha   60.40602000
_cell_angle_beta   90.00000000
_cell_angle_gamma   90.00000000
_symmetry_Int_Tables_number   1
_chemical_formula_structural   CuNiC13
_chemical_formula_sum   'Cu2 Ni2 C26'
_cell_volume   478.72201894
_cell_formula_units_Z   2
loop_
 _symmetry_equiv_pos_site_id
 _symmetry_equiv_pos_as_xyz
  1  'x, y, z'
loop_
 _atom_site_type_symbol
 _atom_site_label
 _atom_site_symmetry_multiplicity
 _atom_site_fract_x
 _atom_site_fract_y
 _atom_site_fract_z
 _atom_site_occupancy
  C  C0  1  0.04404400  0.33071100  0.33273200  1
  C  C1  1  0.54404400  0.66928900  0.66726800  1
  C  C2  1  0.31255600  0.66872700  0.66965100  1
  C  C3  1  0.81255600  0.33127300  0.33034900  1
  Ni  Ni4  1  0.49518500  0.33172300  0.32704200  1
  Ni  Ni5  1  0.99518500  0.66827700  0.67295800  1
  Cu  Cu6  1  0.26324800  0.99300800  0.00456800  1
  Cu  Cu7  1  0.76324800  0.00699200  0.99543200  1
  C  C8  1  0.23057900  0.82409100  0.89918600  1
  C  C9  1  0.23349300  0.87685500  0.28077100  1
  C  C10  1  0.23792900  0.27520800  0.83376700  1
  C  C11  1  0.73057900  0.17590900  0.10081400  1
  C  C12  1  0.73349300  0.12314500  0.71922900  1
  C  C13  1  0.73792900  0.72479200  0.16623300  1
  C  C14  1  0.43706800  0.43598700  0.54547200  1
  C  C15  1  0.43284300  0.55303600  0.01952600  1
  C  C16  1  0.43198300  0.01773500  0.43364600  1
  C  C17  1  0.93706800  0.56401300  0.45452800  1
  C  C18  1  0.93284300  0.44696400  0.98047400  1
  C  C19  1  0.93198300  0.98226500  0.56635400  1
  C  C20  1  0.06140900  0.69474600  0.93101100  1
  C  C21  1  0.05768900  0.92040200  0.37304300  1
  C  C22  1  0.06255000  0.38207900  0.69281200  1
  C  C23  1  0.56140900  0.30525400  0.06898900  1
  C  C24  1  0.55768900  0.07959800  0.62695700  1
  C  C25  1  0.56255000  0.61792100  0.30718800  1
  C  C26  1  0.36796700  0.02386900  0.98211300  1
  C  C27  1  0.86796700  0.97613100  0.01788700  1
  C  C28  1  0.21125700  0.33541900  0.32804800  1
  C  C29  1  0.71125700  0.66458100  0.67195200  1
