# generated using pymatgen
data_Cu4Ni8C9
_symmetry_space_group_name_H-M   'P 1'
_cell_length_a   5.74339446
_cell_length_b   5.73644845
_cell_length_c   10.86591167
_cell_angle_alpha   104.78886989
_cell_angle_beta   89.55324408
_cell_angle_gamma   59.47042796
_symmetry_Int_Tables_number   1
_chemical_formula_structural   Cu4Ni8C9
_chemical_formula_sum   'Cu4 Ni8 C9'
_cell_volume   294.06117757
_cell_formula_units_Z   1
loop_
 _symmetry_equiv_pos_site_id
 _symmetry_equiv_pos_as_xyz
  1  'x, y, z'
loop_
 _atom_site_type_symbol
 _atom_site_label
 _atom_site_symmetry_multiplicity
 _atom_site_fract_x
 _atom_site_fract_y
 _atom_site_fract_z
 _atom_site_occupancy
  C  C0  1  0.09669900  0.39074900  0.23756800  1
  C  C1  1  0.20470200  0.80878800  0.81434300  1
  C  C2  1  0.49667200  0.22598400  0.94019600  1
  C  C3  1  0.66462400  0.28119000  0.52519200  1
  C  C4  1  0.34027200  0.92640000  0.51463900  1
  C  C5  1  0.74783500  0.08273200  0.23567300  1
  C  C6  1  0.45571500  0.73245500  0.23607700  1
  C  C7  1  0.00629400  0.57335800  0.52238800  1
  C  C8  1  0.86791600  0.48310800  0.82308800  1
  Ni  Ni9  1  0.36878800  0.17807200  0.37892500  1
  Ni  Ni10  1  0.44823800  0.34943600  0.14530600  1
  Ni  Ni11  1  0.28848600  0.66270500  0.61135200  1
  Ni  Ni12  1  0.70447400  0.48152400  0.37983800  1
  Ni  Ni13  1  0.51329500  0.50421400  0.86872100  1
  Ni  Ni14  1  0.79766600  0.68685600  0.16221100  1
  Ni  Ni15  1  0.96661000  0.31910000  0.61449400  1
  Ni  Ni16  1  0.84998300  0.85709000  0.87312200  1
  Cu  Cu17  1  0.11848400  0.01592900  0.15991300  1
  Cu  Cu18  1  0.03833800  0.85549600  0.38756600  1
  Cu  Cu19  1  0.19136700  0.17807700  0.87455700  1
  Cu  Cu20  1  0.64064300  0.97330700  0.58885200  1
