# generated using pymatgen
data_Cu4Ni12C11
_symmetry_space_group_name_H-M   'P 1'
_cell_length_a   9.59723300
_cell_length_b   10.70433700
_cell_length_c   15.08781100
_cell_angle_alpha   90.00000000
_cell_angle_beta   90.00000000
_cell_angle_gamma   90.00000000
_symmetry_Int_Tables_number   1
_chemical_formula_structural   Cu4Ni12C11
_chemical_formula_sum   'Cu16 Ni48 C44'
_cell_volume   1550.00124558
_cell_formula_units_Z   4
loop_
 _symmetry_equiv_pos_site_id
 _symmetry_equiv_pos_as_xyz
  1  'x, y, z'
loop_
 _atom_site_type_symbol
 _atom_site_label
 _atom_site_symmetry_multiplicity
 _atom_site_fract_x
 _atom_site_fract_y
 _atom_site_fract_z
 _atom_site_occupancy
  C  C0  1  0.06151500  0.50463800  0.11899900  1
  C  C1  1  0.43848500  0.49536200  0.61899900  1
  C  C2  1  0.93848500  0.00463800  0.38100100  1
  C  C3  1  0.56151500  0.99536200  0.88100100  1
  C  C4  1  0.40273400  0.32368600  0.30190900  1
  C  C5  1  0.09726600  0.67631400  0.80190900  1
  C  C6  1  0.59726600  0.82368600  0.19809100  1
  C  C7  1  0.90273400  0.17631400  0.69809100  1
  Ni  Ni8  1  0.07381000  0.51048900  0.45429900  1
  Ni  Ni9  1  0.42619000  0.48951100  0.95429900  1
  Ni  Ni10  1  0.92619000  0.01048900  0.04570100  1
  Ni  Ni11  1  0.57381000  0.98951100  0.54570100  1
  Ni  Ni12  1  0.69651500  0.41182400  0.01951100  1
  Ni  Ni13  1  0.80348500  0.58817600  0.51951100  1
  Ni  Ni14  1  0.30348500  0.91182400  0.48048900  1
  Ni  Ni15  1  0.19651500  0.08817600  0.98048900  1
  Ni  Ni16  1  0.32761000  0.13097800  0.59439300  1
  Ni  Ni17  1  0.17239000  0.86902200  0.09439300  1
  Ni  Ni18  1  0.67239000  0.63097800  0.90560700  1
  Ni  Ni19  1  0.82761000  0.36902200  0.40560700  1
  Ni  Ni20  1  0.30956400  0.08033400  0.48189400  1
  Ni  Ni21  1  0.19043600  0.91966600  0.98189400  1
  Ni  Ni22  1  0.69043600  0.58033400  0.01810600  1
  Ni  Ni23  1  0.80956400  0.41966600  0.51810600  1
  Ni  Ni24  1  0.01368800  0.09263900  0.13295100  1
  Ni  Ni25  1  0.48631200  0.90736100  0.63295100  1
  Ni  Ni26  1  0.98631200  0.59263900  0.36704900  1
  Ni  Ni27  1  0.51368800  0.40736100  0.86704900  1
  Ni  Ni28  1  0.53907400  0.49260700  0.04752800  1
  Ni  Ni29  1  0.96092600  0.50739300  0.54752800  1
  Ni  Ni30  1  0.46092600  0.99260700  0.45247200  1
  Ni  Ni31  1  0.03907400  0.00739300  0.95247200  1
  Ni  Ni32  1  0.49109300  0.07437200  0.63323500  1
  Ni  Ni33  1  0.00890700  0.92562800  0.13323500  1
  Ni  Ni34  1  0.50890700  0.57437200  0.86676500  1
  Ni  Ni35  1  0.99109300  0.42562800  0.36676500  1
  Ni  Ni36  1  0.18040300  0.13985000  0.09302800  1
  Ni  Ni37  1  0.31959700  0.86015000  0.59302800  1
  Ni  Ni38  1  0.81959700  0.63985000  0.40697200  1
  Ni  Ni39  1  0.68040300  0.36015000  0.90697200  1
  Ni  Ni40  1  0.16574300  0.00505800  0.16208000  1
  Ni  Ni41  1  0.33425700  0.99494200  0.66208000  1
  Ni  Ni42  1  0.83425700  0.50505800  0.33792000  1
  Ni  Ni43  1  0.66574300  0.49494200  0.83792000  1
  Ni  Ni44  1  0.27823400  0.00176600  0.06916500  1
  Ni  Ni45  1  0.22176600  0.99823400  0.56916500  1
  Ni  Ni46  1  0.72176600  0.50176600  0.43083500  1
  Ni  Ni47  1  0.77823400  0.49823400  0.93083500  1
  Ni  Ni48  1  0.47471500  0.12740300  0.52208700  1
  Ni  Ni49  1  0.02528500  0.87259700  0.02208700  1
  Ni  Ni50  1  0.52528500  0.62740300  0.97791300  1
  Ni  Ni51  1  0.97471500  0.37259700  0.47791300  1
  Ni  Ni52  1  0.03318400  0.14344400  0.02071800  1
  Ni  Ni53  1  0.46681600  0.85655600  0.52071800  1
  Ni  Ni54  1  0.96681600  0.64344400  0.47928200  1
  Ni  Ni55  1  0.53318400  0.35655600  0.97928200  1
  Cu  Cu56  1  0.98657900  0.24028100  0.99426200  1
  Cu  Cu57  1  0.51342100  0.75971900  0.49426200  1
  Cu  Cu58  1  0.01342100  0.74028100  0.50573800  1
  Cu  Cu59  1  0.48657900  0.25971900  0.00573800  1
  Cu  Cu60  1  0.21115200  0.00456500  0.23593800  1
  Cu  Cu61  1  0.28884800  0.99543500  0.73593800  1
  Cu  Cu62  1  0.78884800  0.50456500  0.26406200  1
  Cu  Cu63  1  0.71115200  0.49543500  0.76406200  1
  Cu  Cu64  1  0.60614200  0.16964100  0.19313400  1
  Cu  Cu65  1  0.89385800  0.83035900  0.69313400  1
  Cu  Cu66  1  0.39385800  0.66964100  0.30686600  1
  Cu  Cu67  1  0.10614200  0.33035900  0.80686600  1
  Cu  Cu68  1  0.03059500  0.27883400  0.50286400  1
  Cu  Cu69  1  0.46940500  0.72116600  0.00286400  1
  Cu  Cu70  1  0.96940500  0.77883400  0.99713600  1
  Cu  Cu71  1  0.53059500  0.22116600  0.49713600  1
  C  C72  1  0.05954600  0.65787700  0.30197100  1
  C  C73  1  0.44045400  0.34212300  0.80197100  1
  C  C74  1  0.94045400  0.15787700  0.19802900  1
  C  C75  1  0.55954600  0.84212300  0.69802900  1
  C  C76  1  0.23408500  0.14836400  0.41779000  1
  C  C77  1  0.26591500  0.85163600  0.91779000  1
  C  C78  1  0.76591500  0.64836400  0.08221000  1
  C  C79  1  0.73408500  0.35163600  0.58221000  1
  C  C80  1  0.26628300  0.24277200  0.62391400  1
  C  C81  1  0.23371700  0.75722800  0.12391400  1
  C  C82  1  0.73371700  0.74277200  0.87608600  1
  C  C83  1  0.76628300  0.25722800  0.37608600  1
  C  C84  1  0.07509900  0.00465900  0.57674300  1
  C  C85  1  0.42490100  0.99534100  0.07674300  1
  C  C86  1  0.92490100  0.50465900  0.92325700  1
  C  C87  1  0.57509900  0.49534100  0.42325700  1
  C  C88  1  0.22027200  0.50965600  0.46057400  1
  C  C89  1  0.27972800  0.49034400  0.96057400  1
  C  C90  1  0.77972800  0.00965600  0.03942600  1
  C  C91  1  0.72027200  0.99034400  0.53942600  1
  C  C92  1  0.77650800  0.35193300  0.08375700  1
  C  C93  1  0.72349200  0.64806700  0.58375700  1
  C  C94  1  0.22349200  0.85193300  0.41624300  1
  C  C95  1  0.27650800  0.14806700  0.91624300  1
  C  C96  1  0.51013300  0.99450300  0.36424500  1
  C  C97  1  0.98986700  0.00549700  0.86424500  1
  C  C98  1  0.48986700  0.49450300  0.13575500  1
  C  C99  1  0.01013300  0.50549700  0.63575500  1
  C  C100  1  0.24428000  0.24990500  0.12467000  1
  C  C101  1  0.25572000  0.75009500  0.62467000  1
  C  C102  1  0.75572000  0.74990500  0.37533000  1
  C  C103  1  0.74428000  0.25009500  0.87533000  1
  C  C104  1  0.07462700  0.36478500  0.30318000  1
  C  C105  1  0.42537300  0.63521500  0.80318000  1
  C  C106  1  0.92537300  0.86478500  0.19682000  1
  C  C107  1  0.57462700  0.13521500  0.69682000  1
