# generated using pymatgen
data_Cu9NiC17
_symmetry_space_group_name_H-M   'P 1'
_cell_length_a   14.04625000
_cell_length_b   8.20197100
_cell_length_c   11.04892738
_cell_angle_alpha   61.12351850
_cell_angle_beta   90.00000000
_cell_angle_gamma   90.00000000
_symmetry_Int_Tables_number   1
_chemical_formula_structural   Cu9NiC17
_chemical_formula_sum   'Cu36 Ni4 C68'
_cell_volume   1114.64265060
_cell_formula_units_Z   4
loop_
 _symmetry_equiv_pos_site_id
 _symmetry_equiv_pos_as_xyz
  1  'x, y, z'
loop_
 _atom_site_type_symbol
 _atom_site_label
 _atom_site_symmetry_multiplicity
 _atom_site_fract_x
 _atom_site_fract_y
 _atom_site_fract_z
 _atom_site_occupancy
  C  C0  1  0.65120700  0.56224300  0.92391200  1
  C  C1  1  0.84879300  0.56224300  0.42391200  1
  C  C2  1  0.34879300  0.43775700  0.07608800  1
  C  C3  1  0.15120700  0.43775700  0.57608800  1
  C  C4  1  0.64082900  0.35961100  0.68468200  1
  C  C5  1  0.85917100  0.35961100  0.18468200  1
  C  C6  1  0.35917100  0.64038900  0.31531800  1
  C  C7  1  0.14082900  0.64038900  0.81531800  1
  C  C8  1  0.45973400  0.78278200  0.74225600  1
  C  C9  1  0.04026600  0.78278200  0.24225600  1
  C  C10  1  0.54026600  0.21721800  0.25774400  1
  C  C11  1  0.95973400  0.21721800  0.75774400  1
  C  C12  1  0.32584400  0.16334200  0.87881600  1
  C  C13  1  0.17415600  0.16334200  0.37881600  1
  C  C14  1  0.67415600  0.83665800  0.12118400  1
  C  C15  1  0.82584400  0.83665800  0.62118400  1
  C  C16  1  0.60862100  0.04023100  0.74264800  1
  C  C17  1  0.89137900  0.04023100  0.24264800  1
  C  C18  1  0.39137900  0.95976900  0.25735200  1
  C  C19  1  0.10862100  0.95976900  0.75735200  1
  C  C20  1  0.58598500  0.19513800  0.56474800  1
  C  C21  1  0.91401500  0.19513800  0.06474800  1
  C  C22  1  0.41401500  0.80486200  0.43525200  1
  C  C23  1  0.08598500  0.80486200  0.93525200  1
  C  C24  1  0.34444100  0.02429000  0.69112000  1
  C  C25  1  0.15555900  0.02429000  0.19112000  1
  C  C26  1  0.65555900  0.97571000  0.30888000  1
  C  C27  1  0.84444100  0.97571000  0.80888000  1
  C  C28  1  0.42366600  0.08358000  0.55035100  1
  C  C29  1  0.07633400  0.08358000  0.05035100  1
  C  C30  1  0.57633400  0.91642000  0.44964900  1
  C  C31  1  0.92366600  0.91642000  0.94964900  1
  C  C32  1  0.46859500  0.97460500  0.91207400  1
  C  C33  1  0.03140500  0.97460500  0.41207400  1
  C  C34  1  0.53140500  0.02539500  0.08792600  1
  C  C35  1  0.96859500  0.02539500  0.58792600  1
  C  C36  1  0.49641300  0.21046100  0.86601400  1
  C  C37  1  0.00358700  0.21046100  0.36601400  1
  C  C38  1  0.50358700  0.78953900  0.13398600  1
  C  C39  1  0.99641300  0.78953900  0.63398600  1
  C  C40  1  0.44060200  0.29029000  0.63192200  1
  C  C41  1  0.05939800  0.29029000  0.13192200  1
  C  C42  1  0.55939800  0.70971000  0.36807800  1
  C  C43  1  0.94060200  0.70971000  0.86807800  1
  C  C44  1  0.29616400  0.86663400  0.01188500  1
  C  C45  1  0.20383600  0.86663400  0.51188500  1
  C  C46  1  0.70383600  0.13336600  0.98811500  1
  C  C47  1  0.79616400  0.13336600  0.48811500  1
  C  C48  1  0.32112700  0.66172000  0.74465300  1
  C  C49  1  0.17887300  0.66172000  0.24465300  1
  C  C50  1  0.67887300  0.33828000  0.25534700  1
  C  C51  1  0.82112700  0.33828000  0.75534700  1
  C  C52  1  0.56754900  0.62859200  0.62719400  1
  C  C53  1  0.93245100  0.62859200  0.12719400  1
  C  C54  1  0.43245100  0.37140800  0.37280600  1
  C  C55  1  0.06754900  0.37140800  0.87280600  1
  C  C56  1  0.57605900  0.17354700  0.67008700  1
  C  C57  1  0.92394100  0.17354700  0.17008700  1
  C  C58  1  0.42394100  0.82645300  0.32991300  1
  C  C59  1  0.07605900  0.82645300  0.82991300  1
  C  C60  1  0.41959400  0.02674700  0.66293800  1
  C  C61  1  0.08040600  0.02674700  0.16293800  1
  C  C62  1  0.58040600  0.97325300  0.33706200  1
  C  C63  1  0.91959400  0.97325300  0.83706200  1
  C  C64  1  0.44938100  0.12042400  0.84471600  1
  C  C65  1  0.05061900  0.12042400  0.34471600  1
  C  C66  1  0.55061900  0.87957600  0.15528400  1
  C  C67  1  0.94938100  0.87957600  0.65528400  1
  Ni  Ni68  1  0.46993800  0.16129600  0.69884700  1
  Ni  Ni69  1  0.03006200  0.16129600  0.19884700  1
  Ni  Ni70  1  0.53006200  0.83870400  0.30115300  1
  Ni  Ni71  1  0.96993800  0.83870400  0.80115300  1
  Cu  Cu72  1  0.73934400  0.36850700  0.62570000  1
  Cu  Cu73  1  0.76065600  0.36850700  0.12570000  1
  Cu  Cu74  1  0.26065600  0.63149300  0.37430000  1
  Cu  Cu75  1  0.23934400  0.63149300  0.87430000  1
  Cu  Cu76  1  0.57829900  0.53835500  0.58800500  1
  Cu  Cu77  1  0.92170100  0.53835500  0.08800500  1
  Cu  Cu78  1  0.42170100  0.46164500  0.41199500  1
  Cu  Cu79  1  0.07829900  0.46164500  0.91199500  1
  Cu  Cu80  1  0.64031400  0.32587900  0.83315600  1
  Cu  Cu81  1  0.85968600  0.32587900  0.33315600  1
  Cu  Cu82  1  0.35968600  0.67412100  0.16684400  1
  Cu  Cu83  1  0.14031400  0.67412100  0.66684400  1
  Cu  Cu84  1  0.46113200  0.69144600  0.89843100  1
  Cu  Cu85  1  0.03886800  0.69144600  0.39843100  1
  Cu  Cu86  1  0.53886800  0.30855400  0.10156900  1
  Cu  Cu87  1  0.96113200  0.30855400  0.60156900  1
  Cu  Cu88  1  0.38042800  0.69772700  0.68593400  1
  Cu  Cu89  1  0.11957200  0.69772700  0.18593400  1
  Cu  Cu90  1  0.61957200  0.30227300  0.31406600  1
  Cu  Cu91  1  0.88042800  0.30227300  0.81406600  1
  Cu  Cu92  1  0.55453400  0.76893800  0.68042300  1
  Cu  Cu93  1  0.94546600  0.76893800  0.18042300  1
  Cu  Cu94  1  0.44546600  0.23106200  0.31957700  1
  Cu  Cu95  1  0.05453400  0.23106200  0.81957700  1
  Cu  Cu96  1  0.28341100  0.30623000  0.74320400  1
  Cu  Cu97  1  0.21658900  0.30623000  0.24320400  1
  Cu  Cu98  1  0.71658900  0.69377000  0.25679600  1
  Cu  Cu99  1  0.78341100  0.69377000  0.75679600  1
  Cu  Cu100  1  0.33297900  0.20240600  0.99873400  1
  Cu  Cu101  1  0.16702100  0.20240600  0.49873400  1
  Cu  Cu102  1  0.66702100  0.79759400  0.00126600  1
  Cu  Cu103  1  0.83297900  0.79759400  0.50126600  1
  Cu  Cu104  1  0.27127000  0.97018800  0.92453300  1
  Cu  Cu105  1  0.22873000  0.97018800  0.42453300  1
  Cu  Cu106  1  0.72873000  0.02981200  0.07546700  1
  Cu  Cu107  1  0.77127000  0.02981200  0.57546700  1
