# generated using pymatgen
data_Cu3Ni3C5
_symmetry_space_group_name_H-M   'P 1'
_cell_length_a   3.77321400
_cell_length_b   10.22360200
_cell_length_c   18.55489700
_cell_angle_alpha   90.00000000
_cell_angle_beta   90.00000000
_cell_angle_gamma   90.00000000
_symmetry_Int_Tables_number   1
_chemical_formula_structural   Cu3Ni3C5
_chemical_formula_sum   'Cu12 Ni12 C20'
_cell_volume   715.77070443
_cell_formula_units_Z   4
loop_
 _symmetry_equiv_pos_site_id
 _symmetry_equiv_pos_as_xyz
  1  'x, y, z'
loop_
 _atom_site_type_symbol
 _atom_site_label
 _atom_site_symmetry_multiplicity
 _atom_site_fract_x
 _atom_site_fract_y
 _atom_site_fract_z
 _atom_site_occupancy
  C  C0  1  0.75000000  0.42777500  0.83528500  1
  C  C1  1  0.25000000  0.57222500  0.16471500  1
  C  C2  1  0.75000000  0.92777500  0.66471500  1
  C  C3  1  0.25000000  0.07222500  0.33528500  1
  C  C4  1  0.75000000  0.36219100  0.45641000  1
  C  C5  1  0.25000000  0.63780900  0.54359000  1
  C  C6  1  0.75000000  0.86219100  0.04359000  1
  C  C7  1  0.25000000  0.13780900  0.95641000  1
  Ni  Ni8  1  0.25000000  0.08402500  0.12353800  1
  Ni  Ni9  1  0.25000000  0.58402500  0.37646200  1
  Ni  Ni10  1  0.75000000  0.41597500  0.62353800  1
  Ni  Ni11  1  0.75000000  0.91597500  0.87646200  1
  Ni  Ni12  1  0.25000000  0.13910300  0.52960300  1
  Ni  Ni13  1  0.75000000  0.86089700  0.47039700  1
  Ni  Ni14  1  0.25000000  0.63910300  0.97039700  1
  Ni  Ni15  1  0.75000000  0.36089700  0.02960300  1
  Ni  Ni16  1  0.75000000  0.35247800  0.28808300  1
  Ni  Ni17  1  0.25000000  0.64752200  0.71191700  1
  Ni  Ni18  1  0.75000000  0.85247800  0.21191700  1
  Ni  Ni19  1  0.25000000  0.14752200  0.78808300  1
  Cu  Cu20  1  0.75000000  0.78562500  0.15839700  1
  Cu  Cu21  1  0.75000000  0.26593400  0.99085700  1
  Cu  Cu22  1  0.25000000  0.02267200  0.06719500  1
  Cu  Cu23  1  0.75000000  0.97732800  0.93280500  1
  Cu  Cu24  1  0.25000000  0.52267200  0.43280500  1
  Cu  Cu25  1  0.75000000  0.47732800  0.56719500  1
  Cu  Cu26  1  0.25000000  0.23406600  0.49085700  1
  Cu  Cu27  1  0.75000000  0.76593400  0.50914300  1
  Cu  Cu28  1  0.75000000  0.28562500  0.34160300  1
  Cu  Cu29  1  0.25000000  0.71437500  0.65839700  1
  Cu  Cu30  1  0.25000000  0.21437500  0.84160300  1
  Cu  Cu31  1  0.25000000  0.73406600  0.00914300  1
  C  C32  1  0.25000000  0.54361300  0.93225200  1
  C  C33  1  0.25000000  0.08282900  0.73356900  1
  C  C34  1  0.75000000  0.85683400  0.82087400  1
  C  C35  1  0.25000000  0.64316600  0.32087400  1
  C  C36  1  0.75000000  0.45638700  0.06774800  1
  C  C37  1  0.75000000  0.35683400  0.67912600  1
  C  C38  1  0.25000000  0.04361300  0.56774800  1
  C  C39  1  0.75000000  0.95638700  0.43225200  1
  C  C40  1  0.75000000  0.41717100  0.23356900  1
  C  C41  1  0.25000000  0.58282900  0.76643100  1
  C  C42  1  0.25000000  0.14316600  0.17912600  1
  C  C43  1  0.75000000  0.91717100  0.26643100  1
