# generated using pymatgen
data_Cu9Ni7C128
_symmetry_space_group_name_H-M   'P 1'
_cell_length_a   8.68776856
_cell_length_b   8.82691916
_cell_length_c   24.37747317
_cell_angle_alpha   89.96583761
_cell_angle_beta   90.00296944
_cell_angle_gamma   90.01034971
_symmetry_Int_Tables_number   1
_chemical_formula_structural   Cu9Ni7C128
_chemical_formula_sum   'Cu9 Ni7 C128'
_cell_volume   1869.41616772
_cell_formula_units_Z   1
loop_
 _symmetry_equiv_pos_site_id
 _symmetry_equiv_pos_as_xyz
  1  'x, y, z'
loop_
 _atom_site_type_symbol
 _atom_site_label
 _atom_site_symmetry_multiplicity
 _atom_site_fract_x
 _atom_site_fract_y
 _atom_site_fract_z
 _atom_site_occupancy
  C  C0  1  0.03252729  0.47007767  0.21468573  1
  C  C1  1  0.03307627  0.03015515  0.71419875  1
  C  C2  1  0.46776182  0.52977472  0.71447561  1
  C  C3  1  0.46755030  0.97018268  0.21463621  1
  C  C4  1  0.53231043  0.47013373  0.28544506  1
  C  C5  1  0.53248823  0.03059522  0.78500297  1
  C  C6  1  0.96749305  0.97042745  0.28558279  1
  C  C7  1  0.96649348  0.53129287  0.78544462  1
  Ni  Ni8  1  0.00102993  0.22127954  0.06688725  1
  Ni  Ni9  1  0.00149657  0.27920629  0.56620325  1
  Ni  Ni10  1  0.49977618  0.72052095  0.06676261  1
  Ni  Ni11  1  0.49873505  0.77923351  0.56622204  1
  Ni  Ni12  1  0.50136998  0.22086094  0.43381160  1
  Ni  Ni13  1  0.50000936  0.27897401  0.93337253  1
  Ni  Ni14  1  0.99866967  0.72096294  0.43372956  1
  Cu  Cu15  1  0.00023271  0.28841705  0.31919210  1
  Cu  Cu16  1  0.99972402  0.21146381  0.81890840  1
  Cu  Cu17  1  0.49935620  0.71190329  0.81888234  1
  Cu  Cu18  1  0.49973605  0.78842240  0.31923303  1
  Cu  Cu19  1  0.50039331  0.28838942  0.18092470  1
  Cu  Cu20  1  0.50035357  0.21185735  0.68074027  1
  Cu  Cu21  1  0.99945444  0.78061843  0.93283525  1
  Cu  Cu22  1  0.99915138  0.78867496  0.18139953  1
  Cu  Cu23  1  0.00020091  0.71180095  0.68021159  1
  C  C24  1  0.14231825  0.14584344  0.19861984  1
  C  C25  1  0.14222062  0.35450768  0.69844151  1
  C  C26  1  0.15009415  0.86948602  0.05443382  1
  C  C27  1  0.15014056  0.63021558  0.55353843  1
  C  C28  1  0.21369349  0.50011987  0.87748980  1
  C  C29  1  0.21428363  0.99903378  0.37716023  1
  C  C30  1  0.28569504  0.49905217  0.37713813  1
  C  C31  1  0.28754570  0.00017239  0.87703170  1
  C  C32  1  0.34987196  0.36988032  0.05394685  1
  C  C33  1  0.35030897  0.13031705  0.55374962  1
  C  C34  1  0.35765283  0.64561304  0.19853844  1
  C  C35  1  0.35788356  0.85410875  0.69830602  1
  C  C36  1  0.64212909  0.14573594  0.30161711  1
  C  C37  1  0.64219398  0.35438884  0.80152107  1
  C  C38  1  0.64957985  0.63018332  0.94635987  1
  C  C39  1  0.64974717  0.86959072  0.44613621  1
  C  C40  1  0.71417547  0.50071965  0.62255844  1
  C  C41  1  0.71422874  0.99933062  0.12280780  1
  C  C42  1  0.78600136  0.49919132  0.12287280  1
  C  C43  1  0.78564848  0.00096912  0.62261771  1
  C  C44  1  0.85028807  0.36957501  0.44613258  1
  C  C45  1  0.85040975  0.13070123  0.94655684  1
  C  C46  1  0.85766018  0.64562919  0.30168144  1
  C  C47  1  0.85727416  0.85435947  0.80063440  1
  C  C48  1  0.07131981  0.77069906  0.01098899  1
  C  C49  1  0.07201478  0.72652542  0.50855970  1
  C  C50  1  0.08187175  0.51424737  0.71358872  1
  C  C51  1  0.08180942  0.98632469  0.21394650  1
  C  C52  1  0.08096083  0.26381667  0.24043462  1
  C  C53  1  0.08114307  0.23660126  0.74053341  1
  C  C54  1  0.08320176  0.19873810  0.14190844  1
  C  C55  1  0.08304112  0.30142802  0.64178676  1
  C  C56  1  0.09893779  0.82140816  0.11163655  1
  C  C57  1  0.09614901  0.68214644  0.60989576  1
  C  C58  1  0.10191878  0.08621434  0.33942291  1
  C  C59  1  0.10143731  0.41450206  0.83913361  1
  C  C60  1  0.11421771  0.03908354  0.04621205  1
  C  C61  1  0.11391719  0.46103384  0.54552605  1
  C  C62  1  0.11521015  0.90387738  0.41703542  1
  C  C63  1  0.11713604  0.59062991  0.91887374  1
  C  C64  1  0.17407941  0.34808268  0.04851642  1
  C  C65  1  0.17430668  0.15250297  0.54832940  1
  C  C66  1  0.17947548  0.85698752  0.70026534  1
  C  C67  1  0.17928493  0.64283320  0.20051387  1
  C  C68  1  0.18137677  0.60430685  0.41068486  1
  C  C69  1  0.18598527  0.89571112  0.91126552  1
  C  C70  1  0.19204097  0.39240938  0.34054030  1
  C  C71  1  0.19063640  0.10664031  0.84086896  1
  C  C72  1  0.30791798  0.89246295  0.34059557  1
  C  C73  1  0.30748656  0.60810506  0.84097981  1
  C  C74  1  0.31864132  0.10427689  0.41076288  1
  C  C75  1  0.31923834  0.39240816  0.90967018  1
  C  C76  1  0.32065524  0.14290653  0.20035630  1
  C  C77  1  0.32066831  0.35725669  0.70028117  1
  C  C78  1  0.32630388  0.84829476  0.04833417  1
  C  C79  1  0.32601797  0.65229522  0.54796021  1
  C  C80  1  0.38461695  0.40367131  0.41698422  1
  C  C81  1  0.38828660  0.09593110  0.91637494  1
  C  C82  1  0.38632584  0.53925888  0.04588332  1
  C  C83  1  0.38608721  0.96112383  0.54560781  1
  C  C84  1  0.39810046  0.58618234  0.33938025  1
  C  C85  1  0.39941152  0.91482964  0.83857685  1
  C  C86  1  0.40458474  0.31810528  0.11018414  1
  C  C87  1  0.40468160  0.18219515  0.61011429  1
  C  C88  1  0.41680846  0.69858534  0.14188105  1
  C  C89  1  0.41677751  0.80126433  0.64160639  1
  C  C90  1  0.41902134  0.76353276  0.24044818  1
  C  C91  1  0.41916667  0.73612590  0.74029194  1
  C  C92  1  0.41818679  0.01397722  0.71343052  1
  C  C93  1  0.41784913  0.48585135  0.21367893  1
  C  C94  1  0.42693686  0.27357529  0.00868947  1
  C  C95  1  0.42811761  0.22658070  0.50867904  1
  C  C96  1  0.57190933  0.77345939  0.49127307  1
  C  C97  1  0.57143023  0.72725923  0.99136009  1
  C  C98  1  0.58194941  0.51427027  0.78641969  1
  C  C99  1  0.58206440  0.98593530  0.28640411  1
  C  C100  1  0.58072120  0.26348492  0.25960919  1
  C  C101  1  0.58074187  0.23686243  0.75948306  1
  C  C102  1  0.58331339  0.19853631  0.35823792  1
  C  C103  1  0.58387038  0.30126110  0.85824533  1
  C  C104  1  0.59388536  0.68220277  0.88999490  1
  C  C105  1  0.59548500  0.81791588  0.38989223  1
  C  C106  1  0.60192832  0.08611367  0.16068690  1
  C  C107  1  0.60199359  0.41384243  0.66053584  1
  C  C108  1  0.61389969  0.03876580  0.45431554  1
  C  C109  1  0.60858426  0.46176517  0.95427150  1
  C  C110  1  0.61496296  0.59609732  0.58273353  1
  C  C111  1  0.61452625  0.90423671  0.08291204  1
  C  C112  1  0.67442305  0.34751066  0.45165700  1
  C  C113  1  0.67521801  0.15711441  0.95237692  1
  C  C114  1  0.67932406  0.64290064  0.29964367  1
  C  C115  1  0.67855914  0.85709488  0.79900120  1
  C  C116  1  0.68168230  0.60461106  0.08925691  1
  C  C117  1  0.68128276  0.89563663  0.58915208  1
  C  C118  1  0.69220419  0.39245091  0.15944803  1
  C  C119  1  0.69209817  0.10793578  0.65942422  1
  C  C120  1  0.80848488  0.60779605  0.65906856  1
  C  C121  1  0.80778246  0.89174783  0.15923090  1
  C  C122  1  0.81833265  0.10455256  0.08917165  1
  C  C123  1  0.81859802  0.39550132  0.58906784  1
  C  C124  1  0.82053203  0.14308524  0.29966171  1
  C  C125  1  0.82075506  0.35721877  0.79974773  1
  C  C126  1  0.82433483  0.64666589  0.95280387  1
  C  C127  1  0.82559907  0.84753278  0.45167075  1
  C  C128  1  0.88442973  0.09669425  0.58272673  1
  C  C129  1  0.88488834  0.40407630  0.08291526  1
  C  C130  1  0.88612064  0.53875933  0.45430403  1
  C  C131  1  0.88101515  0.96182544  0.95545980  1
  C  C132  1  0.89874318  0.58617959  0.16055716  1
  C  C133  1  0.89864084  0.91421735  0.66029513  1
  C  C134  1  0.90494517  0.18098186  0.88989867  1
  C  C135  1  0.90458508  0.31799145  0.38990059  1
  C  C136  1  0.91655139  0.69842668  0.35829557  1
  C  C137  1  0.91612886  0.79845201  0.85650869  1
  C  C138  1  0.91906373  0.76373787  0.25976704  1
  C  C139  1  0.91683052  0.73728917  0.75802506  1
  C  C140  1  0.91794638  0.48606189  0.28640590  1
  C  C141  1  0.91702781  0.01456732  0.78572286  1
  C  C142  1  0.92817517  0.27341868  0.49126120  1
  C  C143  1  0.93063810  0.22645591  0.99129743  1
