# generated using pymatgen
data_Cu3(NiC8)2
_symmetry_space_group_name_H-M   'P 1'
_cell_length_a   13.38985904
_cell_length_b   10.22044207
_cell_length_c   9.87361210
_cell_angle_alpha   83.55427118
_cell_angle_beta   49.32968904
_cell_angle_gamma   47.11603978
_symmetry_Int_Tables_number   1
_chemical_formula_structural   Cu3(NiC8)2
_chemical_formula_sum   'Cu6 Ni4 C32'
_cell_volume   602.99399997
_cell_formula_units_Z   2
loop_
 _symmetry_equiv_pos_site_id
 _symmetry_equiv_pos_as_xyz
  1  'x, y, z'
loop_
 _atom_site_type_symbol
 _atom_site_label
 _atom_site_symmetry_multiplicity
 _atom_site_fract_x
 _atom_site_fract_y
 _atom_site_fract_z
 _atom_site_occupancy
  C  C0  1  0.14883000  0.42816900  0.93387400  1
  C  C1  1  0.48912700  0.93387400  0.42816900  1
  C  C2  1  0.82183100  0.10117000  0.76087300  1
  C  C3  1  0.31612600  0.76087300  0.10117000  1
  Ni  Ni4  1  0.42745300  0.49662900  0.76078200  1
  Ni  Ni5  1  0.31513600  0.76078200  0.49662900  1
  Ni  Ni6  1  0.75337100  0.82254700  0.93486400  1
  Ni  Ni7  1  0.48921800  0.93486400  0.82254700  1
  Cu  Cu8  1  0.75269000  0.24731000  0.24731000  1
  Cu  Cu9  1  0.00269000  0.49731000  0.49731000  1
  Cu  Cu10  1  0.42620800  0.25840500  0.99192400  1
  Cu  Cu11  1  0.32346300  0.99192400  0.25840500  1
  Cu  Cu12  1  0.99159500  0.82379200  0.92653700  1
  Cu  Cu13  1  0.25807600  0.92653700  0.82379200  1
  C  C14  1  0.65953700  0.28968800  0.47535900  1
  C  C15  1  0.57541600  0.47535900  0.28968800  1
  C  C16  1  0.96031200  0.59046300  0.67458400  1
  C  C17  1  0.77464100  0.67458400  0.59046300  1
  C  C18  1  0.46736700  0.37904800  0.89470000  1
  C  C19  1  0.25888400  0.89470000  0.37904800  1
  C  C20  1  0.87095200  0.78263300  0.99111600  1
  C  C21  1  0.35530000  0.99111600  0.78263300  1
  C  C22  1  0.18775800  0.62164700  0.88160400  1
  C  C23  1  0.30899100  0.88160400  0.62164700  1
  C  C24  1  0.62835300  0.06224200  0.94100900  1
  C  C25  1  0.36839600  0.94100900  0.06224200  1
  C  C26  1  0.42196800  0.15867700  0.87876200  1
  C  C27  1  0.54059200  0.87876200  0.15867700  1
  C  C28  1  0.09132300  0.82803200  0.70940800  1
  C  C29  1  0.37123800  0.70940800  0.82803200  1
  C  C30  1  0.18298300  0.44297900  0.25989800  1
  C  C31  1  0.11414100  0.25989800  0.44297900  1
  C  C32  1  0.80702100  0.06701700  0.13585900  1
  C  C33  1  0.99010200  0.13585900  0.06701700  1
  C  C34  1  0.03619500  0.82404300  0.41361800  1
  C  C35  1  0.72614400  0.41361800  0.82404300  1
  C  C36  1  0.42595700  0.21380500  0.52385600  1
  C  C37  1  0.83638200  0.52385600  0.21380500  1
  C  C38  1  0.58464400  0.07969600  0.47918900  1
  C  C39  1  0.85647100  0.47918900  0.07969600  1
  C  C40  1  0.17030400  0.66535600  0.39352900  1
  C  C41  1  0.77081100  0.39352900  0.66535600  1
