# generated using pymatgen
data_Cu5NiC13
_symmetry_space_group_name_H-M   'P 1'
_cell_length_a   7.98461800
_cell_length_b   12.38284900
_cell_length_c   18.24243300
_cell_angle_alpha   90.00000000
_cell_angle_beta   90.00000000
_cell_angle_gamma   90.00000000
_symmetry_Int_Tables_number   1
_chemical_formula_structural   Cu5NiC13
_chemical_formula_sum   'Cu40 Ni8 C104'
_cell_volume   1803.67165522
_cell_formula_units_Z   8
loop_
 _symmetry_equiv_pos_site_id
 _symmetry_equiv_pos_as_xyz
  1  'x, y, z'
loop_
 _atom_site_type_symbol
 _atom_site_label
 _atom_site_symmetry_multiplicity
 _atom_site_fract_x
 _atom_site_fract_y
 _atom_site_fract_z
 _atom_site_occupancy
  C  C0  1  0.70731900  0.57276800  0.42965200  1
  C  C1  1  0.20731900  0.92723200  0.57034800  1
  C  C2  1  0.29268100  0.07276800  0.07034800  1
  C  C3  1  0.79268100  0.42723200  0.92965200  1
  C  C4  1  0.29268100  0.42723200  0.57034800  1
  C  C5  1  0.79268100  0.07276800  0.42965200  1
  C  C6  1  0.70731900  0.92723200  0.92965200  1
  C  C7  1  0.20731900  0.57276800  0.07034800  1
  C  C8  1  0.33104400  0.08162200  0.42139300  1
  C  C9  1  0.83104400  0.41837800  0.57860700  1
  C  C10  1  0.66895600  0.58162200  0.07860700  1
  C  C11  1  0.16895600  0.91837800  0.92139300  1
  C  C12  1  0.66895600  0.91837800  0.57860700  1
  C  C13  1  0.16895600  0.58162200  0.42139300  1
  C  C14  1  0.33104400  0.41837800  0.92139300  1
  C  C15  1  0.83104400  0.08162200  0.07860700  1
  C  C16  1  0.31018200  0.34719400  0.24539800  1
  C  C17  1  0.81018200  0.15280600  0.75460200  1
  C  C18  1  0.68981800  0.84719400  0.25460200  1
  C  C19  1  0.18981800  0.65280600  0.74539800  1
  C  C20  1  0.68981800  0.65280600  0.75460200  1
  C  C21  1  0.18981800  0.84719400  0.24539800  1
  C  C22  1  0.31018200  0.15280600  0.74539800  1
  C  C23  1  0.81018200  0.34719400  0.25460200  1
  Ni  Ni24  1  0.57623200  0.32346900  0.40331800  1
  Ni  Ni25  1  0.07623200  0.17653100  0.59668200  1
  Ni  Ni26  1  0.42376800  0.82346900  0.09668200  1
  Ni  Ni27  1  0.92376800  0.67653100  0.90331800  1
  Ni  Ni28  1  0.42376800  0.67653100  0.59668200  1
  Ni  Ni29  1  0.92376800  0.82346900  0.40331800  1
  Ni  Ni30  1  0.57623200  0.17653100  0.90331800  1
  Ni  Ni31  1  0.07623200  0.32346900  0.09668200  1
  Cu  Cu32  1  0.92022800  0.34296000  0.42463600  1
  Cu  Cu33  1  0.42022800  0.15704000  0.57536400  1
  Cu  Cu34  1  0.07977200  0.84296000  0.07536400  1
  Cu  Cu35  1  0.57977200  0.65704000  0.92463600  1
  Cu  Cu36  1  0.07977200  0.65704000  0.57536400  1
  Cu  Cu37  1  0.57977200  0.84296000  0.42463600  1
  Cu  Cu38  1  0.92022800  0.15704000  0.92463600  1
  Cu  Cu39  1  0.42022800  0.34296000  0.07536400  1
  Cu  Cu40  1  0.22739400  0.32780800  0.42702800  1
  Cu  Cu41  1  0.72739400  0.17219200  0.57297200  1
  Cu  Cu42  1  0.77260600  0.82780800  0.07297200  1
  Cu  Cu43  1  0.27260600  0.67219200  0.92702800  1
  Cu  Cu44  1  0.77260600  0.67219200  0.57297200  1
  Cu  Cu45  1  0.27260600  0.82780800  0.42702800  1
  Cu  Cu46  1  0.22739400  0.17219200  0.92702800  1
  Cu  Cu47  1  0.72739400  0.32780800  0.07297200  1
  Cu  Cu48  1  0.06325900  0.21290900  0.33639200  1
  Cu  Cu49  1  0.56325900  0.28709100  0.66360800  1
  Cu  Cu50  1  0.93674100  0.71290900  0.16360800  1
  Cu  Cu51  1  0.43674100  0.78709100  0.83639200  1
  Cu  Cu52  1  0.93674100  0.78709100  0.66360800  1
  Cu  Cu53  1  0.43674100  0.71290900  0.33639200  1
  Cu  Cu54  1  0.06325900  0.28709100  0.83639200  1
  Cu  Cu55  1  0.56325900  0.21290900  0.16360800  1
  Cu  Cu56  1  0.55512800  0.15057400  0.29709600  1
  Cu  Cu57  1  0.05512800  0.34942600  0.70290400  1
  Cu  Cu58  1  0.44487200  0.65057400  0.20290400  1
  Cu  Cu59  1  0.94487200  0.84942600  0.79709600  1
  Cu  Cu60  1  0.44487200  0.84942600  0.70290400  1
  Cu  Cu61  1  0.94487200  0.65057400  0.29709600  1
  Cu  Cu62  1  0.55512800  0.34942600  0.79709600  1
  Cu  Cu63  1  0.05512800  0.15057400  0.20290400  1
  Cu  Cu64  1  0.50969600  0.52154100  0.30141500  1
  Cu  Cu65  1  0.00969600  0.97845900  0.69858500  1
  Cu  Cu66  1  0.49030400  0.02154100  0.19858500  1
  Cu  Cu67  1  0.99030400  0.47845900  0.80141500  1
  Cu  Cu68  1  0.49030400  0.47845900  0.69858500  1
  Cu  Cu69  1  0.99030400  0.02154100  0.30141500  1
  Cu  Cu70  1  0.50969600  0.97845900  0.80141500  1
  Cu  Cu71  1  0.00969600  0.52154100  0.19858500  1
  C  C72  1  0.57418300  0.16974700  0.36949500  1
  C  C73  1  0.07418300  0.33025300  0.63050500  1
  C  C74  1  0.42581700  0.66974700  0.13050500  1
  C  C75  1  0.92581700  0.83025300  0.86949500  1
  C  C76  1  0.42581700  0.83025300  0.63050500  1
  C  C77  1  0.92581700  0.66974700  0.36949500  1
  C  C78  1  0.57418300  0.33025300  0.86949500  1
  C  C79  1  0.07418300  0.16974700  0.13050500  1
  C  C80  1  0.21968300  0.25366500  0.36990200  1
  C  C81  1  0.71968300  0.24633500  0.63009800  1
  C  C82  1  0.78031700  0.75366500  0.13009800  1
  C  C83  1  0.28031700  0.74633500  0.86990200  1
  C  C84  1  0.78031700  0.74633500  0.63009800  1
  C  C85  1  0.28031700  0.75366500  0.36990200  1
  C  C86  1  0.21968300  0.24633500  0.86990200  1
  C  C87  1  0.71968300  0.25366500  0.13009800  1
  C  C88  1  0.77811800  0.38170600  0.45514900  1
  C  C89  1  0.27811800  0.11829400  0.54485100  1
  C  C90  1  0.22188200  0.88170600  0.04485100  1
  C  C91  1  0.72188200  0.61829400  0.95514900  1
  C  C92  1  0.22188200  0.61829400  0.54485100  1
  C  C93  1  0.72188200  0.88170600  0.45514900  1
  C  C94  1  0.77811800  0.11829400  0.95514900  1
  C  C95  1  0.27811800  0.38170600  0.04485100  1
  C  C96  1  0.37168700  0.35833100  0.45851700  1
  C  C97  1  0.87168700  0.14166900  0.54148300  1
  C  C98  1  0.62831300  0.85833100  0.04148300  1
  C  C99  1  0.12831300  0.64166900  0.95851700  1
  C  C100  1  0.62831300  0.64166900  0.54148300  1
  C  C101  1  0.12831300  0.85833100  0.45851700  1
  C  C102  1  0.37168700  0.14166900  0.95851700  1
  C  C103  1  0.87168700  0.35833100  0.04148300  1
  C  C104  1  0.57564400  0.42583700  0.31866300  1
  C  C105  1  0.07564400  0.07416300  0.68133700  1
  C  C106  1  0.42435600  0.92583700  0.18133700  1
  C  C107  1  0.92435600  0.57416300  0.81866300  1
  C  C108  1  0.42435600  0.57416300  0.68133700  1
  C  C109  1  0.92435600  0.92583700  0.31866300  1
  C  C110  1  0.57564400  0.07416300  0.81866300  1
  C  C111  1  0.07564400  0.42583700  0.18133700  1
  C  C112  1  0.57369700  0.22907500  0.24355700  1
  C  C113  1  0.07369700  0.27092500  0.75644300  1
  C  C114  1  0.42630300  0.72907500  0.25644300  1
  C  C115  1  0.92630300  0.77092500  0.74355700  1
  C  C116  1  0.42630300  0.77092500  0.75644300  1
  C  C117  1  0.92630300  0.72907500  0.24355700  1
  C  C118  1  0.57369700  0.27092500  0.74355700  1
  C  C119  1  0.07369700  0.22907500  0.25644300  1
  C  C120  1  0.45691300  0.59639600  0.35387700  1
  C  C121  1  0.95691300  0.90360400  0.64612300  1
  C  C122  1  0.54308700  0.09639600  0.14612300  1
  C  C123  1  0.04308700  0.40360400  0.85387700  1
  C  C124  1  0.54308700  0.40360400  0.64612300  1
  C  C125  1  0.04308700  0.09639600  0.35387700  1
  C  C126  1  0.45691300  0.90360400  0.85387700  1
  C  C127  1  0.95691300  0.59639600  0.14612300  1
  C  C128  1  0.49021500  0.54580500  0.22590000  1
  C  C129  1  0.99021500  0.95419500  0.77410000  1
  C  C130  1  0.50978500  0.04580500  0.27410000  1
  C  C131  1  0.00978500  0.45419500  0.72590000  1
  C  C132  1  0.50978500  0.45419500  0.77410000  1
  C  C133  1  0.00978500  0.04580500  0.22590000  1
  C  C134  1  0.49021500  0.95419500  0.72590000  1
  C  C135  1  0.99021500  0.54580500  0.27410000  1
  C  C136  1  0.91715400  0.27307500  0.36533200  1
  C  C137  1  0.41715400  0.22692500  0.63466800  1
  C  C138  1  0.08284600  0.77307500  0.13466800  1
  C  C139  1  0.58284600  0.72692500  0.86533200  1
  C  C140  1  0.08284600  0.72692500  0.63466800  1
  C  C141  1  0.58284600  0.77307500  0.36533200  1
  C  C142  1  0.91715400  0.22692500  0.86533200  1
  C  C143  1  0.41715400  0.27307500  0.13466800  1
  C  C144  1  0.07727100  0.37665200  0.45238700  1
  C  C145  1  0.57727100  0.12334800  0.54761300  1
  C  C146  1  0.92272900  0.87665200  0.04761300  1
  C  C147  1  0.42272900  0.62334800  0.95238700  1
  C  C148  1  0.92272900  0.62334800  0.54761300  1
  C  C149  1  0.42272900  0.87665200  0.45238700  1
  C  C150  1  0.07727100  0.12334800  0.95238700  1
  C  C151  1  0.57727100  0.37665200  0.04761300  1
