# generated using pymatgen
data_Cu19Ni3C32
_symmetry_space_group_name_H-M   'P 1'
_cell_length_a   11.92451368
_cell_length_b   11.92451368
_cell_length_c   10.10286000
_cell_angle_alpha   90.00000000
_cell_angle_beta   90.00000000
_cell_angle_gamma   90.74560629
_symmetry_Int_Tables_number   1
_chemical_formula_structural   Cu19Ni3C32
_chemical_formula_sum   'Cu19 Ni3 C32'
_cell_volume   1436.44470697
_cell_formula_units_Z   1
loop_
 _symmetry_equiv_pos_site_id
 _symmetry_equiv_pos_as_xyz
  1  'x, y, z'
loop_
 _atom_site_type_symbol
 _atom_site_label
 _atom_site_symmetry_multiplicity
 _atom_site_fract_x
 _atom_site_fract_y
 _atom_site_fract_z
 _atom_site_occupancy
  C  C0  1  0.49947500  0.49947500  0.80689000  1
  C  C1  1  0.99278400  0.99278400  0.79934500  1
  C  C2  1  0.49947500  0.49947500  0.19311000  1
  C  C3  1  0.99278400  0.99278400  0.20065500  1
  C  C4  1  0.71483100  0.07125900  0.00000000  1
  C  C5  1  0.30166700  0.91323700  0.00000000  1
  C  C6  1  0.21587500  0.44088400  0.00000000  1
  C  C7  1  0.78711200  0.57632700  0.00000000  1
  C  C8  1  0.44088400  0.21587500  0.00000000  1
  C  C9  1  0.57632700  0.78711200  0.00000000  1
  C  C10  1  0.07125900  0.71483100  0.00000000  1
  C  C11  1  0.91323700  0.30166700  0.00000000  1
  C  C12  1  0.58220900  0.20694200  0.69390400  1
  C  C13  1  0.41972200  0.79079000  0.69343300  1
  C  C14  1  0.08009600  0.29254800  0.69723100  1
  C  C15  1  0.91840300  0.70687800  0.69582500  1
  C  C16  1  0.29254800  0.08009600  0.69723100  1
  C  C17  1  0.70687800  0.91840300  0.69582500  1
  C  C18  1  0.20694200  0.58220900  0.69390400  1
  C  C19  1  0.79079000  0.41972200  0.69343300  1
  C  C20  1  0.41972200  0.79079000  0.30656700  1
  C  C21  1  0.58220900  0.20694200  0.30609600  1
  C  C22  1  0.91840300  0.70687800  0.30417500  1
  C  C23  1  0.08009600  0.29254800  0.30276900  1
  C  C24  1  0.70687800  0.91840300  0.30417500  1
  C  C25  1  0.29254800  0.08009600  0.30276900  1
  C  C26  1  0.79079000  0.41972200  0.30656700  1
  C  C27  1  0.20694200  0.58220900  0.30609600  1
  C  C28  1  0.64399100  0.64399100  0.50000000  1
  C  C29  1  0.35654900  0.35654900  0.50000000  1
  C  C30  1  0.14213400  0.85608000  0.50000000  1
  C  C31  1  0.85608000  0.14213400  0.50000000  1
  Ni  Ni32  1  0.49955600  0.99914700  0.50000000  1
  Ni  Ni33  1  0.99914700  0.49955600  0.50000000  1
  Ni  Ni34  1  0.16097700  0.16097700  0.00000000  1
  Cu  Cu35  1  0.67636900  0.67636900  0.77681100  1
  Cu  Cu36  1  0.32171900  0.32171900  0.78107800  1
  Cu  Cu37  1  0.17733300  0.82259400  0.77605400  1
  Cu  Cu38  1  0.82259400  0.17733300  0.77605400  1
  Cu  Cu39  1  0.32171900  0.32171900  0.21892200  1
  Cu  Cu40  1  0.67636900  0.67636900  0.22318900  1
  Cu  Cu41  1  0.82259400  0.17733300  0.22394600  1
  Cu  Cu42  1  0.17733300  0.82259400  0.22394600  1
  Cu  Cu43  1  0.10315300  0.10315300  0.50000000  1
  Cu  Cu44  1  0.89739900  0.89739900  0.50000000  1
  Cu  Cu45  1  0.60180700  0.39757700  0.50000000  1
  Cu  Cu46  1  0.39757700  0.60180700  0.50000000  1
  Cu  Cu47  1  0.50106900  0.99904900  0.84163100  1
  Cu  Cu48  1  0.99904900  0.50106900  0.84163100  1
  Cu  Cu49  1  0.50106900  0.99904900  0.15836900  1
  Cu  Cu50  1  0.99904900  0.50106900  0.15836900  1
  Cu  Cu51  1  0.84401200  0.84401200  0.00000000  1
  Cu  Cu52  1  0.65648200  0.34398400  0.00000000  1
  Cu  Cu53  1  0.34398400  0.65648200  0.00000000  1
