# generated using pymatgen
data_Cu3NiC24
_symmetry_space_group_name_H-M   'P 1'
_cell_length_a   12.12553445
_cell_length_b   12.12553445
_cell_length_c   12.12553462
_cell_angle_alpha   33.67033915
_cell_angle_beta   33.67033915
_cell_angle_gamma   33.67034274
_symmetry_Int_Tables_number   1
_chemical_formula_structural   Cu3NiC24
_chemical_formula_sum   'Cu3 Ni1 C24'
_cell_volume   488.19613870
_cell_formula_units_Z   1
loop_
 _symmetry_equiv_pos_site_id
 _symmetry_equiv_pos_as_xyz
  1  'x, y, z'
loop_
 _atom_site_type_symbol
 _atom_site_label
 _atom_site_symmetry_multiplicity
 _atom_site_fract_x
 _atom_site_fract_y
 _atom_site_fract_z
 _atom_site_occupancy
  Ni  Ni0  1  0.06249400  0.06249400  0.06249400  1
  C  C1  1  0.75180000  0.75180000  0.75180000  1
  C  C2  1  0.24960400  0.24960400  0.24960400  1
  C  C3  1  0.00356100  0.49666400  0.49666400  1
  C  C4  1  0.50400800  0.99885600  0.99885600  1
  C  C5  1  0.49666400  0.00356100  0.49666400  1
  C  C6  1  0.99885600  0.50400800  0.99885600  1
  C  C7  1  0.49666400  0.49666400  0.00356100  1
  C  C8  1  0.99885600  0.99885600  0.50400800  1
  Cu  Cu9  1  0.56240000  0.56240000  0.56240000  1
  Cu  Cu10  1  0.43756700  0.43756700  0.43756700  1
  Cu  Cu11  1  0.93754600  0.93754600  0.93754600  1
  C  C12  1  0.12988000  0.12988000  0.12988000  1
  C  C13  1  0.62928400  0.62928400  0.62928400  1
  C  C14  1  0.39949200  0.86035600  0.86035600  1
  C  C15  1  0.89522500  0.36271700  0.36271700  1
  C  C16  1  0.86035600  0.39949200  0.86035600  1
  C  C17  1  0.36271700  0.89522500  0.36271700  1
  C  C18  1  0.86035600  0.86035600  0.39949200  1
  C  C19  1  0.36271700  0.36271700  0.89522500  1
  C  C20  1  0.37076400  0.37076400  0.37076400  1
  C  C21  1  0.87107800  0.87107800  0.87107800  1
  C  C22  1  0.10521700  0.63715400  0.63715400  1
  C  C23  1  0.60477800  0.13690500  0.13690500  1
  C  C24  1  0.63715400  0.10521700  0.63715400  1
  C  C25  1  0.13690500  0.60477800  0.13690500  1
  C  C26  1  0.63715400  0.63715400  0.10521700  1
  C  C27  1  0.13690500  0.13690500  0.60477800  1
