# generated using pymatgen
data_CuNiC4
_symmetry_space_group_name_H-M   'P 1'
_cell_length_a   5.04704560
_cell_length_b   5.04733873
_cell_length_c   6.39125891
_cell_angle_alpha   89.95562389
_cell_angle_beta   89.95698524
_cell_angle_gamma   66.92903562
_symmetry_Int_Tables_number   1
_chemical_formula_structural   CuNiC4
_chemical_formula_sum   'Cu2 Ni2 C8'
_cell_volume   149.79015646
_cell_formula_units_Z   2
loop_
 _symmetry_equiv_pos_site_id
 _symmetry_equiv_pos_as_xyz
  1  'x, y, z'
loop_
 _atom_site_type_symbol
 _atom_site_label
 _atom_site_symmetry_multiplicity
 _atom_site_fract_x
 _atom_site_fract_y
 _atom_site_fract_z
 _atom_site_occupancy
  Ni  Ni0  1  0.64454500  0.64452500  0.74912100  1
  Ni  Ni1  1  0.35553300  0.35557100  0.25085500  1
  Cu  Cu2  1  0.99999100  0.99999000  0.50000000  1
  Cu  Cu3  1  0.99998800  0.99998700  0.00001400  1
  C  C4  1  0.75860700  0.75850800  0.54155400  1
  C  C5  1  0.24110200  0.24127500  0.04315300  1
  C  C6  1  0.75888100  0.75870000  0.95684700  1
  C  C7  1  0.24137800  0.24147000  0.45844200  1
  C  C8  1  0.72415500  0.21582500  0.25113300  1
  C  C9  1  0.21603500  0.72414400  0.25115100  1
  C  C10  1  0.27585000  0.78414300  0.74887200  1
  C  C11  1  0.78393700  0.27586100  0.74885500  1
