# generated using pymatgen
data_CuNiC7
_symmetry_space_group_name_H-M   'P 1'
_cell_length_a   8.64367812
_cell_length_b   8.64367812
_cell_length_c   8.64367812
_cell_angle_alpha   142.66509656
_cell_angle_beta   142.66509656
_cell_angle_gamma   53.82820493
_symmetry_Int_Tables_number   1
_chemical_formula_structural   CuNiC7
_chemical_formula_sum   'Cu2 Ni2 C14'
_cell_volume   235.97765158
_cell_formula_units_Z   2
loop_
 _symmetry_equiv_pos_site_id
 _symmetry_equiv_pos_as_xyz
  1  'x, y, z'
loop_
 _atom_site_type_symbol
 _atom_site_label
 _atom_site_symmetry_multiplicity
 _atom_site_fract_x
 _atom_site_fract_y
 _atom_site_fract_z
 _atom_site_occupancy
  Ni  Ni0  1  0.99876800  0.49876800  0.50000000  1
  Ni  Ni1  1  0.49876800  0.99876800  0.50000000  1
  Cu  Cu2  1  0.24829000  0.74829000  0.50000000  1
  Cu  Cu3  1  0.74829000  0.24829000  0.50000000  1
  C  C4  1  0.86887600  0.86887600  0.00000000  1
  C  C5  1  0.13512700  0.13512700  0.00000000  1
  C  C6  1  0.62540600  0.62540600  0.00000000  1
  C  C7  1  0.35623100  0.35623100  0.00000000  1
  C  C8  1  0.59728400  0.59728400  0.50745700  1
  C  C9  1  0.08982700  0.08982700  0.49254300  1
  C  C10  1  0.59728400  0.08982700  0.00000000  1
  C  C11  1  0.08982700  0.59728400  0.00000000  1
  C  C12  1  0.41258800  0.41258800  0.50686100  1
  C  C13  1  0.90572700  0.90572700  0.49313900  1
  C  C14  1  0.41258800  0.90572700  0.00000000  1
  C  C15  1  0.90572700  0.41258800  0.00000000  1
  C  C16  1  0.50854900  0.50854900  0.00000000  1
  C  C17  1  0.00084100  0.00084100  0.00000000  1
