# generated using pymatgen
data_Cu2NiC2
_symmetry_space_group_name_H-M   'P 1'
_cell_length_a   5.71508400
_cell_length_b   5.57356600
_cell_length_c   9.69635293
_cell_angle_alpha   55.17622938
_cell_angle_beta   90.00000000
_cell_angle_gamma   90.00000000
_symmetry_Int_Tables_number   1
_chemical_formula_structural   Cu2NiC2
_chemical_formula_sum   'Cu8 Ni4 C8'
_cell_volume   253.54846015
_cell_formula_units_Z   4
loop_
 _symmetry_equiv_pos_site_id
 _symmetry_equiv_pos_as_xyz
  1  'x, y, z'
loop_
 _atom_site_type_symbol
 _atom_site_label
 _atom_site_symmetry_multiplicity
 _atom_site_fract_x
 _atom_site_fract_y
 _atom_site_fract_z
 _atom_site_occupancy
  C  C0  1  0.45533000  0.76627000  0.74688700  1
  C  C1  1  0.95533000  0.23373000  0.75311300  1
  C  C2  1  0.54467000  0.23373000  0.25311300  1
  C  C3  1  0.04467000  0.76627000  0.24688700  1
  C  C4  1  0.00000000  0.50000000  0.00000000  1
  C  C5  1  0.50000000  0.50000000  0.50000000  1
  C  C6  1  0.00000000  0.00000000  0.50000000  1
  C  C7  1  0.50000000  0.00000000  0.00000000  1
  Ni  Ni8  1  0.21212200  0.83398700  0.95547800  1
  Ni  Ni9  1  0.71212200  0.16601300  0.54452200  1
  Ni  Ni10  1  0.78787800  0.16601300  0.04452200  1
  Ni  Ni11  1  0.28787800  0.83398700  0.45547800  1
  Cu  Cu12  1  0.02581000  0.65799400  0.75058900  1
  Cu  Cu13  1  0.52581000  0.34200600  0.74941100  1
  Cu  Cu14  1  0.97419000  0.34200600  0.24941100  1
  Cu  Cu15  1  0.47419000  0.65799400  0.25058900  1
  Cu  Cu16  1  0.79113000  0.76104000  0.44694500  1
  Cu  Cu17  1  0.29113000  0.23896000  0.05305500  1
  Cu  Cu18  1  0.20887000  0.23896000  0.55305500  1
  Cu  Cu19  1  0.70887000  0.76104000  0.94694500  1
