# generated using pymatgen
data_Cu(NiC2)3
_symmetry_space_group_name_H-M   'P 1'
_cell_length_a   5.31501322
_cell_length_b   6.76852226
_cell_length_c   12.95403713
_cell_angle_alpha   91.48698514
_cell_angle_beta   82.94087601
_cell_angle_gamma   114.39800476
_symmetry_Int_Tables_number   1
_chemical_formula_structural   Cu(NiC2)3
_chemical_formula_sum   'Cu1 Ni3 C6'
_cell_volume   421.02652180
_cell_formula_units_Z   1
loop_
 _symmetry_equiv_pos_site_id
 _symmetry_equiv_pos_as_xyz
  1  'x, y, z'
loop_
 _atom_site_type_symbol
 _atom_site_label
 _atom_site_symmetry_multiplicity
 _atom_site_fract_x
 _atom_site_fract_y
 _atom_site_fract_z
 _atom_site_occupancy
  Ni  Ni0  1  0.00000000  0.00000000  0.50000000  1
  Ni  Ni1  1  0.50000000  0.50000000  0.00000000  1
  Ni  Ni2  1  0.00000000  0.50000000  0.00000000  1
  Cu  Cu3  1  0.00000000  0.00000000  0.00000000  1
  C  C4  1  0.91055800  0.22716800  0.94994000  1
  C  C5  1  0.08944200  0.77283200  0.05006000  1
  C  C6  1  0.94426800  0.98008200  0.63574600  1
  C  C7  1  0.05573200  0.01991800  0.36425400  1
  C  C8  1  0.66455800  0.78658900  0.95533000  1
  C  C9  1  0.33544200  0.21341100  0.04467000  1
