# generated using pymatgen
data_Cu5Ni2C25
_symmetry_space_group_name_H-M   'P 1'
_cell_length_a   9.82378294
_cell_length_b   9.82378294
_cell_length_c   10.17152856
_cell_angle_alpha   85.77020408
_cell_angle_beta   85.77020408
_cell_angle_gamma   17.07089183
_symmetry_Int_Tables_number   1
_chemical_formula_structural   Cu5Ni2C25
_chemical_formula_sum   'Cu5 Ni2 C25'
_cell_volume   287.35682634
_cell_formula_units_Z   1
loop_
 _symmetry_equiv_pos_site_id
 _symmetry_equiv_pos_as_xyz
  1  'x, y, z'
loop_
 _atom_site_type_symbol
 _atom_site_label
 _atom_site_symmetry_multiplicity
 _atom_site_fract_x
 _atom_site_fract_y
 _atom_site_fract_z
 _atom_site_occupancy
  C  C0  1  0.36460600  0.36460600  0.93561700  1
  C  C1  1  0.13640400  0.13640400  0.81763500  1
  C  C2  1  0.86947500  0.86947500  0.68489700  1
  C  C3  1  0.63249300  0.63249300  0.56223400  1
  C  C4  1  0.36991600  0.36991600  0.43544300  1
  C  C5  1  0.13133000  0.13133000  0.31191100  1
  C  C6  1  0.86794000  0.86794000  0.18630600  1
  C  C7  1  0.62892900  0.62892900  0.06442300  1
  C  C8  1  0.75002200  0.75002200  0.87572700  1
  Ni  Ni9  1  0.00078800  0.00078800  0.00052000  1
  Ni  Ni10  1  0.99920800  0.99920800  0.49896800  1
  Cu  Cu11  1  0.50039500  0.50039500  0.75025000  1
  Cu  Cu12  1  0.25131900  0.25131900  0.63969400  1
  Cu  Cu13  1  0.75009400  0.75009400  0.37511900  1
  Cu  Cu14  1  0.49933800  0.49933800  0.25027200  1
  Cu  Cu15  1  0.24851100  0.24851100  0.11065100  1
  C  C16  1  0.44367200  0.44367200  0.07473800  1
  C  C17  1  0.18922000  0.18922000  0.98403400  1
  C  C18  1  0.94840100  0.94840100  0.84170500  1
  C  C19  1  0.68997600  0.68997600  0.71342100  1
  C  C20  1  0.44387500  0.44387500  0.57909300  1
  C  C21  1  0.19342800  0.19342800  0.46818100  1
  C  C22  1  0.94458600  0.94458600  0.35076000  1
  C  C23  1  0.69429300  0.69429300  0.22858700  1
  C  C24  1  0.31266100  0.31266100  0.76434300  1
  C  C25  1  0.05145600  0.05145600  0.65765400  1
  C  C26  1  0.80439900  0.80439900  0.52275700  1
  C  C27  1  0.55664300  0.55664300  0.42507100  1
  C  C28  1  0.30676700  0.30676700  0.28096100  1
  C  C29  1  0.05446900  0.05446900  0.15112600  1
  C  C30  1  0.80924900  0.80924900  0.03747300  1
  C  C31  1  0.55613800  0.55613800  0.92042900  1
