# generated using pymatgen
data_CuNiC6
_symmetry_space_group_name_H-M   'P 1'
_cell_length_a   6.89543160
_cell_length_b   6.89543160
_cell_length_c   6.89543160
_cell_angle_alpha   129.78543049
_cell_angle_beta   129.78543049
_cell_angle_gamma   73.75002291
_symmetry_Int_Tables_number   1
_chemical_formula_structural   CuNiC6
_chemical_formula_sum   'Cu1 Ni1 C6'
_cell_volume   188.87789337
_cell_formula_units_Z   1
loop_
 _symmetry_equiv_pos_site_id
 _symmetry_equiv_pos_as_xyz
  1  'x, y, z'
loop_
 _atom_site_type_symbol
 _atom_site_label
 _atom_site_symmetry_multiplicity
 _atom_site_fract_x
 _atom_site_fract_y
 _atom_site_fract_z
 _atom_site_occupancy
  Ni  Ni0  1  0.50000000  0.50000000  0.00000000  1
  Cu  Cu1  1  0.75000000  0.25000000  0.50000000  1
  C  C2  1  0.25000000  0.75000000  0.50000000  1
  C  C3  1  0.00000000  0.00000000  0.00000000  1
  C  C4  1  0.63309000  0.59556200  0.49204900  1
  C  C5  1  0.10351400  0.14104100  0.50795100  1
  C  C6  1  0.85895900  0.36691000  0.96247300  1
  C  C7  1  0.40443800  0.89648600  0.03752700  1
