# generated using pymatgen
data_CuNiC3
_symmetry_space_group_name_H-M   'P 1'
_cell_length_a   13.99658237
_cell_length_b   13.99658237
_cell_length_c   8.21329100
_cell_angle_alpha   90.00000000
_cell_angle_beta   90.00000000
_cell_angle_gamma   120.00000173
_symmetry_Int_Tables_number   1
_chemical_formula_structural   CuNiC3
_chemical_formula_sum   'Cu6 Ni6 C18'
_cell_volume   1393.45145314
_cell_formula_units_Z   6
loop_
 _symmetry_equiv_pos_site_id
 _symmetry_equiv_pos_as_xyz
  1  'x, y, z'
loop_
 _atom_site_type_symbol
 _atom_site_label
 _atom_site_symmetry_multiplicity
 _atom_site_fract_x
 _atom_site_fract_y
 _atom_site_fract_z
 _atom_site_occupancy
  C  C0  1  0.15552400  0.00000000  0.18578100  1
  C  C1  1  0.00000000  0.15552400  0.18578100  1
  C  C2  1  0.84447600  0.00000000  0.68578100  1
  C  C3  1  0.00000000  0.84447600  0.68578100  1
  C  C4  1  0.84447600  0.84447600  0.18578100  1
  C  C5  1  0.15552400  0.15552400  0.68578100  1
  C  C6  1  0.17810200  0.51132300  0.14196200  1
  C  C7  1  0.48867700  0.66677900  0.14196200  1
  C  C8  1  0.82189800  0.48867700  0.64196200  1
  C  C9  1  0.48867700  0.82189800  0.64196200  1
  C  C10  1  0.33322100  0.82189800  0.14196200  1
  C  C11  1  0.51132300  0.33322100  0.64196200  1
  C  C12  1  0.33322100  0.51132300  0.64196200  1
  C  C13  1  0.51132300  0.17810200  0.14196200  1
  C  C14  1  0.66677900  0.17810200  0.64196200  1
  C  C15  1  0.66677900  0.48867700  0.14196200  1
  C  C16  1  0.17810200  0.66677900  0.64196200  1
  C  C17  1  0.82189800  0.33322100  0.14196200  1
  Ni  Ni18  1  0.33333300  0.66666700  0.39347400  1
  Ni  Ni19  1  0.66666700  0.33333300  0.89347400  1
  Ni  Ni20  1  0.33333300  0.66666700  0.89347400  1
  Ni  Ni21  1  0.66666700  0.33333300  0.39347400  1
  Ni  Ni22  1  0.00000000  0.00000000  0.93547200  1
  Ni  Ni23  1  0.00000000  0.00000000  0.43547200  1
  Cu  Cu24  1  0.66650300  0.00000000  0.18677600  1
  Cu  Cu25  1  0.00000000  0.66650300  0.18677600  1
  Cu  Cu26  1  0.33349700  0.00000000  0.68677600  1
  Cu  Cu27  1  0.00000000  0.33349700  0.68677600  1
  Cu  Cu28  1  0.33349700  0.33349700  0.18677600  1
  Cu  Cu29  1  0.66650300  0.66650300  0.68677600  1
