# generated using pymatgen
data_Cu4NiC4
_symmetry_space_group_name_H-M   'P 1'
_cell_length_a   8.38856300
_cell_length_b   10.45552600
_cell_length_c   15.00481400
_cell_angle_alpha   90.00000000
_cell_angle_beta   90.00000000
_cell_angle_gamma   90.00000000
_symmetry_Int_Tables_number   1
_chemical_formula_structural   Cu4NiC4
_chemical_formula_sum   'Cu16 Ni4 C16'
_cell_volume   1316.02479896
_cell_formula_units_Z   4
loop_
 _symmetry_equiv_pos_site_id
 _symmetry_equiv_pos_as_xyz
  1  'x, y, z'
loop_
 _atom_site_type_symbol
 _atom_site_label
 _atom_site_symmetry_multiplicity
 _atom_site_fract_x
 _atom_site_fract_y
 _atom_site_fract_z
 _atom_site_occupancy
  C  C0  1  0.00000000  0.00000000  0.00000000  1
  C  C1  1  0.50000000  0.00000000  0.50000000  1
  C  C2  1  0.00000000  0.50000000  0.00000000  1
  C  C3  1  0.50000000  0.50000000  0.50000000  1
  C  C4  1  0.98424000  0.75000000  0.42390400  1
  C  C5  1  0.48424000  0.25000000  0.07609600  1
  C  C6  1  0.01576000  0.25000000  0.57609600  1
  C  C7  1  0.51576000  0.75000000  0.92390400  1
  C  C8  1  0.84320600  0.04965500  0.27162900  1
  C  C9  1  0.34320600  0.95034500  0.22837100  1
  C  C10  1  0.15679400  0.54965500  0.72837100  1
  C  C11  1  0.65679400  0.45034500  0.77162900  1
  C  C12  1  0.15679400  0.95034500  0.72837100  1
  C  C13  1  0.65679400  0.04965500  0.77162900  1
  C  C14  1  0.84320600  0.45034500  0.27162900  1
  C  C15  1  0.34320600  0.54965500  0.22837100  1
  Ni  Ni16  1  0.75995600  0.75000000  0.66581800  1
  Ni  Ni17  1  0.24004400  0.25000000  0.33418200  1
  Ni  Ni18  1  0.74004400  0.75000000  0.16581800  1
  Ni  Ni19  1  0.25995600  0.25000000  0.83418200  1
  Cu  Cu20  1  0.95349300  0.25000000  0.82691000  1
  Cu  Cu21  1  0.54650700  0.25000000  0.32691000  1
  Cu  Cu22  1  0.45349300  0.75000000  0.67309000  1
  Cu  Cu23  1  0.04650700  0.75000000  0.17309000  1
  Cu  Cu24  1  0.64420300  0.55016900  0.08472500  1
  Cu  Cu25  1  0.14420300  0.44983100  0.41527500  1
  Cu  Cu26  1  0.35579700  0.05016900  0.91527500  1
  Cu  Cu27  1  0.85579700  0.94983100  0.58472500  1
  Cu  Cu28  1  0.35579700  0.44983100  0.91527500  1
  Cu  Cu29  1  0.85579700  0.55016900  0.58472500  1
  Cu  Cu30  1  0.64420300  0.94983100  0.08472500  1
  Cu  Cu31  1  0.14420300  0.05016900  0.41527500  1
  Cu  Cu32  1  0.62240300  0.75000000  0.32519100  1
  Cu  Cu33  1  0.12240300  0.25000000  0.17480900  1
  Cu  Cu34  1  0.37759700  0.25000000  0.67480900  1
  Cu  Cu35  1  0.87759700  0.75000000  0.82519100  1
