# generated using pymatgen
data_Cu(NiC13)2
_symmetry_space_group_name_H-M   'P 1'
_cell_length_a   11.81772082
_cell_length_b   11.81772082
_cell_length_c   19.58581355
_cell_angle_alpha   90.00000000
_cell_angle_beta   90.00000000
_cell_angle_gamma   120.00000423
_symmetry_Int_Tables_number   1
_chemical_formula_structural   Cu(NiC13)2
_chemical_formula_sum   'Cu6 Ni12 C156'
_cell_volume   2368.86156142
_cell_formula_units_Z   6
loop_
 _symmetry_equiv_pos_site_id
 _symmetry_equiv_pos_as_xyz
  1  'x, y, z'
loop_
 _atom_site_type_symbol
 _atom_site_label
 _atom_site_symmetry_multiplicity
 _atom_site_fract_x
 _atom_site_fract_y
 _atom_site_fract_z
 _atom_site_occupancy
  Ni  Ni0  1  0.99798270  0.33549983  0.96078107  1
  Ni  Ni1  1  0.00201730  0.66450017  0.03921893  1
  Ni  Ni2  1  0.33751713  0.00201730  0.96078107  1
  Ni  Ni3  1  0.66248287  0.66450017  0.53921893  1
  Ni  Ni4  1  0.66248287  0.99798270  0.03921893  1
  Ni  Ni5  1  0.33751713  0.33549983  0.46078107  1
  Ni  Ni6  1  0.66450017  0.66248287  0.96078107  1
  Ni  Ni7  1  0.33549983  0.99798270  0.53921893  1
  Ni  Ni8  1  0.33549983  0.33751713  0.03921893  1
  Ni  Ni9  1  0.66450017  0.00201730  0.46078107  1
  Ni  Ni10  1  0.00201730  0.33751713  0.53921893  1
  Ni  Ni11  1  0.99798270  0.66248287  0.46078107  1
  Cu  Cu12  1  0.66447898  0.66447898  0.75000000  1
  Cu  Cu13  1  0.33552102  0.33552102  0.25000000  1
  Cu  Cu14  1  0.00000000  0.33552102  0.75000000  1
  Cu  Cu15  1  1.00000000  0.66447898  0.25000000  1
  Cu  Cu16  1  0.33552102  0.00000000  0.75000000  1
  Cu  Cu17  1  0.66447898  1.00000000  0.25000000  1
  C  C18  1  0.66666700  0.33333300  0.97805016  1
  C  C19  1  0.33333300  0.66666700  0.02194984  1
  C  C20  1  0.33333300  0.66666700  0.52194984  1
  C  C21  1  0.66666700  0.33333300  0.47805016  1
  C  C22  1  0.66666700  0.33333300  0.72820028  1
  C  C23  1  0.33333300  0.66666700  0.27179972  1
  C  C24  1  0.33333300  0.66666700  0.77179972  1
  C  C25  1  0.66666700  0.33333300  0.22820028  1
  C  C26  1  -0.00000000  -0.00000000  0.00000000  1
  C  C27  1  -0.00000000  -0.00000000  0.50000000  1
  C  C28  1  0.82563412  0.00368861  0.87239378  1
  C  C29  1  0.17436588  0.99631139  0.12760622  1
  C  C30  1  0.17805449  0.17436588  0.87239378  1
  C  C31  1  0.82194551  0.99631139  0.62760622  1
  C  C32  1  0.82194551  0.82563412  0.12760622  1
  C  C33  1  0.17805449  0.00368861  0.37239378  1
  C  C34  1  0.99631139  0.82194551  0.87239378  1
  C  C35  1  0.00368861  0.82563412  0.62760622  1
  C  C36  1  0.00368861  0.17805449  0.12760622  1
  C  C37  1  0.99631139  0.17436588  0.37239378  1
  C  C38  1  0.17436588  0.17805449  0.62760622  1
  C  C39  1  0.82563412  0.82194551  0.37239378  1
  C  C40  1  0.66121158  0.14504258  0.85058480  1
  C  C41  1  0.33878842  0.85495742  0.14941520  1
  C  C42  1  0.48383100  0.33878842  0.85058480  1
  C  C43  1  0.51616900  0.85495742  0.64941520  1
  C  C44  1  0.51616900  0.66121158  0.14941520  1
  C  C45  1  0.48383100  0.14504258  0.35058480  1
  C  C46  1  0.85495742  0.51616900  0.85058480  1
  C  C47  1  0.14504258  0.66121158  0.64941520  1
  C  C48  1  0.14504258  0.48383100  0.14941520  1
  C  C49  1  0.85495742  0.33878842  0.35058480  1
  C  C50  1  0.33878842  0.48383100  0.64941520  1
  C  C51  1  0.66121158  0.51616900  0.35058480  1
  C  C52  1  0.51120959  0.84475861  0.89111016  1
  C  C53  1  0.48879041  0.15524139  0.10888984  1
  C  C54  1  0.33354903  0.48879041  0.89111016  1
  C  C55  1  0.66645097  0.15524139  0.60888984  1
  C  C56  1  0.66645097  0.51120959  0.10888984  1
  C  C57  1  0.33354903  0.84475861  0.39111016  1
  C  C58  1  0.15524139  0.66645097  0.89111016  1
  C  C59  1  0.84475861  0.51120959  0.60888984  1
  C  C60  1  0.84475861  0.33354903  0.10888984  1
  C  C61  1  0.15524139  0.48879041  0.39111016  1
  C  C62  1  0.48879041  0.33354903  0.60888984  1
  C  C63  1  0.51120959  0.66645097  0.39111016  1
  C  C64  1  -0.00000000  -0.00000000  0.75000000  1
  C  C65  1  -0.00000000  -0.00000000  0.25000000  1
  C  C66  1  0.72749657  0.24047471  0.92349546  1
  C  C67  1  0.27250343  0.75952529  0.07650454  1
  C  C68  1  0.51297814  0.27250343  0.92349546  1
  C  C69  1  0.48702186  0.75952529  0.57650454  1
  C  C70  1  0.48702186  0.72749657  0.07650454  1
  C  C71  1  0.51297814  0.24047471  0.42349546  1
  C  C72  1  0.75952529  0.48702186  0.92349546  1
  C  C73  1  0.24047471  0.72749657  0.57650454  1
  C  C74  1  0.24047471  0.51297814  0.07650454  1
  C  C75  1  0.75952529  0.27250343  0.42349546  1
  C  C76  1  0.27250343  0.51297814  0.57650454  1
  C  C77  1  0.72749657  0.48702186  0.42349546  1
  C  C78  1  0.67612715  0.89348874  0.91541791  1
  C  C79  1  0.32387285  0.10651126  0.08458209  1
  C  C80  1  0.21736158  0.32387285  0.91541791  1
  C  C81  1  0.78263842  0.10651126  0.58458209  1
  C  C82  1  0.78263842  0.67612715  0.08458209  1
  C  C83  1  0.21736158  0.89348874  0.41541791  1
  C  C84  1  0.10651126  0.78263842  0.91541791  1
  C  C85  1  0.89348874  0.67612715  0.58458209  1
  C  C86  1  0.89348874  0.21736158  0.08458209  1
  C  C87  1  0.10651126  0.32387285  0.41541791  1
  C  C88  1  0.32387285  0.21736158  0.58458209  1
  C  C89  1  0.67612715  0.78263842  0.41541791  1
  C  C90  1  0.81920707  0.40541576  0.78235908  1
  C  C91  1  0.18079293  0.59458424  0.21764092  1
  C  C92  1  0.58620869  0.18079293  0.78235908  1
  C  C93  1  0.41379131  0.59458424  0.71764092  1
  C  C94  1  0.41379131  0.81920707  0.21764092  1
  C  C95  1  0.58620869  0.40541576  0.28235908  1
  C  C96  1  0.59458424  0.41379131  0.78235908  1
  C  C97  1  0.40541576  0.81920707  0.71764092  1
  C  C98  1  0.40541576  0.58620869  0.21764092  1
  C  C99  1  0.59458424  0.18079293  0.28235908  1
  C  C100  1  0.18079293  0.58620869  0.71764092  1
  C  C101  1  0.81920707  0.41379131  0.28235908  1
  C  C102  1  0.93162306  0.08375695  0.94134632  1
  C  C103  1  0.06837694  0.91624305  0.05865368  1
  C  C104  1  0.15213389  0.06837694  0.94134632  1
  C  C105  1  0.84786611  0.91624305  0.55865368  1
  C  C106  1  0.84786611  0.93162306  0.05865368  1
  C  C107  1  0.15213389  0.08375695  0.44134632  1
  C  C108  1  0.91624305  0.84786611  0.94134632  1
  C  C109  1  0.08375695  0.93162306  0.55865368  1
  C  C110  1  0.08375695  0.15213389  0.05865368  1
  C  C111  1  0.91624305  0.06837694  0.44134632  1
  C  C112  1  0.06837694  0.15213389  0.55865368  1
  C  C113  1  0.93162306  0.84786611  0.44134632  1
  C  C114  1  0.79692116  0.12255805  0.82707417  1
  C  C115  1  0.20307884  0.87744195  0.17292583  1
  C  C116  1  0.32563689  0.20307884  0.82707417  1
  C  C117  1  0.67436311  0.87744195  0.67292583  1
  C  C118  1  0.67436311  0.79692116  0.17292583  1
  C  C119  1  0.32563689  0.12255805  0.32707417  1
  C  C120  1  0.87744195  0.67436311  0.82707417  1
  C  C121  1  0.12255805  0.79692116  0.67292583  1
  C  C122  1  0.12255805  0.32563689  0.17292583  1
  C  C123  1  0.87744195  0.20307884  0.32707417  1
  C  C124  1  0.20307884  0.32563689  0.67292583  1
  C  C125  1  0.79692116  0.67436311  0.32707417  1
  C  C126  1  0.47600159  0.48508436  0.86383079  1
  C  C127  1  0.52399841  0.51491564  0.13616921  1
  C  C128  1  0.00908277  0.52399841  0.86383079  1
  C  C129  1  0.99091723  0.51491564  0.63616921  1
  C  C130  1  0.99091723  0.47600159  0.13616921  1
  C  C131  1  0.00908277  0.48508436  0.36383079  1
  C  C132  1  0.51491564  0.99091723  0.86383079  1
  C  C133  1  0.48508436  0.47600159  0.63616921  1
  C  C134  1  0.48508436  0.00908277  0.13616921  1
  C  C135  1  0.51491564  0.52399841  0.36383079  1
  C  C136  1  0.52399841  0.00908277  0.63616921  1
  C  C137  1  0.47600159  0.99091723  0.36383079  1
  C  C138  1  0.84745930  0.91025245  0.80770309  1
  C  C139  1  0.15254070  0.08974755  0.19229691  1
  C  C140  1  0.06279315  0.15254070  0.80770309  1
  C  C141  1  0.93720685  0.08974755  0.69229691  1
  C  C142  1  0.93720685  0.84745930  0.19229691  1
  C  C143  1  0.06279315  0.91025245  0.30770309  1
  C  C144  1  0.08974755  0.93720685  0.80770309  1
  C  C145  1  0.91025245  0.84745930  0.69229691  1
  C  C146  1  0.91025245  0.06279315  0.19229691  1
  C  C147  1  0.08974755  0.15254070  0.30770309  1
  C  C148  1  0.15254070  0.06279315  0.69229691  1
  C  C149  1  0.84745930  0.93720685  0.30770309  1
  C  C150  1  0.39488031  0.57547565  0.96709759  1
  C  C151  1  0.60511969  0.42452435  0.03290241  1
  C  C152  1  0.18059534  0.60511969  0.96709759  1
  C  C153  1  0.81940466  0.42452435  0.53290241  1
  C  C154  1  0.81940466  0.39488031  0.03290241  1
  C  C155  1  0.18059534  0.57547565  0.46709759  1
  C  C156  1  0.42452435  0.81940466  0.96709759  1
  C  C157  1  0.57547565  0.39488031  0.53290241  1
  C  C158  1  0.57547565  0.18059534  0.03290241  1
  C  C159  1  0.42452435  0.60511969  0.46709759  1
  C  C160  1  0.60511969  0.18059534  0.53290241  1
  C  C161  1  0.39488031  0.81940466  0.46709759  1
  C  C162  1  0.48477287  0.72659658  0.82861121  1
  C  C163  1  0.51522713  0.27340342  0.17138879  1
  C  C164  1  0.24182371  0.51522713  0.82861121  1
  C  C165  1  0.75817629  0.27340342  0.67138879  1
  C  C166  1  0.75817629  0.48477287  0.17138879  1
  C  C167  1  0.24182371  0.72659658  0.32861121  1
  C  C168  1  0.27340342  0.75817629  0.82861121  1
  C  C169  1  0.72659658  0.48477287  0.67138879  1
  C  C170  1  0.72659658  0.24182371  0.17138879  1
  C  C171  1  0.27340342  0.51522713  0.32861121  1
  C  C172  1  0.51522713  0.24182371  0.67138879  1
  C  C173  1  0.48477287  0.75817629  0.32861121  1
