# generated using pymatgen
data_CuNi2C7
_symmetry_space_group_name_H-M   'P 1'
_cell_length_a   9.01591610
_cell_length_b   9.01591610
_cell_length_c   9.01591610
_cell_angle_alpha   90.00000000
_cell_angle_beta   90.00000000
_cell_angle_gamma   90.00000000
_symmetry_Int_Tables_number   1
_chemical_formula_structural   CuNi2C7
_chemical_formula_sum   'Cu4 Ni8 C28'
_cell_volume   732.87445603
_cell_formula_units_Z   4
loop_
 _symmetry_equiv_pos_site_id
 _symmetry_equiv_pos_as_xyz
  1  'x, y, z'
loop_
 _atom_site_type_symbol
 _atom_site_label
 _atom_site_symmetry_multiplicity
 _atom_site_fract_x
 _atom_site_fract_y
 _atom_site_fract_z
 _atom_site_occupancy
  Ni  Ni0  1  0.50000000  0.50000000  0.50000000  1
  Ni  Ni1  1  -0.00000000  0.00000000  -0.00000000  1
  Ni  Ni2  1  -0.00000000  0.00000000  0.50000000  1
  Ni  Ni3  1  -0.00000000  0.50000000  -0.00000000  1
  Ni  Ni4  1  0.50000000  0.00000000  -0.00000000  1
  Ni  Ni5  1  0.50000000  0.50000000  -0.00000000  1
  Ni  Ni6  1  0.50000000  0.00000000  0.50000000  1
  Ni  Ni7  1  -0.00000000  0.50000000  0.50000000  1
  C  C8  1  0.75000000  0.75000000  0.75000000  1
  C  C9  1  0.75000000  0.25000000  0.25000000  1
  C  C10  1  0.25000000  0.75000000  0.25000000  1
  C  C11  1  0.25000000  0.25000000  0.75000000  1
  Cu  Cu12  1  0.25000000  0.25000000  0.25000000  1
  Cu  Cu13  1  0.25000000  0.75000000  0.75000000  1
  Cu  Cu14  1  0.75000000  0.25000000  0.75000000  1
  Cu  Cu15  1  0.75000000  0.75000000  0.25000000  1
  C  C16  1  0.21942633  0.28570600  0.50744476  1
  C  C17  1  0.21942633  0.71429400  0.49255524  1
  C  C18  1  0.78057367  0.28570600  0.49255524  1
  C  C19  1  0.78057367  0.71429400  0.50744476  1
  C  C20  1  0.28570600  0.50744476  0.21942633  1
  C  C21  1  0.71429400  0.49255524  0.21942633  1
  C  C22  1  0.28570600  0.49255524  0.78057367  1
  C  C23  1  0.71429400  0.50744476  0.78057367  1
  C  C24  1  0.50744476  0.21942633  0.28570600  1
  C  C25  1  0.49255524  0.21942633  0.71429400  1
  C  C26  1  0.49255524  0.78057367  0.28570600  1
  C  C27  1  0.50744476  0.78057367  0.71429400  1
  C  C28  1  0.28057367  0.21429400  0.99255524  1
  C  C29  1  0.28057367  0.78570600  0.00744476  1
  C  C30  1  0.71942633  0.21429400  0.00744476  1
  C  C31  1  0.71942633  0.78570600  0.99255524  1
  C  C32  1  0.21429400  0.99255524  0.28057367  1
  C  C33  1  0.78570600  0.00744476  0.28057367  1
  C  C34  1  0.21429400  0.00744476  0.71942633  1
  C  C35  1  0.78570600  0.99255524  0.71942633  1
  C  C36  1  0.99255524  0.28057367  0.21429400  1
  C  C37  1  0.00744476  0.28057367  0.78570600  1
  C  C38  1  0.00744476  0.71942633  0.21429400  1
  C  C39  1  0.99255524  0.71942633  0.78570600  1
