# generated using pymatgen
data_Cu3NiC
_symmetry_space_group_name_H-M   'P 1'
_cell_length_a   6.32374371
_cell_length_b   6.32374371
_cell_length_c   6.86245442
_cell_angle_alpha   76.27405687
_cell_angle_beta   76.27405687
_cell_angle_gamma   96.01366562
_symmetry_Int_Tables_number   1
_chemical_formula_structural   Cu3NiC
_chemical_formula_sum   'Cu12 Ni4 C4'
_cell_volume   255.17730528
_cell_formula_units_Z   4
loop_
 _symmetry_equiv_pos_site_id
 _symmetry_equiv_pos_as_xyz
  1  'x, y, z'
loop_
 _atom_site_type_symbol
 _atom_site_label
 _atom_site_symmetry_multiplicity
 _atom_site_fract_x
 _atom_site_fract_y
 _atom_site_fract_z
 _atom_site_occupancy
  C  C0  1  0.62031800  0.37968200  0.75000000  1
  C  C1  1  0.37968200  0.62031800  0.25000000  1
  C  C2  1  0.09547900  0.90452100  0.75000000  1
  C  C3  1  0.90452100  0.09547900  0.25000000  1
  Ni  Ni4  1  0.64567200  0.89052200  0.75595100  1
  Ni  Ni5  1  0.35432800  0.10947800  0.24404900  1
  Ni  Ni6  1  0.10947800  0.35432800  0.74404900  1
  Ni  Ni7  1  0.89052200  0.64567200  0.25595100  1
  Cu  Cu8  1  0.43974700  0.89528000  0.77878700  1
  Cu  Cu9  1  0.56025300  0.10472000  0.22121300  1
  Cu  Cu10  1  0.10472000  0.56025300  0.72121300  1
  Cu  Cu11  1  0.89528000  0.43974700  0.27878700  1
  Cu  Cu12  1  0.71865700  0.75011300  0.88350700  1
  Cu  Cu13  1  0.28134300  0.24988700  0.11649300  1
  Cu  Cu14  1  0.24988700  0.28134300  0.61649300  1
  Cu  Cu15  1  0.75011300  0.71865700  0.38350700  1
  Cu  Cu16  1  0.79898300  0.03468100  0.60434800  1
  Cu  Cu17  1  0.20101700  0.96531900  0.39565200  1
  Cu  Cu18  1  0.96531900  0.20101700  0.89565200  1
  Cu  Cu19  1  0.03468100  0.79898300  0.10434800  1
