# generated using pymatgen
data_Cu10NiC20
_symmetry_space_group_name_H-M   'P 1'
_cell_length_a   4.85407118
_cell_length_b   12.96875680
_cell_length_c   5.55478410
_cell_angle_alpha   103.35374802
_cell_angle_beta   89.68054104
_cell_angle_gamma   90.37112496
_symmetry_Int_Tables_number   1
_chemical_formula_structural   Cu10NiC20
_chemical_formula_sum   'Cu10 Ni1 C20'
_cell_volume   340.21613482
_cell_formula_units_Z   1
loop_
 _symmetry_equiv_pos_site_id
 _symmetry_equiv_pos_as_xyz
  1  'x, y, z'
loop_
 _atom_site_type_symbol
 _atom_site_label
 _atom_site_symmetry_multiplicity
 _atom_site_fract_x
 _atom_site_fract_y
 _atom_site_fract_z
 _atom_site_occupancy
  Ni  Ni0  1  0.51460478  0.89887570  0.80017858  1
  Cu  Cu1  1  0.50786837  0.01165944  0.44796685  1
  Cu  Cu2  1  0.47245306  0.40881605  0.30495855  1
  Cu  Cu3  1  0.46762556  0.21168347  0.88260752  1
  Cu  Cu4  1  0.51644680  0.60689055  0.70056397  1
  Cu  Cu5  1  0.54419373  0.79018136  0.14550789  1
  Cu  Cu6  1  0.96954255  0.39660020  0.79852307  1
  Cu  Cu7  1  0.01160973  0.79861395  0.62560680  1
  Cu  Cu8  1  0.01550273  0.20284851  0.40457264  1
  Cu  Cu9  1  0.97274002  0.58945308  0.22192203  1
  Cu  Cu10  1  0.03229190  0.00293464  0.01226161  1
  C  C11  1  0.80220707  0.25520774  0.70556291  1
  C  C12  1  0.84686700  0.86268512  0.95419330  1
  C  C13  1  0.81573163  0.66600307  0.52725985  1
  C  C14  1  0.83324853  0.06578335  0.31225555  1
  C  C15  1  0.79394559  0.45390731  0.11866129  1
  C  C16  1  0.67074139  0.46523354  0.62085159  1
  C  C17  1  0.69225540  0.65167046  0.02464483  1
  C  C18  1  0.68044278  0.86773744  0.46147817  1
  C  C19  1  0.29365072  0.34774483  0.98728433  1
  C  C20  1  0.34842759  0.74759535  0.78847759  1
  C  C21  1  0.32038963  0.14239251  0.56870906  1
  C  C22  1  0.35134781  0.93585232  0.14652818  1
  C  C23  1  0.29948049  0.54799675  0.40049492  1
  C  C24  1  0.18310335  0.14488074  0.07533221  1
  C  C25  1  0.17699772  0.94649794  0.67938192  1
  C  C26  1  0.17283731  0.34104111  0.47980546  1
  C  C27  1  0.66853945  0.05233209  0.82329965  1
  C  C28  1  0.67227930  0.26029644  0.21030314  1
  C  C29  1  0.17667734  0.54306307  0.89184710  1
  C  C30  1  0.18984469  0.74185585  0.28372145  1
