# generated using pymatgen
data_Cu6NiC5
_symmetry_space_group_name_H-M   'P 1'
_cell_length_a   9.61645308
_cell_length_b   14.08859921
_cell_length_c   14.08859921
_cell_angle_alpha   90.00000000
_cell_angle_beta   90.00000000
_cell_angle_gamma   90.00000000
_symmetry_Int_Tables_number   1
_chemical_formula_structural   Cu6NiC5
_chemical_formula_sum   'Cu24 Ni4 C20'
_cell_volume   1908.75657519
_cell_formula_units_Z   4
loop_
 _symmetry_equiv_pos_site_id
 _symmetry_equiv_pos_as_xyz
  1  'x, y, z'
loop_
 _atom_site_type_symbol
 _atom_site_label
 _atom_site_symmetry_multiplicity
 _atom_site_fract_x
 _atom_site_fract_y
 _atom_site_fract_z
 _atom_site_occupancy
  C  C0  1  0.50000000  0.09010389  0.90989611  1
  C  C1  1  0.50000000  0.90989611  0.09010389  1
  C  C2  1  0.00000000  0.40989611  0.40989611  1
  C  C3  1  0.00000000  0.59010389  0.59010389  1
  C  C4  1  0.30922867  0.41309922  0.58690078  1
  C  C5  1  0.30922867  0.58690078  0.41309922  1
  C  C6  1  0.80922867  0.08690078  0.08690078  1
  C  C7  1  0.80922867  0.91309922  0.91309922  1
  C  C8  1  0.69077133  0.58690078  0.41309922  1
  C  C9  1  0.69077133  0.41309922  0.58690078  1
  C  C10  1  0.19077133  0.91309922  0.91309922  1
  C  C11  1  0.19077133  0.08690078  0.08690078  1
  C  C12  1  0.50000000  0.34750204  0.34750204  1
  C  C13  1  0.50000000  0.65249796  0.65249796  1
  C  C14  1  0.00000000  0.15249796  0.84750204  1
  C  C15  1  0.00000000  0.84750204  0.15249796  1
  Ni  Ni16  1  0.50000000  0.46417357  0.46417357  1
  Ni  Ni17  1  0.50000000  0.53582643  0.53582643  1
  Ni  Ni18  1  0.00000000  0.03582643  0.96417357  1
  Ni  Ni19  1  0.00000000  0.96417357  0.03582643  1
  Cu  Cu20  1  0.50000000  0.28050803  0.71949197  1
  Cu  Cu21  1  0.50000000  0.71949197  0.28050803  1
  Cu  Cu22  1  0.00000000  0.21949197  0.21949197  1
  Cu  Cu23  1  0.00000000  0.78050803  0.78050803  1
  Cu  Cu24  1  0.50000000  0.17093291  0.17093291  1
  Cu  Cu25  1  0.50000000  0.82906709  0.82906709  1
  Cu  Cu26  1  0.00000000  0.32906709  0.67093291  1
  Cu  Cu27  1  0.00000000  0.67093291  0.32906709  1
  Cu  Cu28  1  0.24834235  0.04934762  0.73596669  1
  Cu  Cu29  1  0.24834235  0.95065238  0.26403331  1
  Cu  Cu30  1  0.74834235  0.45065238  0.23596669  1
  Cu  Cu31  1  0.74834235  0.54934762  0.76403331  1
  Cu  Cu32  1  0.75165765  0.95065238  0.26403331  1
  Cu  Cu33  1  0.75165765  0.04934762  0.73596669  1
  Cu  Cu34  1  0.25165765  0.54934762  0.76403331  1
  Cu  Cu35  1  0.25165765  0.45065238  0.23596669  1
  Cu  Cu36  1  0.24834235  0.73596669  0.04934762  1
  Cu  Cu37  1  0.24834235  0.26403331  0.95065238  1
  Cu  Cu38  1  0.74834235  0.23596669  0.45065238  1
  Cu  Cu39  1  0.74834235  0.76403331  0.54934762  1
  Cu  Cu40  1  0.75165765  0.26403331  0.95065238  1
  Cu  Cu41  1  0.75165765  0.73596669  0.04934762  1
  Cu  Cu42  1  0.25165765  0.76403331  0.54934762  1
  Cu  Cu43  1  0.25165765  0.23596669  0.45065238  1
  C  C44  1  0.15158597  0.50000000  0.50000000  1
  C  C45  1  0.65158597  0.00000000  -0.00000000  1
  C  C46  1  0.84841403  0.50000000  0.50000000  1
  C  C47  1  0.34841403  0.00000000  -0.00000000  1
