# generated using pymatgen
data_Cu2Ni3C14
_symmetry_space_group_name_H-M   'P 1'
_cell_length_a   12.98037000
_cell_length_b   12.98037000
_cell_length_c   12.98037000
_cell_angle_alpha   90.00000000
_cell_angle_beta   90.00000000
_cell_angle_gamma   90.00000000
_symmetry_Int_Tables_number   1
_chemical_formula_structural   Cu2Ni3C14
_chemical_formula_sum   'Cu8 Ni12 C56'
_cell_volume   2187.06261057
_cell_formula_units_Z   4
loop_
 _symmetry_equiv_pos_site_id
 _symmetry_equiv_pos_as_xyz
  1  'x, y, z'
loop_
 _atom_site_type_symbol
 _atom_site_label
 _atom_site_symmetry_multiplicity
 _atom_site_fract_x
 _atom_site_fract_y
 _atom_site_fract_z
 _atom_site_occupancy
  C  C0  1  0.96280100  0.03718800  0.32047600  1
  C  C1  1  0.67952400  0.46280100  0.46281200  1
  C  C2  1  0.53718800  0.17952400  0.03719900  1
  C  C3  1  0.46280100  0.46281200  0.67952400  1
  C  C4  1  0.17952400  0.03719900  0.53718800  1
  C  C5  1  0.03718800  0.32047600  0.96280100  1
  C  C6  1  0.03719900  0.53718800  0.17952400  1
  C  C7  1  0.32047600  0.96280100  0.03718800  1
  C  C8  1  0.46281200  0.67952400  0.46280100  1
  C  C9  1  0.53719900  0.96281200  0.82047600  1
  C  C10  1  0.82047600  0.53719900  0.96281200  1
  C  C11  1  0.96281200  0.82047600  0.53719900  1
  C  C12  1  0.87753700  0.12246300  0.62246300  1
  C  C13  1  0.37753700  0.37753700  0.37753700  1
  C  C14  1  0.62246300  0.87753700  0.12246300  1
  C  C15  1  0.12246300  0.62246300  0.87753700  1
  C  C16  1  0.11389500  0.11389500  0.11389500  1
  C  C17  1  0.88610500  0.61389500  0.38610500  1
  C  C18  1  0.61389500  0.38610500  0.88610500  1
  C  C19  1  0.38610500  0.88610500  0.61389500  1
  C  C20  1  0.93128000  0.07683400  0.15771700  1
  C  C21  1  0.84228300  0.43128000  0.42316600  1
  C  C22  1  0.57683400  0.34228300  0.06872000  1
  C  C23  1  0.43128000  0.42316600  0.84228300  1
  C  C24  1  0.34228300  0.06872000  0.57683400  1
  C  C25  1  0.07683400  0.15771700  0.93128000  1
  C  C26  1  0.06872000  0.57683400  0.34228300  1
  C  C27  1  0.15771700  0.93128000  0.07683400  1
  C  C28  1  0.42316600  0.84228300  0.43128000  1
  C  C29  1  0.56872000  0.92316600  0.65771700  1
  C  C30  1  0.65771700  0.56872000  0.92316600  1
  C  C31  1  0.92316600  0.65771700  0.56872000  1
  C  C32  1  0.13955200  0.04224400  0.36122800  1
  C  C33  1  0.63877200  0.63955200  0.45775600  1
  C  C34  1  0.54224400  0.13877200  0.86044800  1
  C  C35  1  0.63955200  0.45775600  0.63877200  1
  C  C36  1  0.13877200  0.86044800  0.54224400  1
  C  C37  1  0.04224400  0.36122800  0.13955200  1
  C  C38  1  0.86044800  0.54224400  0.13877200  1
  C  C39  1  0.36122800  0.13955200  0.04224400  1
  C  C40  1  0.45775600  0.63877200  0.63955200  1
  C  C41  1  0.36044800  0.95775600  0.86122800  1
  C  C42  1  0.86122800  0.36044800  0.95775600  1
  C  C43  1  0.95775600  0.86122800  0.36044800  1
  C  C44  1  0.89029900  0.16926100  0.43396300  1
  C  C45  1  0.56603700  0.39029900  0.33073900  1
  C  C46  1  0.66926100  0.06603700  0.10970100  1
  C  C47  1  0.39029900  0.33073900  0.56603700  1
  C  C48  1  0.06603700  0.10970100  0.66926100  1
  C  C49  1  0.16926100  0.43396300  0.89029900  1
  C  C50  1  0.10970100  0.66926100  0.06603700  1
  C  C51  1  0.43396300  0.89029900  0.16926100  1
  C  C52  1  0.33073900  0.56603700  0.39029900  1
  C  C53  1  0.60970100  0.83073900  0.93396300  1
  C  C54  1  0.93396300  0.60970100  0.83073900  1
  C  C55  1  0.83073900  0.93396300  0.60970100  1
  Ni  Ni56  1  0.99474200  0.23498400  0.43294100  1
  Ni  Ni57  1  0.56705900  0.49474200  0.26501600  1
  Ni  Ni58  1  0.73498400  0.06705900  0.00525800  1
  Ni  Ni59  1  0.49474200  0.26501600  0.56705900  1
  Ni  Ni60  1  0.06705900  0.00525800  0.73498400  1
  Ni  Ni61  1  0.23498400  0.43294100  0.99474200  1
  Ni  Ni62  1  0.00525800  0.73498400  0.06705900  1
  Ni  Ni63  1  0.43294100  0.99474200  0.23498400  1
  Ni  Ni64  1  0.26501600  0.56705900  0.49474200  1
  Ni  Ni65  1  0.50525800  0.76501600  0.93294100  1
  Ni  Ni66  1  0.93294100  0.50525800  0.76501600  1
  Ni  Ni67  1  0.76501600  0.93294100  0.50525800  1
  Cu  Cu68  1  0.89898600  0.39898600  0.10101400  1
  Cu  Cu69  1  0.39898600  0.10101400  0.89898600  1
  Cu  Cu70  1  0.10101400  0.89898600  0.39898600  1
  Cu  Cu71  1  0.60101400  0.60101400  0.60101400  1
  Cu  Cu72  1  0.80204900  0.19795100  0.69795100  1
  Cu  Cu73  1  0.30204900  0.30204900  0.30204900  1
  Cu  Cu74  1  0.69795100  0.80204900  0.19795100  1
  Cu  Cu75  1  0.19795100  0.69795100  0.80204900  1
