# generated using pymatgen
data_Cu3(NiC12)2
_symmetry_space_group_name_H-M   'P 1'
_cell_length_a   14.74336620
_cell_length_b   15.67009406
_cell_length_c   15.67009406
_cell_angle_alpha   90.00000000
_cell_angle_beta   90.00000000
_cell_angle_gamma   90.00000000
_symmetry_Int_Tables_number   1
_chemical_formula_structural   Cu3(NiC12)2
_chemical_formula_sum   'Cu12 Ni8 C96'
_cell_volume   3620.26081393
_cell_formula_units_Z   4
loop_
 _symmetry_equiv_pos_site_id
 _symmetry_equiv_pos_as_xyz
  1  'x, y, z'
loop_
 _atom_site_type_symbol
 _atom_site_label
 _atom_site_symmetry_multiplicity
 _atom_site_fract_x
 _atom_site_fract_y
 _atom_site_fract_z
 _atom_site_occupancy
  Ni  Ni0  1  0.00000000  0.12518133  0.25738399  1
  Ni  Ni1  1  -0.00000000  0.87481867  0.74261601  1
  Ni  Ni2  1  0.50000000  0.74261601  0.12518133  1
  Ni  Ni3  1  0.00000000  0.37481867  0.75738399  1
  Ni  Ni4  1  0.50000000  0.25738399  0.87481867  1
  Ni  Ni5  1  -0.00000000  0.62518133  0.24261601  1
  Ni  Ni6  1  0.50000000  0.75738399  0.62518133  1
  Ni  Ni7  1  0.50000000  0.24261601  0.37481867  1
  Cu  Cu8  1  0.25000000  -0.00000000  0.00000000  1
  Cu  Cu9  1  0.75000000  -0.00000000  0.00000000  1
  Cu  Cu10  1  0.75000000  0.50000000  0.50000000  1
  Cu  Cu11  1  0.25000000  0.50000000  0.50000000  1
  Cu  Cu12  1  0.25000000  0.12699511  0.62699511  1
  Cu  Cu13  1  0.75000000  0.87300489  0.37300489  1
  Cu  Cu14  1  0.25000000  0.87300489  0.37300489  1
  Cu  Cu15  1  0.75000000  0.37300489  0.12699511  1
  Cu  Cu16  1  0.75000000  0.12699511  0.62699511  1
  Cu  Cu17  1  0.25000000  0.62699511  0.87300489  1
  Cu  Cu18  1  0.75000000  0.62699511  0.87300489  1
  Cu  Cu19  1  0.25000000  0.37300489  0.12699511  1
  C  C20  1  0.00000000  0.21930746  0.13011205  1
  C  C21  1  -0.00000000  0.78069254  0.86988795  1
  C  C22  1  0.50000000  0.86988795  0.21930746  1
  C  C23  1  -0.00000000  0.28069254  0.63011205  1
  C  C24  1  0.50000000  0.13011205  0.78069254  1
  C  C25  1  0.00000000  0.71930746  0.36988795  1
  C  C26  1  0.50000000  0.63011205  0.71930746  1
  C  C27  1  0.50000000  0.36988795  0.28069254  1
  C  C28  1  0.17427471  0.37265611  0.02447291  1
  C  C29  1  0.82572529  0.62734389  0.97552709  1
  C  C30  1  0.17427471  0.62734389  0.97552709  1
  C  C31  1  0.67427471  0.97552709  0.37265611  1
  C  C32  1  0.82572529  0.12734389  0.52447291  1
  C  C33  1  0.82572529  0.37265611  0.02447291  1
  C  C34  1  0.32572529  0.02447291  0.62734389  1
  C  C35  1  0.17427471  0.87265611  0.47552709  1
  C  C36  1  0.67427471  0.02447291  0.62734389  1
  C  C37  1  0.82572529  0.87265611  0.47552709  1
  C  C38  1  0.32572529  0.97552709  0.37265611  1
  C  C39  1  0.17427471  0.12734389  0.52447291  1
  C  C40  1  0.32572529  0.52447291  0.87265611  1
  C  C41  1  0.67427471  0.47552709  0.12734389  1
  C  C42  1  0.32572529  0.47552709  0.12734389  1
  C  C43  1  0.67427471  0.52447291  0.87265611  1
  C  C44  1  0.32777474  0.00635730  0.10081671  1
  C  C45  1  0.67222526  0.99364270  0.89918329  1
  C  C46  1  0.32777474  0.99364270  0.89918329  1
  C  C47  1  0.82777474  0.89918329  0.00635730  1
  C  C48  1  0.67222526  0.49364270  0.60081671  1
  C  C49  1  0.67222526  0.00635730  0.10081671  1
  C  C50  1  0.17222526  0.10081671  0.99364270  1
  C  C51  1  0.32777474  0.50635730  0.39918329  1
  C  C52  1  0.82777474  0.10081671  0.99364270  1
  C  C53  1  0.67222526  0.50635730  0.39918329  1
  C  C54  1  0.17222526  0.89918329  0.00635730  1
  C  C55  1  0.32777474  0.49364270  0.60081671  1
  C  C56  1  0.17222526  0.60081671  0.50635730  1
  C  C57  1  0.82777474  0.39918329  0.49364270  1
  C  C58  1  0.17222526  0.39918329  0.49364270  1
  C  C59  1  0.82777474  0.60081671  0.50635730  1
  C  C60  1  0.32849380  0.27242764  0.12742173  1
  C  C61  1  0.67150620  0.72757236  0.87257827  1
  C  C62  1  0.32849380  0.72757236  0.87257827  1
  C  C63  1  0.82849380  0.87257827  0.27242764  1
  C  C64  1  0.67150620  0.22757236  0.62742173  1
  C  C65  1  0.67150620  0.27242764  0.12742173  1
  C  C66  1  0.17150620  0.12742173  0.72757236  1
  C  C67  1  0.32849380  0.77242764  0.37257827  1
  C  C68  1  0.82849380  0.12742173  0.72757236  1
  C  C69  1  0.67150620  0.77242764  0.37257827  1
  C  C70  1  0.17150620  0.87257827  0.27242764  1
  C  C71  1  0.32849380  0.22757236  0.62742173  1
  C  C72  1  0.17150620  0.62742173  0.77242764  1
  C  C73  1  0.82849380  0.37257827  0.22757236  1
  C  C74  1  0.17150620  0.37257827  0.22757236  1
  C  C75  1  0.82849380  0.62742173  0.77242764  1
  C  C76  1  0.00000000  0.99899219  0.16127128  1
  C  C77  1  -0.00000000  0.00100781  0.83872872  1
  C  C78  1  0.50000000  0.83872872  0.99899219  1
  C  C79  1  -0.00000000  0.50100781  0.66127128  1
  C  C80  1  0.50000000  0.16127128  0.00100781  1
  C  C81  1  0.00000000  0.49899219  0.33872872  1
  C  C82  1  0.50000000  0.66127128  0.49899219  1
  C  C83  1  0.50000000  0.33872872  0.50100781  1
  C  C84  1  -0.00000000  0.03059176  0.38377138  1
  C  C85  1  0.00000000  0.96940824  0.61622862  1
  C  C86  1  0.50000000  0.61622862  0.03059176  1
  C  C87  1  0.00000000  0.46940824  0.88377138  1
  C  C88  1  0.50000000  0.38377138  0.96940824  1
  C  C89  1  -0.00000000  0.53059176  0.11622862  1
  C  C90  1  0.50000000  0.88377138  0.53059176  1
  C  C91  1  0.50000000  0.11622862  0.46940824  1
  C  C92  1  0.16662082  0.12475006  0.25698357  1
  C  C93  1  0.83337918  0.87524994  0.74301643  1
  C  C94  1  0.16662082  0.87524994  0.74301643  1
  C  C95  1  0.66662082  0.74301643  0.12475006  1
  C  C96  1  0.83337918  0.37524994  0.75698357  1
  C  C97  1  0.83337918  0.12475006  0.25698357  1
  C  C98  1  0.33337918  0.25698357  0.87524994  1
  C  C99  1  0.16662082  0.62475006  0.24301643  1
  C  C100  1  0.66662082  0.25698357  0.87524994  1
  C  C101  1  0.83337918  0.62475006  0.24301643  1
  C  C102  1  0.33337918  0.74301643  0.12475006  1
  C  C103  1  0.16662082  0.37524994  0.75698357  1
  C  C104  1  0.33337918  0.75698357  0.62475006  1
  C  C105  1  0.66662082  0.24301643  0.37524994  1
  C  C106  1  0.33337918  0.24301643  0.37524994  1
  C  C107  1  0.66662082  0.75698357  0.62475006  1
  C  C108  1  -0.00000000  0.25021070  0.35449467  1
  C  C109  1  0.00000000  0.74978930  0.64550533  1
  C  C110  1  0.50000000  0.64550533  0.25021070  1
  C  C111  1  0.00000000  0.24978930  0.85449467  1
  C  C112  1  0.50000000  0.35449467  0.74978930  1
  C  C113  1  -0.00000000  0.75021070  0.14550533  1
  C  C114  1  0.50000000  0.85449467  0.75021070  1
  C  C115  1  0.50000000  0.14550533  0.24978930  1
