# generated using pymatgen
data_Cu(NiC5)2
_symmetry_space_group_name_H-M   'P 1'
_cell_length_a   6.34567527
_cell_length_b   10.93018659
_cell_length_c   11.25258470
_cell_angle_alpha   117.27562529
_cell_angle_beta   106.37631168
_cell_angle_gamma   89.92252080
_symmetry_Int_Tables_number   1
_chemical_formula_structural   Cu(NiC5)2
_chemical_formula_sum   'Cu4 Ni8 C40'
_cell_volume   658.02780869
_cell_formula_units_Z   4
loop_
 _symmetry_equiv_pos_site_id
 _symmetry_equiv_pos_as_xyz
  1  'x, y, z'
loop_
 _atom_site_type_symbol
 _atom_site_label
 _atom_site_symmetry_multiplicity
 _atom_site_fract_x
 _atom_site_fract_y
 _atom_site_fract_z
 _atom_site_occupancy
  C  C0  1  0.46918600  0.41473700  0.58477200  1
  C  C1  1  0.47013800  0.91500100  0.58596000  1
  C  C2  1  0.88468600  0.33738500  0.41516400  1
  C  C3  1  0.88498400  0.83698300  0.41448700  1
  C  C4  1  0.52818700  0.58771500  0.41620500  1
  C  C5  1  0.52979700  0.08844800  0.41788800  1
  C  C6  1  0.11222300  0.66423300  0.58329600  1
  C  C7  1  0.11232400  0.16438100  0.58445400  1
  Ni  Ni8  1  0.25948000  0.23629400  0.22293400  1
  Ni  Ni9  1  0.26086700  0.73676300  0.22360300  1
  Ni  Ni10  1  0.03602200  0.51560800  0.77711900  1
  Ni  Ni11  1  0.03648200  0.01571700  0.77765600  1
  Ni  Ni12  1  0.73806300  0.76610500  0.77812700  1
  Ni  Ni13  1  0.73809500  0.26619400  0.77844600  1
  Ni  Ni14  1  0.96168900  0.48641600  0.22273200  1
  Ni  Ni15  1  0.96116500  0.98635100  0.22287100  1
  Cu  Cu16  1  0.63663500  0.12559800  0.00087300  1
  Cu  Cu17  1  0.36124900  0.87588000  0.00028500  1
  Cu  Cu18  1  0.63748900  0.62717600  0.00041700  1
  Cu  Cu19  1  0.36019500  0.37657000  0.99954400  1
  C  C20  1  0.19794300  0.52732300  0.14107100  1
  C  C21  1  0.19316200  0.02706600  0.13930800  1
  C  C22  1  0.05333300  0.72481800  0.86143600  1
  C  C23  1  0.05457700  0.22462100  0.86079000  1
  C  C24  1  0.80326900  0.47475800  0.86064500  1
  C  C25  1  0.80060700  0.97524800  0.85982700  1
  C  C26  1  0.94285400  0.27765400  0.14028600  1
  C  C27  1  0.94345600  0.77744400  0.14120900  1
  C  C28  1  0.40688300  0.26582500  0.11280200  1
  C  C29  1  0.40896700  0.76637000  0.11375700  1
  C  C30  1  0.29439600  0.48542500  0.88661200  1
  C  C31  1  0.29414600  0.98537300  0.88719300  1
  C  C32  1  0.58948800  0.73619800  0.88787900  1
  C  C33  1  0.59008700  0.23667300  0.88838500  1
  C  C34  1  0.70614700  0.51810100  0.11350000  1
  C  C35  1  0.70303300  0.01638100  0.11322400  1
  C  C36  1  0.24057100  0.43369500  0.36254500  1
  C  C37  1  0.24111500  0.93416600  0.36232700  1
  C  C38  1  0.87828600  0.81826500  0.63905000  1
  C  C39  1  0.87765800  0.31831600  0.63794000  1
  C  C40  1  0.11957800  0.18363100  0.36231000  1
  C  C41  1  0.12080900  0.68369500  0.36269500  1
  C  C42  1  0.75707300  0.56855600  0.63860600  1
  C  C43  1  0.75689800  0.06885300  0.63863400  1
  C  C44  1  0.83621700  0.51562600  0.36925700  1
  C  C45  1  0.83675300  0.01577100  0.36982400  1
  C  C46  1  0.46683000  0.73652600  0.63116700  1
  C  C47  1  0.46669700  0.23738600  0.63182100  1
  C  C48  1  0.16036000  0.48681400  0.63044100  1
  C  C49  1  0.15996400  0.98606200  0.63030200  1
  C  C50  1  0.53066000  0.26512900  0.36958300  1
  C  C51  1  0.53146000  0.76616200  0.37076700  1
