# generated using pymatgen
data_Cu2NiC7
_symmetry_space_group_name_H-M   'P 1'
_cell_length_a   5.96689793
_cell_length_b   5.96689793
_cell_length_c   10.31160209
_cell_angle_alpha   73.72054611
_cell_angle_beta   73.72054611
_cell_angle_gamma   59.66777896
_symmetry_Int_Tables_number   1
_chemical_formula_structural   Cu2NiC7
_chemical_formula_sum   'Cu4 Ni2 C14'
_cell_volume   299.87569848
_cell_formula_units_Z   2
loop_
 _symmetry_equiv_pos_site_id
 _symmetry_equiv_pos_as_xyz
  1  'x, y, z'
loop_
 _atom_site_type_symbol
 _atom_site_label
 _atom_site_symmetry_multiplicity
 _atom_site_fract_x
 _atom_site_fract_y
 _atom_site_fract_z
 _atom_site_occupancy
  C  C0  1  0.25249100  0.74750900  0.25000000  1
  C  C1  1  0.74750900  0.25249100  0.75000000  1
  Ni  Ni2  1  0.00000000  0.50000000  0.00000000  1
  Ni  Ni3  1  0.50000000  0.00000000  0.50000000  1
  Cu  Cu4  1  0.65380500  0.08119600  0.12730000  1
  Cu  Cu5  1  0.91880400  0.34619500  0.37270000  1
  Cu  Cu6  1  0.34619500  0.91880400  0.87270000  1
  Cu  Cu7  1  0.08119600  0.65380500  0.62730000  1
  C  C8  1  0.10555300  0.69057700  0.08706500  1
  C  C9  1  0.30942300  0.89444700  0.41293500  1
  C  C10  1  0.89444700  0.30942300  0.91293500  1
  C  C11  1  0.69057700  0.10555300  0.58706500  1
  C  C12  1  0.88968600  0.81637400  0.85043400  1
  C  C13  1  0.18362600  0.11031400  0.64956600  1
  C  C14  1  0.11031400  0.18362600  0.14956600  1
  C  C15  1  0.81637400  0.88968600  0.35043400  1
  C  C16  1  0.67065600  0.64079700  0.61575600  1
  C  C17  1  0.35920300  0.32934400  0.88424400  1
  C  C18  1  0.32934400  0.35920300  0.38424400  1
  C  C19  1  0.64079700  0.67065600  0.11575600  1
