# generated using pymatgen
data_Cu9Ni4C19
_symmetry_space_group_name_H-M   'P 1'
_cell_length_a   6.59224586
_cell_length_b   6.59224586
_cell_length_c   20.16529601
_cell_angle_alpha   86.27222583
_cell_angle_beta   86.27222583
_cell_angle_gamma   71.31512680
_symmetry_Int_Tables_number   1
_chemical_formula_structural   Cu9Ni4C19
_chemical_formula_sum   'Cu18 Ni8 C38'
_cell_volume   827.48807372
_cell_formula_units_Z   2
loop_
 _symmetry_equiv_pos_site_id
 _symmetry_equiv_pos_as_xyz
  1  'x, y, z'
loop_
 _atom_site_type_symbol
 _atom_site_label
 _atom_site_symmetry_multiplicity
 _atom_site_fract_x
 _atom_site_fract_y
 _atom_site_fract_z
 _atom_site_occupancy
  C  C0  1  0.90233800  0.46552300  0.78383300  1
  C  C1  1  0.53509000  0.09781100  0.71711000  1
  C  C2  1  0.09781100  0.53509000  0.21711000  1
  C  C3  1  0.46552300  0.90233800  0.28383300  1
  C  C4  1  0.00380000  0.46088200  0.00681100  1
  C  C5  1  0.46088200  0.00380000  0.50681100  1
  Ni  Ni6  1  0.27016200  0.84088300  0.84823800  1
  Ni  Ni7  1  0.15917800  0.72893000  0.65194200  1
  Ni  Ni8  1  0.72893000  0.15917800  0.15194300  1
  Ni  Ni9  1  0.84088300  0.27016200  0.34823800  1
  Ni  Ni10  1  0.62209200  0.21727100  0.90971800  1
  Ni  Ni11  1  0.78272000  0.37756300  0.59020300  1
  Ni  Ni12  1  0.37756300  0.78272000  0.09020300  1
  Ni  Ni13  1  0.21727100  0.62209200  0.40971800  1
  Cu  Cu14  1  0.91737900  0.92709600  0.84576900  1
  Cu  Cu15  1  0.07194900  0.08273100  0.65442400  1
  Cu  Cu16  1  0.08273100  0.07194900  0.15442400  1
  Cu  Cu17  1  0.92709600  0.91737900  0.34576900  1
  Cu  Cu18  1  0.52837000  0.58116400  0.91817800  1
  Cu  Cu19  1  0.41991800  0.47175600  0.58191600  1
  Cu  Cu20  1  0.47175600  0.41991800  0.08191600  1
  Cu  Cu21  1  0.58116400  0.52837000  0.41817800  1
  Cu  Cu22  1  0.35684800  0.64491600  0.75085800  1
  Cu  Cu23  1  0.64491600  0.35684800  0.25085800  1
  Cu  Cu24  1  0.31389000  0.18281900  0.87992500  1
  Cu  Cu25  1  0.81699200  0.68629900  0.61983800  1
  Cu  Cu26  1  0.68629900  0.81699200  0.11983800  1
  Cu  Cu27  1  0.18281900  0.31389000  0.37992500  1
  Cu  Cu28  1  0.68644600  0.11409400  0.01461400  1
  Cu  Cu29  1  0.88417600  0.31280700  0.48508200  1
  Cu  Cu30  1  0.31280700  0.88417600  0.98508200  1
  Cu  Cu31  1  0.11409400  0.68644600  0.51461400  1
  C  C32  1  0.72070500  0.11785300  0.84476800  1
  C  C33  1  0.88290800  0.27869400  0.65504100  1
  C  C34  1  0.27869400  0.88290800  0.15504100  1
  C  C35  1  0.11785300  0.72070500  0.34476800  1
  C  C36  1  0.22525200  0.08361900  0.83666600  1
  C  C37  1  0.91619700  0.77484200  0.66326400  1
  C  C38  1  0.77484200  0.91619700  0.16326400  1
  C  C39  1  0.08361900  0.22525200  0.33666600  1
  C  C40  1  0.37179100  0.27355800  0.91277600  1
  C  C41  1  0.72568400  0.62785900  0.58734500  1
  C  C42  1  0.62785900  0.72568400  0.08734500  1
  C  C43  1  0.27355800  0.37179100  0.41277600  1
  C  C44  1  0.05157200  0.79022300  0.84380800  1
  C  C45  1  0.20976600  0.94874700  0.65547800  1
  C  C46  1  0.94874700  0.20976600  0.15547800  1
  C  C47  1  0.79022300  0.05157200  0.34380800  1
  C  C48  1  0.42916300  0.70863900  0.79432500  1
  C  C49  1  0.29084600  0.57052500  0.70560300  1
  C  C50  1  0.57052500  0.29084600  0.20560300  1
  C  C51  1  0.70863900  0.42916300  0.29432500  1
  C  C52  1  0.66856700  0.43093800  0.92118600  1
  C  C53  1  0.56911000  0.33091800  0.57887500  1
  C  C54  1  0.33091800  0.56911000  0.07887500  1
  C  C55  1  0.43093800  0.66856700  0.42118600  1
  C  C56  1  0.72416200  0.05380000  0.96854600  1
  C  C57  1  0.94624700  0.27658800  0.53113300  1
  C  C58  1  0.27658800  0.94624700  0.03113300  1
  C  C59  1  0.05380000  0.72416200  0.46854600  1
  C  C60  1  0.36642300  0.76277600  0.91693300  1
  C  C61  1  0.23814200  0.63489300  0.58282400  1
  C  C62  1  0.63489300  0.23814200  0.08282500  1
  C  C63  1  0.76277600  0.36642300  0.41693300  1
