# generated using pymatgen
data_CuNiC12
_symmetry_space_group_name_H-M   'P 1'
_cell_length_a   5.96731500
_cell_length_b   8.48548349
_cell_length_c   16.38445649
_cell_angle_alpha   99.45805673
_cell_angle_beta   90.00000000
_cell_angle_gamma   90.00000000
_symmetry_Int_Tables_number   1
_chemical_formula_structural   CuNiC12
_chemical_formula_sum   'Cu4 Ni4 C48'
_cell_volume   818.35807419
_cell_formula_units_Z   4
loop_
 _symmetry_equiv_pos_site_id
 _symmetry_equiv_pos_as_xyz
  1  'x, y, z'
loop_
 _atom_site_type_symbol
 _atom_site_label
 _atom_site_symmetry_multiplicity
 _atom_site_fract_x
 _atom_site_fract_y
 _atom_site_fract_z
 _atom_site_occupancy
  Ni  Ni0  1  0.25705100  0.89221900  0.84305000  1
  Ni  Ni1  1  0.74294900  0.10778100  0.15695000  1
  Ni  Ni2  1  0.75705100  0.60778100  0.65695000  1
  Ni  Ni3  1  0.24294900  0.39221900  0.34305000  1
  Cu  Cu4  1  0.00824000  0.26413200  0.74908100  1
  Cu  Cu5  1  0.99176000  0.73586800  0.25091900  1
  Cu  Cu6  1  0.50824000  0.23586800  0.75091900  1
  Cu  Cu7  1  0.49176000  0.76413200  0.24908100  1
  C  C8  1  0.25671000  0.40640000  0.91567100  1
  C  C9  1  0.74329000  0.59360000  0.08432900  1
  C  C10  1  0.75671000  0.09360000  0.58432900  1
  C  C11  1  0.24329000  0.90640000  0.41567100  1
  C  C12  1  0.21207700  0.82912800  0.62853400  1
  C  C13  1  0.78792300  0.17087200  0.37146600  1
  C  C14  1  0.71207700  0.67087200  0.87146600  1
  C  C15  1  0.28792300  0.32912800  0.12853400  1
  C  C16  1  0.77898100  0.15751200  0.93364800  1
  C  C17  1  0.22101900  0.84248800  0.06635200  1
  C  C18  1  0.27898100  0.34248800  0.56635200  1
  C  C19  1  0.72101900  0.65751200  0.43364800  1
  C  C20  1  0.24545600  0.03554200  0.78617500  1
  C  C21  1  0.75454400  0.96445800  0.21382500  1
  C  C22  1  0.74545600  0.46445800  0.71382500  1
  C  C23  1  0.25454400  0.53554200  0.28617500  1
  C  C24  1  0.51921400  0.60825400  0.60031300  1
  C  C25  1  0.48078600  0.39174600  0.39968700  1
  C  C26  1  0.01921400  0.89174600  0.89968700  1
  C  C27  1  0.98078600  0.10825400  0.10031300  1
  C  C28  1  0.48560300  0.91659200  0.90622000  1
  C  C29  1  0.51439700  0.08340800  0.09378000  1
  C  C30  1  0.98560300  0.58340800  0.59378000  1
  C  C31  1  0.01439700  0.41659200  0.40622000  1
  C  C32  1  0.50065900  0.33890600  0.86116000  1
  C  C33  1  0.49934100  0.66109400  0.13884000  1
  C  C34  1  0.00065900  0.16109400  0.63884000  1
  C  C35  1  0.99934100  0.83890600  0.36116000  1
  C  C36  1  0.32110700  0.59853400  0.95500000  1
  C  C37  1  0.67889300  0.40146600  0.04500000  1
  C  C38  1  0.82110700  0.90146600  0.54500000  1
  C  C39  1  0.17889300  0.09853400  0.45500000  1
  C  C40  1  0.27115200  0.35336800  0.72030500  1
  C  C41  1  0.72884800  0.64663200  0.27969500  1
  C  C42  1  0.77115200  0.14663200  0.77969500  1
  C  C43  1  0.22884800  0.85336800  0.22030500  1
  C  C44  1  0.78553900  0.77810200  0.72042700  1
  C  C45  1  0.21446100  0.22189800  0.27957300  1
  C  C46  1  0.28553900  0.72189800  0.77957300  1
  C  C47  1  0.71446100  0.27810200  0.22042700  1
  C  C48  1  0.19487800  0.28080000  0.98450800  1
  C  C49  1  0.80512200  0.71920000  0.01549200  1
  C  C50  1  0.69487800  0.21920000  0.51549200  1
  C  C51  1  0.30512200  0.78080000  0.48450800  1
  C  C52  1  0.00995200  0.38744200  0.85621700  1
  C  C53  1  0.99004800  0.61255800  0.14378300  1
  C  C54  1  0.50995200  0.11255800  0.64378300  1
  C  C55  1  0.49004800  0.88744200  0.35621700  1
