# generated using pymatgen
data_Cu17(Ni2C3)3
_symmetry_space_group_name_H-M   'P 1'
_cell_length_a   13.56943323
_cell_length_b   13.56943323
_cell_length_c   13.56943323
_cell_angle_alpha   109.47122063
_cell_angle_beta   109.47122063
_cell_angle_gamma   109.47122063
_symmetry_Int_Tables_number   1
_chemical_formula_structural   Cu17(Ni2C3)3
_chemical_formula_sum   'Cu34 Ni12 C18'
_cell_volume   1923.37175759
_cell_formula_units_Z   2
loop_
 _symmetry_equiv_pos_site_id
 _symmetry_equiv_pos_as_xyz
  1  'x, y, z'
loop_
 _atom_site_type_symbol
 _atom_site_label
 _atom_site_symmetry_multiplicity
 _atom_site_fract_x
 _atom_site_fract_y
 _atom_site_fract_z
 _atom_site_occupancy
  Ni  Ni0  1  0.69468788  0.84734394  0.84734394  1
  Ni  Ni1  1  0.84734394  0.00000000  0.15265606  1
  Ni  Ni2  1  0.84734394  0.15265606  0.00000000  1
  Ni  Ni3  1  0.00000000  0.84734394  0.15265606  1
  Ni  Ni4  1  0.84734394  0.69468788  0.84734394  1
  Ni  Ni5  1  0.15265606  0.84734394  0.00000000  1
  Ni  Ni6  1  0.00000000  0.15265606  0.84734394  1
  Ni  Ni7  1  0.15265606  0.00000000  0.84734394  1
  Ni  Ni8  1  0.84734394  0.84734394  0.69468788  1
  Ni  Ni9  1  0.30531212  0.15265606  0.15265606  1
  Ni  Ni10  1  0.15265606  0.30531212  0.15265606  1
  Ni  Ni11  1  0.15265606  0.15265606  0.30531212  1
  Cu  Cu12  1  0.54573636  0.80868118  0.00000000  1
  Cu  Cu13  1  0.73705518  0.19131882  0.19131882  1
  Cu  Cu14  1  0.54573636  0.00000000  0.80868118  1
  Cu  Cu15  1  0.80868118  0.54573636  0.00000000  1
  Cu  Cu16  1  0.00000000  0.54573636  0.80868118  1
  Cu  Cu17  1  0.19131882  0.73705518  0.19131882  1
  Cu  Cu18  1  0.19131882  0.19131882  0.73705518  1
  Cu  Cu19  1  0.00000000  0.80868118  0.54573636  1
  Cu  Cu20  1  0.80868118  0.00000000  0.54573636  1
  Cu  Cu21  1  0.45426364  0.45426364  0.26294482  1
  Cu  Cu22  1  0.26294482  0.45426364  0.45426364  1
  Cu  Cu23  1  0.45426364  0.26294482  0.45426364  1
  Cu  Cu24  1  0.45426364  0.19131882  0.00000000  1
  Cu  Cu25  1  0.26294482  0.80868118  0.80868118  1
  Cu  Cu26  1  0.45426364  0.00000000  0.19131882  1
  Cu  Cu27  1  0.19131882  0.45426364  0.00000000  1
  Cu  Cu28  1  0.00000000  0.45426364  0.19131882  1
  Cu  Cu29  1  0.80868118  0.26294482  0.80868118  1
  Cu  Cu30  1  0.80868118  0.80868118  0.26294482  1
  Cu  Cu31  1  0.00000000  0.19131882  0.45426364  1
  Cu  Cu32  1  0.19131882  0.00000000  0.45426364  1
  Cu  Cu33  1  0.54573636  0.54573636  0.73705518  1
  Cu  Cu34  1  0.73705518  0.54573636  0.54573636  1
  Cu  Cu35  1  0.54573636  0.73705518  0.54573636  1
  Cu  Cu36  1  0.50000000  0.75000000  0.25000000  1
  Cu  Cu37  1  0.75000000  0.50000000  0.25000000  1
  Cu  Cu38  1  0.25000000  0.75000000  0.50000000  1
  Cu  Cu39  1  0.25000000  0.50000000  0.75000000  1
  Cu  Cu40  1  0.50000000  0.25000000  0.75000000  1
  Cu  Cu41  1  0.75000000  0.25000000  0.50000000  1
  Cu  Cu42  1  0.00000000  0.50000000  0.50000000  1
  Cu  Cu43  1  0.50000000  0.00000000  0.50000000  1
  Cu  Cu44  1  0.50000000  0.50000000  0.00000000  1
  Cu  Cu45  1  0.00000000  0.00000000  0.00000000  1
  C  C46  1  0.41338023  0.70669011  0.70669011  1
  C  C47  1  0.70669011  0.00000000  0.29330989  1
  C  C48  1  0.70669011  0.29330989  0.00000000  1
  C  C49  1  0.00000000  0.70669011  0.29330989  1
  C  C50  1  0.70669011  0.41338023  0.70669011  1
  C  C51  1  0.29330989  0.70669011  0.00000000  1
  C  C52  1  0.00000000  0.29330989  0.70669011  1
  C  C53  1  0.29330989  0.00000000  0.70669011  1
  C  C54  1  0.70669011  0.70669011  0.41338023  1
  C  C55  1  0.58661977  0.29330989  0.29330989  1
  C  C56  1  0.29330989  0.58661977  0.29330989  1
  C  C57  1  0.29330989  0.29330989  0.58661977  1
  C  C58  1  0.00000000  0.24371299  0.24371299  1
  C  C59  1  0.75628701  0.00000000  0.75628701  1
  C  C60  1  0.75628701  0.75628701  0.00000000  1
  C  C61  1  0.00000000  0.75628701  0.75628701  1
  C  C62  1  0.24371299  0.00000000  0.24371299  1
  C  C63  1  0.24371299  0.24371299  0.00000000  1
