# generated using pymatgen
data_Cu3NiC
_symmetry_space_group_name_H-M   'P 1'
_cell_length_a   8.19329102
_cell_length_b   8.19329102
_cell_length_c   8.19329066
_cell_angle_alpha   47.79335685
_cell_angle_beta   47.79335685
_cell_angle_gamma   47.79336199
_symmetry_Int_Tables_number   1
_chemical_formula_structural   Cu3NiC
_chemical_formula_sum   'Cu6 Ni2 C2'
_cell_volume   276.34276587
_cell_formula_units_Z   2
loop_
 _symmetry_equiv_pos_site_id
 _symmetry_equiv_pos_as_xyz
  1  'x, y, z'
loop_
 _atom_site_type_symbol
 _atom_site_label
 _atom_site_symmetry_multiplicity
 _atom_site_fract_x
 _atom_site_fract_y
 _atom_site_fract_z
 _atom_site_occupancy
  C  C0  1  0.83156400  0.83156400  0.83156400  1
  C  C1  1  0.16829800  0.16829800  0.16829800  1
  Ni  Ni2  1  0.55194100  0.55194100  0.55194100  1
  Ni  Ni3  1  0.44761100  0.44761100  0.44761100  1
  Cu  Cu4  1  0.91336600  0.27603300  0.55712200  1
  Cu  Cu5  1  0.55712200  0.91336600  0.27603300  1
  Cu  Cu6  1  0.27603300  0.55712200  0.91336600  1
  Cu  Cu7  1  0.11738600  0.75450900  0.38216800  1
  Cu  Cu8  1  0.38216800  0.11738600  0.75450900  1
  Cu  Cu9  1  0.75450900  0.38216800  0.11738600  1
