# generated using pymatgen
data_Cu4NiC
_symmetry_space_group_name_H-M   'P 1'
_cell_length_a   9.26032011
_cell_length_b   9.26032011
_cell_length_c   5.68882602
_cell_angle_alpha   82.87290882
_cell_angle_beta   82.87290882
_cell_angle_gamma   53.16993631
_symmetry_Int_Tables_number   1
_chemical_formula_structural   Cu4NiC
_chemical_formula_sum   'Cu12 Ni3 C3'
_cell_volume   386.69663534
_cell_formula_units_Z   3
loop_
 _symmetry_equiv_pos_site_id
 _symmetry_equiv_pos_as_xyz
  1  'x, y, z'
loop_
 _atom_site_type_symbol
 _atom_site_label
 _atom_site_symmetry_multiplicity
 _atom_site_fract_x
 _atom_site_fract_y
 _atom_site_fract_z
 _atom_site_occupancy
  C  C0  1  0.58513100  0.74660200  0.34549100  1
  C  C1  1  0.25339800  0.41486900  0.65450900  1
  C  C2  1  0.99364500  0.00635500  0.00000000  1
  Ni  Ni3  1  0.81615600  0.95189900  0.72622600  1
  Ni  Ni4  1  0.04810100  0.18384400  0.27377400  1
  Ni  Ni5  1  0.49961100  0.50038900  0.00000000  1
  Cu  Cu6  1  0.54216200  0.42512700  0.81714700  1
  Cu  Cu7  1  0.57487300  0.45783800  0.18285300  1
  Cu  Cu8  1  0.16906500  0.18738200  0.26046600  1
  Cu  Cu9  1  0.81261800  0.83093500  0.73953400  1
  Cu  Cu10  1  0.12650600  0.56081600  0.44394700  1
  Cu  Cu11  1  0.43918400  0.87349400  0.55605300  1
  Cu  Cu12  1  0.54015600  0.85418800  0.08255600  1
  Cu  Cu13  1  0.14581200  0.45984400  0.91744400  1
  Cu  Cu14  1  0.79478600  0.03627700  0.07217100  1
  Cu  Cu15  1  0.96372300  0.20521400  0.92782900  1
  Cu  Cu16  1  0.12781600  0.92014200  0.22956900  1
  Cu  Cu17  1  0.07985800  0.87218400  0.77043100  1
