# generated using pymatgen
data_CuNiC7
_symmetry_space_group_name_H-M   'P 1'
_cell_length_a   5.10784876
_cell_length_b   5.10784876
_cell_length_c   6.19551200
_cell_angle_alpha   90.00000000
_cell_angle_beta   90.00000000
_cell_angle_gamma   120.00000980
_symmetry_Int_Tables_number   1
_chemical_formula_structural   CuNiC7
_chemical_formula_sum   'Cu1 Ni1 C7'
_cell_volume   139.98575692
_cell_formula_units_Z   1
loop_
 _symmetry_equiv_pos_site_id
 _symmetry_equiv_pos_as_xyz
  1  'x, y, z'
loop_
 _atom_site_type_symbol
 _atom_site_label
 _atom_site_symmetry_multiplicity
 _atom_site_fract_x
 _atom_site_fract_y
 _atom_site_fract_z
 _atom_site_occupancy
  C  C0  1  0.00000000  0.00000000  0.00000000  1
  Ni  Ni1  1  0.33333300  0.66666700  0.50000000  1
  Cu  Cu2  1  0.66666700  0.33333300  0.50000000  1
  C  C3  1  0.37561100  0.99593600  0.67621500  1
  C  C4  1  0.00406400  0.37967500  0.67621500  1
  C  C5  1  0.62032500  0.62438900  0.67621500  1
  C  C6  1  0.00406400  0.62438900  0.32378500  1
  C  C7  1  0.62032500  0.99593600  0.32378500  1
  C  C8  1  0.37561100  0.37967500  0.32378500  1
