# generated using pymatgen
data_Cu6Ni4C7
_symmetry_space_group_name_H-M   'P 1'
_cell_length_a   6.11345900
_cell_length_b   10.45120091
_cell_length_c   16.79950131
_cell_angle_alpha   107.41331433
_cell_angle_beta   100.19086092
_cell_angle_gamma   90.57588398
_symmetry_Int_Tables_number   1
_chemical_formula_structural   Cu6Ni4C7
_chemical_formula_sum   'Cu36 Ni24 C42'
_cell_volume   1005.75038007
_cell_formula_units_Z   6
loop_
 _symmetry_equiv_pos_site_id
 _symmetry_equiv_pos_as_xyz
  1  'x, y, z'
loop_
 _atom_site_type_symbol
 _atom_site_label
 _atom_site_symmetry_multiplicity
 _atom_site_fract_x
 _atom_site_fract_y
 _atom_site_fract_z
 _atom_site_occupancy
  C  C0  1  0.25216000  0.11801300  0.99602900  1
  C  C1  1  0.74784000  0.88198700  0.00397100  1
  C  C2  1  0.95315200  0.80468900  0.39047900  1
  C  C3  1  0.04684800  0.19531100  0.60952100  1
  C  C4  1  0.45552000  0.57509200  0.39422000  1
  C  C5  1  0.54448000  0.42490800  0.60578000  1
  C  C6  1  0.47975600  0.33444700  0.96262600  1
  C  C7  1  0.52024400  0.66555300  0.03737400  1
  C  C8  1  0.54294300  0.39808600  0.06180200  1
  C  C9  1  0.45705700  0.60191400  0.93819800  1
  C  C10  1  0.81296800  0.25902700  0.98295400  1
  C  C11  1  0.18703200  0.74097300  0.01704600  1
  C  C12  1  0.93202100  0.30511700  0.91943100  1
  C  C13  1  0.06797900  0.69488300  0.08056900  1
  C  C14  1  0.28203400  0.34239000  0.24340600  1
  C  C15  1  0.71796600  0.65761000  0.75659400  1
  C  C16  1  0.15428500  0.97217700  0.63498600  1
  C  C17  1  0.84571500  0.02782300  0.36501400  1
  C  C18  1  0.74859100  0.25138400  0.20510400  1
  C  C19  1  0.25140900  0.74861600  0.79489600  1
  C  C20  1  0.91627000  0.13103100  0.23339900  1
  C  C21  1  0.08373000  0.86896900  0.76660100  1
  C  C22  1  0.03167900  0.18510000  0.36466000  1
  C  C23  1  0.96832100  0.81490000  0.63534000  1
  C  C24  1  0.83922800  0.30863200  0.39153000  1
  C  C25  1  0.16077200  0.69136800  0.60847000  1
  C  C26  1  0.49706200  0.81551900  0.63165600  1
  C  C27  1  0.50293800  0.18448100  0.36834400  1
  C  C28  1  0.67006400  0.92292200  0.60351800  1
  C  C29  1  0.32993600  0.07707800  0.39648200  1
  C  C30  1  0.74762900  0.03777700  0.79179100  1
  C  C31  1  0.25237100  0.96222300  0.20820900  1
  C  C32  1  0.58013400  0.88752500  0.76073700  1
  C  C33  1  0.41986600  0.11247500  0.23926300  1
  C  C34  1  0.88122400  0.50328100  0.85658600  1
  C  C35  1  0.11877600  0.49671900  0.14341400  1
  C  C36  1  0.88357900  0.35956600  0.79067000  1
  C  C37  1  0.11642100  0.64043400  0.20933000  1
  C  C38  1  0.22921300  0.42282700  0.86585300  1
  C  C39  1  0.77078700  0.57717300  0.13414700  1
  C  C40  1  0.43151000  0.39925900  0.81955600  1
  C  C41  1  0.56849000  0.60074100  0.18044400  1
  Ni  Ni42  1  0.02637800  0.20600900  0.14278000  1
  Ni  Ni43  1  0.97362200  0.79399100  0.85722000  1
  Ni  Ni44  1  0.92292100  0.22883200  0.22163000  1
  Ni  Ni45  1  0.07707900  0.77116800  0.77837000  1
  Ni  Ni46  1  0.03879400  0.33893100  0.30363700  1
  Ni  Ni47  1  0.96120600  0.66106900  0.69636300  1
  Ni  Ni48  1  0.01039000  0.29327200  0.38046000  1
  Ni  Ni49  1  0.98961000  0.70672800  0.61954000  1
  Ni  Ni50  1  0.16504600  0.35913300  0.46470000  1
  Ni  Ni51  1  0.83495400  0.64086700  0.53530000  1
  Ni  Ni52  1  0.92704500  0.47446200  0.31355000  1
  Ni  Ni53  1  0.07295500  0.52553800  0.68645000  1
  Ni  Ni54  1  0.34049600  0.88825300  0.53190100  1
  Ni  Ni55  1  0.65950400  0.11174700  0.46809900  1
  Ni  Ni56  1  0.50191100  0.90989500  0.61565900  1
  Ni  Ni57  1  0.49808900  0.09010500  0.38434100  1
  Ni  Ni58  1  0.46196400  0.02755300  0.69223900  1
  Ni  Ni59  1  0.53803600  0.97244700  0.30776100  1
  Ni  Ni60  1  0.57330100  0.99676600  0.77441800  1
  Ni  Ni61  1  0.42669900  0.00323400  0.22558200  1
  Ni  Ni62  1  0.47065100  0.04482700  0.85386400  1
  Ni  Ni63  1  0.52934900  0.95517300  0.14613600  1
  Ni  Ni64  1  0.56896000  0.16047900  0.68750500  1
  Ni  Ni65  1  0.43104000  0.83952100  0.31249500  1
  Cu  Cu66  1  0.18057300  0.28999900  0.14172200  1
  Cu  Cu67  1  0.81942700  0.71000100  0.85827800  1
  Cu  Cu68  1  0.52480200  0.31066500  0.01548900  1
  Cu  Cu69  1  0.47519800  0.68933500  0.98451100  1
  Cu  Cu70  1  0.96050900  0.10144600  0.08065900  1
  Cu  Cu71  1  0.03949100  0.89855400  0.91934100  1
  Cu  Cu72  1  0.94468800  0.24619300  0.95581900  1
  Cu  Cu73  1  0.05531200  0.75380700  0.04418100  1
  Cu  Cu74  1  0.18481600  0.29429900  0.51894300  1
  Cu  Cu75  1  0.81518400  0.70570100  0.48105700  1
  Cu  Cu76  1  0.27272700  0.47102200  0.48034700  1
  Cu  Cu77  1  0.72727300  0.52897800  0.51965300  1
  Cu  Cu78  1  0.05443100  0.57999400  0.32760900  1
  Cu  Cu79  1  0.94556900  0.42000600  0.67239100  1
  Cu  Cu80  1  0.71945300  0.47168300  0.30999500  1
  Cu  Cu81  1  0.28054700  0.52831700  0.69000500  1
  Cu  Cu82  1  0.27311600  0.35623600  0.30486000  1
  Cu  Cu83  1  0.72688400  0.64376400  0.69514000  1
  Cu  Cu84  1  0.21806900  0.98114100  0.51913800  1
  Cu  Cu85  1  0.78193100  0.01885900  0.48086200  1
  Cu  Cu86  1  0.32387200  0.77261400  0.47712300  1
  Cu  Cu87  1  0.67612800  0.22738600  0.52287700  1
  Cu  Cu88  1  0.53676000  0.99025500  0.91261000  1
  Cu  Cu89  1  0.46324000  0.00974500  0.08739000  1
  Cu  Cu90  1  0.32808500  0.13162300  0.86087400  1
  Cu  Cu91  1  0.67191500  0.86837700  0.13912600  1
  Cu  Cu92  1  0.44284700  0.25340200  0.67708500  1
  Cu  Cu93  1  0.55715300  0.74659800  0.32291500  1
  Cu  Cu94  1  0.77832200  0.16720000  0.69364700  1
  Cu  Cu95  1  0.22167800  0.83280000  0.30635300  1
  Cu  Cu96  1  0.22409100  0.03712200  0.68888200  1
  Cu  Cu97  1  0.77590900  0.96287800  0.31111800  1
  Cu  Cu98  1  0.93334400  0.41286400  0.85050800  1
  Cu  Cu99  1  0.06665600  0.58713600  0.14949200  1
  Cu  Cu100  1  0.39428000  0.43636000  0.87582300  1
  Cu  Cu101  1  0.60572000  0.56364000  0.12417700  1
