# generated using pymatgen
data_CuNiC10
_symmetry_space_group_name_H-M   'P 1'
_cell_length_a   8.26776700
_cell_length_b   7.83892700
_cell_length_c   18.62169000
_cell_angle_alpha   90.00000000
_cell_angle_beta   90.00000000
_cell_angle_gamma   90.00000000
_symmetry_Int_Tables_number   1
_chemical_formula_structural   CuNiC10
_chemical_formula_sum   'Cu4 Ni4 C40'
_cell_volume   1206.87958662
_cell_formula_units_Z   4
loop_
 _symmetry_equiv_pos_site_id
 _symmetry_equiv_pos_as_xyz
  1  'x, y, z'
loop_
 _atom_site_type_symbol
 _atom_site_label
 _atom_site_symmetry_multiplicity
 _atom_site_fract_x
 _atom_site_fract_y
 _atom_site_fract_z
 _atom_site_occupancy
  Ni  Ni0  1  0.25000000  0.35150900  0.61063200  1
  Ni  Ni1  1  0.25000000  0.14849100  0.11063200  1
  Ni  Ni2  1  0.75000000  0.64849100  0.38936800  1
  Ni  Ni3  1  0.75000000  0.85150900  0.88936800  1
  Cu  Cu4  1  0.25000000  0.92934600  0.69984300  1
  Cu  Cu5  1  0.25000000  0.57065400  0.19984300  1
  Cu  Cu6  1  0.75000000  0.07065400  0.30015700  1
  Cu  Cu7  1  0.75000000  0.42934600  0.80015700  1
  C  C8  1  0.25000000  0.13476300  0.65656200  1
  C  C9  1  0.25000000  0.36523700  0.15656200  1
  C  C10  1  0.75000000  0.86523700  0.34343800  1
  C  C11  1  0.75000000  0.63476300  0.84343800  1
  C  C12  1  0.07572200  0.44618500  0.64630700  1
  C  C13  1  0.42427800  0.05381500  0.14630700  1
  C  C14  1  0.57572200  0.55381500  0.35369300  1
  C  C15  1  0.92427800  0.94618500  0.85369300  1
  C  C16  1  0.92427800  0.55381500  0.35369300  1
  C  C17  1  0.57572200  0.94618500  0.85369300  1
  C  C18  1  0.42427800  0.44618500  0.64630700  1
  C  C19  1  0.07572200  0.05381500  0.14630700  1
  C  C20  1  0.09374400  0.17312800  0.53304300  1
  C  C21  1  0.40625600  0.32687200  0.03304300  1
  C  C22  1  0.59374400  0.82687200  0.46695700  1
  C  C23  1  0.90625600  0.67312800  0.96695700  1
  C  C24  1  0.90625600  0.82687200  0.46695700  1
  C  C25  1  0.59374400  0.67312800  0.96695700  1
  C  C26  1  0.40625600  0.17312800  0.53304300  1
  C  C27  1  0.09374400  0.32687200  0.03304300  1
  C  C28  1  0.97589700  0.88416500  0.69182700  1
  C  C29  1  0.52410300  0.61583500  0.19182700  1
  C  C30  1  0.47589700  0.11583500  0.30817300  1
  C  C31  1  0.02410300  0.38416500  0.80817300  1
  C  C32  1  0.02410300  0.11583500  0.30817300  1
  C  C33  1  0.47589700  0.38416500  0.80817300  1
  C  C34  1  0.52410300  0.88416500  0.69182700  1
  C  C35  1  0.97589700  0.61583500  0.19182700  1
  C  C36  1  0.25000000  0.10101600  0.50028500  1
  C  C37  1  0.25000000  0.39898400  0.00028500  1
  C  C38  1  0.75000000  0.89898400  0.49971500  1
  C  C39  1  0.75000000  0.60101600  0.99971500  1
  C  C40  1  0.25000000  0.72490700  0.78521100  1
  C  C41  1  0.25000000  0.77509300  0.28521100  1
  C  C42  1  0.75000000  0.27509300  0.21478900  1
  C  C43  1  0.75000000  0.22490700  0.71478900  1
  C  C44  1  0.25000000  0.53246800  0.50956600  1
  C  C45  1  0.25000000  0.96753200  0.00956600  1
  C  C46  1  0.75000000  0.46753200  0.49043400  1
  C  C47  1  0.75000000  0.03246800  0.99043400  1
