# generated using pymatgen
data_Cu3NiC
_symmetry_space_group_name_H-M   'P 1'
_cell_length_a   10.31926500
_cell_length_b   4.49373600
_cell_length_c   7.77697004
_cell_angle_alpha   63.69828552
_cell_angle_beta   90.00000000
_cell_angle_gamma   90.00000000
_symmetry_Int_Tables_number   1
_chemical_formula_structural   Cu3NiC
_chemical_formula_sum   'Cu12 Ni4 C4'
_cell_volume   323.29876323
_cell_formula_units_Z   4
loop_
 _symmetry_equiv_pos_site_id
 _symmetry_equiv_pos_as_xyz
  1  'x, y, z'
loop_
 _atom_site_type_symbol
 _atom_site_label
 _atom_site_symmetry_multiplicity
 _atom_site_fract_x
 _atom_site_fract_y
 _atom_site_fract_z
 _atom_site_occupancy
  C  C0  1  0.81447100  0.57214200  0.08527500  1
  C  C1  1  0.18552900  0.42785800  0.91472500  1
  C  C2  1  0.31447100  0.42785800  0.41472500  1
  C  C3  1  0.68552900  0.57214200  0.58527500  1
  Ni  Ni4  1  0.54849500  0.17415000  0.21230300  1
  Ni  Ni5  1  0.45150500  0.82585000  0.78769700  1
  Ni  Ni6  1  0.04849500  0.82585000  0.28769700  1
  Ni  Ni7  1  0.95150500  0.17415000  0.71230300  1
  Cu  Cu8  1  0.58168600  0.29023100  0.33032500  1
  Cu  Cu9  1  0.41831400  0.70976900  0.66967500  1
  Cu  Cu10  1  0.08168600  0.70976900  0.16967500  1
  Cu  Cu11  1  0.91831400  0.29023100  0.83032500  1
  Cu  Cu12  1  0.42878700  0.14613900  0.17887200  1
  Cu  Cu13  1  0.57121300  0.85386100  0.82112800  1
  Cu  Cu14  1  0.92878700  0.85386100  0.32112800  1
  Cu  Cu15  1  0.07121300  0.14613900  0.67887200  1
  Cu  Cu16  1  0.63808600  0.07954400  0.13285800  1
  Cu  Cu17  1  0.36191400  0.92045600  0.86714200  1
  Cu  Cu18  1  0.13808600  0.92045600  0.36714200  1
  Cu  Cu19  1  0.86191400  0.07954400  0.63285800  1
