# generated using pymatgen
data_CuNi11C7
_symmetry_space_group_name_H-M   'P 1'
_cell_length_a   6.50810176
_cell_length_b   6.50810176
_cell_length_c   14.38421751
_cell_angle_alpha   85.45567211
_cell_angle_beta   85.45567211
_cell_angle_gamma   60.28857300
_symmetry_Int_Tables_number   1
_chemical_formula_structural   CuNi11C7
_chemical_formula_sum   'Cu2 Ni22 C14'
_cell_volume   526.92713982
_cell_formula_units_Z   2
loop_
 _symmetry_equiv_pos_site_id
 _symmetry_equiv_pos_as_xyz
  1  'x, y, z'
loop_
 _atom_site_type_symbol
 _atom_site_label
 _atom_site_symmetry_multiplicity
 _atom_site_fract_x
 _atom_site_fract_y
 _atom_site_fract_z
 _atom_site_occupancy
  C  C0  1  0.07207800  0.34100100  0.55074800  1
  C  C1  1  0.34100100  0.07207800  0.05074800  1
  C  C2  1  0.11304200  0.84794900  0.33259700  1
  C  C3  1  0.84794900  0.11304200  0.83259700  1
  C  C4  1  0.43145800  0.02878300  0.79923700  1
  C  C5  1  0.02878300  0.43145800  0.29923700  1
  C  C6  1  0.45679400  0.17785900  0.32858400  1
  C  C7  1  0.17785900  0.45679400  0.82858400  1
  C  C8  1  0.69484000  0.36460400  0.37190400  1
  C  C9  1  0.36460400  0.69484000  0.87190400  1
  C  C10  1  0.62944900  0.74985900  0.28267100  1
  C  C11  1  0.74985900  0.62944900  0.78267100  1
  C  C12  1  0.55788700  0.86451000  0.64433900  1
  C  C13  1  0.86451000  0.55788700  0.14433900  1
  Ni  Ni14  1  0.39939300  0.04914500  0.69792100  1
  Ni  Ni15  1  0.04914500  0.39939300  0.19792100  1
  Ni  Ni16  1  0.66878800  0.16122200  0.34479000  1
  Ni  Ni17  1  0.16122200  0.66878800  0.84479000  1
  Ni  Ni18  1  0.54086100  0.58770300  0.32125400  1
  Ni  Ni19  1  0.58770300  0.54086100  0.82125400  1
  Ni  Ni20  1  0.95151200  0.27316100  0.34890100  1
  Ni  Ni21  1  0.27316100  0.95151200  0.84890100  1
  Ni  Ni22  1  0.52374000  0.89332500  0.54980900  1
  Ni  Ni23  1  0.89332500  0.52374000  0.04980900  1
  Ni  Ni24  1  0.85828900  0.67938700  0.32229100  1
  Ni  Ni25  1  0.67938700  0.85828900  0.82229100  1
  Ni  Ni26  1  0.25190500  0.39455600  0.33432900  1
  Ni  Ni27  1  0.39455600  0.25190500  0.83432900  1
  Ni  Ni28  1  0.74202100  0.66003500  0.67972200  1
  Ni  Ni29  1  0.66003500  0.74202100  0.17972200  1
  Ni  Ni30  1  0.11007000  0.88363000  0.20720200  1
  Ni  Ni31  1  0.88363000  0.11007000  0.70720200  1
  Ni  Ni32  1  0.11095800  0.81236000  0.45771400  1
  Ni  Ni33  1  0.81236000  0.11095800  0.95771400  1
  Ni  Ni34  1  0.43782900  0.98585600  0.30761900  1
  Ni  Ni35  1  0.98585600  0.43782900  0.80761900  1
  Cu  Cu36  1  0.64912800  0.39097200  0.46955900  1
  Cu  Cu37  1  0.39097200  0.64912800  0.96955900  1
