# generated using pymatgen
data_Cu16Ni2C35
_symmetry_space_group_name_H-M   'P 1'
_cell_length_a   12.29278300
_cell_length_b   7.07281600
_cell_length_c   13.45759717
_cell_angle_alpha   90.00000000
_cell_angle_beta   111.62342408
_cell_angle_gamma   90.00000000
_symmetry_Int_Tables_number   1
_chemical_formula_structural   Cu16Ni2C35
_chemical_formula_sum   'Cu32 Ni4 C70'
_cell_volume   1087.72301709
_cell_formula_units_Z   2
loop_
 _symmetry_equiv_pos_site_id
 _symmetry_equiv_pos_as_xyz
  1  'x, y, z'
loop_
 _atom_site_type_symbol
 _atom_site_label
 _atom_site_symmetry_multiplicity
 _atom_site_fract_x
 _atom_site_fract_y
 _atom_site_fract_z
 _atom_site_occupancy
  C  C0  1  0.50000000  0.50000000  0.50000000  1
  C  C1  1  0.50000000  0.00000000  0.00000000  1
  C  C2  1  0.34548400  0.48519300  0.59249700  1
  C  C3  1  0.65451600  0.98519300  0.90750300  1
  C  C4  1  0.65451600  0.51480700  0.40750300  1
  C  C5  1  0.34548400  0.01480700  0.09249700  1
  C  C6  1  0.15959800  0.67066500  0.20509000  1
  C  C7  1  0.84040200  0.17066500  0.29491000  1
  C  C8  1  0.84040200  0.32933500  0.79491000  1
  C  C9  1  0.15959800  0.82933500  0.70509000  1
  C  C10  1  0.34519800  0.27840000  0.53339200  1
  C  C11  1  0.65480200  0.77840000  0.96660800  1
  C  C12  1  0.65480200  0.72160000  0.46660800  1
  C  C13  1  0.34519800  0.22160000  0.03339200  1
  C  C14  1  0.58213700  0.15237600  0.47206600  1
  C  C15  1  0.41786300  0.65237600  0.02793400  1
  C  C16  1  0.41786300  0.84762400  0.52793400  1
  C  C17  1  0.58213700  0.34762400  0.97206600  1
  C  C18  1  0.48396000  0.21472200  0.36164000  1
  C  C19  1  0.51604000  0.71472200  0.13836000  1
  C  C20  1  0.51604000  0.78527800  0.63836000  1
  C  C21  1  0.48396000  0.28527800  0.86164000  1
  C  C22  1  0.16601100  0.43782700  0.43919400  1
  C  C23  1  0.83398900  0.93782700  0.06080600  1
  C  C24  1  0.83398900  0.56217300  0.56080600  1
  C  C25  1  0.16601100  0.06217300  0.93919400  1
  C  C26  1  0.07603600  0.60392000  0.28152500  1
  C  C27  1  0.92396400  0.10392000  0.21847500  1
  C  C28  1  0.92396400  0.39608000  0.71847500  1
  C  C29  1  0.07603600  0.89608000  0.78152500  1
  C  C30  1  0.22429200  0.94395500  0.47774700  1
  C  C31  1  0.77570800  0.44395500  0.02225300  1
  C  C32  1  0.77570800  0.05604500  0.52225300  1
  C  C33  1  0.22429200  0.55604500  0.97774700  1
  C  C34  1  0.27584100  0.03370800  0.39788200  1
  C  C35  1  0.72415900  0.53370800  0.10211800  1
  C  C36  1  0.72415900  0.96629200  0.60211800  1
  C  C37  1  0.27584100  0.46629200  0.89788200  1
  Ni  Ni38  1  0.25321900  0.56029200  0.35012200  1
  Ni  Ni39  1  0.74678100  0.06029200  0.14987800  1
  Ni  Ni40  1  0.74678100  0.43970800  0.64987800  1
  Ni  Ni41  1  0.25321900  0.93970800  0.85012200  1
  Cu  Cu42  1  0.34621100  0.42287000  0.52382700  1
  Cu  Cu43  1  0.65378900  0.92287000  0.97617300  1
  Cu  Cu44  1  0.65378900  0.57713000  0.47617300  1
  Cu  Cu45  1  0.34621100  0.07713000  0.02382700  1
  Cu  Cu46  1  0.24548600  0.47721600  0.43761400  1
  Cu  Cu47  1  0.75451400  0.97721600  0.06238600  1
  Cu  Cu48  1  0.75451400  0.52278400  0.56238600  1
  Cu  Cu49  1  0.24548600  0.02278400  0.93761400  1
  Cu  Cu50  1  0.15472700  0.60920500  0.27185900  1
  Cu  Cu51  1  0.84527300  0.10920500  0.22814100  1
  Cu  Cu52  1  0.84527300  0.39079500  0.72814100  1
  Cu  Cu53  1  0.15472700  0.89079500  0.77185900  1
  Cu  Cu54  1  0.36464900  0.58548900  0.35314000  1
  Cu  Cu55  1  0.63535100  0.08548900  0.14686000  1
  Cu  Cu56  1  0.63535100  0.41451100  0.64686000  1
  Cu  Cu57  1  0.36464900  0.91451100  0.85314000  1
  Cu  Cu58  1  0.38419300  0.67325200  0.27183300  1
  Cu  Cu59  1  0.61580700  0.17325200  0.22816700  1
  Cu  Cu60  1  0.61580700  0.32674800  0.72816700  1
  Cu  Cu61  1  0.38419300  0.82674800  0.77183300  1
  Cu  Cu62  1  0.13943300  0.18660700  0.09820400  1
  Cu  Cu63  1  0.86056700  0.68660700  0.40179600  1
  Cu  Cu64  1  0.86056700  0.81339300  0.90179600  1
  Cu  Cu65  1  0.13943300  0.31339300  0.59820400  1
  Cu  Cu66  1  0.16114200  0.14872200  0.20307600  1
  Cu  Cu67  1  0.83885800  0.64872200  0.29692400  1
  Cu  Cu68  1  0.83885800  0.85127800  0.79692400  1
  Cu  Cu69  1  0.16114200  0.35127800  0.70307600  1
  Cu  Cu70  1  0.02556900  0.23260500  0.03632700  1
  Cu  Cu71  1  0.97443100  0.73260500  0.46367300  1
  Cu  Cu72  1  0.97443100  0.76739500  0.96367300  1
  Cu  Cu73  1  0.02556900  0.26739500  0.53632700  1
  C  C74  1  0.48958200  0.70086200  0.28559100  1
  C  C75  1  0.51041800  0.20086200  0.21440900  1
  C  C76  1  0.51041800  0.29913800  0.71440900  1
  C  C77  1  0.48958200  0.79913800  0.78559100  1
  C  C78  1  0.30281500  0.72283600  0.18726900  1
  C  C79  1  0.69718500  0.22283600  0.31273100  1
  C  C80  1  0.69718500  0.27716400  0.81273100  1
  C  C81  1  0.30281500  0.77716400  0.68726900  1
  C  C82  1  0.50890600  0.22833500  0.43945200  1
  C  C83  1  0.49109400  0.72833500  0.06054800  1
  C  C84  1  0.49109400  0.77166500  0.56054800  1
  C  C85  1  0.50890600  0.27166500  0.93945200  1
  C  C86  1  0.00421800  0.20907600  0.93833300  1
  C  C87  1  0.99578200  0.70907600  0.56166700  1
  C  C88  1  0.99578200  0.79092400  0.06166700  1
  C  C89  1  0.00421800  0.29092400  0.43833300  1
  C  C90  1  0.95449700  0.30170200  0.07204100  1
  C  C91  1  0.04550300  0.80170200  0.42795900  1
  C  C92  1  0.04550300  0.69829800  0.92795900  1
  C  C93  1  0.95449700  0.19829800  0.57204100  1
  C  C94  1  0.08507300  0.11059800  0.24094500  1
  C  C95  1  0.91492700  0.61059800  0.25905500  1
  C  C96  1  0.91492700  0.88940200  0.75905500  1
  C  C97  1  0.08507300  0.38940200  0.74094500  1
  C  C98  1  0.26873900  0.14192700  0.26002700  1
  C  C99  1  0.73126100  0.64192700  0.23997300  1
  C  C100  1  0.73126100  0.85807300  0.73997300  1
  C  C101  1  0.26873900  0.35807300  0.76002700  1
  C  C102  1  0.29645700  0.99065500  0.47221200  1
  C  C103  1  0.70354300  0.49065500  0.02778800  1
  C  C104  1  0.70354300  0.00934500  0.52778800  1
  C  C105  1  0.29645700  0.50934500  0.97221200  1
