# generated using pymatgen
data_Cu6NiC
_symmetry_space_group_name_H-M   'P 1'
_cell_length_a   7.68219523
_cell_length_b   7.68219523
_cell_length_c   14.22158800
_cell_angle_alpha   90.00000000
_cell_angle_beta   90.00000000
_cell_angle_gamma   119.99999334
_symmetry_Int_Tables_number   1
_chemical_formula_structural   Cu6NiC
_chemical_formula_sum   'Cu12 Ni2 C2'
_cell_volume   726.85776288
_cell_formula_units_Z   2
loop_
 _symmetry_equiv_pos_site_id
 _symmetry_equiv_pos_as_xyz
  1  'x, y, z'
loop_
 _atom_site_type_symbol
 _atom_site_label
 _atom_site_symmetry_multiplicity
 _atom_site_fract_x
 _atom_site_fract_y
 _atom_site_fract_z
 _atom_site_occupancy
  C  C0  1  0.00000000  0.00000000  0.50000000  1
  C  C1  1  0.00000000  0.00000000  0.00000000  1
  Ni  Ni2  1  0.66666700  0.33333300  0.75000000  1
  Ni  Ni3  1  0.33333300  0.66666700  0.25000000  1
  Cu  Cu4  1  0.67394900  0.99155300  0.62212400  1
  Cu  Cu5  1  0.32605100  0.00844700  0.37787600  1
  Cu  Cu6  1  0.00844700  0.68239600  0.62212400  1
  Cu  Cu7  1  0.67394900  0.68239600  0.87787600  1
  Cu  Cu8  1  0.99155300  0.31760400  0.37787600  1
  Cu  Cu9  1  0.32605100  0.31760400  0.12212400  1
  Cu  Cu10  1  0.31760400  0.32605100  0.62212400  1
  Cu  Cu11  1  0.00844700  0.32605100  0.87787600  1
  Cu  Cu12  1  0.68239600  0.67394900  0.37787600  1
  Cu  Cu13  1  0.99155300  0.67394900  0.12212400  1
  Cu  Cu14  1  0.31760400  0.99155300  0.87787600  1
  Cu  Cu15  1  0.68239600  0.00844700  0.12212400  1
