# generated using pymatgen
data_CuNiC6
_symmetry_space_group_name_H-M   'P 1'
_cell_length_a   12.92637661
_cell_length_b   12.92637661
_cell_length_c   4.38241800
_cell_angle_alpha   90.00000000
_cell_angle_beta   90.00000000
_cell_angle_gamma   160.50430372
_symmetry_Int_Tables_number   1
_chemical_formula_structural   CuNiC6
_chemical_formula_sum   'Cu1 Ni1 C6'
_cell_volume   244.38274220
_cell_formula_units_Z   1
loop_
 _symmetry_equiv_pos_site_id
 _symmetry_equiv_pos_as_xyz
  1  'x, y, z'
loop_
 _atom_site_type_symbol
 _atom_site_label
 _atom_site_symmetry_multiplicity
 _atom_site_fract_x
 _atom_site_fract_y
 _atom_site_fract_z
 _atom_site_occupancy
  Ni  Ni0  1  0.83093800  0.16906200  0.00000000  1
  Cu  Cu1  1  0.16692100  0.83307900  0.50000000  1
  C  C2  1  0.57733000  0.42267000  0.50000000  1
  C  C3  1  0.42555400  0.57444600  0.00000000  1
  C  C4  1  0.29194400  0.70805600  0.50000000  1
  C  C5  1  0.70408300  0.29591700  0.00000000  1
  C  C6  1  0.92590700  0.07409300  0.50000000  1
  C  C7  1  0.07732200  0.92267800  0.00000000  1
