# generated using pymatgen
data_Cu13Ni2C13
_symmetry_space_group_name_H-M   'P 1'
_cell_length_a   5.67883600
_cell_length_b   9.98365194
_cell_length_c   10.69082668
_cell_angle_alpha   115.51754725
_cell_angle_beta   95.62670574
_cell_angle_gamma   92.73436101
_symmetry_Int_Tables_number   1
_chemical_formula_structural   Cu13Ni2C13
_chemical_formula_sum   'Cu26 Ni4 C26'
_cell_volume   541.62461010
_cell_formula_units_Z   2
loop_
 _symmetry_equiv_pos_site_id
 _symmetry_equiv_pos_as_xyz
  1  'x, y, z'
loop_
 _atom_site_type_symbol
 _atom_site_label
 _atom_site_symmetry_multiplicity
 _atom_site_fract_x
 _atom_site_fract_y
 _atom_site_fract_z
 _atom_site_occupancy
  C  C0  1  0.78920100  0.85568500  0.80825600  1
  C  C1  1  0.21079900  0.14431500  0.19174400  1
  C  C2  1  0.50000000  0.00000000  0.50000000  1
  C  C3  1  0.00000000  0.00000000  0.50000000  1
  C  C4  1  0.00000000  0.50000000  0.50000000  1
  C  C5  1  0.50000000  0.50000000  0.50000000  1
  C  C6  1  0.19540500  0.79497200  0.31244400  1
  C  C7  1  0.80459500  0.20502800  0.68755600  1
  C  C8  1  0.25150500  0.69378700  0.45750800  1
  C  C9  1  0.74849500  0.30621300  0.54249200  1
  C  C10  1  0.70163300  0.79753200  0.33376900  1
  C  C11  1  0.29836700  0.20246800  0.66623100  1
  C  C12  1  0.24067000  0.29255200  0.51181300  1
  C  C13  1  0.75933000  0.70744800  0.48818700  1
  C  C14  1  0.15939000  0.76203200  0.98617900  1
  C  C15  1  0.84061000  0.23796800  0.01382100  1
  C  C16  1  0.94744400  0.79766900  0.08302600  1
  C  C17  1  0.05255600  0.20233100  0.91697400  1
  C  C18  1  0.88580200  0.47658700  0.78777800  1
  C  C19  1  0.11419800  0.52341300  0.21222200  1
  C  C20  1  0.66717000  0.41801700  0.83504700  1
  C  C21  1  0.33283000  0.58198300  0.16495300  1
  C  C22  1  0.56658500  0.67067100  0.04434700  1
  C  C23  1  0.43341500  0.32932900  0.95565300  1
  C  C24  1  0.77665300  0.60271500  0.09879700  1
  C  C25  1  0.22334700  0.39728500  0.90120300  1
  Ni  Ni26  1  0.28562700  0.95157100  0.71616500  1
  Ni  Ni27  1  0.71437300  0.04842900  0.28383500  1
  Ni  Ni28  1  0.31263200  0.60795400  0.77145600  1
  Ni  Ni29  1  0.68736800  0.39204600  0.22854400  1
  Cu  Cu30  1  0.07527800  0.96399700  0.66165700  1
  Cu  Cu31  1  0.92472200  0.03600300  0.33834300  1
  Cu  Cu32  1  0.47750200  0.96649500  0.66218100  1
  Cu  Cu33  1  0.52249800  0.03350500  0.33781900  1
  Cu  Cu34  1  0.30456000  0.92425300  0.82240000  1
  Cu  Cu35  1  0.69544000  0.07574700  0.17760000  1
  Cu  Cu36  1  0.09448900  0.57932400  0.70678200  1
  Cu  Cu37  1  0.90551100  0.42067600  0.29321800  1
  Cu  Cu38  1  0.49448400  0.58224000  0.70147300  1
  Cu  Cu39  1  0.50551600  0.41776000  0.29852700  1
  Cu  Cu40  1  0.35055000  0.66144000  0.90521400  1
  Cu  Cu41  1  0.64945000  0.33856000  0.09478600  1
  Cu  Cu42  1  0.22242900  0.86713300  0.41123900  1
  Cu  Cu43  1  0.77757100  0.13286700  0.58876100  1
  Cu  Cu44  1  0.25566000  0.61433300  0.48774800  1
  Cu  Cu45  1  0.74434000  0.38566700  0.51225200  1
  Cu  Cu46  1  0.72691000  0.85418600  0.43651400  1
  Cu  Cu47  1  0.27309000  0.14581400  0.56348600  1
  Cu  Cu48  1  0.23257200  0.36132000  0.46687400  1
  Cu  Cu49  1  0.76742800  0.63868000  0.53312600  1
  Cu  Cu50  1  0.04399900  0.83804500  0.03358300  1
  Cu  Cu51  1  0.95600100  0.16195500  0.96641700  1
  Cu  Cu52  1  0.83783600  0.41187600  0.83110500  1
  Cu  Cu53  1  0.16216400  0.58812400  0.16889500  1
  Cu  Cu54  1  0.67165700  0.68261100  0.12944600  1
  Cu  Cu55  1  0.32834300  0.31738900  0.87055400  1
