# generated using pymatgen
data_Cu2NiC9
_symmetry_space_group_name_H-M   'P 1'
_cell_length_a   8.61089300
_cell_length_b   8.61089200
_cell_length_c   11.15181700
_cell_angle_alpha   89.99972306
_cell_angle_beta   90.00024670
_cell_angle_gamma   90.00045246
_symmetry_Int_Tables_number   1
_chemical_formula_structural   Cu2NiC9
_chemical_formula_sum   'Cu8 Ni4 C36'
_cell_volume   826.87901249
_cell_formula_units_Z   4
loop_
 _symmetry_equiv_pos_site_id
 _symmetry_equiv_pos_as_xyz
  1  'x, y, z'
loop_
 _atom_site_type_symbol
 _atom_site_label
 _atom_site_symmetry_multiplicity
 _atom_site_fract_x
 _atom_site_fract_y
 _atom_site_fract_z
 _atom_site_occupancy
  C  C0  1  0.33376100  0.16623800  0.49597800  1
  C  C1  1  0.33375900  0.16623700  0.99597600  1
  C  C2  1  0.16624500  0.66623900  0.00402400  1
  C  C3  1  0.16624200  0.66624000  0.50402300  1
  C  C4  1  0.66624300  0.83375600  0.49597600  1
  C  C5  1  0.66624100  0.83375600  0.99597900  1
  C  C6  1  0.83376100  0.33375400  0.00402200  1
  C  C7  1  0.83375700  0.33375600  0.50402400  1
  Ni  Ni8  1  0.49998500  0.49994300  0.74998700  1
  Ni  Ni9  1  0.99994800  0.99996300  0.25000100  1
  Ni  Ni10  1  0.50002500  0.50013700  0.25000200  1
  Ni  Ni11  1  0.99999900  0.00006500  0.75001400  1
  Cu  Cu12  1  0.13880500  0.36119600  0.26850400  1
  Cu  Cu13  1  0.13880500  0.36119100  0.76850400  1
  Cu  Cu14  1  0.36119600  0.86119100  0.23149500  1
  Cu  Cu15  1  0.36119600  0.86119300  0.73149500  1
  Cu  Cu16  1  0.86119400  0.63880400  0.26850400  1
  Cu  Cu17  1  0.86119800  0.63880300  0.76850400  1
  Cu  Cu18  1  0.63880600  0.13880200  0.23149500  1
  Cu  Cu19  1  0.63880700  0.13880300  0.73149500  1
  C  C20  1  0.00000100  0.49999800  0.33086200  1
  C  C21  1  0.00000100  0.49999800  0.83086200  1
  C  C22  1  0.49999900  0.00000100  0.16914200  1
  C  C23  1  0.50000100  0.99999600  0.66914200  1
  C  C24  1  0.13617600  0.36382300  0.11207500  1
  C  C25  1  0.13617500  0.36382300  0.61207400  1
  C  C26  1  0.36382500  0.86382200  0.38792700  1
  C  C27  1  0.36382500  0.86382200  0.88792500  1
  C  C28  1  0.86382700  0.63617200  0.11207300  1
  C  C29  1  0.86382600  0.63617300  0.61207500  1
  C  C30  1  0.63617700  0.13617500  0.38792500  1
  C  C31  1  0.63617700  0.13617300  0.88792600  1
  C  C32  1  0.31233000  0.42103700  0.34196400  1
  C  C33  1  0.31233100  0.42104900  0.84196100  1
  C  C34  1  0.18767500  0.92105800  0.15803400  1
  C  C35  1  0.18768000  0.92105900  0.65803800  1
  C  C36  1  0.68766600  0.57895300  0.34195800  1
  C  C37  1  0.68767300  0.57894900  0.84196300  1
  C  C38  1  0.81232800  0.07894000  0.15803700  1
  C  C39  1  0.81232500  0.07893300  0.65804000  1
  C  C40  1  0.57893400  0.31231300  0.15803100  1
  C  C41  1  0.57893900  0.31232500  0.65803800  1
  C  C42  1  0.92105500  0.81232800  0.34196000  1
  C  C43  1  0.92104600  0.81232600  0.84196400  1
  C  C44  1  0.42106900  0.68767300  0.15804400  1
  C  C45  1  0.42106100  0.68767300  0.65803400  1
  C  C46  1  0.07895200  0.18767200  0.34196400  1
  C  C47  1  0.07895300  0.18766600  0.84195900  1
