# generated using pymatgen
data_Cu2NiC11
_symmetry_space_group_name_H-M   'P 1'
_cell_length_a   5.95394512
_cell_length_b   7.11524800
_cell_length_c   8.31136270
_cell_angle_alpha   89.99943228
_cell_angle_beta   90.87298099
_cell_angle_gamma   90.00085234
_symmetry_Int_Tables_number   1
_chemical_formula_structural   Cu2NiC11
_chemical_formula_sum   'Cu4 Ni2 C22'
_cell_volume   352.06000580
_cell_formula_units_Z   2
loop_
 _symmetry_equiv_pos_site_id
 _symmetry_equiv_pos_as_xyz
  1  'x, y, z'
loop_
 _atom_site_type_symbol
 _atom_site_label
 _atom_site_symmetry_multiplicity
 _atom_site_fract_x
 _atom_site_fract_y
 _atom_site_fract_z
 _atom_site_occupancy
  Ni  Ni0  1  0.99994400  0.49999800  0.50001700  1
  Ni  Ni1  1  0.50010100  0.00001100  0.99997200  1
  C  C2  1  0.00001500  0.00001900  0.99993600  1
  C  C3  1  0.49994600  0.49994800  0.49985300  1
  Cu  Cu4  1  0.24697500  0.77353800  0.73925600  1
  Cu  Cu5  1  0.25298800  0.27353000  0.76076900  1
  Cu  Cu6  1  0.75301400  0.22647600  0.26078900  1
  Cu  Cu7  1  0.74696000  0.72646900  0.23923100  1
  C  C8  1  0.24484800  0.56755000  0.14278400  1
  C  C9  1  0.25514700  0.06756000  0.35724900  1
  C  C10  1  0.75512100  0.43246600  0.85721200  1
  C  C11  1  0.74489100  0.93247100  0.64282500  1
  C  C12  1  0.24136300  0.67169400  0.59652600  1
  C  C13  1  0.25863100  0.17169900  0.90348100  1
  C  C14  1  0.75861300  0.32830700  0.40346100  1
  C  C15  1  0.74138300  0.82830900  0.09655800  1
  C  C16  1  0.04543600  0.82562500  0.80899800  1
  C  C17  1  0.45456000  0.32562300  0.69100700  1
  C  C18  1  0.95460300  0.17437600  0.19104800  1
  C  C19  1  0.54540800  0.67437700  0.30896500  1
  C  C20  1  0.55140900  0.17256000  0.18671500  1
  C  C21  1  0.94857600  0.67256600  0.31329900  1
  C  C22  1  0.44856900  0.82743500  0.81330800  1
  C  C23  1  0.05141900  0.32744100  0.68671000  1
  C  C24  1  0.26394900  0.90074300  0.11298200  1
  C  C25  1  0.23608400  0.40075300  0.38703300  1
  C  C26  1  0.73617200  0.09921800  0.88707900  1
  C  C27  1  0.76387700  0.59923800  0.61293800  1
