# generated using pymatgen
data_Cu15(Ni2C)4
_symmetry_space_group_name_H-M   'P 1'
_cell_length_a   10.16877340
_cell_length_b   14.20878542
_cell_length_c   28.20581212
_cell_angle_alpha   90.00000000
_cell_angle_beta   90.00000000
_cell_angle_gamma   90.00000000
_symmetry_Int_Tables_number   1
_chemical_formula_structural   Cu15(Ni2C)4
_chemical_formula_sum   'Cu120 Ni64 C32'
_cell_volume   4075.34269165
_cell_formula_units_Z   8
loop_
 _symmetry_equiv_pos_site_id
 _symmetry_equiv_pos_as_xyz
  1  'x, y, z'
loop_
 _atom_site_type_symbol
 _atom_site_label
 _atom_site_symmetry_multiplicity
 _atom_site_fract_x
 _atom_site_fract_y
 _atom_site_fract_z
 _atom_site_occupancy
  C  C0  1  0.50000000  -0.00000000  0.50000000  1
  C  C1  1  -0.00000000  0.50000000  -0.00000000  1
  C  C2  1  -0.00000000  0.50000000  0.50000000  1
  C  C3  1  0.50000000  -0.00000000  -0.00000000  1
  C  C4  1  0.00520428  -0.00000000  0.25000000  1
  C  C5  1  0.49479572  0.50000000  0.75000000  1
  C  C6  1  0.99479572  -0.00000000  0.75000000  1
  C  C7  1  0.50520428  0.50000000  0.25000000  1
  C  C8  1  0.99114262  0.62178016  0.31502385  1
  C  C9  1  0.50885738  0.87821984  0.81502385  1
  C  C10  1  0.50885738  0.12178016  0.68497615  1
  C  C11  1  0.99114262  0.37821984  0.18497615  1
  C  C12  1  0.00885738  0.37821984  0.68497615  1
  C  C13  1  0.49114262  0.12178016  0.18497615  1
  C  C14  1  0.49114262  0.87821984  0.31502385  1
  C  C15  1  0.00885738  0.62178016  0.81502385  1
  C  C16  1  0.00858597  0.87444204  0.44107642  1
  C  C17  1  0.49141403  0.62555796  0.94107642  1
  C  C18  1  0.49141403  0.37444204  0.55892358  1
  C  C19  1  0.00858597  0.12555796  0.05892358  1
  C  C20  1  0.99141403  0.12555796  0.55892358  1
  C  C21  1  0.50858597  0.37444204  0.05892358  1
  C  C22  1  0.50858597  0.62555796  0.44107642  1
  C  C23  1  0.99141403  0.87444204  0.94107642  1
  C  C24  1  0.25355482  0.75065108  0.12390174  1
  C  C25  1  0.24644518  0.74934892  0.62390174  1
  C  C26  1  0.24644518  0.25065108  0.87609826  1
  C  C27  1  0.25355482  0.24934892  0.37609826  1
  C  C28  1  0.74644518  0.24934892  0.87609826  1
  C  C29  1  0.75355482  0.25065108  0.37609826  1
  C  C30  1  0.75355482  0.74934892  0.12390174  1
  C  C31  1  0.74644518  0.75065108  0.62390174  1
  Ni  Ni32  1  0.18482218  0.81353042  0.24941151  1
  Ni  Ni33  1  0.31517782  0.68646958  0.74941151  1
  Ni  Ni34  1  0.31517782  0.31353042  0.75058849  1
  Ni  Ni35  1  0.18482218  0.18646958  0.25058849  1
  Ni  Ni36  1  0.81517782  0.18646958  0.75058849  1
  Ni  Ni37  1  0.68482218  0.31353042  0.25058849  1
  Ni  Ni38  1  0.68482218  0.68646958  0.24941151  1
  Ni  Ni39  1  0.81517782  0.81353042  0.74941151  1
  Ni  Ni40  1  0.31929867  0.99864653  0.40700511  1
  Ni  Ni41  1  0.18070133  0.50135347  0.90700511  1
  Ni  Ni42  1  0.18070133  0.49864653  0.59299489  1
  Ni  Ni43  1  0.31929867  0.00135347  0.09299489  1
  Ni  Ni44  1  0.68070133  0.00135347  0.59299489  1
  Ni  Ni45  1  0.81929867  0.49864653  0.09299489  1
  Ni  Ni46  1  0.81929867  0.50135347  0.40700511  1
  Ni  Ni47  1  0.68070133  0.99864653  0.90700511  1
  Ni  Ni48  1  0.00541107  0.28341566  0.45436905  1
  Ni  Ni49  1  0.49458893  0.21658434  0.95436905  1
  Ni  Ni50  1  0.49458893  0.78341566  0.54563095  1
  Ni  Ni51  1  0.00541107  0.71658434  0.04563095  1
  Ni  Ni52  1  0.99458893  0.71658434  0.54563095  1
  Ni  Ni53  1  0.50541107  0.78341566  0.04563095  1
  Ni  Ni54  1  0.50541107  0.21658434  0.45436905  1
  Ni  Ni55  1  0.99458893  0.28341566  0.95436905  1
  Ni  Ni56  1  0.00315968  0.09299132  0.35711346  1
  Ni  Ni57  1  0.49684032  0.40700868  0.85711346  1
  Ni  Ni58  1  0.49684032  0.59299132  0.64288654  1
  Ni  Ni59  1  0.00315968  0.90700868  0.14288654  1
  Ni  Ni60  1  0.99684032  0.90700868  0.64288654  1
  Ni  Ni61  1  0.50315968  0.59299132  0.14288654  1
  Ni  Ni62  1  0.50315968  0.40700868  0.35711346  1
  Ni  Ni63  1  0.99684032  0.09299132  0.85711346  1
  Ni  Ni64  1  0.99916006  0.62243355  0.18931520  1
  Ni  Ni65  1  0.50083994  0.87756645  0.68931520  1
  Ni  Ni66  1  0.50083994  0.12243355  0.81068480  1
  Ni  Ni67  1  0.99916006  0.37756645  0.31068480  1
  Ni  Ni68  1  0.00083994  0.37756645  0.81068480  1
  Ni  Ni69  1  0.49916006  0.12243355  0.31068480  1
  Ni  Ni70  1  0.49916006  0.87756645  0.18931520  1
  Ni  Ni71  1  0.00083994  0.62243355  0.68931520  1
  Ni  Ni72  1  0.31190109  0.44377821  0.46783175  1
  Ni  Ni73  1  0.18809891  0.05622179  0.96783175  1
  Ni  Ni74  1  0.18809891  0.94377821  0.53216825  1
  Ni  Ni75  1  0.31190109  0.55622179  0.03216825  1
  Ni  Ni76  1  0.68809891  0.55622179  0.53216825  1
  Ni  Ni77  1  0.81190109  0.94377821  0.03216825  1
  Ni  Ni78  1  0.81190109  0.05622179  0.46783175  1
  Ni  Ni79  1  0.68809891  0.44377821  0.96783175  1
  Ni  Ni80  1  0.38025575  0.34792584  0.17270893  1
  Ni  Ni81  1  0.11974425  0.15207416  0.67270893  1
  Ni  Ni82  1  0.11974425  0.84792584  0.82729107  1
  Ni  Ni83  1  0.38025575  0.65207416  0.32729107  1
  Ni  Ni84  1  0.61974425  0.65207416  0.82729107  1
  Ni  Ni85  1  0.88025575  0.84792584  0.32729107  1
  Ni  Ni86  1  0.88025575  0.15207416  0.17270893  1
  Ni  Ni87  1  0.61974425  0.34792584  0.67270893  1
  Ni  Ni88  1  0.62083291  0.84308703  0.42217049  1
  Ni  Ni89  1  0.87916709  0.65691297  0.92217049  1
  Ni  Ni90  1  0.87916709  0.34308703  0.57782951  1
  Ni  Ni91  1  0.62083291  0.15691297  0.07782951  1
  Ni  Ni92  1  0.37916709  0.15691297  0.57782951  1
  Ni  Ni93  1  0.12083291  0.34308703  0.07782951  1
  Ni  Ni94  1  0.12083291  0.65691297  0.42217049  1
  Ni  Ni95  1  0.37916709  0.84308703  0.92217049  1
  Cu  Cu96  1  0.00456737  0.40388519  0.39283152  1
  Cu  Cu97  1  0.49543263  0.09611481  0.89283152  1
  Cu  Cu98  1  0.49543263  0.90388519  0.60716848  1
  Cu  Cu99  1  0.00456737  0.59611481  0.10716848  1
  Cu  Cu100  1  0.99543263  0.59611481  0.60716848  1
  Cu  Cu101  1  0.50456737  0.90388519  0.10716848  1
  Cu  Cu102  1  0.50456737  0.09611481  0.39283152  1
  Cu  Cu103  1  0.99543263  0.40388519  0.89283152  1
  Cu  Cu104  1  0.25548946  0.75146030  0.37551155  1
  Cu  Cu105  1  0.24451054  0.74853970  0.87551155  1
  Cu  Cu106  1  0.24451054  0.25146030  0.62448845  1
  Cu  Cu107  1  0.25548946  0.24853970  0.12448845  1
  Cu  Cu108  1  0.74451054  0.24853970  0.62448845  1
  Cu  Cu109  1  0.75548946  0.25146030  0.12448845  1
  Cu  Cu110  1  0.75548946  0.74853970  0.37551155  1
  Cu  Cu111  1  0.74451054  0.75146030  0.87551155  1
  Cu  Cu112  1  0.19204228  0.31464031  0.50060567  1
  Cu  Cu113  1  0.30795772  0.18535969  0.00060567  1
  Cu  Cu114  1  0.30795772  0.81464031  0.49939433  1
  Cu  Cu115  1  0.19204228  0.68535969  0.99939433  1
  Cu  Cu116  1  0.80795772  0.68535969  0.49939433  1
  Cu  Cu117  1  0.69204228  0.81464031  0.99939433  1
  Cu  Cu118  1  0.69204228  0.18535969  0.50060567  1
  Cu  Cu119  1  0.80795772  0.31464031  0.00060567  1
  Cu  Cu120  1  0.18700734  0.99547651  0.34248479  1
  Cu  Cu121  1  0.31299266  0.50452349  0.84248479  1
  Cu  Cu122  1  0.31299266  0.49547651  0.65751521  1
  Cu  Cu123  1  0.18700734  0.00452349  0.15751521  1
  Cu  Cu124  1  0.81299266  0.00452349  0.65751521  1
  Cu  Cu125  1  0.68700734  0.49547651  0.15751521  1
  Cu  Cu126  1  0.68700734  0.50452349  0.34248479  1
  Cu  Cu127  1  0.81299266  0.99547651  0.84248479  1
  Cu  Cu128  1  0.69456109  0.43687384  0.47013068  1
  Cu  Cu129  1  0.80543891  0.06312616  0.97013068  1
  Cu  Cu130  1  0.80543891  0.93687384  0.52986932  1
  Cu  Cu131  1  0.69456109  0.56312616  0.02986932  1
  Cu  Cu132  1  0.30543891  0.56312616  0.52986932  1
  Cu  Cu133  1  0.19456109  0.93687384  0.02986932  1
  Cu  Cu134  1  0.19456109  0.06312616  0.47013068  1
  Cu  Cu135  1  0.30543891  0.43687384  0.97013068  1
  Cu  Cu136  1  0.37848800  0.84170815  0.42304651  1
  Cu  Cu137  1  0.12151200  0.65829185  0.92304651  1
  Cu  Cu138  1  0.12151200  0.34170815  0.57695349  1
  Cu  Cu139  1  0.37848800  0.15829185  0.07695349  1
  Cu  Cu140  1  0.62151200  0.15829185  0.57695349  1
  Cu  Cu141  1  0.87848800  0.34170815  0.07695349  1
  Cu  Cu142  1  0.87848800  0.65829185  0.42304651  1
  Cu  Cu143  1  0.62151200  0.84170815  0.92304651  1
  Cu  Cu144  1  0.00974101  0.87717653  0.06130268  1
  Cu  Cu145  1  0.49025899  0.62282347  0.56130268  1
  Cu  Cu146  1  0.49025899  0.37717653  0.93869732  1
  Cu  Cu147  1  0.00974101  0.12282347  0.43869732  1
  Cu  Cu148  1  0.99025899  0.12282347  0.93869732  1
  Cu  Cu149  1  0.50974101  0.37717653  0.43869732  1
  Cu  Cu150  1  0.50974101  0.62282347  0.06130268  1
  Cu  Cu151  1  0.99025899  0.87717653  0.56130268  1
  Cu  Cu152  1  0.80614948  0.44499853  0.27854391  1
  Cu  Cu153  1  0.69385052  0.05500147  0.77854391  1
  Cu  Cu154  1  0.69385052  0.94499853  0.72145609  1
  Cu  Cu155  1  0.80614948  0.55500147  0.22145609  1
  Cu  Cu156  1  0.19385052  0.55500147  0.72145609  1
  Cu  Cu157  1  0.30614948  0.94499853  0.22145609  1
  Cu  Cu158  1  0.30614948  0.05500147  0.27854391  1
  Cu  Cu159  1  0.19385052  0.44499853  0.77854391  1
  Cu  Cu160  1  0.99745487  0.78782058  0.20234690  1
  Cu  Cu161  1  0.50254513  0.71217942  0.70234690  1
  Cu  Cu162  1  0.50254513  0.28782058  0.79765310  1
  Cu  Cu163  1  0.99745487  0.21217942  0.29765310  1
  Cu  Cu164  1  0.00254513  0.21217942  0.79765310  1
  Cu  Cu165  1  0.49745487  0.28782058  0.29765310  1
  Cu  Cu166  1  0.49745487  0.71217942  0.20234690  1
  Cu  Cu167  1  0.00254513  0.78782058  0.70234690  1
  Cu  Cu168  1  0.69952552  0.93613975  0.21794257  1
  Cu  Cu169  1  0.80047448  0.56386025  0.71794257  1
  Cu  Cu170  1  0.80047448  0.43613975  0.78205743  1
  Cu  Cu171  1  0.69952552  0.06386025  0.28205743  1
  Cu  Cu172  1  0.30047448  0.06386025  0.78205743  1
  Cu  Cu173  1  0.19952552  0.43613975  0.28205743  1
  Cu  Cu174  1  0.19952552  0.56386025  0.21794257  1
  Cu  Cu175  1  0.30047448  0.93613975  0.71794257  1
  Cu  Cu176  1  0.68665188  0.81205213  0.50023449  1
  Cu  Cu177  1  0.81334812  0.68794787  0.00023449  1
  Cu  Cu178  1  0.81334812  0.31205213  0.49976551  1
  Cu  Cu179  1  0.68665188  0.18794787  0.99976551  1
  Cu  Cu180  1  0.31334812  0.18794787  0.49976551  1
  Cu  Cu181  1  0.18665188  0.31205213  0.99976551  1
  Cu  Cu182  1  0.18665188  0.68794787  0.50023449  1
  Cu  Cu183  1  0.31334812  0.81205213  0.00023449  1
  Cu  Cu184  1  0.17793475  0.50002154  0.40450254  1
  Cu  Cu185  1  0.32206525  0.99997846  0.90450254  1
  Cu  Cu186  1  0.32206525  0.00002154  0.59549746  1
  Cu  Cu187  1  0.17793475  0.49997846  0.09549746  1
  Cu  Cu188  1  0.82206525  0.49997846  0.59549746  1
  Cu  Cu189  1  0.67793475  0.00002154  0.09549746  1
  Cu  Cu190  1  0.67793475  0.99997846  0.40450254  1
  Cu  Cu191  1  0.82206525  0.50002154  0.90450254  1
  Cu  Cu192  1  0.82187863  0.81398429  0.24813035  1
  Cu  Cu193  1  0.67812137  0.68601571  0.74813035  1
  Cu  Cu194  1  0.67812137  0.31398429  0.75186965  1
  Cu  Cu195  1  0.82187863  0.18601571  0.25186965  1
  Cu  Cu196  1  0.17812137  0.18601571  0.75186965  1
  Cu  Cu197  1  0.32187863  0.31398429  0.25186965  1
  Cu  Cu198  1  0.32187863  0.68601571  0.24813035  1
  Cu  Cu199  1  0.17812137  0.81398429  0.74813035  1
  Cu  Cu200  1  0.31283826  0.50444223  0.15777972  1
  Cu  Cu201  1  0.18716174  0.99555777  0.65777972  1
  Cu  Cu202  1  0.18716174  0.00444223  0.84222028  1
  Cu  Cu203  1  0.31283826  0.49555777  0.34222028  1
  Cu  Cu204  1  0.68716174  0.49555777  0.84222028  1
  Cu  Cu205  1  0.81283826  0.00444223  0.34222028  1
  Cu  Cu206  1  0.81283826  0.99555777  0.15777972  1
  Cu  Cu207  1  0.68716174  0.50444223  0.65777972  1
  Cu  Cu208  1  0.12505052  0.84908003  0.32764662  1
  Cu  Cu209  1  0.37494948  0.65091997  0.82764662  1
  Cu  Cu210  1  0.37494948  0.34908003  0.67235338  1
  Cu  Cu211  1  0.12505052  0.15091997  0.17235338  1
  Cu  Cu212  1  0.87494948  0.15091997  0.67235338  1
  Cu  Cu213  1  0.62505052  0.34908003  0.17235338  1
  Cu  Cu214  1  0.62505052  0.65091997  0.32764662  1
  Cu  Cu215  1  0.87494948  0.84908003  0.82764662  1
