# generated using pymatgen
data_Cu2NiC
_symmetry_space_group_name_H-M   'P 1'
_cell_length_a   5.65056200
_cell_length_b   6.93312000
_cell_length_c   8.40640500
_cell_angle_alpha   90.00000000
_cell_angle_beta   90.00000000
_cell_angle_gamma   90.00000000
_symmetry_Int_Tables_number   1
_chemical_formula_structural   Cu2NiC
_chemical_formula_sum   'Cu8 Ni4 C4'
_cell_volume   329.32952751
_cell_formula_units_Z   4
loop_
 _symmetry_equiv_pos_site_id
 _symmetry_equiv_pos_as_xyz
  1  'x, y, z'
loop_
 _atom_site_type_symbol
 _atom_site_label
 _atom_site_symmetry_multiplicity
 _atom_site_fract_x
 _atom_site_fract_y
 _atom_site_fract_z
 _atom_site_occupancy
  C  C0  1  0.34911600  0.75000000  0.05330900  1
  C  C1  1  0.15088400  0.75000000  0.55330900  1
  C  C2  1  0.65088400  0.25000000  0.94669100  1
  C  C3  1  0.84911600  0.25000000  0.44669100  1
  Ni  Ni4  1  0.65836500  0.75000000  0.39501900  1
  Ni  Ni5  1  0.84163500  0.75000000  0.89501900  1
  Ni  Ni6  1  0.34163500  0.25000000  0.60498100  1
  Ni  Ni7  1  0.15836500  0.25000000  0.10498100  1
  Cu  Cu8  1  0.88363900  0.54414300  0.17887900  1
  Cu  Cu9  1  0.61636100  0.95585700  0.67887900  1
  Cu  Cu10  1  0.11636100  0.04414300  0.82112100  1
  Cu  Cu11  1  0.38363900  0.45585700  0.32112100  1
  Cu  Cu12  1  0.11636100  0.45585700  0.82112100  1
  Cu  Cu13  1  0.38363900  0.04414300  0.32112100  1
  Cu  Cu14  1  0.88363900  0.95585700  0.17887900  1
  Cu  Cu15  1  0.61636100  0.54414300  0.67887900  1
