# generated using pymatgen
data_Cu4Ni2C15
_symmetry_space_group_name_H-M   'P 1'
_cell_length_a   8.87220500
_cell_length_b   4.98141900
_cell_length_c   12.43956707
_cell_angle_alpha   83.93631972
_cell_angle_beta   90.00000000
_cell_angle_gamma   90.00000000
_symmetry_Int_Tables_number   1
_chemical_formula_structural   Cu4Ni2C15
_chemical_formula_sum   'Cu8 Ni4 C30'
_cell_volume   546.70525973
_cell_formula_units_Z   2
loop_
 _symmetry_equiv_pos_site_id
 _symmetry_equiv_pos_as_xyz
  1  'x, y, z'
loop_
 _atom_site_type_symbol
 _atom_site_label
 _atom_site_symmetry_multiplicity
 _atom_site_fract_x
 _atom_site_fract_y
 _atom_site_fract_z
 _atom_site_occupancy
  C  C0  1  0.06178200  0.04612900  0.62719100  1
  C  C1  1  0.56178200  0.95387100  0.37280900  1
  C  C2  1  0.93821800  0.95387100  0.37280900  1
  C  C3  1  0.43821800  0.04612900  0.62719100  1
  Ni  Ni4  1  0.99770900  0.04720000  0.87711600  1
  Ni  Ni5  1  0.49770900  0.95280000  0.12288400  1
  Ni  Ni6  1  0.00229100  0.95280000  0.12288400  1
  Ni  Ni7  1  0.50229100  0.04720000  0.87711600  1
  Cu  Cu8  1  0.75000000  0.39799800  0.51483800  1
  Cu  Cu9  1  0.25000000  0.60200200  0.48516200  1
  Cu  Cu10  1  0.75000000  0.60974300  0.99273500  1
  Cu  Cu11  1  0.25000000  0.39025700  0.00726500  1
  Cu  Cu12  1  0.75000000  0.67519400  0.75112300  1
  Cu  Cu13  1  0.25000000  0.32480600  0.24887700  1
  Cu  Cu14  1  0.75000000  0.50915900  0.23298100  1
  Cu  Cu15  1  0.25000000  0.49084100  0.76701900  1
  C  C16  1  0.41699700  0.19739700  0.00439900  1
  C  C17  1  0.91699700  0.80260300  0.99560100  1
  C  C18  1  0.58300300  0.80260300  0.99560100  1
  C  C19  1  0.08300300  0.19739700  0.00439900  1
  C  C20  1  0.75000000  0.70988900  0.43280600  1
  C  C21  1  0.25000000  0.29011100  0.56719400  1
  C  C22  1  0.41535300  0.12437700  0.25243300  1
  C  C23  1  0.91535300  0.87562300  0.74756700  1
  C  C24  1  0.58464700  0.87562300  0.74756700  1
  C  C25  1  0.08464700  0.12437700  0.25243300  1
  C  C26  1  0.41704800  0.79276800  0.49480200  1
  C  C27  1  0.91704800  0.20723200  0.50519800  1
  C  C28  1  0.58295200  0.20723200  0.50519800  1
  C  C29  1  0.08295200  0.79276800  0.49480200  1
  C  C30  1  0.75000000  0.44661200  0.87273000  1
  C  C31  1  0.25000000  0.55338800  0.12727000  1
  C  C32  1  0.25000000  0.78875700  0.67646500  1
  C  C33  1  0.75000000  0.21124300  0.32353500  1
  C  C34  1  0.25000000  0.54766200  0.34699900  1
  C  C35  1  0.75000000  0.45233800  0.65300100  1
  C  C36  1  0.25000000  0.63472300  0.89344100  1
  C  C37  1  0.75000000  0.36527700  0.10655900  1
  C  C38  1  0.08734400  0.28618500  0.75840600  1
  C  C39  1  0.58734400  0.71381500  0.24159400  1
  C  C40  1  0.91265600  0.71381500  0.24159400  1
  C  C41  1  0.41265600  0.28618500  0.75840600  1
