# generated using pymatgen
data_Cu27Ni19C3
_symmetry_space_group_name_H-M   'P 1'
_cell_length_a   16.27389772
_cell_length_b   16.27389772
_cell_length_c   16.27389777
_cell_angle_alpha   114.00550813
_cell_angle_beta   114.00550813
_cell_angle_gamma   114.00550724
_symmetry_Int_Tables_number   1
_chemical_formula_structural   Cu27Ni19C3
_chemical_formula_sum   'Cu54 Ni38 C6'
_cell_volume   2617.46338507
_cell_formula_units_Z   2
loop_
 _symmetry_equiv_pos_site_id
 _symmetry_equiv_pos_as_xyz
  1  'x, y, z'
loop_
 _atom_site_type_symbol
 _atom_site_label
 _atom_site_symmetry_multiplicity
 _atom_site_fract_x
 _atom_site_fract_y
 _atom_site_fract_z
 _atom_site_occupancy
  Ni  Ni0  1  0.96425000  0.01526200  0.25914600  1
  Ni  Ni1  1  0.29836200  0.35732500  0.58961100  1
  Ni  Ni2  1  0.63983600  0.69322400  0.93401000  1
  Ni  Ni3  1  0.69322400  0.93401000  0.63983600  1
  Ni  Ni4  1  0.01526200  0.25914600  0.96425000  1
  Ni  Ni5  1  0.35732500  0.58961100  0.29836200  1
  Ni  Ni6  1  0.58961100  0.29836200  0.35732500  1
  Ni  Ni7  1  0.93401000  0.63983600  0.69322400  1
  Ni  Ni8  1  0.25914600  0.96425000  0.01526200  1
  Ni  Ni9  1  0.37117600  0.31837800  0.07693000  1
  Ni  Ni10  1  0.69512200  0.64420800  0.40162900  1
  Ni  Ni11  1  0.03161500  0.97274800  0.74079400  1
  Ni  Ni12  1  0.64420800  0.40162900  0.69512200  1
  Ni  Ni13  1  0.97274800  0.74079400  0.03161500  1
  Ni  Ni14  1  0.31837800  0.07693000  0.37117600  1
  Ni  Ni15  1  0.74079400  0.03161500  0.97274800  1
  Ni  Ni16  1  0.07693000  0.37117600  0.31837800  1
  Ni  Ni17  1  0.40162900  0.69512200  0.64420800  1
  Ni  Ni18  1  0.15579100  0.15579100  0.15579100  1
  Ni  Ni19  1  0.65150600  0.65150600  0.65150600  1
  Ni  Ni20  1  0.16191900  0.04168200  0.55385600  1
  Ni  Ni21  1  0.82807600  0.70707600  0.21968000  1
  Ni  Ni22  1  0.49158800  0.37161200  0.88203300  1
  Ni  Ni23  1  0.37161200  0.88203300  0.49158800  1
  Ni  Ni24  1  0.04168200  0.55385600  0.16191900  1
  Ni  Ni25  1  0.70707600  0.21968000  0.82807600  1
  Ni  Ni26  1  0.21968000  0.82807600  0.70707600  1
  Ni  Ni27  1  0.88203300  0.49158800  0.37161200  1
  Ni  Ni28  1  0.55385600  0.16191900  0.04168200  1
  Ni  Ni29  1  0.50575500  0.62698600  0.11446200  1
  Ni  Ni30  1  0.17376400  0.29347700  0.78248300  1
  Ni  Ni31  1  0.84308800  0.96378900  0.45291200  1
  Ni  Ni32  1  0.29347700  0.78248300  0.17376400  1
  Ni  Ni33  1  0.96378900  0.45291200  0.84308800  1
  Ni  Ni34  1  0.62698600  0.11446200  0.50575500  1
  Ni  Ni35  1  0.45291200  0.84308800  0.96378900  1
  Ni  Ni36  1  0.11446200  0.50575500  0.62698600  1
  Ni  Ni37  1  0.78248300  0.17376400  0.29347700  1
  Cu  Cu38  1  0.53680900  0.51638300  0.70241000  1
  Cu  Cu39  1  0.86970000  0.85187800  0.03437300  1
  Cu  Cu40  1  0.20023000  0.18105400  0.36196900  1
  Cu  Cu41  1  0.85187800  0.03437300  0.86970000  1
  Cu  Cu42  1  0.18105400  0.36196900  0.20023000  1
  Cu  Cu43  1  0.51638300  0.70241000  0.53680900  1
  Cu  Cu44  1  0.36196900  0.20023000  0.18105400  1
  Cu  Cu45  1  0.70241000  0.53680900  0.51638300  1
  Cu  Cu46  1  0.03437300  0.86970000  0.85187800  1
  Cu  Cu47  1  0.79393300  0.81361800  0.63398700  1
  Cu  Cu48  1  0.13285400  0.15308200  0.96760000  1
  Cu  Cu49  1  0.46684900  0.48493200  0.30268000  1
  Cu  Cu50  1  0.48493200  0.30268000  0.46684900  1
  Cu  Cu51  1  0.81361800  0.63398700  0.79393300  1
  Cu  Cu52  1  0.15308200  0.96760000  0.13285400  1
  Cu  Cu53  1  0.96760000  0.13285400  0.15308200  1
  Cu  Cu54  1  0.30268000  0.46684900  0.48493200  1
  Cu  Cu55  1  0.63398700  0.79393300  0.81361800  1
  Cu  Cu56  1  0.07799600  0.14647900  0.53290000  1
  Cu  Cu57  1  0.40613900  0.47531600  0.86253200  1
  Cu  Cu58  1  0.74327200  0.81098000  0.19808000  1
  Cu  Cu59  1  0.81098000  0.19808000  0.74327200  1
  Cu  Cu60  1  0.14647900  0.53290000  0.07799600  1
  Cu  Cu61  1  0.47531600  0.86253200  0.40613900  1
  Cu  Cu62  1  0.86253200  0.40613900  0.47531600  1
  Cu  Cu63  1  0.19808000  0.74327200  0.81098000  1
  Cu  Cu64  1  0.53290000  0.07799600  0.14647900  1
  Cu  Cu65  1  0.25667700  0.18788700  0.80266300  1
  Cu  Cu66  1  0.59005100  0.52239500  0.13529800  1
  Cu  Cu67  1  0.92675300  0.85846800  0.47128500  1
  Cu  Cu68  1  0.52239500  0.13529800  0.59005100  1
  Cu  Cu69  1  0.85846800  0.47128500  0.92675300  1
  Cu  Cu70  1  0.18788700  0.80266300  0.25667700  1
  Cu  Cu71  1  0.47128500  0.92675300  0.85846800  1
  Cu  Cu72  1  0.80266300  0.25667700  0.18788700  1
  Cu  Cu73  1  0.13529800  0.59005100  0.52239500  1
  Cu  Cu74  1  0.37151500  0.24224200  0.63492900  1
  Cu  Cu75  1  0.70574200  0.57494700  0.97156200  1
  Cu  Cu76  1  0.04025600  0.90775800  0.30516600  1
  Cu  Cu77  1  0.57494700  0.97156200  0.70574200  1
  Cu  Cu78  1  0.90775800  0.30516600  0.04025600  1
  Cu  Cu79  1  0.24224200  0.63492900  0.37151500  1
  Cu  Cu80  1  0.30516600  0.04025600  0.90775800  1
  Cu  Cu81  1  0.63492900  0.37151500  0.24224200  1
  Cu  Cu82  1  0.97156200  0.70574200  0.57494700  1
  Cu  Cu83  1  0.95956100  0.08891700  0.69681600  1
  Cu  Cu84  1  0.29524700  0.42682100  0.03075800  1
  Cu  Cu85  1  0.62843800  0.76071400  0.36333800  1
  Cu  Cu86  1  0.76071400  0.36333800  0.62843800  1
  Cu  Cu87  1  0.08891700  0.69681600  0.95956100  1
  Cu  Cu88  1  0.42682100  0.03075800  0.29524700  1
  Cu  Cu89  1  0.03075800  0.29524700  0.42682100  1
  Cu  Cu90  1  0.36333800  0.62843800  0.76071400  1
  Cu  Cu91  1  0.69681600  0.95956100  0.08891700  1
  C  C92  1  0.91791400  0.25104200  0.58432200  1
  C  C93  1  0.25104200  0.58432200  0.91791400  1
  C  C94  1  0.58432200  0.91791400  0.25104200  1
  C  C95  1  0.41915400  0.08597300  0.75269300  1
  C  C96  1  0.75269300  0.41915400  0.08597300  1
  C  C97  1  0.08597300  0.75269300  0.41915400  1
