# generated using pymatgen
data_Cu2NiC12
_symmetry_space_group_name_H-M   'P 1'
_cell_length_a   3.21995135
_cell_length_b   7.67273461
_cell_length_c   11.88273463
_cell_angle_alpha   106.46029747
_cell_angle_beta   90.54183313
_cell_angle_gamma   88.33088678
_symmetry_Int_Tables_number   1
_chemical_formula_structural   Cu2NiC12
_chemical_formula_sum   'Cu4 Ni2 C24'
_cell_volume   281.42147145
_cell_formula_units_Z   2
loop_
 _symmetry_equiv_pos_site_id
 _symmetry_equiv_pos_as_xyz
  1  'x, y, z'
loop_
 _atom_site_type_symbol
 _atom_site_label
 _atom_site_symmetry_multiplicity
 _atom_site_fract_x
 _atom_site_fract_y
 _atom_site_fract_z
 _atom_site_occupancy
  C  C0  1  0.50530700  0.60114100  0.49230100  1
  C  C1  1  0.98937200  0.60277400  0.99463400  1
  C  C2  1  0.49281400  0.62453900  0.13790200  1
  C  C3  1  0.00880000  0.62374600  0.63588400  1
  C  C4  1  0.49591000  0.28575500  0.46947900  1
  C  C5  1  0.01378500  0.29262800  0.97173500  1
  C  C6  1  0.50701700  0.94061700  0.16118700  1
  C  C7  1  0.98610700  0.93365300  0.65843700  1
  C  C8  1  0.00009000  0.26626900  0.32597800  1
  C  C9  1  0.51139200  0.26868300  0.82442000  1
  C  C10  1  0.00212400  0.95932700  0.30470800  1
  C  C11  1  0.48764400  0.95755200  0.80587000  1
  Ni  Ni12  1  0.49951500  0.61306300  0.81541400  1
  Ni  Ni13  1  0.99908900  0.61282500  0.31509300  1
  Cu  Cu14  1  0.99844100  0.94706000  0.98439400  1
  Cu  Cu15  1  0.00135900  0.27927300  0.64613400  1
  Cu  Cu16  1  0.49788400  0.94743900  0.48165900  1
  Cu  Cu17  1  0.50280900  0.27815300  0.14854000  1
  C  C18  1  0.47476200  0.75792200  0.00837000  1
  C  C19  1  0.99639400  0.74996100  0.50792800  1
  C  C20  1  0.00167100  0.47575800  0.12196600  1
  C  C21  1  0.52428000  0.46874700  0.62238200  1
  C  C22  1  0.49445900  0.41457900  0.33674700  1
  C  C23  1  0.00051000  0.41809900  0.84203400  1
  C  C24  1  0.50713000  0.81080500  0.29358600  1
  C  C25  1  0.99793700  0.80852700  0.78832200  1
  C  C26  1  0.00187800  0.08629600  0.17534500  1
  C  C27  1  0.47280200  0.08660200  0.66980600  1
  C  C28  1  0.00180400  0.13961900  0.45557300  1
  C  C29  1  0.52691400  0.13954000  0.96033600  1
