# generated using pymatgen
data_Cu5Ni3C
_symmetry_space_group_name_H-M   'P 1'
_cell_length_a   4.22534600
_cell_length_b   17.32086000
_cell_length_c   22.29872675
_cell_angle_alpha   80.88690417
_cell_angle_beta   90.00000000
_cell_angle_gamma   90.00000000
_symmetry_Int_Tables_number   1
_chemical_formula_structural   Cu5Ni3C
_chemical_formula_sum   'Cu30 Ni18 C6'
_cell_volume   1611.36927731
_cell_formula_units_Z   6
loop_
 _symmetry_equiv_pos_site_id
 _symmetry_equiv_pos_as_xyz
  1  'x, y, z'
loop_
 _atom_site_type_symbol
 _atom_site_label
 _atom_site_symmetry_multiplicity
 _atom_site_fract_x
 _atom_site_fract_y
 _atom_site_fract_z
 _atom_site_occupancy
  C  C0  1  0.25000000  0.49589700  0.62660300  1
  C  C1  1  0.75000000  0.50410300  0.37339700  1
  C  C2  1  0.25000000  0.21580000  0.69439400  1
  C  C3  1  0.75000000  0.78420000  0.30560600  1
  Ni  Ni4  1  0.25000000  0.94466400  0.70624900  1
  Ni  Ni5  1  0.75000000  0.05533600  0.29375100  1
  Ni  Ni6  1  0.25000000  0.67116600  0.46796600  1
  Ni  Ni7  1  0.75000000  0.32883400  0.53203400  1
  Ni  Ni8  1  0.25000000  0.38978500  0.03369200  1
  Ni  Ni9  1  0.75000000  0.61021500  0.96630800  1
  Ni  Ni10  1  0.25000000  0.81622100  0.94722600  1
  Ni  Ni11  1  0.75000000  0.18377900  0.05277400  1
  Ni  Ni12  1  0.25000000  0.92681300  0.43860200  1
  Ni  Ni13  1  0.75000000  0.07318700  0.56139800  1
  Ni  Ni14  1  0.25000000  0.19570500  0.38907100  1
  Ni  Ni15  1  0.75000000  0.80429500  0.61092900  1
  Ni  Ni16  1  0.25000000  0.96536400  0.09062600  1
  Ni  Ni17  1  0.75000000  0.03463600  0.90937400  1
  Ni  Ni18  1  0.25000000  0.54433900  0.16102500  1
  Ni  Ni19  1  0.75000000  0.45566100  0.83897500  1
  Ni  Ni20  1  0.25000000  0.24287700  0.89121400  1
  Ni  Ni21  1  0.75000000  0.75712300  0.10878600  1
  C  C22  1  0.25000000  0.67379800  0.76764000  1
  C  C23  1  0.75000000  0.32620200  0.23236000  1
  Cu  Cu24  1  0.25000000  0.82503000  0.16969500  1
  Cu  Cu25  1  0.75000000  0.17497000  0.83030500  1
  Cu  Cu26  1  0.25000000  0.17638700  0.54308000  1
  Cu  Cu27  1  0.75000000  0.82361300  0.45692000  1
  Cu  Cu28  1  0.25000000  0.25630200  0.11373700  1
  Cu  Cu29  1  0.75000000  0.74369800  0.88626300  1
  Cu  Cu30  1  0.25000000  0.42403100  0.49366000  1
  Cu  Cu31  1  0.75000000  0.57596900  0.50634000  1
  Cu  Cu32  1  0.25000000  0.43595400  0.25831500  1
  Cu  Cu33  1  0.75000000  0.56404600  0.74168500  1
  Cu  Cu34  1  0.25000000  0.97017100  0.85414000  1
  Cu  Cu35  1  0.75000000  0.02982900  0.14586000  1
  Cu  Cu36  1  0.25000000  0.65180400  0.35809100  1
  Cu  Cu37  1  0.75000000  0.34819600  0.64190900  1
  Cu  Cu38  1  0.25000000  0.11009900  0.98773700  1
  Cu  Cu39  1  0.75000000  0.88990100  0.01226300  1
  Cu  Cu40  1  0.25000000  0.93515200  0.58855800  1
  Cu  Cu41  1  0.75000000  0.06484800  0.41144200  1
  Cu  Cu42  1  0.25000000  0.17414200  0.27211000  1
  Cu  Cu43  1  0.75000000  0.82585800  0.72789000  1
  Cu  Cu44  1  0.25000000  0.54152000  0.91186600  1
  Cu  Cu45  1  0.75000000  0.45848000  0.08813400  1
  Cu  Cu46  1  0.25000000  0.93711500  0.31808000  1
  Cu  Cu47  1  0.75000000  0.06288500  0.68192000  1
  Cu  Cu48  1  0.25000000  0.37781500  0.79514700  1
  Cu  Cu49  1  0.75000000  0.62218500  0.20485300  1
  Cu  Cu50  1  0.25000000  0.68487100  0.04035000  1
  Cu  Cu51  1  0.75000000  0.31512900  0.95965000  1
  Cu  Cu52  1  0.25000000  0.69819600  0.63387300  1
  Cu  Cu53  1  0.75000000  0.30180400  0.36612700  1
