# generated using pymatgen
data_Cu2NiC
_symmetry_space_group_name_H-M   'P 1'
_cell_length_a   5.54573900
_cell_length_b   6.94927300
_cell_length_c   7.36397700
_cell_angle_alpha   90.00000000
_cell_angle_beta   90.00000000
_cell_angle_gamma   90.00000000
_symmetry_Int_Tables_number   1
_chemical_formula_structural   Cu2NiC
_chemical_formula_sum   'Cu8 Ni4 C4'
_cell_volume   283.79923665
_cell_formula_units_Z   4
loop_
 _symmetry_equiv_pos_site_id
 _symmetry_equiv_pos_as_xyz
  1  'x, y, z'
loop_
 _atom_site_type_symbol
 _atom_site_label
 _atom_site_symmetry_multiplicity
 _atom_site_fract_x
 _atom_site_fract_y
 _atom_site_fract_z
 _atom_site_occupancy
  C  C0  1  0.36350700  0.75000000  0.02842200  1
  C  C1  1  0.13649300  0.75000000  0.52842200  1
  C  C2  1  0.63649300  0.25000000  0.97157800  1
  C  C3  1  0.86350700  0.25000000  0.47157800  1
  Ni  Ni4  1  0.63764800  0.75000000  0.38006000  1
  Ni  Ni5  1  0.86235200  0.75000000  0.88006000  1
  Ni  Ni6  1  0.36235200  0.25000000  0.61994000  1
  Ni  Ni7  1  0.13764800  0.25000000  0.11994000  1
  Cu  Cu8  1  0.90717100  0.55116100  0.18037600  1
  Cu  Cu9  1  0.59282900  0.94883900  0.68037600  1
  Cu  Cu10  1  0.09282900  0.05116100  0.81962400  1
  Cu  Cu11  1  0.40717100  0.44883900  0.31962400  1
  Cu  Cu12  1  0.09282900  0.44883900  0.81962400  1
  Cu  Cu13  1  0.40717100  0.05116100  0.31962400  1
  Cu  Cu14  1  0.90717100  0.94883900  0.18037600  1
  Cu  Cu15  1  0.59282900  0.55116100  0.68037600  1
