# generated using pymatgen
data_CuNi2C5
_symmetry_space_group_name_H-M   'P 1'
_cell_length_a   6.99467169
_cell_length_b   6.99467169
_cell_length_c   6.99467169
_cell_angle_alpha   131.82883054
_cell_angle_beta   131.82883054
_cell_angle_gamma   70.49950515
_symmetry_Int_Tables_number   1
_chemical_formula_structural   CuNi2C5
_chemical_formula_sum   'Cu1 Ni2 C5'
_cell_volume   186.17855467
_cell_formula_units_Z   1
loop_
 _symmetry_equiv_pos_site_id
 _symmetry_equiv_pos_as_xyz
  1  'x, y, z'
loop_
 _atom_site_type_symbol
 _atom_site_label
 _atom_site_symmetry_multiplicity
 _atom_site_fract_x
 _atom_site_fract_y
 _atom_site_fract_z
 _atom_site_occupancy
  C  C0  1  0.50000000  0.50000000  0.00000000  1
  Ni  Ni1  1  0.00000000  0.00000000  0.00000000  1
  Ni  Ni2  1  0.75000000  0.25000000  0.50000000  1
  Cu  Cu3  1  0.25000000  0.75000000  0.50000000  1
  C  C4  1  0.11916600  0.15441700  0.50526400  1
  C  C5  1  0.84558300  0.35084700  0.96474900  1
  C  C6  1  0.64915300  0.61390200  0.49473600  1
  C  C7  1  0.38609800  0.88083400  0.03525100  1
