# generated using pymatgen
data_Cu2NiC7
_symmetry_space_group_name_H-M   'P 1'
_cell_length_a   7.69569035
_cell_length_b   7.69569035
_cell_length_c   18.61503339
_cell_angle_alpha   73.47201637
_cell_angle_beta   73.47201637
_cell_angle_gamma   42.63967035
_symmetry_Int_Tables_number   1
_chemical_formula_structural   Cu2NiC7
_chemical_formula_sum   'Cu8 Ni4 C28'
_cell_volume   711.10976592
_cell_formula_units_Z   4
loop_
 _symmetry_equiv_pos_site_id
 _symmetry_equiv_pos_as_xyz
  1  'x, y, z'
loop_
 _atom_site_type_symbol
 _atom_site_label
 _atom_site_symmetry_multiplicity
 _atom_site_fract_x
 _atom_site_fract_y
 _atom_site_fract_z
 _atom_site_occupancy
  C  C0  1  0.94939400  0.94939400  0.70709600  1
  C  C1  1  0.05060600  0.05060600  0.29290400  1
  C  C2  1  0.00000000  0.00000000  0.00000000  1
  C  C3  1  0.50000000  0.50000000  0.50000000  1
  Ni  Ni4  1  0.34377100  0.34377100  0.87174400  1
  Ni  Ni5  1  0.65622900  0.65622900  0.12825600  1
  Ni  Ni6  1  0.70150200  0.70150200  0.63473500  1
  Ni  Ni7  1  0.29849800  0.29849800  0.36526500  1
  Cu  Cu8  1  0.76566100  0.76566100  0.94554400  1
  Cu  Cu9  1  0.23433900  0.23433900  0.05445600  1
  Cu  Cu10  1  0.55233900  0.55233900  0.81988100  1
  Cu  Cu11  1  0.44766100  0.44766100  0.18011900  1
  Cu  Cu12  1  0.24257900  0.24257900  0.73358500  1
  Cu  Cu13  1  0.75742100  0.75742100  0.26641500  1
  Cu  Cu14  1  0.79339300  0.79339300  0.45358000  1
  Cu  Cu15  1  0.20660700  0.20660700  0.54642000  1
  C  C16  1  0.65493800  0.65493800  0.01753700  1
  C  C17  1  0.34506200  0.34506200  0.98246300  1
  C  C18  1  0.50815700  0.98450900  0.89204000  1
  C  C19  1  0.98450900  0.50815700  0.89204000  1
  C  C20  1  0.49184300  0.01549100  0.10796000  1
  C  C21  1  0.01549100  0.49184300  0.10796000  1
  C  C22  1  0.24080400  0.68819700  0.84721200  1
  C  C23  1  0.68819700  0.24080400  0.84721200  1
  C  C24  1  0.75919600  0.31180300  0.15278800  1
  C  C25  1  0.31180300  0.75919600  0.15278800  1
  C  C26  1  0.57986300  0.57986300  0.72255000  1
  C  C27  1  0.42013700  0.42013700  0.27745000  1
  C  C28  1  0.03358400  0.51507700  0.67211600  1
  C  C29  1  0.51507700  0.03358400  0.67211600  1
  C  C30  1  0.96641600  0.48492300  0.32788400  1
  C  C31  1  0.48492300  0.96641600  0.32788400  1
  C  C32  1  0.34529700  0.34529700  0.76364900  1
  C  C33  1  0.65470300  0.65470300  0.23635100  1
  C  C34  1  0.89220700  0.37501700  0.58924100  1
  C  C35  1  0.37501700  0.89220700  0.58924100  1
  C  C36  1  0.10779300  0.62498300  0.41075900  1
  C  C37  1  0.62498300  0.10779300  0.41075900  1
  C  C38  1  0.81850500  0.81850500  0.53980500  1
  C  C39  1  0.18149500  0.18149500  0.46019500  1
