# generated using pymatgen
data_CuNi8C5
_symmetry_space_group_name_H-M   'P 1'
_cell_length_a   9.00120894
_cell_length_b   9.00120894
_cell_length_c   11.02533450
_cell_angle_alpha   82.74616158
_cell_angle_beta   82.74616158
_cell_angle_gamma   52.68758675
_symmetry_Int_Tables_number   1
_chemical_formula_structural   CuNi8C5
_chemical_formula_sum   'Cu2 Ni16 C10'
_cell_volume   703.38522948
_cell_formula_units_Z   2
loop_
 _symmetry_equiv_pos_site_id
 _symmetry_equiv_pos_as_xyz
  1  'x, y, z'
loop_
 _atom_site_type_symbol
 _atom_site_label
 _atom_site_symmetry_multiplicity
 _atom_site_fract_x
 _atom_site_fract_y
 _atom_site_fract_z
 _atom_site_occupancy
  C  C0  1  0.92407800  0.67945100  0.68066700  1
  C  C1  1  0.32054900  0.07592200  0.81933300  1
  C  C2  1  0.07592200  0.32054900  0.31933300  1
  C  C3  1  0.67945100  0.92407800  0.18066700  1
  C  C4  1  0.59366200  0.40633800  0.75000000  1
  C  C5  1  0.40633800  0.59366200  0.25000000  1
  C  C6  1  0.30336400  0.37836300  0.02937500  1
  C  C7  1  0.62163700  0.69663600  0.47062500  1
  C  C8  1  0.69663600  0.62163700  0.97062500  1
  C  C9  1  0.37836300  0.30336400  0.52937500  1
  Ni  Ni10  1  0.11389500  0.60007100  0.14621300  1
  Ni  Ni11  1  0.39992900  0.88610500  0.35378700  1
  Ni  Ni12  1  0.88610500  0.39992900  0.85378700  1
  Ni  Ni13  1  0.60007100  0.11389500  0.64621300  1
  Ni  Ni14  1  0.58349400  0.27935400  0.04307900  1
  Ni  Ni15  1  0.72064600  0.41650600  0.45692100  1
  Ni  Ni16  1  0.41650600  0.72064600  0.95692100  1
  Ni  Ni17  1  0.27935400  0.58349400  0.54307900  1
  Ni  Ni18  1  0.25095500  0.44904900  0.83919000  1
  Ni  Ni19  1  0.55095100  0.74904500  0.66081000  1
  Ni  Ni20  1  0.74904500  0.55095100  0.16081000  1
  Ni  Ni21  1  0.44904900  0.25095500  0.33919000  1
  Ni  Ni22  1  0.28563000  0.15240700  0.08523500  1
  Ni  Ni23  1  0.84759300  0.71437000  0.41476500  1
  Ni  Ni24  1  0.71437000  0.84759300  0.91476500  1
  Ni  Ni25  1  0.15240700  0.28563000  0.58523500  1
  Cu  Cu26  1  0.98814600  0.01185400  0.25000000  1
  Cu  Cu27  1  0.01185400  0.98814600  0.75000000  1
