# generated using pymatgen
data_Cu4NiC5
_symmetry_space_group_name_H-M   'P 1'
_cell_length_a   5.20210102
_cell_length_b   5.20210102
_cell_length_c   7.35650089
_cell_angle_alpha   61.86510735
_cell_angle_beta   61.86510735
_cell_angle_gamma   33.55880036
_symmetry_Int_Tables_number   1
_chemical_formula_structural   Cu4NiC5
_chemical_formula_sum   'Cu4 Ni1 C5'
_cell_volume   95.77691938
_cell_formula_units_Z   1
loop_
 _symmetry_equiv_pos_site_id
 _symmetry_equiv_pos_as_xyz
  1  'x, y, z'
loop_
 _atom_site_type_symbol
 _atom_site_label
 _atom_site_symmetry_multiplicity
 _atom_site_fract_x
 _atom_site_fract_y
 _atom_site_fract_z
 _atom_site_occupancy
  Ni  Ni0  1  0.00000000  0.00000000  0.00000000  1
  Cu  Cu1  1  0.59998800  0.59998800  0.59930600  1
  Cu  Cu2  1  0.19978500  0.19978500  0.20099900  1
  Cu  Cu3  1  0.80021500  0.80021500  0.79900100  1
  Cu  Cu4  1  0.40001200  0.40001200  0.40069400  1
  C  C5  1  0.00000000  0.00000000  0.50000000  1
  C  C6  1  0.60194600  0.60194600  0.10197900  1
  C  C7  1  0.20148800  0.20148800  0.69717000  1
  C  C8  1  0.79851200  0.79851200  0.30283000  1
  C  C9  1  0.39805400  0.39805400  0.89802100  1
