# generated using pymatgen
data_Cu11NiC5
_symmetry_space_group_name_H-M   'P 1'
_cell_length_a   5.26325400
_cell_length_b   5.70992608
_cell_length_c   9.23451646
_cell_angle_alpha   106.75884109
_cell_angle_beta   88.62812931
_cell_angle_gamma   116.04404203
_symmetry_Int_Tables_number   1
_chemical_formula_structural   Cu11NiC5
_chemical_formula_sum   'Cu11 Ni1 C5'
_cell_volume   237.04609750
_cell_formula_units_Z   1
loop_
 _symmetry_equiv_pos_site_id
 _symmetry_equiv_pos_as_xyz
  1  'x, y, z'
loop_
 _atom_site_type_symbol
 _atom_site_label
 _atom_site_symmetry_multiplicity
 _atom_site_fract_x
 _atom_site_fract_y
 _atom_site_fract_z
 _atom_site_occupancy
  C  C0  1  0.23933300  0.02501700  0.41570200  1
  C  C1  1  0.46421600  0.73813400  0.17215800  1
  C  C2  1  0.67100500  0.51256600  0.89143300  1
  C  C3  1  0.97007100  0.30163000  0.63570900  1
  C  C4  1  0.98083800  0.98694500  0.00151700  1
  Ni  Ni5  1  0.59712300  0.75019800  0.99000000  1
  Cu  Cu6  1  0.97271300  0.93229600  0.79689300  1
  Cu  Cu7  1  0.04740600  0.19995200  0.46807300  1
  Cu  Cu8  1  0.56739100  0.11334900  0.59083000  1
  Cu  Cu9  1  0.46054400  0.37061700  0.28858900  1
  Cu  Cu10  1  0.37175900  0.46499900  0.71140900  1
  Cu  Cu11  1  0.39329800  0.15018800  0.02961800  1
  Cu  Cu12  1  0.38529300  0.83221700  0.33801700  1
  Cu  Cu13  1  0.04611100  0.61928400  0.07751600  1
  Cu  Cu14  1  0.91112400  0.98838300  0.20136100  1
  Cu  Cu15  1  0.98704500  0.67770100  0.52449600  1
  Cu  Cu16  1  0.89841100  0.32543200  0.85368800  1
