# generated using pymatgen
data_Cu6NiC18
_symmetry_space_group_name_H-M   'P 1'
_cell_length_a   8.51960346
_cell_length_b   8.33673789
_cell_length_c   9.62908609
_cell_angle_alpha   78.25308109
_cell_angle_beta   101.52719435
_cell_angle_gamma   153.76107986
_symmetry_Int_Tables_number   1
_chemical_formula_structural   Cu6NiC18
_chemical_formula_sum   'Cu6 Ni1 C18'
_cell_volume   295.80110294
_cell_formula_units_Z   1
loop_
 _symmetry_equiv_pos_site_id
 _symmetry_equiv_pos_as_xyz
  1  'x, y, z'
loop_
 _atom_site_type_symbol
 _atom_site_label
 _atom_site_symmetry_multiplicity
 _atom_site_fract_x
 _atom_site_fract_y
 _atom_site_fract_z
 _atom_site_occupancy
  Ni  Ni0  1  0.74150300  0.32978900  0.02051900  1
  Cu  Cu1  1  0.79701600  0.24180000  0.77481100  1
  Cu  Cu2  1  0.26158500  0.79971700  0.24100300  1
  Cu  Cu3  1  0.84282800  0.17586900  0.49069000  1
  Cu  Cu4  1  0.21422300  0.86600600  0.52084400  1
  Cu  Cu5  1  0.87999000  0.12914600  0.18633300  1
  Cu  Cu6  1  0.17915400  0.92604300  0.79915200  1
  C  C7  1  0.68427400  0.67310000  0.12885600  1
  C  C8  1  0.03548400  0.92639900  0.22607000  1
  C  C9  1  0.05262700  0.04477200  0.94854500  1
  C  C10  1  0.00791800  0.09828200  0.77997300  1
  C  C11  1  0.83118500  0.19030200  0.96378000  1
  C  C12  1  0.21572300  0.86908400  0.03658900  1
  C  C13  1  0.87831500  0.13355800  0.68452600  1
  C  C14  1  0.17622100  0.90911300  0.31948000  1
  C  C15  1  0.90613400  0.08034800  0.39151600  1
  C  C16  1  0.14524900  0.97621900  0.60098500  1
  C  C17  1  0.92839100  0.92871900  0.14726200  1
  C  C18  1  0.09622400  0.07438200  0.85071000  1
  C  C19  1  0.69926800  0.39514000  0.81900100  1
  C  C20  1  0.35675500  0.64977600  0.18073200  1
  C  C21  1  0.74338600  0.32244500  0.54278100  1
  C  C22  1  0.31210500  0.72166500  0.45097700  1
  C  C23  1  0.77896900  0.27004600  0.23317500  1
  C  C24  1  0.27073400  0.78338500  0.73835300  1
