# generated using pymatgen
data_Cu(Ni2C)2
_symmetry_space_group_name_H-M   'P 1'
_cell_length_a   5.16521854
_cell_length_b   5.16521854
_cell_length_c   7.26165431
_cell_angle_alpha   70.97233015
_cell_angle_beta   70.97233015
_cell_angle_gamma   90.54785631
_symmetry_Int_Tables_number   1
_chemical_formula_structural   Cu(Ni2C)2
_chemical_formula_sum   'Cu2 Ni8 C4'
_cell_volume   171.68346135
_cell_formula_units_Z   2
loop_
 _symmetry_equiv_pos_site_id
 _symmetry_equiv_pos_as_xyz
  1  'x, y, z'
loop_
 _atom_site_type_symbol
 _atom_site_label
 _atom_site_symmetry_multiplicity
 _atom_site_fract_x
 _atom_site_fract_y
 _atom_site_fract_z
 _atom_site_occupancy
  C  C0  1  0.50000000  0.00000000  0.50000000  1
  C  C1  1  0.00000000  0.50000000  0.00000000  1
  C  C2  1  0.38229300  0.61770700  0.25000000  1
  C  C3  1  0.61770700  0.38229300  0.75000000  1
  Ni  Ni4  1  0.32596800  0.33410000  0.42293400  1
  Ni  Ni5  1  0.66590000  0.67403200  0.07706600  1
  Ni  Ni6  1  0.67403200  0.66590000  0.57706600  1
  Ni  Ni7  1  0.33410000  0.32596800  0.92293400  1
  Ni  Ni8  1  0.14957200  0.64392900  0.15464300  1
  Ni  Ni9  1  0.35607100  0.85042800  0.34535700  1
  Ni  Ni10  1  0.85042800  0.35607100  0.84535700  1
  Ni  Ni11  1  0.64392900  0.14957200  0.65464300  1
  Cu  Cu12  1  0.16829100  0.83170900  0.75000000  1
  Cu  Cu13  1  0.83170900  0.16829100  0.25000000  1
