# generated using pymatgen
data_Cu(NiC4)4
_symmetry_space_group_name_H-M   'P 1'
_cell_length_a   6.02826447
_cell_length_b   6.04171724
_cell_length_c   10.62170570
_cell_angle_alpha   87.64748961
_cell_angle_beta   92.47418448
_cell_angle_gamma   122.01464191
_symmetry_Int_Tables_number   1
_chemical_formula_structural   Cu(NiC4)4
_chemical_formula_sum   'Cu1 Ni4 C16'
_cell_volume   327.63718431
_cell_formula_units_Z   1
loop_
 _symmetry_equiv_pos_site_id
 _symmetry_equiv_pos_as_xyz
  1  'x, y, z'
loop_
 _atom_site_type_symbol
 _atom_site_label
 _atom_site_symmetry_multiplicity
 _atom_site_fract_x
 _atom_site_fract_y
 _atom_site_fract_z
 _atom_site_occupancy
  Ni  Ni0  1  0.66847500  0.32971000  0.72560300  1
  Ni  Ni1  1  0.25979900  0.74041900  0.30257300  1
  Ni  Ni2  1  0.97257300  0.02697300  0.49946200  1
  Ni  Ni3  1  0.03041800  0.96880400  0.91140100  1
  Cu  Cu4  1  0.51883900  0.47829100  0.14292800  1
  C  C5  1  0.35177900  0.64893000  0.87846300  1
  C  C6  1  0.63888900  0.36140200  0.40249800  1
  C  C7  1  0.78872400  0.21202500  0.09896600  1
  C  C8  1  0.32381900  0.67440200  0.61578300  1
  C  C9  1  0.17121500  0.37260200  0.74410600  1
  C  C10  1  0.79101100  0.20912400  0.27895300  1
  C  C11  1  0.30919700  0.20774500  0.30066300  1
  C  C12  1  0.62612900  0.82803700  0.74348000  1
  C  C13  1  0.18435300  0.81417000  0.74053800  1
  C  C14  1  0.78998600  0.69035200  0.30064300  1
  C  C15  1  0.49930200  0.00567100  0.50524300  1
  C  C16  1  0.53275000  0.47188100  0.94074400  1
  C  C17  1  0.49899600  0.95844400  0.00160000  1
  C  C18  1  0.49569500  0.49564100  0.53172800  1
  C  C19  1  0.99224800  0.50267800  0.50583800  1
  C  C20  1  0.04538500  0.50269900  0.00379000  1
