# generated using pymatgen
data_CuNi5C4
_symmetry_space_group_name_H-M   'P 1'
_cell_length_a   7.09222900
_cell_length_b   6.70292200
_cell_length_c   5.18327600
_cell_angle_alpha   90.00000000
_cell_angle_beta   90.00000000
_cell_angle_gamma   90.00000000
_symmetry_Int_Tables_number   1
_chemical_formula_structural   CuNi5C4
_chemical_formula_sum   'Cu2 Ni10 C8'
_cell_volume   246.40598401
_cell_formula_units_Z   2
loop_
 _symmetry_equiv_pos_site_id
 _symmetry_equiv_pos_as_xyz
  1  'x, y, z'
loop_
 _atom_site_type_symbol
 _atom_site_label
 _atom_site_symmetry_multiplicity
 _atom_site_fract_x
 _atom_site_fract_y
 _atom_site_fract_z
 _atom_site_occupancy
  Ni  Ni0  1  0.54992200  0.50378200  0.24840900  1
  Ni  Ni1  1  0.95007800  0.50378200  0.24840900  1
  Ni  Ni2  1  0.54992200  0.99621800  0.24840900  1
  Ni  Ni3  1  0.95007800  0.99621800  0.24840900  1
  Ni  Ni4  1  0.45007800  0.49621800  0.75159100  1
  Ni  Ni5  1  0.04992200  0.49621800  0.75159100  1
  Ni  Ni6  1  0.45007800  0.00378200  0.75159100  1
  Ni  Ni7  1  0.04992200  0.00378200  0.75159100  1
  Ni  Ni8  1  0.75000000  0.75000000  0.71934500  1
  Ni  Ni9  1  0.25000000  0.25000000  0.28065500  1
  Cu  Cu10  1  0.75000000  0.25000000  0.71185300  1
  Cu  Cu11  1  0.25000000  0.75000000  0.28814700  1
  C  C12  1  0.75000000  0.00531300  0.94714400  1
  C  C13  1  0.75000000  0.49468700  0.94714400  1
  C  C14  1  0.25000000  0.99468700  0.05285600  1
  C  C15  1  0.25000000  0.50531300  0.05285600  1
  C  C16  1  0.49970100  0.75000000  0.50268600  1
  C  C17  1  0.00029900  0.75000000  0.50268600  1
  C  C18  1  0.50029900  0.25000000  0.49731400  1
  C  C19  1  0.99970100  0.25000000  0.49731400  1
