# generated using pymatgen
data_Cu3Ni2C19
_symmetry_space_group_name_H-M   'P 1'
_cell_length_a   2.89510668
_cell_length_b   11.83304167
_cell_length_c   12.85233146
_cell_angle_alpha   76.76643705
_cell_angle_beta   89.90098765
_cell_angle_gamma   91.66163388
_symmetry_Int_Tables_number   1
_chemical_formula_structural   Cu3Ni2C19
_chemical_formula_sum   'Cu6 Ni4 C38'
_cell_volume   428.40603183
_cell_formula_units_Z   2
loop_
 _symmetry_equiv_pos_site_id
 _symmetry_equiv_pos_as_xyz
  1  'x, y, z'
loop_
 _atom_site_type_symbol
 _atom_site_label
 _atom_site_symmetry_multiplicity
 _atom_site_fract_x
 _atom_site_fract_y
 _atom_site_fract_z
 _atom_site_occupancy
  C  C0  1  0.00001000  0.83334200  0.66664600  1
  C  C1  1  0.49996900  0.83332500  0.16667600  1
  C  C2  1  0.99869000  0.25482700  0.99972200  1
  C  C3  1  0.50219200  0.25179400  0.50139600  1
  C  C4  1  0.49785100  0.41485300  0.83193400  1
  C  C5  1  0.00135300  0.41183900  0.33361000  1
  C  C6  1  0.47911900  0.59357800  0.16602000  1
  C  C7  1  0.98126200  0.59041200  0.66790600  1
  C  C8  1  0.52081200  0.07308800  0.16734400  1
  C  C9  1  0.01875200  0.07623900  0.66540400  1
  C  C10  1  0.99447400  0.74957000  0.00831600  1
  C  C11  1  0.49542700  0.75020400  0.50820400  1
  C  C12  1  0.50455800  0.91645800  0.82514400  1
  C  C13  1  0.00553700  0.91709400  0.32501300  1
  Ni  Ni14  1  0.51555300  0.99420100  0.50714000  1
  Ni  Ni15  1  0.01430000  0.99534200  0.00729500  1
  Ni  Ni16  1  0.48439800  0.67247100  0.82613700  1
  Ni  Ni17  1  0.98576400  0.67133600  0.32611200  1
  Cu  Cu18  1  0.00001300  0.33332000  0.66667300  1
  Cu  Cu19  1  0.48468400  0.50187600  0.50034500  1
  Cu  Cu20  1  0.51526800  0.16477400  0.83300500  1
  Cu  Cu21  1  0.50003100  0.33333900  0.16666100  1
  Cu  Cu22  1  0.98150200  0.50063400  0.99947100  1
  Cu  Cu23  1  0.01854900  0.16605000  0.33384700  1
  C  C24  1  0.52647800  0.11171000  0.99839800  1
  C  C25  1  0.02698300  0.10985800  0.49819000  1
  C  C26  1  0.97303900  0.55681400  0.83511500  1
  C  C27  1  0.47344200  0.55498700  0.33495600  1
  C  C28  1  0.00834100  0.44349400  0.16374300  1
  C  C29  1  0.47883500  0.45088500  0.66442500  1
  C  C30  1  0.99170300  0.22317000  0.16958500  1
  C  C31  1  0.52118800  0.21576300  0.66891200  1
  C  C32  1  0.49133100  0.28191700  0.33703600  1
  C  C33  1  0.99345600  0.28280600  0.83271100  1
  C  C34  1  0.50870900  0.38475300  0.99628300  1
  C  C35  1  0.00654400  0.38385100  0.50062200  1
  C  C36  1  0.46515700  0.61990800  0.99343200  1
  C  C37  1  0.96717700  0.62072200  0.49129200  1
  C  C38  1  0.53486500  0.04676800  0.33988100  1
  C  C39  1  0.03278100  0.04592700  0.84206700  1
  C  C40  1  0.99555300  0.77822300  0.83537700  1
  C  C41  1  0.49630300  0.77720200  0.33442300  1
  C  C42  1  0.50363900  0.88947700  0.99894800  1
  C  C43  1  0.00446300  0.88845700  0.49792000  1
  C  C44  1  0.50894900  0.96290800  0.65289800  1
  C  C45  1  0.00901500  0.96383300  0.15353800  1
  C  C46  1  0.49106600  0.70375500  0.68040100  1
  C  C47  1  0.99091600  0.70284600  0.17982200  1
