# generated using pymatgen
data_Cu(NiC2)3
_symmetry_space_group_name_H-M   'P 1'
_cell_length_a   6.56653053
_cell_length_b   6.56653053
_cell_length_c   6.56652996
_cell_angle_alpha   53.00570053
_cell_angle_beta   53.00570053
_cell_angle_gamma   53.00570245
_symmetry_Int_Tables_number   1
_chemical_formula_structural   Cu(NiC2)3
_chemical_formula_sum   'Cu1 Ni3 C6'
_cell_volume   167.39137831
_cell_formula_units_Z   1
loop_
 _symmetry_equiv_pos_site_id
 _symmetry_equiv_pos_as_xyz
  1  'x, y, z'
loop_
 _atom_site_type_symbol
 _atom_site_label
 _atom_site_symmetry_multiplicity
 _atom_site_fract_x
 _atom_site_fract_y
 _atom_site_fract_z
 _atom_site_occupancy
  Ni  Ni0  1  0.50000000  0.50000000  0.50000000  1
  Ni  Ni1  1  0.16940200  0.16940200  0.16940200  1
  Ni  Ni2  1  0.83059800  0.83059800  0.83059800  1
  Cu  Cu3  1  0.00000000  0.00000000  0.00000000  1
  C  C4  1  0.59277300  0.24896900  0.91767600  1
  C  C5  1  0.91767600  0.59277300  0.24896900  1
  C  C6  1  0.24896900  0.91767600  0.59277300  1
  C  C7  1  0.75103100  0.08232400  0.40722700  1
  C  C8  1  0.08232400  0.40722700  0.75103100  1
  C  C9  1  0.40722700  0.75103100  0.08232400  1
