# generated using pymatgen
data_Cu4Ni6C
_symmetry_space_group_name_H-M   'P 1'
_cell_length_a   6.94871611
_cell_length_b   6.94871611
_cell_length_c   6.06066522
_cell_angle_alpha   65.48131489
_cell_angle_beta   65.48131489
_cell_angle_gamma   60.29882515
_symmetry_Int_Tables_number   1
_chemical_formula_structural   Cu4Ni6C
_chemical_formula_sum   'Cu4 Ni6 C1'
_cell_volume   223.00568734
_cell_formula_units_Z   1
loop_
 _symmetry_equiv_pos_site_id
 _symmetry_equiv_pos_as_xyz
  1  'x, y, z'
loop_
 _atom_site_type_symbol
 _atom_site_label
 _atom_site_symmetry_multiplicity
 _atom_site_fract_x
 _atom_site_fract_y
 _atom_site_fract_z
 _atom_site_occupancy
  C  C0  1  0.00000000  0.00000000  0.00000000  1
  Ni  Ni1  1  0.24264700  0.24264700  0.99747500  1
  Ni  Ni2  1  0.75735300  0.75735300  0.00252500  1
  Ni  Ni3  1  0.87125800  0.24836900  0.76210800  1
  Ni  Ni4  1  0.24836900  0.87125800  0.76210800  1
  Ni  Ni5  1  0.12874200  0.75163100  0.23789200  1
  Ni  Ni6  1  0.75163100  0.12874200  0.23789200  1
  Cu  Cu7  1  0.22944700  0.22944700  0.20781200  1
  Cu  Cu8  1  0.77055300  0.77055300  0.79218800  1
  Cu  Cu9  1  0.33211200  0.33211200  0.78800500  1
  Cu  Cu10  1  0.66788800  0.66788800  0.21199500  1
