# generated using pymatgen
data_Cu3NiC
_symmetry_space_group_name_H-M   'P 1'
_cell_length_a   5.96576400
_cell_length_b   7.24192100
_cell_length_c   22.42436787
_cell_angle_alpha   72.68413405
_cell_angle_beta   90.00000000
_cell_angle_gamma   90.00000000
_symmetry_Int_Tables_number   1
_chemical_formula_structural   Cu3NiC
_chemical_formula_sum   'Cu24 Ni8 C8'
_cell_volume   924.90508103
_cell_formula_units_Z   8
loop_
 _symmetry_equiv_pos_site_id
 _symmetry_equiv_pos_as_xyz
  1  'x, y, z'
loop_
 _atom_site_type_symbol
 _atom_site_label
 _atom_site_symmetry_multiplicity
 _atom_site_fract_x
 _atom_site_fract_y
 _atom_site_fract_z
 _atom_site_occupancy
  C  C0  1  0.92235800  0.67571800  0.28089300  1
  C  C1  1  0.07764200  0.32428200  0.71910700  1
  C  C2  1  0.42235800  0.32428200  0.21910700  1
  C  C3  1  0.57764200  0.67571800  0.78089300  1
  C  C4  1  0.24840300  0.93939100  0.04045700  1
  C  C5  1  0.75159700  0.06060900  0.95954300  1
  C  C6  1  0.74840300  0.06060900  0.45954300  1
  C  C7  1  0.25159700  0.93939100  0.54045700  1
  Ni  Ni8  1  0.75454200  0.96293300  0.12900900  1
  Ni  Ni9  1  0.24545800  0.03706700  0.87099100  1
  Ni  Ni10  1  0.25454200  0.03706700  0.37099100  1
  Ni  Ni11  1  0.74545800  0.96293300  0.62900900  1
  Ni  Ni12  1  0.74193800  0.67996200  0.10984800  1
  Ni  Ni13  1  0.25806200  0.32003800  0.89015200  1
  Ni  Ni14  1  0.24193800  0.32003800  0.39015200  1
  Ni  Ni15  1  0.75806200  0.67996200  0.60984800  1
  Cu  Cu16  1  0.87831800  0.46934300  0.17798700  1
  Cu  Cu17  1  0.12168200  0.53065700  0.82201300  1
  Cu  Cu18  1  0.37831800  0.53065700  0.32201300  1
  Cu  Cu19  1  0.62168200  0.46934300  0.67798700  1
  Cu  Cu20  1  0.58882100  0.97656200  0.37241300  1
  Cu  Cu21  1  0.41117900  0.02343800  0.62758700  1
  Cu  Cu22  1  0.08882100  0.02343800  0.12758700  1
  Cu  Cu23  1  0.91117900  0.97656200  0.87241300  1
  Cu  Cu24  1  0.92230800  0.75910400  0.02320800  1
  Cu  Cu25  1  0.07769200  0.24089600  0.97679200  1
  Cu  Cu26  1  0.42230800  0.24089600  0.47679200  1
  Cu  Cu27  1  0.57769200  0.75910400  0.52320800  1
  Cu  Cu28  1  0.59918100  0.94905400  0.20803900  1
  Cu  Cu29  1  0.40081900  0.05094600  0.79196100  1
  Cu  Cu30  1  0.09918100  0.05094600  0.29196100  1
  Cu  Cu31  1  0.90081900  0.94905400  0.70803900  1
  Cu  Cu32  1  0.57745200  0.13184000  0.04879200  1
  Cu  Cu33  1  0.42254800  0.86816000  0.95120800  1
  Cu  Cu34  1  0.07745200  0.86816000  0.45120800  1
  Cu  Cu35  1  0.92254800  0.13184000  0.54879200  1
  Cu  Cu36  1  0.41120800  0.62993000  0.09665100  1
  Cu  Cu37  1  0.58879200  0.37007000  0.90334900  1
  Cu  Cu38  1  0.91120800  0.37007000  0.40334900  1
  Cu  Cu39  1  0.08879200  0.62993000  0.59665100  1
