# generated using pymatgen
data_Cu2NiC12
_symmetry_space_group_name_H-M   'P 1'
_cell_length_a   5.65299345
_cell_length_b   6.06030486
_cell_length_c   8.30695249
_cell_angle_alpha   75.12477579
_cell_angle_beta   70.10748207
_cell_angle_gamma   90.00000000
_symmetry_Int_Tables_number   1
_chemical_formula_structural   Cu2NiC12
_chemical_formula_sum   'Cu2 Ni1 C12'
_cell_volume   257.44058106
_cell_formula_units_Z   1
loop_
 _symmetry_equiv_pos_site_id
 _symmetry_equiv_pos_as_xyz
  1  'x, y, z'
loop_
 _atom_site_type_symbol
 _atom_site_label
 _atom_site_symmetry_multiplicity
 _atom_site_fract_x
 _atom_site_fract_y
 _atom_site_fract_z
 _atom_site_occupancy
  Ni  Ni0  1  0.00000000  0.00000000  0.00000000  1
  Cu  Cu1  1  0.33261800  0.66438200  0.33476200  1
  Cu  Cu2  1  0.66738200  0.33561800  0.66523800  1
  C  C3  1  0.41835500  0.83381300  0.66450700  1
  C  C4  1  0.75002700  0.50000000  0.00000000  1
  C  C5  1  0.08286200  0.16618700  0.33549300  1
  C  C6  1  0.24997300  0.50000000  0.00000000  1
  C  C7  1  0.58164500  0.16618700  0.33549300  1
  C  C8  1  0.91713800  0.83381300  0.66450700  1
  C  C9  1  0.12009500  0.52343500  0.75980900  1
  C  C10  1  0.45195000  0.18895400  0.09609900  1
  C  C11  1  0.78648100  0.85222700  0.42703800  1
  C  C12  1  0.54805000  0.81104600  0.90390100  1
  C  C13  1  0.87990500  0.47656500  0.24019100  1
  C  C14  1  0.21351900  0.14777300  0.57296200  1
