# generated using pymatgen
data_Cu14Ni3C2
_symmetry_space_group_name_H-M   'P 1'
_cell_length_a   6.35517633
_cell_length_b   6.35517633
_cell_length_c   6.35517644
_cell_angle_alpha   82.68322066
_cell_angle_beta   82.68322066
_cell_angle_gamma   82.68323919
_symmetry_Int_Tables_number   1
_chemical_formula_structural   Cu14Ni3C2
_chemical_formula_sum   'Cu14 Ni3 C2'
_cell_volume   250.89505979
_cell_formula_units_Z   1
loop_
 _symmetry_equiv_pos_site_id
 _symmetry_equiv_pos_as_xyz
  1  'x, y, z'
loop_
 _atom_site_type_symbol
 _atom_site_label
 _atom_site_symmetry_multiplicity
 _atom_site_fract_x
 _atom_site_fract_y
 _atom_site_fract_z
 _atom_site_occupancy
  C  C0  1  0.65907700  0.65907700  0.65907700  1
  C  C1  1  0.33361700  0.33361700  0.33361700  1
  Ni  Ni2  1  0.15494000  0.65281200  0.65281200  1
  Ni  Ni3  1  0.65281200  0.65281200  0.15494000  1
  Ni  Ni4  1  0.65281200  0.15494000  0.65281200  1
  Cu  Cu5  1  0.90730500  0.90730500  0.90730500  1
  Cu  Cu6  1  0.09559300  0.09559300  0.09559300  1
  Cu  Cu7  1  0.00454200  0.00454200  0.49589500  1
  Cu  Cu8  1  0.00454200  0.49589500  0.00454200  1
  Cu  Cu9  1  0.49589500  0.00454200  0.00454200  1
  Cu  Cu10  1  0.28698600  0.71419400  0.00094500  1
  Cu  Cu11  1  0.71419400  0.00094500  0.28698600  1
  Cu  Cu12  1  0.00094500  0.28698600  0.71419400  1
  Cu  Cu13  1  0.28698600  0.00094500  0.71419400  1
  Cu  Cu14  1  0.00094500  0.71419400  0.28698600  1
  Cu  Cu15  1  0.71419400  0.28698600  0.00094500  1
  Cu  Cu16  1  0.85502000  0.33979800  0.33979800  1
  Cu  Cu17  1  0.33979800  0.33979800  0.85502000  1
  Cu  Cu18  1  0.33979800  0.85502000  0.33979800  1
