# generated using pymatgen
data_Cu5(NiC4)3
_symmetry_space_group_name_H-M   'P 1'
_cell_length_a   9.95804617
_cell_length_b   9.95804617
_cell_length_c   7.41161300
_cell_angle_alpha   90.00000000
_cell_angle_beta   90.00000000
_cell_angle_gamma   120.00000110
_symmetry_Int_Tables_number   1
_chemical_formula_structural   Cu5(NiC4)3
_chemical_formula_sum   'Cu10 Ni6 C24'
_cell_volume   636.49006921
_cell_formula_units_Z   2
loop_
 _symmetry_equiv_pos_site_id
 _symmetry_equiv_pos_as_xyz
  1  'x, y, z'
loop_
 _atom_site_type_symbol
 _atom_site_label
 _atom_site_symmetry_multiplicity
 _atom_site_fract_x
 _atom_site_fract_y
 _atom_site_fract_z
 _atom_site_occupancy
  Ni  Ni0  1  0.39957900  0.02531000  0.75000000  1
  Ni  Ni1  1  0.60042100  0.97469000  0.25000000  1
  Ni  Ni2  1  0.97469000  0.37426900  0.75000000  1
  Ni  Ni3  1  0.02531000  0.62573100  0.25000000  1
  Ni  Ni4  1  0.62573100  0.60042100  0.75000000  1
  Ni  Ni5  1  0.37426900  0.39957900  0.25000000  1
  Cu  Cu6  1  0.24089600  0.23866500  0.75000000  1
  Cu  Cu7  1  0.75910400  0.76133500  0.25000000  1
  Cu  Cu8  1  0.76133500  0.00223100  0.75000000  1
  Cu  Cu9  1  0.23866500  0.99776900  0.25000000  1
  Cu  Cu10  1  0.99776900  0.75910400  0.75000000  1
  Cu  Cu11  1  0.00223100  0.24089600  0.25000000  1
  Cu  Cu12  1  0.33333300  0.66666700  0.50080900  1
  Cu  Cu13  1  0.66666700  0.33333300  0.49919100  1
  Cu  Cu14  1  0.66666700  0.33333300  0.00080900  1
  Cu  Cu15  1  0.33333300  0.66666700  0.99919100  1
  C  C16  1  0.34854400  0.08196000  0.58060200  1
  C  C17  1  0.65145600  0.91804000  0.41939800  1
  C  C18  1  0.91804000  0.26658400  0.58060200  1
  C  C19  1  0.65145600  0.91804000  0.08060200  1
  C  C20  1  0.08196000  0.73341600  0.41939800  1
  C  C21  1  0.34854400  0.08196000  0.91939800  1
  C  C22  1  0.73341600  0.65145600  0.58060200  1
  C  C23  1  0.08196000  0.73341600  0.08060200  1
  C  C24  1  0.26658400  0.34854400  0.41939800  1
  C  C25  1  0.91804000  0.26658400  0.91939800  1
  C  C26  1  0.26658400  0.34854400  0.08060200  1
  C  C27  1  0.73341600  0.65145600  0.91939800  1
  C  C28  1  0.15385500  0.48042900  0.75000000  1
  C  C29  1  0.84614500  0.51957100  0.25000000  1
  C  C30  1  0.51957100  0.67342600  0.75000000  1
  C  C31  1  0.48042900  0.32657400  0.25000000  1
  C  C32  1  0.32657400  0.84614500  0.75000000  1
  C  C33  1  0.67342600  0.15385500  0.25000000  1
  C  C34  1  0.58085400  0.10804500  0.75000000  1
  C  C35  1  0.41914600  0.89195500  0.25000000  1
  C  C36  1  0.89195500  0.47280800  0.75000000  1
  C  C37  1  0.10804500  0.52719200  0.25000000  1
  C  C38  1  0.52719200  0.41914600  0.75000000  1
  C  C39  1  0.47280800  0.58085400  0.25000000  1
