# generated using pymatgen
data_Cu10NiC4
_symmetry_space_group_name_H-M   'P 1'
_cell_length_a   9.51705410
_cell_length_b   9.51705410
_cell_length_c   5.61445223
_cell_angle_alpha   82.23237154
_cell_angle_beta   82.23237154
_cell_angle_gamma   123.04334183
_symmetry_Int_Tables_number   1
_chemical_formula_structural   Cu10NiC4
_chemical_formula_sum   'Cu20 Ni2 C8'
_cell_volume   408.79281254
_cell_formula_units_Z   2
loop_
 _symmetry_equiv_pos_site_id
 _symmetry_equiv_pos_as_xyz
  1  'x, y, z'
loop_
 _atom_site_type_symbol
 _atom_site_label
 _atom_site_symmetry_multiplicity
 _atom_site_fract_x
 _atom_site_fract_y
 _atom_site_fract_z
 _atom_site_occupancy
  C  C0  1  0.97148300  0.82871900  0.86550300  1
  C  C1  1  0.82871900  0.97148300  0.36550300  1
  C  C2  1  0.12772900  0.60819900  0.61119500  1
  C  C3  1  0.60819900  0.12772900  0.11119500  1
  C  C4  1  0.33308600  0.78012400  0.02272700  1
  C  C5  1  0.78012400  0.33308600  0.52272700  1
  C  C6  1  0.20456000  0.94750500  0.25355000  1
  C  C7  1  0.94750500  0.20456000  0.75355000  1
  Ni  Ni8  1  0.34600200  0.43080700  0.13519600  1
  Ni  Ni9  1  0.43080700  0.34600200  0.63519600  1
  Cu  Cu10  1  0.30534900  0.67819200  0.28147800  1
  Cu  Cu11  1  0.67819200  0.30534900  0.78147800  1
  Cu  Cu12  1  0.30001800  0.68419500  0.81780800  1
  Cu  Cu13  1  0.68419500  0.30001800  0.31780800  1
  Cu  Cu14  1  0.51709300  0.95180500  0.93103000  1
  Cu  Cu15  1  0.95180500  0.51709300  0.43103000  1
  Cu  Cu16  1  0.19933800  0.83583800  0.05132500  1
  Cu  Cu17  1  0.83583800  0.19933800  0.55132500  1
  Cu  Cu18  1  0.16273000  0.83385900  0.51424500  1
  Cu  Cu19  1  0.83385900  0.16273000  0.01424500  1
  Cu  Cu20  1  0.07382700  0.98403500  0.21798700  1
  Cu  Cu21  1  0.98403500  0.07382700  0.71798700  1
  Cu  Cu22  1  0.39379300  0.11080600  0.18178600  1
  Cu  Cu23  1  0.11080600  0.39379300  0.68178600  1
  Cu  Cu24  1  0.96931000  0.55286900  0.88246700  1
  Cu  Cu25  1  0.55286900  0.96931000  0.38246700  1
  Cu  Cu26  1  0.62776500  0.68821000  0.06856900  1
  Cu  Cu27  1  0.68821000  0.62776500  0.56856900  1
  Cu  Cu28  1  0.50801200  0.49853900  0.60013300  1
  Cu  Cu29  1  0.49853900  0.50801200  0.10013300  1
