# generated using pymatgen
data_Cu3NiC8
_symmetry_space_group_name_H-M   'P 1'
_cell_length_a   3.19101607
_cell_length_b   3.19101607
_cell_length_c   35.85175900
_cell_angle_alpha   90.00000000
_cell_angle_beta   90.00000000
_cell_angle_gamma   120.00000144
_symmetry_Int_Tables_number   1
_chemical_formula_structural   Cu3NiC8
_chemical_formula_sum   'Cu3 Ni1 C8'
_cell_volume   316.15428779
_cell_formula_units_Z   1
loop_
 _symmetry_equiv_pos_site_id
 _symmetry_equiv_pos_as_xyz
  1  'x, y, z'
loop_
 _atom_site_type_symbol
 _atom_site_label
 _atom_site_symmetry_multiplicity
 _atom_site_fract_x
 _atom_site_fract_y
 _atom_site_fract_z
 _atom_site_occupancy
  Ni  Ni0  1  0.00000000  0.00000000  0.09390000  1
  Cu  Cu1  1  0.00000000  0.00000000  0.46965700  1
  Cu  Cu2  1  0.33333300  0.66666700  0.28178900  1
  Cu  Cu3  1  0.33333300  0.66666700  0.65756000  1
  C  C4  1  0.00000000  0.00000000  0.32565300  1
  C  C5  1  0.00000000  0.00000000  0.70141600  1
  C  C6  1  0.33333300  0.66666700  0.05025400  1
  C  C7  1  0.33333300  0.66666700  0.42581000  1
  C  C8  1  0.33333300  0.66666700  0.13757300  1
  C  C9  1  0.33333300  0.66666700  0.51352000  1
  C  C10  1  0.00000000  0.00000000  0.23793800  1
  C  C11  1  0.00000000  0.00000000  0.61367900  1
