# generated using pymatgen
data_Cu2NiC2
_symmetry_space_group_name_H-M   'P 1'
_cell_length_a   3.16372400
_cell_length_b   4.52349869
_cell_length_c   4.52349869
_cell_angle_alpha   60.77632677
_cell_angle_beta   69.53110736
_cell_angle_gamma   69.53110736
_symmetry_Int_Tables_number   1
_chemical_formula_structural   Cu2NiC2
_chemical_formula_sum   'Cu2 Ni1 C2'
_cell_volume   51.64600294
_cell_formula_units_Z   1
loop_
 _symmetry_equiv_pos_site_id
 _symmetry_equiv_pos_as_xyz
  1  'x, y, z'
loop_
 _atom_site_type_symbol
 _atom_site_label
 _atom_site_symmetry_multiplicity
 _atom_site_fract_x
 _atom_site_fract_y
 _atom_site_fract_z
 _atom_site_occupancy
  Ni  Ni0  1  0.00000000  0.00000000  0.00000000  1
  C  C1  1  0.50000000  0.70421000  0.29579000  1
  C  C2  1  0.50000000  0.29579000  0.70421000  1
  Cu  Cu3  1  0.80011800  0.69988200  0.69988200  1
  Cu  Cu4  1  0.19988200  0.30011800  0.30011800  1
