# generated using pymatgen
data_Cu54Ni16C21
_symmetry_space_group_name_H-M   'P 1'
_cell_length_a   14.70317511
_cell_length_b   14.70317511
_cell_length_c   14.70317511
_cell_angle_alpha   109.47122063
_cell_angle_beta   109.47122063
_cell_angle_gamma   109.47122063
_symmetry_Int_Tables_number   1
_chemical_formula_structural   Cu54Ni16C21
_chemical_formula_sum   'Cu108 Ni32 C42'
_cell_volume   2446.87339184
_cell_formula_units_Z   2
loop_
 _symmetry_equiv_pos_site_id
 _symmetry_equiv_pos_as_xyz
  1  'x, y, z'
loop_
 _atom_site_type_symbol
 _atom_site_label
 _atom_site_symmetry_multiplicity
 _atom_site_fract_x
 _atom_site_fract_y
 _atom_site_fract_z
 _atom_site_occupancy
  C  C0  1  0.00322889  0.75000000  0.25322889  1
  C  C1  1  0.49677111  0.25000000  0.24677111  1
  C  C2  1  0.75322889  0.25000000  0.50322889  1
  C  C3  1  0.74677111  0.75000000  0.99677111  1
  C  C4  1  0.75000000  0.25322889  0.00322889  1
  C  C5  1  0.25000000  0.24677111  0.49677111  1
  C  C6  1  0.25000000  0.50322889  0.75322889  1
  C  C7  1  0.75000000  0.99677111  0.74677111  1
  C  C8  1  0.25322889  0.00322889  0.75000000  1
  C  C9  1  0.24677111  0.49677111  0.25000000  1
  C  C10  1  0.50322889  0.75322889  0.25000000  1
  C  C11  1  0.99677111  0.74677111  0.75000000  1
  C  C12  1  0.37500000  0.75000000  0.62500000  1
  C  C13  1  0.12500000  0.25000000  0.87500000  1
  C  C14  1  0.75000000  0.62500000  0.37500000  1
  C  C15  1  0.25000000  0.87500000  0.12500000  1
  C  C16  1  0.62500000  0.37500000  0.75000000  1
  C  C17  1  0.87500000  0.12500000  0.25000000  1
  C  C18  1  0.29376408  0.02981335  0.33276959  1
  C  C19  1  0.80295624  0.47018665  0.26395073  1
  C  C20  1  0.69704376  0.46099449  0.16723041  1
  C  C21  1  0.20623592  0.03900551  0.23604927  1
  C  C22  1  0.83276959  0.52981335  0.79376408  1
  C  C23  1  0.76395073  0.97018665  0.30295624  1
  C  C24  1  0.66723041  0.96099449  0.19704376  1
  C  C25  1  0.73604927  0.53900551  0.70623592  1
  C  C26  1  0.02981335  0.33276959  0.29376408  1
  C  C27  1  0.47018665  0.26395073  0.80295624  1
  C  C28  1  0.46099449  0.16723041  0.69704376  1
  C  C29  1  0.03900551  0.23604927  0.20623592  1
  C  C30  1  0.52981335  0.79376408  0.83276959  1
  C  C31  1  0.97018665  0.30295624  0.76395073  1
  C  C32  1  0.96099449  0.19704376  0.66723041  1
  C  C33  1  0.53900551  0.70623592  0.73604927  1
  C  C34  1  0.33276959  0.29376408  0.02981335  1
  C  C35  1  0.26395073  0.80295624  0.47018665  1
  C  C36  1  0.16723041  0.69704376  0.46099449  1
  C  C37  1  0.23604927  0.20623592  0.03900551  1
  C  C38  1  0.79376408  0.83276959  0.52981335  1
  C  C39  1  0.30295624  0.76395073  0.97018665  1
  C  C40  1  0.19704376  0.66723041  0.96099449  1
  C  C41  1  0.70623592  0.73604927  0.53900551  1
  Ni  Ni42  1  0.50072825  0.31636873  0.49976778  1
  Ni  Ni43  1  0.68339904  0.18363127  0.18435952  1
  Ni  Ni44  1  0.81660096  0.50096048  0.00023222  1
  Ni  Ni45  1  0.99927175  0.99903952  0.31564048  1
  Ni  Ni46  1  0.99976778  0.81636873  0.00072825  1
  Ni  Ni47  1  0.68435952  0.68363127  0.18339904  1
  Ni  Ni48  1  0.50023222  0.00096048  0.31660096  1
  Ni  Ni49  1  0.81564048  0.49903952  0.49927175  1
  Ni  Ni50  1  0.31636873  0.49976778  0.50072825  1
  Ni  Ni51  1  0.18363127  0.18435952  0.68339904  1
  Ni  Ni52  1  0.50096048  0.00023222  0.81660096  1
  Ni  Ni53  1  0.99903952  0.31564048  0.99927175  1
  Ni  Ni54  1  0.81636873  0.00072825  0.99976778  1
  Ni  Ni55  1  0.68363127  0.18339904  0.68435952  1
  Ni  Ni56  1  0.00096048  0.31660096  0.50023222  1
  Ni  Ni57  1  0.49903952  0.49927175  0.81564048  1
  Ni  Ni58  1  0.49976778  0.50072825  0.31636873  1
  Ni  Ni59  1  0.18435952  0.68339904  0.18363127  1
  Ni  Ni60  1  0.00023222  0.81660096  0.50096048  1
  Ni  Ni61  1  0.31564048  0.99927175  0.99903952  1
  Ni  Ni62  1  0.00072825  0.99976778  0.81636873  1
  Ni  Ni63  1  0.18339904  0.68435952  0.68363127  1
  Ni  Ni64  1  0.31660096  0.50023222  0.00096048  1
  Ni  Ni65  1  0.49927175  0.81564048  0.49903952  1
  Ni  Ni66  1  0.33506363  -0.00000000  0.50000000  1
  Ni  Ni67  1  -0.00000000  0.50000000  0.33506363  1
  Ni  Ni68  1  0.50000000  0.33506363  -0.00000000  1
  Ni  Ni69  1  0.16493637  0.16493637  0.16493637  1
  Ni  Ni70  1  0.00000000  0.50000000  0.83506363  1
  Ni  Ni71  1  0.83506363  0.00000000  0.50000000  1
  Ni  Ni72  1  0.50000000  0.83506363  0.00000000  1
  Ni  Ni73  1  0.66493637  0.66493637  0.66493637  1
  Cu  Cu74  1  0.41138998  0.27137368  0.41170845  1
  Cu  Cu75  1  0.64033477  0.22862632  0.14001630  1
  Cu  Cu76  1  0.85966523  0.49968152  0.08829155  1
  Cu  Cu77  1  0.08861002  0.00031848  0.35998370  1
  Cu  Cu78  1  0.91170845  0.77137368  0.91138998  1
  Cu  Cu79  1  0.64001630  0.72862632  0.14033477  1
  Cu  Cu80  1  0.58829155  0.99968152  0.35966523  1
  Cu  Cu81  1  0.85998370  0.50031848  0.58861002  1
  Cu  Cu82  1  0.27137368  0.41170845  0.41138998  1
  Cu  Cu83  1  0.22862632  0.14001630  0.64033477  1
  Cu  Cu84  1  0.49968152  0.08829155  0.85966523  1
  Cu  Cu85  1  0.00031848  0.35998370  0.08861002  1
  Cu  Cu86  1  0.77137368  0.91138998  0.91170845  1
  Cu  Cu87  1  0.72862632  0.14033477  0.64001630  1
  Cu  Cu88  1  0.99968152  0.35966523  0.58829155  1
  Cu  Cu89  1  0.50031848  0.58861002  0.85998370  1
  Cu  Cu90  1  0.41170845  0.41138998  0.27137368  1
  Cu  Cu91  1  0.14001630  0.64033477  0.22862632  1
  Cu  Cu92  1  0.08829155  0.85966523  0.49968152  1
  Cu  Cu93  1  0.35998370  0.08861002  0.00031848  1
  Cu  Cu94  1  0.91138998  0.91170845  0.77137368  1
  Cu  Cu95  1  0.14033477  0.64001630  0.72862632  1
  Cu  Cu96  1  0.35966523  0.58829155  0.99968152  1
  Cu  Cu97  1  0.58861002  0.85998370  0.50031848  1
  Cu  Cu98  1  0.15617739  0.75313047  0.16190978  1
  Cu  Cu99  1  0.90877931  0.74686953  0.40304692  1
  Cu  Cu100  1  0.59122069  0.49426761  0.33809022  1
  Cu  Cu101  1  0.34382261  0.00573239  0.09695308  1
  Cu  Cu102  1  0.66190978  0.25313047  0.65617739  1
  Cu  Cu103  1  0.90304692  0.24686953  0.40877931  1
  Cu  Cu104  1  0.83809022  0.99426761  0.09122069  1
  Cu  Cu105  1  0.59695308  0.50573239  0.84382261  1
  Cu  Cu106  1  0.75313047  0.16190978  0.15617739  1
  Cu  Cu107  1  0.74686953  0.40304692  0.90877931  1
  Cu  Cu108  1  0.49426761  0.33809022  0.59122069  1
  Cu  Cu109  1  0.00573239  0.09695308  0.34382261  1
  Cu  Cu110  1  0.25313047  0.65617739  0.66190978  1
  Cu  Cu111  1  0.24686953  0.40877931  0.90304692  1
  Cu  Cu112  1  0.99426761  0.09122069  0.83809022  1
  Cu  Cu113  1  0.50573239  0.84382261  0.59695308  1
  Cu  Cu114  1  0.16190978  0.15617739  0.75313047  1
  Cu  Cu115  1  0.40304692  0.90877931  0.74686953  1
  Cu  Cu116  1  0.33809022  0.59122069  0.49426761  1
  Cu  Cu117  1  0.09695308  0.34382261  0.00573239  1
  Cu  Cu118  1  0.65617739  0.66190978  0.25313047  1
  Cu  Cu119  1  0.40877931  0.90304692  0.24686953  1
  Cu  Cu120  1  0.09122069  0.83809022  0.99426761  1
  Cu  Cu121  1  0.84382261  0.59695308  0.50573239  1
  Cu  Cu122  1  0.49572712  0.08816899  0.33778524  1
  Cu  Cu123  1  0.74961625  0.41183101  0.40755813  1
  Cu  Cu124  1  0.75038375  0.65794188  0.16221476  1
  Cu  Cu125  1  0.00427288  0.84205812  0.09244187  1
  Cu  Cu126  1  0.83778524  0.58816899  0.99572712  1
  Cu  Cu127  1  0.90755813  0.91183101  0.24961625  1
  Cu  Cu128  1  0.66221476  0.15794188  0.25038375  1
  Cu  Cu129  1  0.59244187  0.34205812  0.50427288  1
  Cu  Cu130  1  0.08816899  0.33778524  0.49572712  1
  Cu  Cu131  1  0.41183101  0.40755813  0.74961625  1
  Cu  Cu132  1  0.65794188  0.16221476  0.75038375  1
  Cu  Cu133  1  0.84205812  0.09244187  0.00427288  1
  Cu  Cu134  1  0.58816899  0.99572712  0.83778524  1
  Cu  Cu135  1  0.91183101  0.24961625  0.90755813  1
  Cu  Cu136  1  0.15794188  0.25038375  0.66221476  1
  Cu  Cu137  1  0.34205812  0.50427288  0.59244187  1
  Cu  Cu138  1  0.33778524  0.49572712  0.08816899  1
  Cu  Cu139  1  0.40755813  0.74961625  0.41183101  1
  Cu  Cu140  1  0.16221476  0.75038375  0.65794188  1
  Cu  Cu141  1  0.09244187  0.00427288  0.84205812  1
  Cu  Cu142  1  0.99572712  0.83778524  0.58816899  1
  Cu  Cu143  1  0.24961625  0.90755813  0.91183101  1
  Cu  Cu144  1  0.25038375  0.66221476  0.15794188  1
  Cu  Cu145  1  0.50427288  0.59244187  0.34205812  1
  Cu  Cu146  1  0.35215350  0.07558222  0.47378487  1
  Cu  Cu147  1  0.89820264  0.42441778  0.27657128  1
  Cu  Cu148  1  0.60179736  0.37836864  0.02621513  1
  Cu  Cu149  1  0.14784650  0.12163136  0.22342872  1
  Cu  Cu150  1  0.97378487  0.57558222  0.85215350  1
  Cu  Cu151  1  0.77657128  0.92441778  0.39820264  1
  Cu  Cu152  1  0.52621513  0.87836864  0.10179736  1
  Cu  Cu153  1  0.72342872  0.62163136  0.64784650  1
  Cu  Cu154  1  0.07558222  0.47378487  0.35215350  1
  Cu  Cu155  1  0.42441778  0.27657128  0.89820264  1
  Cu  Cu156  1  0.37836864  0.02621513  0.60179736  1
  Cu  Cu157  1  0.12163136  0.22342872  0.14784650  1
  Cu  Cu158  1  0.57558222  0.85215350  0.97378487  1
  Cu  Cu159  1  0.92441778  0.39820264  0.77657128  1
  Cu  Cu160  1  0.87836864  0.10179736  0.52621513  1
  Cu  Cu161  1  0.62163136  0.64784650  0.72342872  1
  Cu  Cu162  1  0.47378487  0.35215350  0.07558222  1
  Cu  Cu163  1  0.27657128  0.89820264  0.42441778  1
  Cu  Cu164  1  0.02621513  0.60179736  0.37836864  1
  Cu  Cu165  1  0.22342872  0.14784650  0.12163136  1
  Cu  Cu166  1  0.85215350  0.97378487  0.57558222  1
  Cu  Cu167  1  0.39820264  0.77657128  0.92441778  1
  Cu  Cu168  1  0.10179736  0.52621513  0.87836864  1
  Cu  Cu169  1  0.64784650  0.72342872  0.62163136  1
  Cu  Cu170  1  0.24894352  0.75000000  0.49894352  1
  Cu  Cu171  1  0.25105648  0.25000000  0.00105648  1
  Cu  Cu172  1  0.99894352  0.25000000  0.74894352  1
  Cu  Cu173  1  0.50105648  0.75000000  0.75105648  1
  Cu  Cu174  1  0.75000000  0.49894352  0.24894352  1
  Cu  Cu175  1  0.25000000  0.00105648  0.25105648  1
  Cu  Cu176  1  0.25000000  0.74894352  0.99894352  1
  Cu  Cu177  1  0.75000000  0.75105648  0.50105648  1
  Cu  Cu178  1  0.49894352  0.24894352  0.75000000  1
  Cu  Cu179  1  0.00105648  0.25105648  0.25000000  1
  Cu  Cu180  1  0.74894352  0.99894352  0.25000000  1
  Cu  Cu181  1  0.75105648  0.50105648  0.75000000  1
