# generated using pymatgen
data_Cu4NiC17
_symmetry_space_group_name_H-M   'P 1'
_cell_length_a   8.22561100
_cell_length_b   7.68226100
_cell_length_c   10.07702225
_cell_angle_alpha   69.85335122
_cell_angle_beta   90.00000000
_cell_angle_gamma   90.00000000
_symmetry_Int_Tables_number   1
_chemical_formula_structural   Cu4NiC17
_chemical_formula_sum   'Cu8 Ni2 C34'
_cell_volume   597.81810822
_cell_formula_units_Z   2
loop_
 _symmetry_equiv_pos_site_id
 _symmetry_equiv_pos_as_xyz
  1  'x, y, z'
loop_
 _atom_site_type_symbol
 _atom_site_label
 _atom_site_symmetry_multiplicity
 _atom_site_fract_x
 _atom_site_fract_y
 _atom_site_fract_z
 _atom_site_occupancy
  Ni  Ni0  1  0.00000000  0.50000000  0.00000000  1
  Ni  Ni1  1  0.50000000  0.50000000  0.50000000  1
  Cu  Cu2  1  0.93361900  0.40541600  0.69667700  1
  Cu  Cu3  1  0.43361900  0.59458400  0.80332300  1
  Cu  Cu4  1  0.06638100  0.59458400  0.30332300  1
  Cu  Cu5  1  0.56638100  0.40541600  0.19667700  1
  Cu  Cu6  1  0.19207500  0.10972600  0.70163400  1
  Cu  Cu7  1  0.69207500  0.89027400  0.79836600  1
  Cu  Cu8  1  0.80792500  0.89027400  0.29836600  1
  Cu  Cu9  1  0.30792500  0.10972600  0.20163400  1
  C  C10  1  0.12787300  0.80483400  0.53190000  1
  C  C11  1  0.62787300  0.19516600  0.96810000  1
  C  C12  1  0.87212700  0.19516600  0.46810000  1
  C  C13  1  0.37212700  0.80483400  0.03190000  1
  C  C14  1  0.00000000  0.00000000  0.00000000  1
  C  C15  1  0.50000000  0.00000000  0.50000000  1
  C  C16  1  0.35484000  0.13023600  0.63036300  1
  C  C17  1  0.85484000  0.86976400  0.86963700  1
  C  C18  1  0.64516000  0.86976400  0.36963700  1
  C  C19  1  0.14516000  0.13023600  0.13036300  1
  C  C20  1  0.33823500  0.69632500  0.66867500  1
  C  C21  1  0.83823500  0.30367500  0.83132500  1
  C  C22  1  0.66176500  0.30367500  0.33132500  1
  C  C23  1  0.16176500  0.69632500  0.16867500  1
  C  C24  1  0.84795100  0.39142000  0.56681900  1
  C  C25  1  0.34795100  0.60858000  0.93318100  1
  C  C26  1  0.15204900  0.60858000  0.43318100  1
  C  C27  1  0.65204900  0.39142000  0.06681900  1
  C  C28  1  0.11279200  0.29743500  0.70716400  1
  C  C29  1  0.61279200  0.70256500  0.79283600  1
  C  C30  1  0.88720800  0.70256500  0.29283600  1
  C  C31  1  0.38720800  0.29743500  0.20716400  1
  C  C32  1  0.52201100  0.60350700  0.18137200  1
  C  C33  1  0.02201100  0.39649300  0.31862800  1
  C  C34  1  0.47798900  0.39649300  0.81862800  1
  C  C35  1  0.97798900  0.60350700  0.68137200  1
  C  C36  1  0.79638100  0.01265000  0.13815100  1
  C  C37  1  0.29638100  0.98735000  0.36184900  1
  C  C38  1  0.20361900  0.98735000  0.86184900  1
  C  C39  1  0.70361900  0.01265000  0.63815100  1
  C  C40  1  0.43373400  0.03427200  0.11545200  1
  C  C41  1  0.93373400  0.96572800  0.38454800  1
  C  C42  1  0.56626600  0.96572800  0.88454800  1
  C  C43  1  0.06626600  0.03427200  0.61545200  1
