# generated using pymatgen
data_CuNiC
_symmetry_space_group_name_H-M   'P 1'
_cell_length_a   5.35070993
_cell_length_b   5.35070993
_cell_length_c   5.30513368
_cell_angle_alpha   60.28136865
_cell_angle_beta   119.71863135
_cell_angle_gamma   121.93441944
_symmetry_Int_Tables_number   1
_chemical_formula_structural   CuNiC
_chemical_formula_sum   'Cu2 Ni2 C2'
_cell_volume   106.17757758
_cell_formula_units_Z   2
loop_
 _symmetry_equiv_pos_site_id
 _symmetry_equiv_pos_as_xyz
  1  'x, y, z'
loop_
 _atom_site_type_symbol
 _atom_site_label
 _atom_site_symmetry_multiplicity
 _atom_site_fract_x
 _atom_site_fract_y
 _atom_site_fract_z
 _atom_site_occupancy
  C  C0  1  0.24753300  0.75246700  0.74753300  1
  C  C1  1  0.00246700  0.99753300  0.00246700  1
  Ni  Ni2  1  0.62500000  0.37500000  0.87500000  1
  Ni  Ni3  1  0.62500000  0.37500000  0.37500000  1
  Cu  Cu4  1  0.62500000  0.87500000  0.37500000  1
  Cu  Cu5  1  0.12500000  0.37500000  0.37500000  1
