# generated using pymatgen
data_CuNi2C15
_symmetry_space_group_name_H-M   'P 1'
_cell_length_a   7.02679300
_cell_length_b   7.59431808
_cell_length_c   10.39733473
_cell_angle_alpha   90.66840374
_cell_angle_beta   92.25431569
_cell_angle_gamma   90.44889830
_symmetry_Int_Tables_number   1
_chemical_formula_structural   CuNi2C15
_chemical_formula_sum   'Cu2 Ni4 C30'
_cell_volume   554.35403600
_cell_formula_units_Z   2
loop_
 _symmetry_equiv_pos_site_id
 _symmetry_equiv_pos_as_xyz
  1  'x, y, z'
loop_
 _atom_site_type_symbol
 _atom_site_label
 _atom_site_symmetry_multiplicity
 _atom_site_fract_x
 _atom_site_fract_y
 _atom_site_fract_z
 _atom_site_occupancy
  Ni  Ni0  1  0.01521300  0.25398800  0.87122200  1
  Ni  Ni1  1  0.98478700  0.74601200  0.12877800  1
  Ni  Ni2  1  0.49450300  0.25215400  0.61273400  1
  Ni  Ni3  1  0.50549700  0.74784600  0.38726600  1
  Cu  Cu4  1  0.71120700  0.23988500  0.26051100  1
  Cu  Cu5  1  0.28879300  0.76011500  0.73948900  1
  C  C6  1  0.00000000  0.00000000  0.50000000  1
  C  C7  1  0.50000000  0.00000000  0.00000000  1
  C  C8  1  0.20136300  0.25194700  0.22457700  1
  C  C9  1  0.79863700  0.74805300  0.77542300  1
  C  C10  1  0.50000000  0.50000000  0.00000000  1
  C  C11  1  0.00000000  0.50000000  0.50000000  1
  C  C12  1  0.76904700  0.05534900  0.41697700  1
  C  C13  1  0.23095300  0.94465100  0.58302300  1
  C  C14  1  0.12843700  0.03690100  0.34610300  1
  C  C15  1  0.87156300  0.96309900  0.65389700  1
  C  C16  1  0.15886300  0.44818200  0.33438900  1
  C  C17  1  0.84113700  0.55181800  0.66561100  1
  C  C18  1  0.94758800  0.26001200  0.16654000  1
  C  C19  1  0.05241200  0.73998800  0.83346000  1
  C  C20  1  0.26535400  0.44037800  0.07859200  1
  C  C21  1  0.73464600  0.55962200  0.92140800  1
  C  C22  1  0.59281700  0.23493100  0.00612800  1
  C  C23  1  0.40718300  0.76506900  0.99387200  1
  C  C24  1  0.61878200  0.53630300  0.16014800  1
  C  C25  1  0.38121800  0.46369700  0.83985200  1
  C  C26  1  0.36559000  0.04106900  0.84602500  1
  C  C27  1  0.63441000  0.95893100  0.15397500  1
  C  C28  1  0.24524100  0.07219900  0.09985100  1
  C  C29  1  0.75475900  0.92780100  0.90014900  1
  C  C30  1  0.22573700  0.57600300  0.58269200  1
  C  C31  1  0.77426300  0.42399700  0.41730800  1
  C  C32  1  0.44537500  0.23761900  0.29572600  1
  C  C33  1  0.55462500  0.76238100  0.70427400  1
  C  C34  1  0.04887900  0.26906000  0.56391500  1
  C  C35  1  0.95112100  0.73094000  0.43608500  1
