# generated using pymatgen
data_Cu6Ni2C5
_symmetry_space_group_name_H-M   'P 1'
_cell_length_a   7.20566988
_cell_length_b   7.20566988
_cell_length_c   7.92978510
_cell_angle_alpha   81.29294057
_cell_angle_beta   81.29294057
_cell_angle_gamma   119.96492211
_symmetry_Int_Tables_number   1
_chemical_formula_structural   Cu6Ni2C5
_chemical_formula_sum   'Cu6 Ni2 C5'
_cell_volume   339.96952416
_cell_formula_units_Z   1
loop_
 _symmetry_equiv_pos_site_id
 _symmetry_equiv_pos_as_xyz
  1  'x, y, z'
loop_
 _atom_site_type_symbol
 _atom_site_label
 _atom_site_symmetry_multiplicity
 _atom_site_fract_x
 _atom_site_fract_y
 _atom_site_fract_z
 _atom_site_occupancy
  C  C0  1  0.00000000  0.00000000  0.00000000  1
  C  C1  1  0.67261800  0.32738200  0.00000000  1
  C  C2  1  0.32738200  0.67261800  0.00000000  1
  C  C3  1  0.83375100  0.16624900  0.50000000  1
  C  C4  1  0.16624900  0.83375100  0.50000000  1
  Ni  Ni5  1  0.55116800  0.55116800  0.34374800  1
  Ni  Ni6  1  0.44883200  0.44883200  0.65625200  1
  Cu  Cu7  1  0.58140400  0.89458300  0.25462400  1
  Cu  Cu8  1  0.41859600  0.10541700  0.74537600  1
  Cu  Cu9  1  0.10541700  0.41859600  0.74537600  1
  Cu  Cu10  1  0.89458300  0.58140400  0.25462400  1
  Cu  Cu11  1  0.26899200  0.26899200  0.25493400  1
  Cu  Cu12  1  0.73100800  0.73100800  0.74506600  1
