# generated using pymatgen
data_CuNiC5
_symmetry_space_group_name_H-M   'P 1'
_cell_length_a   3.83213000
_cell_length_b   3.83213000
_cell_length_c   12.23802300
_cell_angle_alpha   90.00000000
_cell_angle_beta   90.00000000
_cell_angle_gamma   90.00000000
_symmetry_Int_Tables_number   1
_chemical_formula_structural   CuNiC5
_chemical_formula_sum   'Cu2 Ni2 C10'
_cell_volume   179.71806424
_cell_formula_units_Z   2
loop_
 _symmetry_equiv_pos_site_id
 _symmetry_equiv_pos_as_xyz
  1  'x, y, z'
loop_
 _atom_site_type_symbol
 _atom_site_label
 _atom_site_symmetry_multiplicity
 _atom_site_fract_x
 _atom_site_fract_y
 _atom_site_fract_z
 _atom_site_occupancy
  C  C0  1  0.75000000  0.75000000  0.11631400  1
  C  C1  1  0.25000000  0.25000000  0.88368600  1
  Ni  Ni2  1  0.75000000  0.75000000  0.71163700  1
  Ni  Ni3  1  0.25000000  0.25000000  0.28836300  1
  Cu  Cu4  1  0.25000000  0.75000000  0.50000000  1
  Cu  Cu5  1  0.75000000  0.25000000  0.50000000  1
  C  C6  1  0.75000000  0.75000000  0.92419700  1
  C  C7  1  0.25000000  0.25000000  0.07580300  1
  C  C8  1  0.75000000  0.75000000  0.56189200  1
  C  C9  1  0.25000000  0.25000000  0.43810800  1
  C  C10  1  0.75000000  0.25000000  0.74952500  1
  C  C11  1  0.25000000  0.75000000  0.74952500  1
  C  C12  1  0.25000000  0.75000000  0.25047500  1
  C  C13  1  0.75000000  0.25000000  0.25047500  1
