# generated using pymatgen
data_Cu(NiC10)2
_symmetry_space_group_name_H-M   'P 1'
_cell_length_a   12.75088500
_cell_length_b   12.75088500
_cell_length_c   3.95388800
_cell_angle_alpha   90.00000000
_cell_angle_beta   90.00000000
_cell_angle_gamma   90.00000000
_symmetry_Int_Tables_number   1
_chemical_formula_structural   Cu(NiC10)2
_chemical_formula_sum   'Cu2 Ni4 C40'
_cell_volume   642.84315046
_cell_formula_units_Z   2
loop_
 _symmetry_equiv_pos_site_id
 _symmetry_equiv_pos_as_xyz
  1  'x, y, z'
loop_
 _atom_site_type_symbol
 _atom_site_label
 _atom_site_symmetry_multiplicity
 _atom_site_fract_x
 _atom_site_fract_y
 _atom_site_fract_z
 _atom_site_occupancy
  Ni  Ni0  1  0.66995200  0.16995200  0.50000000  1
  Ni  Ni1  1  0.33004800  0.83004800  0.50000000  1
  Ni  Ni2  1  0.16995200  0.33004800  0.50000000  1
  Ni  Ni3  1  0.83004800  0.66995200  0.50000000  1
  Cu  Cu4  1  0.00000000  0.00000000  0.50000000  1
  Cu  Cu5  1  0.50000000  0.50000000  0.50000000  1
  C  C6  1  0.50000000  0.00000000  0.00000000  1
  C  C7  1  0.00000000  0.50000000  0.00000000  1
  C  C8  1  0.21182700  0.07652400  0.00000000  1
  C  C9  1  0.78817300  0.92347600  0.00000000  1
  C  C10  1  0.07652400  0.78817300  0.00000000  1
  C  C11  1  0.71182700  0.42347600  0.00000000  1
  C  C12  1  0.92347600  0.21182700  0.00000000  1
  C  C13  1  0.28817300  0.57652400  0.00000000  1
  C  C14  1  0.57652400  0.71182700  0.00000000  1
  C  C15  1  0.42347600  0.28817300  0.00000000  1
  C  C16  1  0.18503200  0.07833700  0.50000000  1
  C  C17  1  0.81496800  0.92166300  0.50000000  1
  C  C18  1  0.07833700  0.81496800  0.50000000  1
  C  C19  1  0.68503200  0.42166300  0.50000000  1
  C  C20  1  0.92166300  0.18503200  0.50000000  1
  C  C21  1  0.31496800  0.57833700  0.50000000  1
  C  C22  1  0.57833700  0.68503200  0.50000000  1
  C  C23  1  0.42166300  0.31496800  0.50000000  1
  C  C24  1  0.21726400  0.71726400  0.00000000  1
  C  C25  1  0.78273600  0.28273600  0.00000000  1
  C  C26  1  0.71726400  0.78273600  0.00000000  1
  C  C27  1  0.28273600  0.21726400  0.00000000  1
  C  C28  1  0.50000000  0.00000000  0.50000000  1
  C  C29  1  0.00000000  0.50000000  0.50000000  1
  C  C30  1  0.05789700  0.13077100  0.00000000  1
  C  C31  1  0.94210300  0.86922900  0.00000000  1
  C  C32  1  0.13077100  0.94210300  0.00000000  1
  C  C33  1  0.55789700  0.36922900  0.00000000  1
  C  C34  1  0.86922900  0.05789700  0.00000000  1
  C  C35  1  0.44210300  0.63077100  0.00000000  1
  C  C36  1  0.63077100  0.55789700  0.00000000  1
  C  C37  1  0.36922900  0.44210300  0.00000000  1
  C  C38  1  0.34198300  0.99950800  0.00000000  1
  C  C39  1  0.65801700  0.00049200  0.00000000  1
  C  C40  1  0.99950800  0.65801700  0.00000000  1
  C  C41  1  0.84198300  0.50049200  0.00000000  1
  C  C42  1  0.00049200  0.34198300  0.00000000  1
  C  C43  1  0.15801700  0.49950800  0.00000000  1
  C  C44  1  0.49950800  0.84198300  0.00000000  1
  C  C45  1  0.50049200  0.15801700  0.00000000  1
