# generated using pymatgen
data_Cu9Ni3C
_symmetry_space_group_name_H-M   'P 1'
_cell_length_a   6.88410100
_cell_length_b   8.29498200
_cell_length_c   6.67401300
_cell_angle_alpha   90.00000000
_cell_angle_beta   90.00000000
_cell_angle_gamma   90.00000000
_symmetry_Int_Tables_number   1
_chemical_formula_structural   Cu9Ni3C
_chemical_formula_sum   'Cu18 Ni6 C2'
_cell_volume   381.10946051
_cell_formula_units_Z   2
loop_
 _symmetry_equiv_pos_site_id
 _symmetry_equiv_pos_as_xyz
  1  'x, y, z'
loop_
 _atom_site_type_symbol
 _atom_site_label
 _atom_site_symmetry_multiplicity
 _atom_site_fract_x
 _atom_site_fract_y
 _atom_site_fract_z
 _atom_site_occupancy
  C  C0  1  0.50000000  0.00000000  0.62136900  1
  C  C1  1  0.00000000  0.50000000  0.37863100  1
  Ni  Ni2  1  0.00000000  0.79555800  0.86480400  1
  Ni  Ni3  1  0.00000000  0.20444200  0.86480400  1
  Ni  Ni4  1  0.50000000  0.70444200  0.13519600  1
  Ni  Ni5  1  0.50000000  0.29555800  0.13519600  1
  Ni  Ni6  1  0.50000000  0.50000000  0.59288200  1
  Ni  Ni7  1  0.00000000  0.00000000  0.40711800  1
  Cu  Cu8  1  0.81887500  0.85769700  0.53923500  1
  Cu  Cu9  1  0.81887500  0.14230300  0.53923500  1
  Cu  Cu10  1  0.18112500  0.85769700  0.53923500  1
  Cu  Cu11  1  0.18112500  0.14230300  0.53923500  1
  Cu  Cu12  1  0.68112500  0.64230300  0.46076500  1
  Cu  Cu13  1  0.68112500  0.35769700  0.46076500  1
  Cu  Cu14  1  0.31887500  0.64230300  0.46076500  1
  Cu  Cu15  1  0.31887500  0.35769700  0.46076500  1
  Cu  Cu16  1  0.50000000  0.00000000  0.27062900  1
  Cu  Cu17  1  0.00000000  0.50000000  0.72937100  1
  Cu  Cu18  1  0.17980400  0.00000000  0.90975000  1
  Cu  Cu19  1  0.82019600  0.00000000  0.90975000  1
  Cu  Cu20  1  0.32019600  0.50000000  0.09025000  1
  Cu  Cu21  1  0.67980400  0.50000000  0.09025000  1
  Cu  Cu22  1  0.50000000  0.76119300  0.86399700  1
  Cu  Cu23  1  0.50000000  0.23880700  0.86399700  1
  Cu  Cu24  1  0.00000000  0.73880700  0.13600300  1
  Cu  Cu25  1  0.00000000  0.26119300  0.13600300  1
