# generated using pymatgen
data_CuNi2C9
_symmetry_space_group_name_H-M   'P 1'
_cell_length_a   10.86810436
_cell_length_b   10.86810436
_cell_length_c   10.86810436
_cell_angle_alpha   158.74976900
_cell_angle_beta   158.74976900
_cell_angle_gamma   30.22982780
_symmetry_Int_Tables_number   1
_chemical_formula_structural   CuNi2C9
_chemical_formula_sum   'Cu1 Ni2 C9'
_cell_volume   168.52674362
_cell_formula_units_Z   1
loop_
 _symmetry_equiv_pos_site_id
 _symmetry_equiv_pos_as_xyz
  1  'x, y, z'
loop_
 _atom_site_type_symbol
 _atom_site_label
 _atom_site_symmetry_multiplicity
 _atom_site_fract_x
 _atom_site_fract_y
 _atom_site_fract_z
 _atom_site_occupancy
  Ni  Ni0  1  0.68137200  0.68137200  0.00000000  1
  Ni  Ni1  1  0.31862800  0.31862800  0.00000000  1
  Cu  Cu2  1  0.50000000  0.50000000  0.00000000  1
  C  C3  1  0.90676000  0.90676000  0.00000000  1
  C  C4  1  0.09324000  0.09324000  0.00000000  1
  C  C5  1  0.81373700  0.81373700  0.00000000  1
  C  C6  1  0.18626300  0.18626300  0.00000000  1
  C  C7  1  0.91361800  0.41361800  0.50000000  1
  C  C8  1  0.41361800  0.91361800  0.50000000  1
  C  C9  1  0.08638200  0.58638200  0.50000000  1
  C  C10  1  0.58638200  0.08638200  0.50000000  1
  C  C11  1  0.00000000  0.00000000  0.00000000  1
