# generated using pymatgen
data_Cu(NiC2)4
_symmetry_space_group_name_H-M   'P 1'
_cell_length_a   6.97909786
_cell_length_b   6.97909786
_cell_length_c   13.83574700
_cell_angle_alpha   90.00000000
_cell_angle_beta   90.00000000
_cell_angle_gamma   119.99999866
_symmetry_Int_Tables_number   1
_chemical_formula_structural   Cu(NiC2)4
_chemical_formula_sum   'Cu2 Ni8 C16'
_cell_volume   583.62222944
_cell_formula_units_Z   2
loop_
 _symmetry_equiv_pos_site_id
 _symmetry_equiv_pos_as_xyz
  1  'x, y, z'
loop_
 _atom_site_type_symbol
 _atom_site_label
 _atom_site_symmetry_multiplicity
 _atom_site_fract_x
 _atom_site_fract_y
 _atom_site_fract_z
 _atom_site_occupancy
  Ni  Ni0  1  0.00000000  0.00000000  0.00000000  1
  Ni  Ni1  1  0.50000000  0.00000000  0.50000000  1
  Ni  Ni2  1  0.50000000  0.50000000  0.00000000  1
  Ni  Ni3  1  0.00000000  0.50000000  0.00000000  1
  Ni  Ni4  1  0.00000000  0.50000000  0.50000000  1
  Ni  Ni5  1  0.50000000  0.50000000  0.50000000  1
  Ni  Ni6  1  0.50000000  0.00000000  0.00000000  1
  Ni  Ni7  1  0.00000000  0.00000000  0.50000000  1
  Cu  Cu8  1  0.00000000  0.00000000  0.25000000  1
  Cu  Cu9  1  0.00000000  0.00000000  0.75000000  1
  C  C10  1  0.83260800  0.16739200  0.87680900  1
  C  C11  1  0.16739200  0.83260800  0.37680900  1
  C  C12  1  0.16739200  0.33478400  0.37680900  1
  C  C13  1  0.66521600  0.83260800  0.37680900  1
  C  C14  1  0.33478400  0.16739200  0.87680900  1
  C  C15  1  0.83260800  0.66521600  0.62319100  1
  C  C16  1  0.33333300  0.66666700  0.87905200  1
  C  C17  1  0.83260800  0.66521600  0.87680900  1
  C  C18  1  0.33333300  0.66666700  0.62094800  1
  C  C19  1  0.66666700  0.33333300  0.12094800  1
  C  C20  1  0.66666700  0.33333300  0.37905200  1
  C  C21  1  0.16739200  0.33478400  0.12319100  1
  C  C22  1  0.66521600  0.83260800  0.12319100  1
  C  C23  1  0.83260800  0.16739200  0.62319100  1
  C  C24  1  0.33478400  0.16739200  0.62319100  1
  C  C25  1  0.16739200  0.83260800  0.12319100  1
