# generated using pymatgen
data_CuNiC
_symmetry_space_group_name_H-M   'P 1'
_cell_length_a   5.03676100
_cell_length_b   5.65676500
_cell_length_c   9.17351800
_cell_angle_alpha   90.00000000
_cell_angle_beta   90.00000000
_cell_angle_gamma   90.00000000
_symmetry_Int_Tables_number   1
_chemical_formula_structural   CuNiC
_chemical_formula_sum   'Cu4 Ni4 C4'
_cell_volume   261.36979557
_cell_formula_units_Z   4
loop_
 _symmetry_equiv_pos_site_id
 _symmetry_equiv_pos_as_xyz
  1  'x, y, z'
loop_
 _atom_site_type_symbol
 _atom_site_label
 _atom_site_symmetry_multiplicity
 _atom_site_fract_x
 _atom_site_fract_y
 _atom_site_fract_z
 _atom_site_occupancy
  C  C0  1  0.99106900  0.09292100  0.08627400  1
  C  C1  1  0.49106900  0.90707900  0.91372600  1
  C  C2  1  0.99106900  0.59292100  0.91372600  1
  C  C3  1  0.49106900  0.40707900  0.08627400  1
  Ni  Ni4  1  0.09107800  0.00130100  0.31829000  1
  Ni  Ni5  1  0.59107800  0.99869900  0.68171000  1
  Ni  Ni6  1  0.09107800  0.50130100  0.68171000  1
  Ni  Ni7  1  0.59107800  0.49869900  0.31829000  1
  Cu  Cu8  1  0.14685200  0.37185000  0.03189100  1
  Cu  Cu9  1  0.64685200  0.62815000  0.96810900  1
  Cu  Cu10  1  0.14685200  0.87185000  0.96810900  1
  Cu  Cu11  1  0.64685200  0.12815000  0.03189100  1
