# generated using pymatgen
data_Cu4Ni4C23
_symmetry_space_group_name_H-M   'P 1'
_cell_length_a   9.23120100
_cell_length_b   9.51518073
_cell_length_c   13.69168341
_cell_angle_alpha   92.10381305
_cell_angle_beta   102.69204010
_cell_angle_gamma   118.92711541
_symmetry_Int_Tables_number   1
_chemical_formula_structural   Cu4Ni4C23
_chemical_formula_sum   'Cu8 Ni8 C46'
_cell_volume   1012.36498466
_cell_formula_units_Z   2
loop_
 _symmetry_equiv_pos_site_id
 _symmetry_equiv_pos_as_xyz
  1  'x, y, z'
loop_
 _atom_site_type_symbol
 _atom_site_label
 _atom_site_symmetry_multiplicity
 _atom_site_fract_x
 _atom_site_fract_y
 _atom_site_fract_z
 _atom_site_occupancy
  C  C0  1  0.33609600  0.07725100  0.68149500  1
  C  C1  1  0.66390400  0.92274900  0.31850500  1
  C  C2  1  0.36128300  0.39699500  0.12090500  1
  C  C3  1  0.63871700  0.60300500  0.87909500  1
  Ni  Ni4  1  0.59767800  0.42717100  0.47975000  1
  Ni  Ni5  1  0.40232200  0.57282900  0.52025000  1
  Ni  Ni6  1  0.01466800  0.25865600  0.25720900  1
  Ni  Ni7  1  0.98533200  0.74134400  0.74279100  1
  Ni  Ni8  1  0.75061800  0.03985300  0.96443100  1
  Ni  Ni9  1  0.24938200  0.96014700  0.03556900  1
  Ni  Ni10  1  0.98350400  0.16615300  0.64248800  1
  Ni  Ni11  1  0.01649600  0.83384700  0.35751200  1
  Cu  Cu12  1  0.17646000  0.19931700  0.46252900  1
  Cu  Cu13  1  0.82354000  0.80068300  0.53747100  1
  Cu  Cu14  1  0.65916200  0.22482000  0.11758500  1
  Cu  Cu15  1  0.34083800  0.77518000  0.88241500  1
  Cu  Cu16  1  0.03786800  0.05474800  0.86066500  1
  Cu  Cu17  1  0.96213200  0.94525200  0.13933500  1
  Cu  Cu18  1  0.77103000  0.34361100  0.67965300  1
  Cu  Cu19  1  0.22897000  0.65638900  0.32034700  1
  C  C20  1  0.34123800  0.35023000  0.44659100  1
  C  C21  1  0.65876200  0.64977000  0.55340900  1
  C  C22  1  0.17855800  0.23574500  0.57640100  1
  C  C23  1  0.82144200  0.76425500  0.42359900  1
  C  C24  1  0.18883800  0.04470000  0.44860100  1
  C  C25  1  0.81116200  0.95530000  0.55139900  1
  C  C26  1  0.01603300  0.18759600  0.39065600  1
  C  C27  1  0.98396700  0.81240400  0.60934400  1
  C  C28  1  0.68246300  0.39808500  0.12992600  1
  C  C29  1  0.31753700  0.60191500  0.87007400  1
  C  C30  1  0.77483300  0.19630700  0.20360400  1
  C  C31  1  0.22516700  0.80369300  0.79639600  1
  C  C32  1  0.67778600  0.18166900  0.01328900  1
  C  C33  1  0.32221400  0.81833100  0.98671100  1
  C  C34  1  0.47221000  0.12966800  0.12866100  1
  C  C35  1  0.52779000  0.87033200  0.87133900  1
  C  C36  1  0.09825200  0.13268100  0.76971800  1
  C  C37  1  0.90174800  0.86731900  0.23028200  1
  C  C38  1  0.93401500  0.12003500  0.89944300  1
  C  C39  1  0.06598500  0.87996500  0.10055700  1
  C  C40  1  0.20728100  0.10894300  0.94884200  1
  C  C41  1  0.79271900  0.89105700  0.05115800  1
  C  C42  1  0.93268400  0.86543500  0.83397900  1
  C  C43  1  0.06731600  0.13456500  0.16602100  1
  C  C44  1  0.82817200  0.51265000  0.73707900  1
  C  C45  1  0.17182800  0.48735000  0.26292100  1
  C  C46  1  0.63397200  0.30453400  0.57688300  1
  C  C47  1  0.36602800  0.69546600  0.42311700  1
  C  C48  1  0.68444700  0.21583400  0.74504000  1
  C  C49  1  0.31555300  0.78416600  0.25496000  1
  C  C50  1  0.92310800  0.33181700  0.65901000  1
  C  C51  1  0.07689200  0.66818300  0.34099000  1
  C  C52  1  0.75446000  0.30002700  0.38987000  1
  C  C53  1  0.24554000  0.69997300  0.61013000  1
  C  C54  1  0.62456100  0.50656400  0.35354400  1
  C  C55  1  0.37543900  0.49343600  0.64645600  1
  C  C56  1  0.39322000  0.81880600  0.63654600  1
  C  C57  1  0.60678000  0.18119400  0.36345400  1
  C  C58  1  0.03205500  0.45894500  0.99075400  1
  C  C59  1  0.96794500  0.54105500  0.00924600  1
  C  C60  1  0.42377000  0.24618400  0.88083100  1
  C  C61  1  0.57623000  0.75381600  0.11916900  1
