# generated using pymatgen
data_Cu4NiC4
_symmetry_space_group_name_H-M   'P 1'
_cell_length_a   11.34320700
_cell_length_b   3.53067700
_cell_length_c   18.01353900
_cell_angle_alpha   90.00000000
_cell_angle_beta   90.00000000
_cell_angle_gamma   90.00000000
_symmetry_Int_Tables_number   1
_chemical_formula_structural   Cu4NiC4
_chemical_formula_sum   'Cu16 Ni4 C16'
_cell_volume   721.42782722
_cell_formula_units_Z   4
loop_
 _symmetry_equiv_pos_site_id
 _symmetry_equiv_pos_as_xyz
  1  'x, y, z'
loop_
 _atom_site_type_symbol
 _atom_site_label
 _atom_site_symmetry_multiplicity
 _atom_site_fract_x
 _atom_site_fract_y
 _atom_site_fract_z
 _atom_site_occupancy
  C  C0  1  0.56587200  0.25000000  0.92154900  1
  C  C1  1  0.06587200  0.25000000  0.57845100  1
  C  C2  1  0.43412800  0.75000000  0.07845100  1
  C  C3  1  0.93412800  0.75000000  0.42154900  1
  C  C4  1  0.63268300  0.25000000  0.46454400  1
  C  C5  1  0.13268300  0.25000000  0.03545600  1
  C  C6  1  0.36731700  0.75000000  0.53545600  1
  C  C7  1  0.86731700  0.75000000  0.96454400  1
  C  C8  1  0.78655700  0.25000000  0.79689800  1
  C  C9  1  0.28655700  0.25000000  0.70310200  1
  C  C10  1  0.21344300  0.75000000  0.20310200  1
  C  C11  1  0.71344300  0.75000000  0.29689800  1
  C  C12  1  0.92458000  0.25000000  0.17428800  1
  C  C13  1  0.42458000  0.25000000  0.32571200  1
  C  C14  1  0.07542000  0.75000000  0.82571200  1
  C  C15  1  0.57542000  0.75000000  0.67428800  1
  Ni  Ni16  1  0.67495100  0.25000000  0.10435400  1
  Ni  Ni17  1  0.17495100  0.25000000  0.39564600  1
  Ni  Ni18  1  0.32504900  0.75000000  0.89564600  1
  Ni  Ni19  1  0.82504900  0.75000000  0.60435400  1
  Cu  Cu20  1  0.57408000  0.25000000  0.13117800  1
  Cu  Cu21  1  0.07408000  0.25000000  0.36882200  1
  Cu  Cu22  1  0.42592000  0.75000000  0.86882200  1
  Cu  Cu23  1  0.92592000  0.75000000  0.63117800  1
  Cu  Cu24  1  0.77564600  0.25000000  0.07741700  1
  Cu  Cu25  1  0.27564600  0.25000000  0.42258300  1
  Cu  Cu26  1  0.22435400  0.75000000  0.92258300  1
  Cu  Cu27  1  0.72435400  0.75000000  0.57741700  1
  Cu  Cu28  1  0.79231700  0.25000000  0.37808100  1
  Cu  Cu29  1  0.29231700  0.25000000  0.12191900  1
  Cu  Cu30  1  0.20768300  0.75000000  0.62191900  1
  Cu  Cu31  1  0.70768300  0.75000000  0.87808100  1
  Cu  Cu32  1  0.95519900  0.25000000  0.87341800  1
  Cu  Cu33  1  0.45519900  0.25000000  0.62658200  1
  Cu  Cu34  1  0.04480100  0.75000000  0.12658200  1
  Cu  Cu35  1  0.54480100  0.75000000  0.37341800  1
