# generated using pymatgen
data_Cu2(NiC3)3
_symmetry_space_group_name_H-M   'P 1'
_cell_length_a   8.48733800
_cell_length_b   8.48733800
_cell_length_c   8.48733800
_cell_angle_alpha   90.00000000
_cell_angle_beta   90.00000000
_cell_angle_gamma   90.00000000
_symmetry_Int_Tables_number   1
_chemical_formula_structural   Cu2(NiC3)3
_chemical_formula_sum   'Cu8 Ni12 C36'
_cell_volume   611.38459779
_cell_formula_units_Z   4
loop_
 _symmetry_equiv_pos_site_id
 _symmetry_equiv_pos_as_xyz
  1  'x, y, z'
loop_
 _atom_site_type_symbol
 _atom_site_label
 _atom_site_symmetry_multiplicity
 _atom_site_fract_x
 _atom_site_fract_y
 _atom_site_fract_z
 _atom_site_occupancy
  C  C0  1  0.37500000  0.37500000  0.37500000  1
  C  C1  1  0.12500000  0.62500000  0.87500000  1
  C  C2  1  0.62500000  0.87500000  0.12500000  1
  C  C3  1  0.87500000  0.12500000  0.62500000  1
  Ni  Ni4  1  0.12500000  0.13033600  0.38033600  1
  Ni  Ni5  1  0.37500000  0.86966400  0.88033600  1
  Ni  Ni6  1  0.87500000  0.63033600  0.11966400  1
  Ni  Ni7  1  0.38033600  0.12500000  0.13033600  1
  Ni  Ni8  1  0.88033600  0.37500000  0.86966400  1
  Ni  Ni9  1  0.62500000  0.36966400  0.61966400  1
  Ni  Ni10  1  0.61966400  0.62500000  0.36966400  1
  Ni  Ni11  1  0.11966400  0.87500000  0.63033600  1
  Ni  Ni12  1  0.13033600  0.38033600  0.12500000  1
  Ni  Ni13  1  0.63033600  0.11966400  0.87500000  1
  Ni  Ni14  1  0.36966400  0.61966400  0.62500000  1
  Ni  Ni15  1  0.86966400  0.88033600  0.37500000  1
  Cu  Cu16  1  0.74923500  0.74923500  0.74923500  1
  Cu  Cu17  1  0.75076500  0.25076500  0.24923500  1
  Cu  Cu18  1  0.25076500  0.24923500  0.75076500  1
  Cu  Cu19  1  0.49923500  0.99923500  0.50076500  1
  Cu  Cu20  1  0.24923500  0.75076500  0.25076500  1
  Cu  Cu21  1  0.00076500  0.00076500  0.00076500  1
  Cu  Cu22  1  0.99923500  0.50076500  0.49923500  1
  Cu  Cu23  1  0.50076500  0.49923500  0.99923500  1
  C  C24  1  0.13658700  0.13658700  0.13658700  1
  C  C25  1  0.36341300  0.86341300  0.63658700  1
  C  C26  1  0.86341300  0.63658700  0.36341300  1
  C  C27  1  0.88658700  0.38658700  0.11341300  1
  C  C28  1  0.63658700  0.36341300  0.86341300  1
  C  C29  1  0.61341300  0.61341300  0.61341300  1
  C  C30  1  0.38658700  0.11341300  0.88658700  1
  C  C31  1  0.11341300  0.88658700  0.38658700  1
  C  C32  1  0.12347300  0.35865300  0.36094300  1
  C  C33  1  0.37652700  0.64134700  0.86094300  1
  C  C34  1  0.87652700  0.85865300  0.13905700  1
  C  C35  1  0.36094300  0.12347300  0.35865300  1
  C  C36  1  0.10865300  0.37347300  0.88905700  1
  C  C37  1  0.62347300  0.14134700  0.63905700  1
  C  C38  1  0.86094300  0.37652700  0.64134700  1
  C  C39  1  0.39134700  0.62652700  0.38905700  1
  C  C40  1  0.13905700  0.87652700  0.85865300  1
  C  C41  1  0.60865300  0.12652700  0.11094300  1
  C  C42  1  0.63905700  0.62347300  0.14134700  1
  C  C43  1  0.89134700  0.87347300  0.61094300  1
  C  C44  1  0.35865300  0.36094300  0.12347300  1
  C  C45  1  0.87347300  0.61094300  0.89134700  1
  C  C46  1  0.85865300  0.13905700  0.87652700  1
  C  C47  1  0.62652700  0.38905700  0.39134700  1
  C  C48  1  0.14134700  0.63905700  0.62347300  1
  C  C49  1  0.37347300  0.88905700  0.10865300  1
  C  C50  1  0.64134700  0.86094300  0.37652700  1
  C  C51  1  0.12652700  0.11094300  0.60865300  1
  C  C52  1  0.88905700  0.10865300  0.37347300  1
  C  C53  1  0.38905700  0.39134700  0.62652700  1
  C  C54  1  0.61094300  0.89134700  0.87347300  1
  C  C55  1  0.11094300  0.60865300  0.12652700  1
