# generated using pymatgen
data_CuNiC6
_symmetry_space_group_name_H-M   'P 1'
_cell_length_a   5.24870100
_cell_length_b   6.20032900
_cell_length_c   10.94298100
_cell_angle_alpha   90.00000000
_cell_angle_beta   90.00000000
_cell_angle_gamma   90.00000000
_symmetry_Int_Tables_number   1
_chemical_formula_structural   CuNiC6
_chemical_formula_sum   'Cu2 Ni2 C12'
_cell_volume   356.12479556
_cell_formula_units_Z   2
loop_
 _symmetry_equiv_pos_site_id
 _symmetry_equiv_pos_as_xyz
  1  'x, y, z'
loop_
 _atom_site_type_symbol
 _atom_site_label
 _atom_site_symmetry_multiplicity
 _atom_site_fract_x
 _atom_site_fract_y
 _atom_site_fract_z
 _atom_site_occupancy
  C  C0  1  0.00000000  0.24843200  0.08329100  1
  C  C1  1  0.00000000  0.75156800  0.08329100  1
  C  C2  1  0.00000000  0.00000000  0.33242500  1
  C  C3  1  0.50000000  0.74661200  0.41350100  1
  C  C4  1  0.50000000  0.25338800  0.41350100  1
  C  C5  1  0.50000000  0.00000000  0.16778600  1
  C  C6  1  0.00000000  0.74843200  0.58329100  1
  C  C7  1  0.00000000  0.25156800  0.58329100  1
  C  C8  1  0.00000000  0.50000000  0.83242500  1
  C  C9  1  0.50000000  0.24661200  0.91350100  1
  C  C10  1  0.50000000  0.75338800  0.91350100  1
  C  C11  1  0.50000000  0.50000000  0.66778600  1
  Ni  Ni12  1  0.00000000  0.50000000  0.34118600  1
  Ni  Ni13  1  0.00000000  0.00000000  0.84118600  1
  Cu  Cu14  1  0.50000000  0.50000000  0.16501900  1
  Cu  Cu15  1  0.50000000  0.00000000  0.66501900  1
