# generated using pymatgen
data_CuNiC5
_symmetry_space_group_name_H-M   'P 1'
_cell_length_a   8.97822800
_cell_length_b   5.44790900
_cell_length_c   10.82251342
_cell_angle_alpha   60.26643091
_cell_angle_beta   90.00000000
_cell_angle_gamma   90.00000000
_symmetry_Int_Tables_number   1
_chemical_formula_structural   CuNiC5
_chemical_formula_sum   'Cu4 Ni4 C20'
_cell_volume   459.66237373
_cell_formula_units_Z   4
loop_
 _symmetry_equiv_pos_site_id
 _symmetry_equiv_pos_as_xyz
  1  'x, y, z'
loop_
 _atom_site_type_symbol
 _atom_site_label
 _atom_site_symmetry_multiplicity
 _atom_site_fract_x
 _atom_site_fract_y
 _atom_site_fract_z
 _atom_site_occupancy
  Ni  Ni0  1  0.49822700  0.02529400  0.22595500  1
  Ni  Ni1  1  0.99822700  0.97470600  0.27404500  1
  Ni  Ni2  1  0.50177300  0.97470600  0.77404500  1
  Ni  Ni3  1  0.00177300  0.02529400  0.72595500  1
  Cu  Cu4  1  0.18499100  0.66195500  0.08124100  1
  Cu  Cu5  1  0.68499100  0.33804500  0.41875900  1
  Cu  Cu6  1  0.81500900  0.33804500  0.91875900  1
  Cu  Cu7  1  0.31500900  0.66195500  0.58124100  1
  C  C8  1  0.19880300  0.32792900  0.91492000  1
  C  C9  1  0.69880300  0.67207100  0.58508000  1
  C  C10  1  0.80119700  0.67207100  0.08508000  1
  C  C11  1  0.30119700  0.32792900  0.41492000  1
  C  C12  1  0.25492900  0.38874800  0.76513300  1
  C  C13  1  0.75492900  0.61125200  0.73486700  1
  C  C14  1  0.74507100  0.61125200  0.23486700  1
  C  C15  1  0.24507100  0.38874800  0.26513300  1
  C  C16  1  0.02456300  0.33634700  0.91343600  1
  C  C17  1  0.52456300  0.66365300  0.58656400  1
  C  C18  1  0.97543700  0.66365300  0.08656400  1
  C  C19  1  0.47543700  0.33634700  0.41343600  1
  C  C20  1  0.25507700  0.02691900  0.03104800  1
  C  C21  1  0.75507700  0.97308100  0.46895200  1
  C  C22  1  0.74492300  0.97308100  0.96895200  1
  C  C23  1  0.24492300  0.02691900  0.53104800  1
  C  C24  1  0.25990300  0.55738300  0.94973500  1
  C  C25  1  0.75990300  0.44261700  0.55026500  1
  C  C26  1  0.74009700  0.44261700  0.05026500  1
  C  C27  1  0.24009700  0.55738300  0.44973500  1
