# generated using pymatgen
data_Cu2NiC18
_symmetry_space_group_name_H-M   'P 1'
_cell_length_a   9.05586100
_cell_length_b   10.29986500
_cell_length_c   12.40989100
_cell_angle_alpha   90.00000000
_cell_angle_beta   90.00000000
_cell_angle_gamma   90.00000000
_symmetry_Int_Tables_number   1
_chemical_formula_structural   Cu2NiC18
_chemical_formula_sum   'Cu8 Ni4 C72'
_cell_volume   1157.52198198
_cell_formula_units_Z   4
loop_
 _symmetry_equiv_pos_site_id
 _symmetry_equiv_pos_as_xyz
  1  'x, y, z'
loop_
 _atom_site_type_symbol
 _atom_site_label
 _atom_site_symmetry_multiplicity
 _atom_site_fract_x
 _atom_site_fract_y
 _atom_site_fract_z
 _atom_site_occupancy
  Ni  Ni0  1  0.24562200  0.61817900  0.75000000  1
  Ni  Ni1  1  0.74562200  0.88182100  0.75000000  1
  Ni  Ni2  1  0.75437800  0.38182100  0.25000000  1
  Ni  Ni3  1  0.25437800  0.11817900  0.25000000  1
  Cu  Cu4  1  0.25115500  0.62083900  0.98926600  1
  Cu  Cu5  1  0.75115500  0.87916100  0.51073400  1
  Cu  Cu6  1  0.74884500  0.37916100  0.48926600  1
  Cu  Cu7  1  0.24884500  0.12083900  0.01073400  1
  Cu  Cu8  1  0.74884500  0.37916100  0.01073400  1
  Cu  Cu9  1  0.24884500  0.12083900  0.48926600  1
  Cu  Cu10  1  0.25115500  0.62083900  0.51073400  1
  Cu  Cu11  1  0.75115500  0.87916100  0.98926600  1
  C  C12  1  0.58600700  0.62017500  0.86690900  1
  C  C13  1  0.08600700  0.87982500  0.63309100  1
  C  C14  1  0.41399300  0.37982500  0.36690900  1
  C  C15  1  0.91399300  0.12017500  0.13309100  1
  C  C16  1  0.41399300  0.37982500  0.13309100  1
  C  C17  1  0.91399300  0.12017500  0.36690900  1
  C  C18  1  0.58600700  0.62017500  0.63309100  1
  C  C19  1  0.08600700  0.87982500  0.86690900  1
  C  C20  1  0.57303300  0.13404600  0.87281500  1
  C  C21  1  0.07303300  0.36595400  0.62718500  1
  C  C22  1  0.42696700  0.86595400  0.37281500  1
  C  C23  1  0.92696700  0.63404600  0.12718500  1
  C  C24  1  0.42696700  0.86595400  0.12718500  1
  C  C25  1  0.92696700  0.63404600  0.37281500  1
  C  C26  1  0.57303300  0.13404600  0.62718500  1
  C  C27  1  0.07303300  0.36595400  0.87281500  1
  C  C28  1  0.12952400  0.93701700  0.75000000  1
  C  C29  1  0.62952400  0.56298300  0.75000000  1
  C  C30  1  0.87047600  0.06298300  0.25000000  1
  C  C31  1  0.37047600  0.43701700  0.25000000  1
  C  C32  1  0.04773900  0.31989300  0.75000000  1
  C  C33  1  0.54773900  0.18010700  0.75000000  1
  C  C34  1  0.95226100  0.68010700  0.25000000  1
  C  C35  1  0.45226100  0.81989300  0.25000000  1
  C  C36  1  0.92130200  0.39120500  0.57967900  1
  C  C37  1  0.42130200  0.10879500  0.92032100  1
  C  C38  1  0.07869800  0.60879500  0.07967900  1
  C  C39  1  0.57869800  0.89120500  0.42032100  1
  C  C40  1  0.07869800  0.60879500  0.42032100  1
  C  C41  1  0.57869800  0.89120500  0.07967900  1
  C  C42  1  0.92130200  0.39120500  0.92032100  1
  C  C43  1  0.42130200  0.10879500  0.57967900  1
  C  C44  1  0.15219500  0.25497400  0.92818800  1
  C  C45  1  0.65219500  0.24502600  0.57181200  1
  C  C46  1  0.84780500  0.74502600  0.42818800  1
  C  C47  1  0.34780500  0.75497400  0.07181200  1
  C  C48  1  0.84780500  0.74502600  0.07181200  1
  C  C49  1  0.34780500  0.75497400  0.42818800  1
  C  C50  1  0.15219500  0.25497400  0.57181200  1
  C  C51  1  0.65219500  0.24502600  0.92818800  1
  C  C52  1  0.41635500  0.62840800  0.86845500  1
  C  C53  1  0.91635500  0.87159200  0.63154500  1
  C  C54  1  0.58364500  0.37159200  0.36845500  1
  C  C55  1  0.08364500  0.12840800  0.13154500  1
  C  C56  1  0.58364500  0.37159200  0.13154500  1
  C  C57  1  0.08364500  0.12840800  0.36845500  1
  C  C58  1  0.41635500  0.62840800  0.63154500  1
  C  C59  1  0.91635500  0.87159200  0.86845500  1
  C  C60  1  0.66614800  0.00864900  0.86849100  1
  C  C61  1  0.16614800  0.49135100  0.63150900  1
  C  C62  1  0.33385200  0.99135100  0.36849100  1
  C  C63  1  0.83385200  0.50864900  0.13150900  1
  C  C64  1  0.33385200  0.99135100  0.13150900  1
  C  C65  1  0.83385200  0.50864900  0.36849100  1
  C  C66  1  0.66614800  0.00864900  0.63150900  1
  C  C67  1  0.16614800  0.49135100  0.86849100  1
  C  C68  1  0.15837600  0.74447000  0.87308200  1
  C  C69  1  0.65837600  0.75553000  0.62691800  1
  C  C70  1  0.84162400  0.25553000  0.37308200  1
  C  C71  1  0.34162400  0.24447000  0.12691800  1
  C  C72  1  0.84162400  0.25553000  0.12691800  1
  C  C73  1  0.34162400  0.24447000  0.37308200  1
  C  C74  1  0.15837600  0.74447000  0.62691800  1
  C  C75  1  0.65837600  0.75553000  0.87308200  1
  C  C76  1  0.14787200  0.97222800  0.94886800  1
  C  C77  1  0.64787200  0.52777200  0.55113200  1
  C  C78  1  0.85212800  0.02777200  0.44886800  1
  C  C79  1  0.35212800  0.47222800  0.05113200  1
  C  C80  1  0.85212800  0.02777200  0.05113200  1
  C  C81  1  0.35212800  0.47222800  0.44886800  1
  C  C82  1  0.14787200  0.97222800  0.55113200  1
  C  C83  1  0.64787200  0.52777200  0.94886800  1
