# generated using pymatgen
data_Cu8Ni5C
_symmetry_space_group_name_H-M   'P 1'
_cell_length_a   8.60214100
_cell_length_b   12.70358400
_cell_length_c   15.08530100
_cell_angle_alpha   90.00000000
_cell_angle_beta   90.00000000
_cell_angle_gamma   90.00000000
_symmetry_Int_Tables_number   1
_chemical_formula_structural   Cu8Ni5C
_chemical_formula_sum   'Cu64 Ni40 C8'
_cell_volume   1648.49183605
_cell_formula_units_Z   8
loop_
 _symmetry_equiv_pos_site_id
 _symmetry_equiv_pos_as_xyz
  1  'x, y, z'
loop_
 _atom_site_type_symbol
 _atom_site_label
 _atom_site_symmetry_multiplicity
 _atom_site_fract_x
 _atom_site_fract_y
 _atom_site_fract_z
 _atom_site_occupancy
  C  C0  1  0.16468000  0.54203400  0.81001200  1
  C  C1  1  0.83532000  0.45796600  0.18998800  1
  C  C2  1  0.33532000  0.04203400  0.18998800  1
  C  C3  1  0.83532000  0.95796600  0.31001200  1
  C  C4  1  0.66468000  0.95796600  0.81001200  1
  C  C5  1  0.16468000  0.04203400  0.68998800  1
  C  C6  1  0.66468000  0.45796600  0.68998800  1
  C  C7  1  0.33532000  0.54203400  0.31001200  1
  Ni  Ni8  1  0.29528300  0.61173200  0.99216400  1
  Ni  Ni9  1  0.70471700  0.38826800  0.00783600  1
  Ni  Ni10  1  0.20471700  0.11173200  0.00783600  1
  Ni  Ni11  1  0.70471700  0.88826800  0.49216400  1
  Ni  Ni12  1  0.79528300  0.88826800  0.99216400  1
  Ni  Ni13  1  0.29528300  0.11173200  0.50783600  1
  Ni  Ni14  1  0.79528300  0.38826800  0.50783600  1
  Ni  Ni15  1  0.20471700  0.61173200  0.49216400  1
  Ni  Ni16  1  0.33650900  0.60869500  0.55582400  1
  Ni  Ni17  1  0.66349100  0.39130500  0.44417600  1
  Ni  Ni18  1  0.16349100  0.10869500  0.44417600  1
  Ni  Ni19  1  0.66349100  0.89130500  0.05582400  1
  Ni  Ni20  1  0.83650900  0.89130500  0.55582400  1
  Ni  Ni21  1  0.33650900  0.10869500  0.94417600  1
  Ni  Ni22  1  0.83650900  0.39130500  0.94417600  1
  Ni  Ni23  1  0.16349100  0.60869500  0.05582400  1
  Ni  Ni24  1  0.26745600  0.60032900  0.64330300  1
  Ni  Ni25  1  0.73254400  0.39967100  0.35669700  1
  Ni  Ni26  1  0.23254400  0.10032900  0.35669700  1
  Ni  Ni27  1  0.73254400  0.89967100  0.14330300  1
  Ni  Ni28  1  0.76745600  0.89967100  0.64330300  1
  Ni  Ni29  1  0.26745600  0.10032900  0.85669700  1
  Ni  Ni30  1  0.76745600  0.39967100  0.85669700  1
  Ni  Ni31  1  0.23254400  0.60032900  0.14330300  1
  Ni  Ni32  1  0.05421200  0.61757800  0.54358100  1
  Ni  Ni33  1  0.94578800  0.38242200  0.45641900  1
  Ni  Ni34  1  0.44578800  0.11757800  0.45641900  1
  Ni  Ni35  1  0.94578800  0.88242200  0.04358100  1
  Ni  Ni36  1  0.55421200  0.88242200  0.54358100  1
  Ni  Ni37  1  0.05421200  0.11757800  0.95641900  1
  Ni  Ni38  1  0.55421200  0.38242200  0.95641900  1
  Ni  Ni39  1  0.44578800  0.61757800  0.04358100  1
  Ni  Ni40  1  0.09985600  0.60404900  0.63727900  1
  Ni  Ni41  1  0.90014400  0.39595100  0.36272100  1
  Ni  Ni42  1  0.40014400  0.10404900  0.36272100  1
  Ni  Ni43  1  0.90014400  0.89595100  0.13727900  1
  Ni  Ni44  1  0.59985600  0.89595100  0.63727900  1
  Ni  Ni45  1  0.09985600  0.10404900  0.86272100  1
  Ni  Ni46  1  0.59985600  0.39595100  0.86272100  1
  Ni  Ni47  1  0.40014400  0.60404900  0.13727900  1
  Cu  Cu48  1  0.33451300  0.58377300  0.71692800  1
  Cu  Cu49  1  0.66548700  0.41622700  0.28307200  1
  Cu  Cu50  1  0.16548700  0.08377300  0.28307200  1
  Cu  Cu51  1  0.66548700  0.91622700  0.21692800  1
  Cu  Cu52  1  0.83451300  0.91622700  0.71692800  1
  Cu  Cu53  1  0.33451300  0.08377300  0.78307200  1
  Cu  Cu54  1  0.83451300  0.41622700  0.78307200  1
  Cu  Cu55  1  0.16548700  0.58377300  0.21692800  1
  Cu  Cu56  1  0.48972800  0.79165900  0.85851000  1
  Cu  Cu57  1  0.51027200  0.20834100  0.14149000  1
  Cu  Cu58  1  0.01027200  0.29165900  0.14149000  1
  Cu  Cu59  1  0.51027200  0.70834100  0.35851000  1
  Cu  Cu60  1  0.98972800  0.70834100  0.85851000  1
  Cu  Cu61  1  0.48972800  0.29165900  0.64149000  1
  Cu  Cu62  1  0.98972800  0.20834100  0.64149000  1
  Cu  Cu63  1  0.01027200  0.79165900  0.35851000  1
  Cu  Cu64  1  0.11059900  0.89893800  0.66642800  1
  Cu  Cu65  1  0.88940100  0.10106200  0.33357200  1
  Cu  Cu66  1  0.38940100  0.39893800  0.33357200  1
  Cu  Cu67  1  0.88940100  0.60106200  0.16642800  1
  Cu  Cu68  1  0.61059900  0.60106200  0.66642800  1
  Cu  Cu69  1  0.11059900  0.39893800  0.83357200  1
  Cu  Cu70  1  0.61059900  0.10106200  0.83357200  1
  Cu  Cu71  1  0.38940100  0.89893800  0.16642800  1
  Cu  Cu72  1  0.47730000  0.60725900  0.53594900  1
  Cu  Cu73  1  0.52270000  0.39274100  0.46405100  1
  Cu  Cu74  1  0.02270000  0.10725900  0.46405100  1
  Cu  Cu75  1  0.52270000  0.89274100  0.03594900  1
  Cu  Cu76  1  0.97730000  0.89274100  0.53594900  1
  Cu  Cu77  1  0.47730000  0.10725900  0.96405100  1
  Cu  Cu78  1  0.97730000  0.39274100  0.96405100  1
  Cu  Cu79  1  0.02270000  0.60725900  0.03594900  1
  Cu  Cu80  1  0.06197200  0.78750300  0.83495800  1
  Cu  Cu81  1  0.93802800  0.21249700  0.16504200  1
  Cu  Cu82  1  0.43802800  0.28750300  0.16504200  1
  Cu  Cu83  1  0.93802800  0.71249700  0.33495800  1
  Cu  Cu84  1  0.56197200  0.71249700  0.83495800  1
  Cu  Cu85  1  0.06197200  0.28750300  0.66504200  1
  Cu  Cu86  1  0.56197200  0.21249700  0.66504200  1
  Cu  Cu87  1  0.43802800  0.78750300  0.33495800  1
  Cu  Cu88  1  0.51595300  0.91034300  0.70485700  1
  Cu  Cu89  1  0.48404700  0.08965700  0.29514300  1
  Cu  Cu90  1  0.98404700  0.41034300  0.29514300  1
  Cu  Cu91  1  0.48404700  0.58965700  0.20485700  1
  Cu  Cu92  1  0.01595300  0.58965700  0.70485700  1
  Cu  Cu93  1  0.51595300  0.41034300  0.79514300  1
  Cu  Cu94  1  0.01595300  0.08965700  0.79514300  1
  Cu  Cu95  1  0.98404700  0.91034300  0.20485700  1
  Cu  Cu96  1  0.28899600  0.60623700  0.90956400  1
  Cu  Cu97  1  0.71100400  0.39376300  0.09043600  1
  Cu  Cu98  1  0.21100400  0.10623700  0.09043600  1
  Cu  Cu99  1  0.71100400  0.89376300  0.40956400  1
  Cu  Cu100  1  0.78899600  0.89376300  0.90956400  1
  Cu  Cu101  1  0.28899600  0.10623700  0.59043600  1
  Cu  Cu102  1  0.78899600  0.39376300  0.59043600  1
  Cu  Cu103  1  0.21100400  0.60623700  0.40956400  1
  Cu  Cu104  1  0.42273200  0.87577800  0.51212200  1
  Cu  Cu105  1  0.57726800  0.12422200  0.48787800  1
  Cu  Cu106  1  0.07726800  0.37577800  0.48787800  1
  Cu  Cu107  1  0.57726800  0.62422200  0.01212200  1
  Cu  Cu108  1  0.92273200  0.62422200  0.51212200  1
  Cu  Cu109  1  0.42273200  0.37577800  0.98787800  1
  Cu  Cu110  1  0.92273200  0.12422200  0.98787800  1
  Cu  Cu111  1  0.07726800  0.87577800  0.01212200  1
