# generated using pymatgen
data_Cu12Ni3C4
_symmetry_space_group_name_H-M   'P 1'
_cell_length_a   5.95928400
_cell_length_b   9.80892729
_cell_length_c   9.73647065
_cell_angle_alpha   119.99189476
_cell_angle_beta   90.00000000
_cell_angle_gamma   90.00000000
_symmetry_Int_Tables_number   1
_chemical_formula_structural   Cu12Ni3C4
_chemical_formula_sum   'Cu24 Ni6 C8'
_cell_volume   492.92773355
_cell_formula_units_Z   2
loop_
 _symmetry_equiv_pos_site_id
 _symmetry_equiv_pos_as_xyz
  1  'x, y, z'
loop_
 _atom_site_type_symbol
 _atom_site_label
 _atom_site_symmetry_multiplicity
 _atom_site_fract_x
 _atom_site_fract_y
 _atom_site_fract_z
 _atom_site_occupancy
  C  C0  1  0.75602800  0.33331000  0.66649500  1
  C  C1  1  0.25602800  0.66669000  0.33350500  1
  C  C2  1  0.65467100  0.05640800  0.83872000  1
  C  C3  1  0.65437500  0.16352500  0.21897900  1
  C  C4  1  0.65378500  0.78117300  0.94324400  1
  C  C5  1  0.15467100  0.94359200  0.16128000  1
  C  C6  1  0.15437500  0.83647500  0.78102100  1
  C  C7  1  0.15378500  0.21882700  0.05675600  1
  Ni  Ni8  1  0.75146000  0.90253600  0.59663100  1
  Ni  Ni9  1  0.75137700  0.40294200  0.30559500  1
  Ni  Ni10  1  0.75146300  0.69394400  0.09713900  1
  Ni  Ni11  1  0.25146000  0.09746400  0.40336900  1
  Ni  Ni12  1  0.25137700  0.59705800  0.69440500  1
  Ni  Ni13  1  0.25146300  0.30605600  0.90286100  1
  Cu  Cu14  1  0.45581800  0.54383100  0.73668700  1
  Cu  Cu15  1  0.45544200  0.26411000  0.80647800  1
  Cu  Cu16  1  0.45586200  0.19311800  0.45669100  1
  Cu  Cu17  1  0.95581800  0.45616900  0.26331300  1
  Cu  Cu18  1  0.95544200  0.73589000  0.19352200  1
  Cu  Cu19  1  0.95586200  0.80688200  0.54330900  1
  Cu  Cu20  1  0.54705500  0.45969200  0.26701600  1
  Cu  Cu21  1  0.54715600  0.73258200  0.19303800  1
  Cu  Cu22  1  0.54719000  0.80700100  0.53966100  1
  Cu  Cu23  1  0.04705500  0.54030800  0.73298400  1
  Cu  Cu24  1  0.04715600  0.26741800  0.80696200  1
  Cu  Cu25  1  0.04719000  0.19299900  0.46033900  1
  Cu  Cu26  1  0.76098600  0.96833700  0.78493000  1
  Cu  Cu27  1  0.76090800  0.21628400  0.18346800  1
  Cu  Cu28  1  0.76152700  0.81487000  0.03105400  1
  Cu  Cu29  1  0.26098600  0.03166300  0.21507000  1
  Cu  Cu30  1  0.26090800  0.78371600  0.81653200  1
  Cu  Cu31  1  0.26152700  0.18513000  0.96894700  1
  Cu  Cu32  1  0.75037000  0.03755300  0.57294300  1
  Cu  Cu33  1  0.75011900  0.42555200  0.46509200  1
  Cu  Cu34  1  0.75040900  0.53562700  0.96090900  1
  Cu  Cu35  1  0.25037000  0.96244700  0.42705700  1
  Cu  Cu36  1  0.25011900  0.57444900  0.53490800  1
  Cu  Cu37  1  0.25040900  0.46437300  0.03909100  1
