# generated using pymatgen
data_Cu4NiC24
_symmetry_space_group_name_H-M   'P 1'
_cell_length_a   9.89737300
_cell_length_b   10.22519700
_cell_length_c   12.05848400
_cell_angle_alpha   90.00000000
_cell_angle_beta   90.00000000
_cell_angle_gamma   90.00000000
_symmetry_Int_Tables_number   1
_chemical_formula_structural   Cu4NiC24
_chemical_formula_sum   'Cu16 Ni4 C96'
_cell_volume   1220.34979669
_cell_formula_units_Z   4
loop_
 _symmetry_equiv_pos_site_id
 _symmetry_equiv_pos_as_xyz
  1  'x, y, z'
loop_
 _atom_site_type_symbol
 _atom_site_label
 _atom_site_symmetry_multiplicity
 _atom_site_fract_x
 _atom_site_fract_y
 _atom_site_fract_z
 _atom_site_occupancy
  C  C0  1  0.97264300  0.69527500  0.68498600  1
  C  C1  1  0.52735700  0.30472500  0.18498600  1
  C  C2  1  0.47264300  0.80472500  0.31501400  1
  C  C3  1  0.02735700  0.19527500  0.81501400  1
  C  C4  1  0.63671200  0.75609000  0.75769300  1
  C  C5  1  0.86328800  0.24391000  0.25769300  1
  C  C6  1  0.13671200  0.74391000  0.24230700  1
  C  C7  1  0.36328800  0.25609000  0.74230700  1
  Ni  Ni8  1  0.75771900  0.76392600  0.24387400  1
  Ni  Ni9  1  0.74228100  0.23607400  0.74387400  1
  Ni  Ni10  1  0.25771900  0.73607400  0.75612600  1
  Ni  Ni11  1  0.24228100  0.26392600  0.25612600  1
  Cu  Cu12  1  0.91628300  0.85451400  0.43428000  1
  Cu  Cu13  1  0.58371700  0.14548600  0.93428000  1
  Cu  Cu14  1  0.41628300  0.64548600  0.56572000  1
  Cu  Cu15  1  0.08371700  0.35451400  0.06572000  1
  Cu  Cu16  1  0.60209200  0.86340100  0.05181900  1
  Cu  Cu17  1  0.89790800  0.13659900  0.55181900  1
  Cu  Cu18  1  0.10209200  0.63659900  0.94818100  1
  Cu  Cu19  1  0.39790800  0.36340100  0.44818100  1
  Cu  Cu20  1  0.70829100  0.65113600  0.46569500  1
  Cu  Cu21  1  0.79170900  0.34886400  0.96569500  1
  Cu  Cu22  1  0.20829100  0.84886400  0.53430500  1
  Cu  Cu23  1  0.29170900  0.15113600  0.03430500  1
  Cu  Cu24  1  0.80080300  0.64806600  0.02216800  1
  Cu  Cu25  1  0.69919700  0.35193400  0.52216800  1
  Cu  Cu26  1  0.30080300  0.85193400  0.97783200  1
  Cu  Cu27  1  0.19919700  0.14806600  0.47783200  1
  C  C28  1  0.74483800  0.49349800  0.69861500  1
  C  C29  1  0.75516200  0.50650200  0.19861500  1
  C  C30  1  0.24483800  0.00650200  0.30138500  1
  C  C31  1  0.25516200  0.99349800  0.80138500  1
  C  C32  1  0.80473500  0.53642700  0.80867200  1
  C  C33  1  0.69526500  0.46357300  0.30867200  1
  C  C34  1  0.30473400  0.96357300  0.19132800  1
  C  C35  1  0.19526500  0.03642700  0.69132800  1
  C  C36  1  0.83958200  0.96348300  0.72545600  1
  C  C37  1  0.66041800  0.03651700  0.22545600  1
  C  C38  1  0.33958200  0.53651700  0.27454400  1
  C  C39  1  0.16041800  0.46348300  0.77454400  1
  C  C40  1  0.88008900  0.89920200  0.83606400  1
  C  C41  1  0.61991100  0.10079800  0.33606400  1
  C  C42  1  0.38008900  0.60079800  0.16393600  1
  C  C43  1  0.11991100  0.39920200  0.66393600  1
  C  C44  1  0.08014500  0.53633000  0.48098100  1
  C  C45  1  0.41985500  0.46367000  0.98098100  1
  C  C46  1  0.58014500  0.96367000  0.51901900  1
  C  C47  1  0.91985500  0.03633000  0.01901900  1
  C  C48  1  0.94570600  0.49773400  0.53099300  1
  C  C49  1  0.55429400  0.50226600  0.03099300  1
  C  C50  1  0.44570600  0.00226600  0.46900700  1
  C  C51  1  0.05429400  0.99773400  0.96900700  1
  C  C52  1  0.56582500  0.02472400  0.73168200  1
  C  C53  1  0.93417500  0.97527600  0.23168200  1
  C  C54  1  0.06582500  0.47527600  0.26831800  1
  C  C55  1  0.43417500  0.52472400  0.76831800  1
  C  C56  1  0.44683400  0.92298800  0.73392200  1
  C  C57  1  0.05316600  0.07701200  0.23392200  1
  C  C58  1  0.94683400  0.57701200  0.26607800  1
  C  C59  1  0.55316600  0.42298800  0.76607800  1
  C  C60  1  0.88320200  0.84197700  0.30420500  1
  C  C61  1  0.61679800  0.15802300  0.80420500  1
  C  C62  1  0.38320200  0.65802300  0.69579500  1
  C  C63  1  0.11679800  0.34197700  0.19579500  1
  C  C64  1  0.87904900  0.99720500  0.48723500  1
  C  C65  1  0.62095100  0.00279500  0.98723500  1
  C  C66  1  0.37904900  0.50279500  0.51276500  1
  C  C67  1  0.12095100  0.49720500  0.01276500  1
  C  C68  1  0.07928800  0.82683700  0.45050300  1
  C  C69  1  0.42071200  0.17316300  0.95050300  1
  C  C70  1  0.57928800  0.67316300  0.54949700  1
  C  C71  1  0.92071200  0.32683700  0.04949700  1
  C  C72  1  0.83351000  0.74478200  0.50994400  1
  C  C73  1  0.66649000  0.25521800  0.00994400  1
  C  C74  1  0.33351000  0.75521800  0.49005600  1
  C  C75  1  0.16649000  0.24478200  0.99005600  1
  C  C76  1  0.65481700  0.86535300  0.17785200  1
  C  C77  1  0.84518300  0.13464700  0.67785200  1
  C  C78  1  0.15481700  0.63464700  0.82214800  1
  C  C79  1  0.34518300  0.36535300  0.32214800  1
  C  C80  1  0.43959900  0.82674000  0.04895900  1
  C  C81  1  0.06040100  0.17326000  0.54895900  1
  C  C82  1  0.93959900  0.67326000  0.95104100  1
  C  C83  1  0.56040100  0.32674000  0.45104100  1
  C  C84  1  0.68543400  0.75274900  0.97729900  1
  C  C85  1  0.81456600  0.24725100  0.47729900  1
  C  C86  1  0.18543400  0.74725100  0.02270100  1
  C  C87  1  0.31456600  0.25274900  0.52270100  1
  C  C88  1  0.67254500  0.68300200  0.33940300  1
  C  C89  1  0.82745500  0.31699800  0.83940300  1
  C  C90  1  0.17254500  0.81699800  0.66059700  1
  C  C91  1  0.32745500  0.18300200  0.16059700  1
  C  C92  1  0.75853400  0.49738500  0.48421800  1
  C  C93  1  0.74146600  0.50261500  0.98421800  1
  C  C94  1  0.25853400  0.00261500  0.51578200  1
  C  C95  1  0.24146600  0.99738500  0.01578200  1
  C  C96  1  0.81981400  0.65513500  0.15449200  1
  C  C97  1  0.68018600  0.34486500  0.65449200  1
  C  C98  1  0.31981400  0.84486500  0.84550800  1
  C  C99  1  0.18018600  0.15513500  0.34550800  1
  C  C100  1  0.77831500  0.57374900  0.73730600  1
  C  C101  1  0.72168500  0.42625100  0.23730600  1
  C  C102  1  0.27831500  0.92625100  0.26269400  1
  C  C103  1  0.22168500  0.07374900  0.76269400  1
  C  C104  1  0.84527200  0.87641300  0.76190300  1
  C  C105  1  0.65472800  0.12358700  0.26190300  1
  C  C106  1  0.34527200  0.62358700  0.23809700  1
  C  C107  1  0.15472800  0.37641300  0.73809700  1
  C  C108  1  0.03961700  0.51551600  0.55294300  1
  C  C109  1  0.46038300  0.48448400  0.05294300  1
  C  C110  1  0.53961700  0.98448400  0.44705700  1
  C  C111  1  0.96038300  0.01551600  0.94705700  1
  C  C112  1  0.53051900  0.94423200  0.69397800  1
  C  C113  1  0.96948100  0.05576800  0.19397800  1
  C  C114  1  0.03051900  0.55576800  0.30602200  1
  C  C115  1  0.46948100  0.44423200  0.80602200  1
