# generated using pymatgen
data_CuNiC5
_symmetry_space_group_name_H-M   'P 1'
_cell_length_a   5.99377900
_cell_length_b   7.92419800
_cell_length_c   10.48465900
_cell_angle_alpha   90.00000000
_cell_angle_beta   90.00000000
_cell_angle_gamma   90.00000000
_symmetry_Int_Tables_number   1
_chemical_formula_structural   CuNiC5
_chemical_formula_sum   'Cu4 Ni4 C20'
_cell_volume   497.97822695
_cell_formula_units_Z   4
loop_
 _symmetry_equiv_pos_site_id
 _symmetry_equiv_pos_as_xyz
  1  'x, y, z'
loop_
 _atom_site_type_symbol
 _atom_site_label
 _atom_site_symmetry_multiplicity
 _atom_site_fract_x
 _atom_site_fract_y
 _atom_site_fract_z
 _atom_site_occupancy
  Ni  Ni0  1  0.25000000  0.83404000  0.41931400  1
  Ni  Ni1  1  0.25000000  0.33404000  0.08068600  1
  Ni  Ni2  1  0.75000000  0.16596000  0.58068600  1
  Ni  Ni3  1  0.75000000  0.66596000  0.91931400  1
  Cu  Cu4  1  0.25000000  0.50462600  0.69835900  1
  Cu  Cu5  1  0.25000000  0.00462600  0.80164100  1
  Cu  Cu6  1  0.75000000  0.49537400  0.30164100  1
  Cu  Cu7  1  0.75000000  0.99537400  0.19835900  1
  C  C8  1  0.25000000  0.27068900  0.41823000  1
  C  C9  1  0.25000000  0.77068900  0.08177000  1
  C  C10  1  0.75000000  0.72931100  0.58177000  1
  C  C11  1  0.75000000  0.22931100  0.91823000  1
  C  C12  1  0.25000000  0.19146800  0.57230400  1
  C  C13  1  0.25000000  0.69146800  0.92769600  1
  C  C14  1  0.75000000  0.80853200  0.42769600  1
  C  C15  1  0.75000000  0.30853200  0.07230400  1
  C  C16  1  0.01314200  0.20309300  0.34030800  1
  C  C17  1  0.48685800  0.70309300  0.15969200  1
  C  C18  1  0.51314200  0.79690700  0.65969200  1
  C  C19  1  0.98685800  0.29690700  0.84030800  1
  C  C20  1  0.98685800  0.79690700  0.65969200  1
  C  C21  1  0.51314200  0.29690700  0.84030800  1
  C  C22  1  0.48685800  0.20309300  0.34030800  1
  C  C23  1  0.01314200  0.70309300  0.15969200  1
  C  C24  1  0.25000000  0.48835400  0.42382000  1
  C  C25  1  0.25000000  0.98835400  0.07618000  1
  C  C26  1  0.75000000  0.51164600  0.57618000  1
  C  C27  1  0.75000000  0.01164600  0.92382000  1
