# generated using pymatgen
data_CuNi3C16
_symmetry_space_group_name_H-M   'P 1'
_cell_length_a   7.10788088
_cell_length_b   7.10788088
_cell_length_c   7.10787990
_cell_angle_alpha   58.65385806
_cell_angle_beta   58.65385806
_cell_angle_gamma   58.65385598
_symmetry_Int_Tables_number   1
_chemical_formula_structural   CuNi3C16
_chemical_formula_sum   'Cu1 Ni3 C16'
_cell_volume   246.11232660
_cell_formula_units_Z   1
loop_
 _symmetry_equiv_pos_site_id
 _symmetry_equiv_pos_as_xyz
  1  'x, y, z'
loop_
 _atom_site_type_symbol
 _atom_site_label
 _atom_site_symmetry_multiplicity
 _atom_site_fract_x
 _atom_site_fract_y
 _atom_site_fract_z
 _atom_site_occupancy
  C  C0  1  0.00067700  0.00067700  0.00067700  1
  Ni  Ni1  1  0.99887800  0.99887800  0.50091500  1
  Ni  Ni2  1  0.50091500  0.99887800  0.99887800  1
  Ni  Ni3  1  0.99887800  0.50091500  0.99887800  1
  Cu  Cu4  1  0.69356300  0.69356300  0.69356300  1
  C  C5  1  0.30678900  0.30678900  0.30678900  1
  C  C6  1  0.75018700  0.09200100  0.75018700  1
  C  C7  1  0.09200100  0.75018700  0.75018700  1
  C  C8  1  0.75018700  0.75018700  0.09200100  1
  C  C9  1  0.25126600  0.91038900  0.25126600  1
  C  C10  1  0.91038900  0.25126600  0.25126600  1
  C  C11  1  0.25126600  0.25126600  0.91038900  1
  C  C12  1  0.60614200  0.60614200  0.60614200  1
  C  C13  1  0.38818300  0.38818300  0.38818300  1
  C  C14  1  0.84567000  0.48434000  0.84567000  1
  C  C15  1  0.48434000  0.84567000  0.84567000  1
  C  C16  1  0.84567000  0.84567000  0.48434000  1
  C  C17  1  0.15854300  0.50791300  0.15854300  1
  C  C18  1  0.50791300  0.15854300  0.15854300  1
  C  C19  1  0.15854300  0.15854300  0.50791300  1
