# generated using pymatgen
data_CuNiC8
_symmetry_space_group_name_H-M   'P 1'
_cell_length_a   8.51920032
_cell_length_b   8.52216004
_cell_length_c   8.50785355
_cell_angle_alpha   90.00000000
_cell_angle_beta   90.00000000
_cell_angle_gamma   90.00000000
_symmetry_Int_Tables_number   1
_chemical_formula_structural   CuNiC8
_chemical_formula_sum   'Cu4 Ni4 C32'
_cell_volume   617.68708594
_cell_formula_units_Z   4
loop_
 _symmetry_equiv_pos_site_id
 _symmetry_equiv_pos_as_xyz
  1  'x, y, z'
loop_
 _atom_site_type_symbol
 _atom_site_label
 _atom_site_symmetry_multiplicity
 _atom_site_fract_x
 _atom_site_fract_y
 _atom_site_fract_z
 _atom_site_occupancy
  Ni  Ni0  1  0.00000000  0.00000000  -0.00000000  1
  Ni  Ni1  1  0.50000000  0.50000000  0.50000000  1
  Ni  Ni2  1  0.00000000  0.50000000  -0.00000000  1
  Ni  Ni3  1  0.00000000  0.00000000  0.50000000  1
  C  C4  1  0.25277647  0.25064722  0.25061433  1
  C  C5  1  0.74722353  0.74935278  0.25061433  1
  C  C6  1  0.74722353  0.25064722  0.74938567  1
  C  C7  1  0.25277647  0.74935278  0.74938567  1
  Cu  Cu8  1  0.00000000  0.50000000  0.50000000  1
  Cu  Cu9  1  0.50000000  0.00000000  0.50000000  1
  Cu  Cu10  1  0.50000000  0.50000000  -0.00000000  1
  Cu  Cu11  1  0.50000000  0.00000000  -0.00000000  1
  C  C12  1  0.74655940  0.74900145  0.74999381  1
  C  C13  1  0.25344060  0.25099855  0.74999381  1
  C  C14  1  0.25344060  0.74900145  0.25000619  1
  C  C15  1  0.74655940  0.25099855  0.25000619  1
  C  C16  1  0.98204786  0.22442073  0.27298000  1
  C  C17  1  0.01795214  0.77557927  0.27298000  1
  C  C18  1  0.01795214  0.22442073  0.72702000  1
  C  C19  1  0.98204786  0.77557927  0.72702000  1
  C  C20  1  0.28538289  0.98276430  0.21669415  1
  C  C21  1  0.28538289  0.01723570  0.78330585  1
  C  C22  1  0.71461711  0.01723570  0.21669415  1
  C  C23  1  0.71461711  0.98276430  0.78330585  1
  C  C24  1  0.22731946  0.27631152  0.98407369  1
  C  C25  1  0.77268054  0.27631152  0.01592631  1
  C  C26  1  0.22731946  0.72368848  0.01592631  1
  C  C27  1  0.77268054  0.72368848  0.98407369  1
  C  C28  1  0.51621866  0.28975748  0.21612408  1
  C  C29  1  0.48378134  0.71024252  0.21612408  1
  C  C30  1  0.48378134  0.28975748  0.78387592  1
  C  C31  1  0.51621866  0.71024252  0.78387592  1
  C  C32  1  0.21927403  0.51753172  0.28953453  1
  C  C33  1  0.21927403  0.48246828  0.71046547  1
  C  C34  1  0.78072597  0.48246828  0.28953453  1
  C  C35  1  0.78072597  0.51753172  0.71046547  1
  C  C36  1  0.28902323  0.21489235  0.51820279  1
  C  C37  1  0.71097677  0.21489235  0.48179721  1
  C  C38  1  0.28902323  0.78510765  0.48179721  1
  C  C39  1  0.71097677  0.78510765  0.51820279  1
