# generated using pymatgen
data_Cu3NiC11
_symmetry_space_group_name_H-M   'P 1'
_cell_length_a   7.60282500
_cell_length_b   7.39572400
_cell_length_c   9.70472644
_cell_angle_alpha   51.12925917
_cell_angle_beta   90.00000000
_cell_angle_gamma   90.00000000
_symmetry_Int_Tables_number   1
_chemical_formula_structural   Cu3NiC11
_chemical_formula_sum   'Cu6 Ni2 C22'
_cell_volume   424.84758548
_cell_formula_units_Z   2
loop_
 _symmetry_equiv_pos_site_id
 _symmetry_equiv_pos_as_xyz
  1  'x, y, z'
loop_
 _atom_site_type_symbol
 _atom_site_label
 _atom_site_symmetry_multiplicity
 _atom_site_fract_x
 _atom_site_fract_y
 _atom_site_fract_z
 _atom_site_occupancy
  C  C0  1  0.94438100  0.99912100  0.00118000  1
  C  C1  1  0.05561900  0.99912100  0.50118000  1
  C  C2  1  0.45140800  0.78629400  0.91759000  1
  C  C3  1  0.54859200  0.78629400  0.41759000  1
  Ni  Ni4  1  0.46161500  0.23426000  0.95934100  1
  Ni  Ni5  1  0.53838500  0.23426000  0.45934100  1
  Cu  Cu6  1  0.73652300  0.35391500  0.24511400  1
  Cu  Cu7  1  0.26347700  0.35391500  0.74511400  1
  Cu  Cu8  1  0.75014200  0.26759700  0.60426700  1
  Cu  Cu9  1  0.24985800  0.26759700  0.10426700  1
  Cu  Cu10  1  0.67699700  0.50252200  0.81629400  1
  Cu  Cu11  1  0.32300300  0.50252200  0.31629400  1
  C  C12  1  0.95241300  0.53660100  0.96715300  1
  C  C13  1  0.04758700  0.53660100  0.46715300  1
  C  C14  1  0.53865700  0.48427000  0.81143100  1
  C  C15  1  0.46134300  0.48427000  0.31143100  1
  C  C16  1  0.86271700  0.54125600  0.80555500  1
  C  C17  1  0.13728300  0.54125600  0.30555500  1
  C  C18  1  0.94989800  0.27783600  0.61484500  1
  C  C19  1  0.05010200  0.27783600  0.11484500  1
  C  C20  1  0.61721500  0.23476300  0.61076500  1
  C  C21  1  0.38278500  0.23476300  0.11076500  1
  C  C22  1  0.69968700  0.20616200  0.37118200  1
  C  C23  1  0.30031300  0.20616200  0.87118200  1
  C  C24  1  0.21235700  0.57020500  0.56577800  1
  C  C25  1  0.78764300  0.57020500  0.06577800  1
  C  C26  1  0.90490600  0.75286800  0.37707400  1
  C  C27  1  0.09509400  0.75286800  0.87707400  1
  C  C28  1  0.40839200  0.03969000  0.54041200  1
  C  C29  1  0.59160800  0.03969000  0.04041200  1
