# generated using pymatgen
data_Cu12Ni3C40
_symmetry_space_group_name_H-M   'P 1'
_cell_length_a   11.67358300
_cell_length_b   20.74023700
_cell_length_c   12.30920900
_cell_angle_alpha   90.00000000
_cell_angle_beta   90.00000000
_cell_angle_gamma   90.00000000
_symmetry_Int_Tables_number   1
_chemical_formula_structural   Cu12Ni3C40
_chemical_formula_sum   'Cu48 Ni12 C160'
_cell_volume   2980.21801762
_cell_formula_units_Z   4
loop_
 _symmetry_equiv_pos_site_id
 _symmetry_equiv_pos_as_xyz
  1  'x, y, z'
loop_
 _atom_site_type_symbol
 _atom_site_label
 _atom_site_symmetry_multiplicity
 _atom_site_fract_x
 _atom_site_fract_y
 _atom_site_fract_z
 _atom_site_occupancy
  C  C0  1  0.71940300  0.28234300  0.79909500  1
  C  C1  1  0.78059700  0.21765700  0.79909500  1
  C  C2  1  0.28059700  0.78234300  0.70090500  1
  C  C3  1  0.21940300  0.71765700  0.70090500  1
  C  C4  1  0.28059700  0.71765700  0.20090500  1
  C  C5  1  0.21940300  0.78234300  0.20090500  1
  C  C6  1  0.71940300  0.21765700  0.29909500  1
  C  C7  1  0.78059700  0.28234300  0.29909500  1
  C  C8  1  0.45468000  0.13175800  0.38607900  1
  C  C9  1  0.04532000  0.36824200  0.38607900  1
  C  C10  1  0.54532000  0.63175800  0.11392100  1
  C  C11  1  0.95468000  0.86824200  0.11392100  1
  C  C12  1  0.54532000  0.86824200  0.61392100  1
  C  C13  1  0.95468000  0.63175800  0.61392100  1
  C  C14  1  0.45468000  0.36824200  0.88607900  1
  C  C15  1  0.04532000  0.13175800  0.88607900  1
  C  C16  1  0.45697000  0.21607900  0.39868900  1
  C  C17  1  0.04303000  0.28392100  0.39868900  1
  C  C18  1  0.54303000  0.71607900  0.10131100  1
  C  C19  1  0.95697000  0.78392100  0.10131100  1
  C  C20  1  0.54303000  0.78392100  0.60131100  1
  C  C21  1  0.95697000  0.71607900  0.60131100  1
  C  C22  1  0.45697000  0.28392100  0.89868900  1
  C  C23  1  0.04303000  0.21607900  0.89868900  1
  C  C24  1  0.64679300  0.21640800  0.62405400  1
  C  C25  1  0.85320700  0.28359200  0.62405400  1
  C  C26  1  0.35320700  0.71640800  0.87594600  1
  C  C27  1  0.14679300  0.78359200  0.87594600  1
  C  C28  1  0.35320700  0.78359200  0.37594600  1
  C  C29  1  0.14679300  0.71640800  0.37594600  1
  C  C30  1  0.64679300  0.28359200  0.12405400  1
  C  C31  1  0.85320700  0.21640800  0.12405400  1
  C  C32  1  0.58282300  0.26462600  0.52132900  1
  C  C33  1  0.91717700  0.23537400  0.52132900  1
  C  C34  1  0.41717700  0.76462600  0.97867100  1
  C  C35  1  0.08282300  0.73537400  0.97867100  1
  C  C36  1  0.41717700  0.73537400  0.47867100  1
  C  C37  1  0.08282300  0.76462600  0.47867100  1
  C  C38  1  0.58282300  0.23537400  0.02132900  1
  C  C39  1  0.91717700  0.26462600  0.02132900  1
  C  C40  1  0.85279200  0.85866500  0.48235300  1
  C  C41  1  0.64720800  0.64133500  0.48235300  1
  C  C42  1  0.14720800  0.35866500  0.01764700  1
  C  C43  1  0.35279200  0.14133500  0.01764700  1
  C  C44  1  0.14720800  0.14133500  0.51764700  1
  C  C45  1  0.35279200  0.35866500  0.51764700  1
  C  C46  1  0.85279200  0.64133500  0.98235300  1
  C  C47  1  0.64720800  0.85866500  0.98235300  1
  C  C48  1  0.81941700  0.82136000  0.35742400  1
  C  C49  1  0.68058300  0.67864000  0.35742400  1
  C  C50  1  0.18058300  0.32136000  0.14257600  1
  C  C51  1  0.31941700  0.17864000  0.14257600  1
  C  C52  1  0.18058300  0.17864000  0.64257600  1
  C  C53  1  0.31941700  0.32136000  0.64257600  1
  C  C54  1  0.81941700  0.67864000  0.85742400  1
  C  C55  1  0.68058300  0.82136000  0.85742400  1
  C  C56  1  0.57871100  0.91620200  0.29839600  1
  C  C57  1  0.92128900  0.58379800  0.29839600  1
  C  C58  1  0.42128900  0.41620200  0.20160400  1
  C  C59  1  0.07871100  0.08379800  0.20160400  1
  C  C60  1  0.42128900  0.08379800  0.70160400  1
  C  C61  1  0.07871100  0.41620200  0.70160400  1
  C  C62  1  0.57871100  0.58379800  0.79839600  1
  C  C63  1  0.92128900  0.91620200  0.79839600  1
  C  C64  1  0.66560000  0.85079000  0.25881000  1
  C  C65  1  0.83440000  0.64921000  0.25881000  1
  C  C66  1  0.33440000  0.35079000  0.24119000  1
  C  C67  1  0.16560000  0.14921000  0.24119000  1
  C  C68  1  0.33440000  0.14921000  0.74119000  1
  C  C69  1  0.16560000  0.35079000  0.74119000  1
  C  C70  1  0.66560000  0.64921000  0.75881000  1
  C  C71  1  0.83440000  0.85079000  0.75881000  1
  C  C72  1  0.27850800  0.95334300  0.62512000  1
  C  C73  1  0.22149200  0.54665700  0.62512000  1
  C  C74  1  0.72149200  0.45334300  0.87488000  1
  C  C75  1  0.77850800  0.04665700  0.87488000  1
  C  C76  1  0.72149200  0.04665700  0.37488000  1
  C  C77  1  0.77850800  0.45334300  0.37488000  1
  C  C78  1  0.27850800  0.54665700  0.12512000  1
  C  C79  1  0.22149200  0.95334300  0.12512000  1
  C  C80  1  0.21995200  0.91841900  0.74086100  1
  C  C81  1  0.28004800  0.58158100  0.74086100  1
  C  C82  1  0.78004800  0.41841900  0.75913900  1
  C  C83  1  0.71995200  0.08158100  0.75913900  1
  C  C84  1  0.78004800  0.08158100  0.25913900  1
  C  C85  1  0.71995200  0.41841900  0.25913900  1
  C  C86  1  0.21995200  0.58158100  0.24086100  1
  C  C87  1  0.28004800  0.91841900  0.24086100  1
  C  C88  1  0.47846900  0.92473800  0.89330200  1
  C  C89  1  0.02153100  0.57526200  0.89330200  1
  C  C90  1  0.52153100  0.42473800  0.60669800  1
  C  C91  1  0.97846900  0.07526200  0.60669800  1
  C  C92  1  0.52153100  0.07526200  0.10669800  1
  C  C93  1  0.97846900  0.42473800  0.10669800  1
  C  C94  1  0.47846900  0.57526200  0.39330200  1
  C  C95  1  0.02153100  0.92473800  0.39330200  1
  C  C96  1  0.33511600  0.90590600  0.90005900  1
  C  C97  1  0.16488400  0.59409400  0.90005900  1
  C  C98  1  0.66488400  0.40590600  0.59994100  1
  C  C99  1  0.83511600  0.09409400  0.59994100  1
  C  C100  1  0.66488400  0.09409400  0.09994100  1
  C  C101  1  0.83511600  0.40590600  0.09994100  1
  C  C102  1  0.33511600  0.59409400  0.40005900  1
  C  C103  1  0.16488400  0.90590600  0.40005900  1
  C  C104  1  0.50000000  0.00000000  0.50000000  1
  C  C105  1  0.00000000  0.50000000  0.50000000  1
  C  C106  1  0.50000000  0.50000000  0.00000000  1
  C  C107  1  0.00000000  0.00000000  0.00000000  1
  C  C108  1  0.55804100  0.16674600  0.50675900  1
  C  C109  1  0.94195900  0.33325400  0.50675900  1
  C  C110  1  0.44195900  0.66674600  0.99324100  1
  C  C111  1  0.05804100  0.83325400  0.99324100  1
  C  C112  1  0.44195900  0.83325400  0.49324100  1
  C  C113  1  0.05804100  0.66674600  0.49324100  1
  C  C114  1  0.55804100  0.33325400  0.00675900  1
  C  C115  1  0.94195900  0.16674600  0.00675900  1
  C  C116  1  0.71368100  0.89551400  0.39916600  1
  C  C117  1  0.78631900  0.60448600  0.39916600  1
  C  C118  1  0.28631900  0.39551400  0.10083400  1
  C  C119  1  0.21368100  0.10448600  0.10083400  1
  C  C120  1  0.28631900  0.10448600  0.60083400  1
  C  C121  1  0.21368100  0.39551400  0.60083400  1
  C  C122  1  0.71368100  0.60448600  0.89916600  1
  C  C123  1  0.78631900  0.89551400  0.89916600  1
  C  C124  1  0.39057500  0.94263700  0.75199500  1
  C  C125  1  0.10942500  0.55736300  0.75199500  1
  C  C126  1  0.60942500  0.44263700  0.74800500  1
  C  C127  1  0.89057500  0.05736300  0.74800500  1
  C  C128  1  0.60942500  0.05736300  0.24800500  1
  C  C129  1  0.89057500  0.44263700  0.24800500  1
  C  C130  1  0.39057500  0.55736300  0.25199500  1
  C  C131  1  0.10942500  0.94263700  0.25199500  1
  C  C132  1  0.60317300  0.09276100  0.55779500  1
  C  C133  1  0.89682700  0.40723900  0.55779500  1
  C  C134  1  0.39682700  0.59276100  0.94220500  1
  C  C135  1  0.10317300  0.90723900  0.94220500  1
  C  C136  1  0.39682700  0.90723900  0.44220500  1
  C  C137  1  0.10317300  0.59276100  0.44220500  1
  C  C138  1  0.60317300  0.40723900  0.05779500  1
  C  C139  1  0.89682700  0.09276100  0.05779500  1
  C  C140  1  0.68615100  0.95149900  0.50135800  1
  C  C141  1  0.81384900  0.54850100  0.50135800  1
  C  C142  1  0.31384900  0.45149900  0.99864200  1
  C  C143  1  0.18615100  0.04850100  0.99864200  1
  C  C144  1  0.31384900  0.04850100  0.49864200  1
  C  C145  1  0.18615100  0.45149900  0.49864200  1
  C  C146  1  0.68615100  0.54850100  0.00135800  1
  C  C147  1  0.81384900  0.95149900  0.00135800  1
  C  C148  1  0.51226600  0.97399300  0.69215000  1
  C  C149  1  0.98773400  0.52600700  0.69215000  1
  C  C150  1  0.48773400  0.47399300  0.80785000  1
  C  C151  1  0.01226600  0.02600700  0.80785000  1
  C  C152  1  0.48773400  0.02600700  0.30785000  1
  C  C153  1  0.01226600  0.47399300  0.30785000  1
  C  C154  1  0.51226600  0.52600700  0.19215000  1
  C  C155  1  0.98773400  0.97399300  0.19215000  1
  Ni  Ni156  1  0.25000000  0.25000000  0.29722100  1
  Ni  Ni157  1  0.75000000  0.75000000  0.20277900  1
  Ni  Ni158  1  0.75000000  0.75000000  0.70277900  1
  Ni  Ni159  1  0.25000000  0.25000000  0.79722100  1
  Ni  Ni160  1  0.54788000  0.34959900  0.40810700  1
  Ni  Ni161  1  0.95212000  0.15040100  0.40810700  1
  Ni  Ni162  1  0.45212000  0.84959900  0.09189300  1
  Ni  Ni163  1  0.04788000  0.65040100  0.09189300  1
  Ni  Ni164  1  0.45212000  0.65040100  0.59189300  1
  Ni  Ni165  1  0.04788000  0.84959900  0.59189300  1
  Ni  Ni166  1  0.54788000  0.15040100  0.90810700  1
  Ni  Ni167  1  0.95212000  0.34959900  0.90810700  1
  Cu  Cu168  1  0.48797600  0.17197600  0.42208400  1
  Cu  Cu169  1  0.01202400  0.32802400  0.42208400  1
  Cu  Cu170  1  0.51202400  0.67197600  0.07791600  1
  Cu  Cu171  1  0.98797600  0.82802400  0.07791600  1
  Cu  Cu172  1  0.51202400  0.82802400  0.57791600  1
  Cu  Cu173  1  0.98797600  0.67197600  0.57791600  1
  Cu  Cu174  1  0.48797600  0.32802400  0.92208400  1
  Cu  Cu175  1  0.01202400  0.17197600  0.92208400  1
  Cu  Cu176  1  0.59818400  0.21954900  0.55538700  1
  Cu  Cu177  1  0.90181600  0.28045100  0.55538700  1
  Cu  Cu178  1  0.40181600  0.71954900  0.94461300  1
  Cu  Cu179  1  0.09818400  0.78045100  0.94461300  1
  Cu  Cu180  1  0.40181600  0.78045100  0.44461300  1
  Cu  Cu181  1  0.09818400  0.71954900  0.44461300  1
  Cu  Cu182  1  0.59818400  0.28045100  0.05538700  1
  Cu  Cu183  1  0.90181600  0.21954900  0.05538700  1
  Cu  Cu184  1  0.80690700  0.85843100  0.41151100  1
  Cu  Cu185  1  0.69309300  0.64156900  0.41151100  1
  Cu  Cu186  1  0.19309300  0.35843100  0.08848900  1
  Cu  Cu187  1  0.30690700  0.14156900  0.08848900  1
  Cu  Cu188  1  0.19309300  0.14156900  0.58848900  1
  Cu  Cu189  1  0.30690700  0.35843100  0.58848900  1
  Cu  Cu190  1  0.80690700  0.64156900  0.91151100  1
  Cu  Cu191  1  0.69309300  0.85843100  0.91151100  1
  Cu  Cu192  1  0.64903700  0.88810700  0.31172300  1
  Cu  Cu193  1  0.85096300  0.61189300  0.31172300  1
  Cu  Cu194  1  0.35096300  0.38810700  0.18827700  1
  Cu  Cu195  1  0.14903700  0.11189300  0.18827700  1
  Cu  Cu196  1  0.35096300  0.11189300  0.68827700  1
  Cu  Cu197  1  0.14903700  0.38810700  0.68827700  1
  Cu  Cu198  1  0.64903700  0.61189300  0.81172300  1
  Cu  Cu199  1  0.85096300  0.88810700  0.81172300  1
  Cu  Cu200  1  0.28971600  0.93726600  0.70260700  1
  Cu  Cu201  1  0.21028400  0.56273400  0.70260700  1
  Cu  Cu202  1  0.71028400  0.43726600  0.79739300  1
  Cu  Cu203  1  0.78971600  0.06273400  0.79739300  1
  Cu  Cu204  1  0.71028400  0.06273400  0.29739300  1
  Cu  Cu205  1  0.78971600  0.43726600  0.29739300  1
  Cu  Cu206  1  0.28971600  0.56273400  0.20260700  1
  Cu  Cu207  1  0.21028400  0.93726600  0.20260700  1
  Cu  Cu208  1  0.40195800  0.92203800  0.85453100  1
  Cu  Cu209  1  0.09804200  0.57796200  0.85453100  1
  Cu  Cu210  1  0.59804200  0.42203800  0.64546900  1
  Cu  Cu211  1  0.90195800  0.07796200  0.64546900  1
  Cu  Cu212  1  0.59804200  0.07796200  0.14546900  1
  Cu  Cu213  1  0.90195800  0.42203800  0.14546900  1
  Cu  Cu214  1  0.40195800  0.57796200  0.35453100  1
  Cu  Cu215  1  0.09804200  0.92203800  0.35453100  1
  C  C216  1  0.75000000  0.25000000  0.74940300  1
  C  C217  1  0.25000000  0.75000000  0.75059700  1
  C  C218  1  0.25000000  0.75000000  0.25059700  1
  C  C219  1  0.75000000  0.25000000  0.24940300  1
