# generated using pymatgen
data_Cu5Ni3C28
_symmetry_space_group_name_H-M   'P 1'
_cell_length_a   11.40444608
_cell_length_b   11.70033874
_cell_length_c   17.12190290
_cell_angle_alpha   110.15017520
_cell_angle_beta   109.05116582
_cell_angle_gamma   89.93220608
_symmetry_Int_Tables_number   1
_chemical_formula_structural   Cu5Ni3C28
_chemical_formula_sum   'Cu20 Ni12 C112'
_cell_volume   2011.36104922
_cell_formula_units_Z   4
loop_
 _symmetry_equiv_pos_site_id
 _symmetry_equiv_pos_as_xyz
  1  'x, y, z'
loop_
 _atom_site_type_symbol
 _atom_site_label
 _atom_site_symmetry_multiplicity
 _atom_site_fract_x
 _atom_site_fract_y
 _atom_site_fract_z
 _atom_site_occupancy
  Ni  Ni0  1  0.30358200  0.06525700  0.10853600  1
  Ni  Ni1  1  0.30366700  0.56170600  0.10872900  1
  Ni  Ni2  1  0.80237700  0.06479900  0.10918000  1
  Ni  Ni3  1  0.80188300  0.56353700  0.10823600  1
  Ni  Ni4  1  0.19940900  0.93577200  0.39676100  1
  Ni  Ni5  1  0.18724700  0.92229100  0.87531300  1
  Ni  Ni6  1  0.68773000  0.42291800  0.87494100  1
  Ni  Ni7  1  0.05398200  0.29580300  0.10849800  1
  Ni  Ni8  1  0.05157200  0.79278600  0.10692900  1
  Ni  Ni9  1  0.55303800  0.29488500  0.10885900  1
  Ni  Ni10  1  0.55434500  0.79450100  0.10831800  1
  Ni  Ni11  1  0.93697000  0.70104800  0.87513700  1
  Cu  Cu12  1  0.30931500  0.07211800  0.61164500  1
  Cu  Cu13  1  0.30959000  0.57066800  0.61047900  1
  Cu  Cu14  1  0.80908300  0.07010100  0.60978700  1
  Cu  Cu15  1  0.80814400  0.56997400  0.60803200  1
  Cu  Cu16  1  0.19967800  0.43707500  0.40537300  1
  Cu  Cu17  1  0.19847000  0.42815500  0.88687200  1
  Cu  Cu18  1  0.69894100  0.43672400  0.40478700  1
  Cu  Cu19  1  0.69912400  0.93646200  0.40471800  1
  Cu  Cu20  1  0.69863400  0.92916800  0.88727900  1
  Cu  Cu21  1  0.05847500  0.28881500  0.60912200  1
  Cu  Cu22  1  0.05919700  0.78866900  0.60839200  1
  Cu  Cu23  1  0.55890600  0.28854500  0.60826100  1
  Cu  Cu24  1  0.55897700  0.78871800  0.60942500  1
  Cu  Cu25  1  0.44930000  0.21838800  0.40547800  1
  Cu  Cu26  1  0.44785900  0.20833800  0.88746600  1
  Cu  Cu27  1  0.44833900  0.71841200  0.40480600  1
  Cu  Cu28  1  0.44947000  0.70879000  0.88753500  1
  Cu  Cu29  1  0.94937400  0.21865300  0.40549400  1
  Cu  Cu30  1  0.94866800  0.20852100  0.88778400  1
  Cu  Cu31  1  0.94885300  0.71736300  0.40497200  1
  C  C32  1  0.10081100  0.08671900  0.74470800  1
  C  C33  1  0.10526300  0.57771200  0.74283800  1
  C  C34  1  0.60174000  0.08083300  0.74611300  1
  C  C35  1  0.59965100  0.58626600  0.74432800  1
  C  C36  1  0.35219900  0.41195600  0.74788600  1
  C  C37  1  0.35431500  0.91275200  0.74468700  1
  C  C38  1  0.85361000  0.40715500  0.74107600  1
  C  C39  1  0.84942000  0.91601500  0.74595200  1
  C  C40  1  0.00075700  0.99721400  0.99234600  1
  C  C41  1  0.01121900  0.00243800  0.50609400  1
  C  C42  1  0.99985600  0.49444000  0.99017700  1
  C  C43  1  0.01268200  0.50170200  0.50450600  1
  C  C44  1  0.49959900  0.99448700  0.98918600  1
  C  C45  1  0.51297400  0.00245200  0.50583700  1
  C  C46  1  0.49970900  0.49466700  0.99061000  1
  C  C47  1  0.51210200  0.50198900  0.50454500  1
  C  C48  1  0.25035900  0.24542900  0.98992200  1
  C  C49  1  0.26311200  0.25528900  0.50711500  1
  C  C50  1  0.25082300  0.74343700  0.99028300  1
  C  C51  1  0.26302800  0.75187100  0.50560800  1
  C  C52  1  0.75063400  0.24396600  0.99063700  1
  C  C53  1  0.76188800  0.25169500  0.50340000  1
  C  C54  1  0.74986000  0.74654200  0.99157100  1
  C  C55  1  0.76215600  0.75316600  0.50488500  1
  C  C56  1  0.09664200  0.10414400  0.25753100  1
  C  C57  1  0.09618700  0.59210400  0.25662900  1
  C  C58  1  0.59904700  0.10125100  0.25806500  1
  C  C59  1  0.59769000  0.59892800  0.25882100  1
  C  C60  1  0.34875200  0.40950700  0.25916800  1
  C  C61  1  0.35242900  0.90951100  0.25411200  1
  C  C62  1  0.84711700  0.40913600  0.25886400  1
  C  C63  1  0.84578900  0.91097000  0.25956300  1
  C  C64  1  0.12749400  0.12689300  0.49424100  1
  C  C65  1  0.11876200  0.11798900  0.98023700  1
  C  C66  1  0.12806500  0.61944500  0.48826000  1
  C  C67  1  0.12125200  0.61133600  0.97876200  1
  C  C68  1  0.62709000  0.11973600  0.48694400  1
  C  C69  1  0.61848200  0.11102400  0.97508600  1
  C  C70  1  0.62777000  0.62051000  0.48753500  1
  C  C71  1  0.61730800  0.61693000  0.97987100  1
  C  C72  1  0.12819700  0.37372900  0.99754700  1
  C  C73  1  0.14706100  0.38859600  0.52343300  1
  C  C74  1  0.13052000  0.87526300  0.00327300  1
  C  C75  1  0.14527700  0.88541400  0.52456000  1
  C  C76  1  0.62821200  0.37254900  0.00132600  1
  C  C77  1  0.64601900  0.38648700  0.52186800  1
  C  C78  1  0.62806000  0.87428800  0.99806500  1
  C  C79  1  0.64595600  0.88684300  0.52213100  1
  C  C80  1  0.38185400  0.12321500  0.49311400  1
  C  C81  1  0.37087100  0.11583800  0.97775200  1
  C  C82  1  0.37844800  0.61714300  0.48906000  1
  C  C83  1  0.36786900  0.61164300  0.97437900  1
  C  C84  1  0.87555900  0.11589100  0.48525500  1
  C  C85  1  0.86895100  0.11392700  0.97720200  1
  C  C86  1  0.87786100  0.61803100  0.48812000  1
  C  C87  1  0.86985500  0.61575100  0.98269100  1
  C  C88  1  0.37812200  0.37560200  0.99869500  1
  C  C89  1  0.39639000  0.38752700  0.52347400  1
  C  C90  1  0.38041600  0.87357500  0.99977100  1
  C  C91  1  0.39778900  0.88612800  0.52461900  1
  C  C92  1  0.88085500  0.37359400  0.00046600  1
  C  C93  1  0.89620000  0.38521500  0.52187100  1
  C  C94  1  0.87746300  0.87900700  0.00152400  1
  C  C95  1  0.89558300  0.88701000  0.52340700  1
  C  C96  1  0.07284800  0.08998100  0.13724500  1
  C  C97  1  0.07704200  0.11131900  0.64409200  1
  C  C98  1  0.07552800  0.58495600  0.13907000  1
  C  C99  1  0.08697300  0.60694200  0.64407500  1
  C  C100  1  0.57618300  0.08552800  0.13785400  1
  C  C101  1  0.58416800  0.10607400  0.64580500  1
  C  C102  1  0.57421900  0.58558000  0.13899900  1
  C  C103  1  0.57786800  0.61061700  0.64379600  1
  C  C104  1  0.45921300  0.38894200  0.36432100  1
  C  C105  1  0.43168100  0.39403100  0.85040600  1
  C  C106  1  0.45267600  0.89232300  0.36422500  1
  C  C107  1  0.42912600  0.89649000  0.84848600  1
  C  C108  1  0.95861300  0.38867300  0.36372600  1
  C  C109  1  0.92872100  0.40017700  0.84826500  1
  C  C110  1  0.95146900  0.88946600  0.36549900  1
  C  C111  1  0.93085500  0.90711700  0.85068100  1
  C  C112  1  0.32634000  0.30512900  0.13861000  1
  C  C113  1  0.33421800  0.29008000  0.64617400  1
  C  C114  1  0.33159300  0.79738000  0.13716800  1
  C  C115  1  0.33610100  0.78731800  0.64467500  1
  C  C116  1  0.82555400  0.30290500  0.13914600  1
  C  C117  1  0.83187100  0.28027600  0.64157200  1
  C  C118  1  0.82437600  0.80493100  0.13976000  1
  C  C119  1  0.83171300  0.79001600  0.64525500  1
  C  C120  1  0.20736900  0.22400600  0.36600000  1
  C  C121  1  0.18309600  0.20200800  0.84966400  1
  C  C122  1  0.21193800  0.70903600  0.36456400  1
  C  C123  1  0.18050100  0.69114400  0.84908300  1
  C  C124  1  0.71002300  0.22586500  0.36366100  1
  C  C125  1  0.68590500  0.19377500  0.85037500  1
  C  C126  1  0.70834500  0.72461000  0.36463100  1
  C  C127  1  0.67996200  0.70160400  0.85018200  1
  C  C128  1  0.43989800  0.07044600  0.27011900  1
  C  C129  1  0.43849400  0.05246000  0.74660400  1
  C  C130  1  0.43771200  0.56740400  0.27013100  1
  C  C131  1  0.43897700  0.54929600  0.74756600  1
  C  C132  1  0.93973700  0.06658300  0.27022200  1
  C  C133  1  0.93817700  0.05218500  0.74610000  1
  C  C134  1  0.93569700  0.56643300  0.26877700  1
  C  C135  1  0.94014300  0.53574200  0.73268500  1
  C  C136  1  0.18741200  0.44719300  0.26975200  1
  C  C137  1  0.18766100  0.43930100  0.74493300  1
  C  C138  1  0.18950400  0.95644600  0.25351500  1
  C  C139  1  0.18926800  0.94957100  0.73504100  1
  C  C140  1  0.68690100  0.45223100  0.27011000  1
  C  C141  1  0.69135000  0.45101700  0.73454700  1
  C  C142  1  0.68513900  0.95312000  0.26929400  1
  C  C143  1  0.68461500  0.94144300  0.74479600  1
