# generated using pymatgen
data_Cu6Ni3C5
_symmetry_space_group_name_H-M   'P 1'
_cell_length_a   9.42780000
_cell_length_b   9.42780000
_cell_length_c   9.42780000
_cell_angle_alpha   90.00000000
_cell_angle_beta   90.00000000
_cell_angle_gamma   90.00000000
_symmetry_Int_Tables_number   1
_chemical_formula_structural   Cu6Ni3C5
_chemical_formula_sum   'Cu24 Ni12 C20'
_cell_volume   837.97503957
_cell_formula_units_Z   4
loop_
 _symmetry_equiv_pos_site_id
 _symmetry_equiv_pos_as_xyz
  1  'x, y, z'
loop_
 _atom_site_type_symbol
 _atom_site_label
 _atom_site_symmetry_multiplicity
 _atom_site_fract_x
 _atom_site_fract_y
 _atom_site_fract_z
 _atom_site_occupancy
  C  C0  1  0.81414000  0.68586000  0.31414000  1
  C  C1  1  0.68586000  0.31414000  0.81414000  1
  C  C2  1  0.18586000  0.18586000  0.18586000  1
  C  C3  1  0.31414000  0.81414000  0.68586000  1
  C  C4  1  0.13636300  0.86363700  0.36363700  1
  C  C5  1  0.63636300  0.63636300  0.63636300  1
  C  C6  1  0.36363700  0.13636300  0.86363700  1
  C  C7  1  0.86363700  0.36363700  0.13636300  1
  C  C8  1  0.24282700  0.53178600  0.29540400  1
  C  C9  1  0.70459600  0.74282700  0.96821400  1
  C  C10  1  0.03178600  0.20459600  0.75717300  1
  C  C11  1  0.74282700  0.96821400  0.70459600  1
  C  C12  1  0.20459600  0.75717300  0.03178600  1
  C  C13  1  0.53178600  0.29540400  0.24282700  1
  C  C14  1  0.75717300  0.03178600  0.20459600  1
  C  C15  1  0.29540400  0.24282700  0.53178600  1
  C  C16  1  0.96821400  0.70459600  0.74282700  1
  C  C17  1  0.25717300  0.46821400  0.79540400  1
  C  C18  1  0.79540400  0.25717300  0.46821400  1
  C  C19  1  0.46821400  0.79540400  0.25717300  1
  Ni  Ni20  1  0.12982300  0.53681700  0.26256500  1
  Ni  Ni21  1  0.73743500  0.62982200  0.96318300  1
  Ni  Ni22  1  0.03681700  0.23743500  0.87017800  1
  Ni  Ni23  1  0.62982200  0.96318300  0.73743500  1
  Ni  Ni24  1  0.23743500  0.87017800  0.03681700  1
  Ni  Ni25  1  0.53681700  0.26256500  0.12982300  1
  Ni  Ni26  1  0.87017800  0.03681700  0.23743500  1
  Ni  Ni27  1  0.26256500  0.12982300  0.53681700  1
  Ni  Ni28  1  0.96318300  0.73743500  0.62982200  1
  Ni  Ni29  1  0.37017700  0.46318300  0.76256500  1
  Ni  Ni30  1  0.76256500  0.37017700  0.46318300  1
  Ni  Ni31  1  0.46318300  0.76256500  0.37017700  1
  Cu  Cu32  1  0.07901100  0.42521100  0.20763500  1
  Cu  Cu33  1  0.79236500  0.57901100  0.07478900  1
  Cu  Cu34  1  0.92521100  0.29236500  0.92098900  1
  Cu  Cu35  1  0.57901100  0.07478900  0.79236500  1
  Cu  Cu36  1  0.29236500  0.92098900  0.92521100  1
  Cu  Cu37  1  0.42521100  0.20763500  0.07901100  1
  Cu  Cu38  1  0.92098900  0.92521100  0.29236500  1
  Cu  Cu39  1  0.20763500  0.07901100  0.42521100  1
  Cu  Cu40  1  0.07478900  0.79236500  0.57901100  1
  Cu  Cu41  1  0.42098900  0.57478900  0.70763500  1
  Cu  Cu42  1  0.70763500  0.42098900  0.57478900  1
  Cu  Cu43  1  0.57478900  0.70763500  0.42098900  1
  Cu  Cu44  1  0.06478700  0.65273600  0.28356300  1
  Cu  Cu45  1  0.71643700  0.56478700  0.84726400  1
  Cu  Cu46  1  0.15273600  0.21643700  0.93521300  1
  Cu  Cu47  1  0.56478700  0.84726400  0.71643700  1
  Cu  Cu48  1  0.21643700  0.93521300  0.15273600  1
  Cu  Cu49  1  0.65273600  0.28356300  0.06478700  1
  Cu  Cu50  1  0.93521300  0.15273600  0.21643700  1
  Cu  Cu51  1  0.28356300  0.06478700  0.65273600  1
  Cu  Cu52  1  0.84726400  0.71643700  0.56478700  1
  Cu  Cu53  1  0.43521300  0.34726400  0.78356300  1
  Cu  Cu54  1  0.78356300  0.43521300  0.34726400  1
  Cu  Cu55  1  0.34726400  0.78356300  0.43521300  1
