# generated using pymatgen
data_Cu3(NiC7)2
_symmetry_space_group_name_H-M   'P 1'
_cell_length_a   8.22077253
_cell_length_b   8.22077253
_cell_length_c   8.84205900
_cell_angle_alpha   90.00000000
_cell_angle_beta   90.00000000
_cell_angle_gamma   120.00000425
_symmetry_Int_Tables_number   1
_chemical_formula_structural   Cu3(NiC7)2
_chemical_formula_sum   'Cu6 Ni4 C28'
_cell_volume   517.49872497
_cell_formula_units_Z   2
loop_
 _symmetry_equiv_pos_site_id
 _symmetry_equiv_pos_as_xyz
  1  'x, y, z'
loop_
 _atom_site_type_symbol
 _atom_site_label
 _atom_site_symmetry_multiplicity
 _atom_site_fract_x
 _atom_site_fract_y
 _atom_site_fract_z
 _atom_site_occupancy
  Ni  Ni0  1  0.33333300  0.66666700  0.50281100  1
  Ni  Ni1  1  0.66666700  0.33333300  0.49718900  1
  Ni  Ni2  1  0.33333300  0.66666700  0.86770200  1
  Ni  Ni3  1  0.66666700  0.33333300  0.13229800  1
  Cu  Cu4  1  0.28336100  0.00000000  0.50000000  1
  Cu  Cu5  1  0.71663900  0.71663900  0.50000000  1
  Cu  Cu6  1  0.00000000  0.28336100  0.50000000  1
  Cu  Cu7  1  0.28570400  0.28570400  0.00000000  1
  Cu  Cu8  1  0.00000000  0.71429600  0.00000000  1
  Cu  Cu9  1  0.71429600  0.00000000  0.00000000  1
  C  C10  1  0.00000000  0.00000000  0.75193100  1
  C  C11  1  0.00000000  0.00000000  0.24806900  1
  C  C12  1  0.32835300  0.84811300  0.43143100  1
  C  C13  1  0.51976000  0.67164700  0.43143100  1
  C  C14  1  0.15188700  0.48024000  0.43143100  1
  C  C15  1  0.33094300  0.48005700  0.93020900  1
  C  C16  1  0.14911400  0.66905700  0.93020900  1
  C  C17  1  0.51994300  0.85088600  0.93020900  1
  C  C18  1  0.66905700  0.14911400  0.06979100  1
  C  C19  1  0.48005700  0.33094300  0.06979100  1
  C  C20  1  0.85088600  0.51994300  0.06979100  1
  C  C21  1  0.67164700  0.51976000  0.56856900  1
  C  C22  1  0.84811300  0.32835300  0.56856900  1
  C  C23  1  0.48024000  0.15188700  0.56856900  1
  C  C24  1  0.14244000  0.90165100  0.62587100  1
  C  C25  1  0.75921100  0.85756000  0.62587100  1
  C  C26  1  0.09834900  0.24078900  0.62587100  1
  C  C27  1  0.14221300  0.24229600  0.12435600  1
  C  C28  1  0.10008300  0.85778700  0.12435600  1
  C  C29  1  0.75770400  0.89991700  0.12435600  1
  C  C30  1  0.85778700  0.10008300  0.87564400  1
  C  C31  1  0.24229600  0.14221300  0.87564400  1
  C  C32  1  0.89991700  0.75770400  0.87564400  1
  C  C33  1  0.85756000  0.75921100  0.37412900  1
  C  C34  1  0.90165100  0.14244000  0.37412900  1
  C  C35  1  0.24078900  0.09834900  0.37412900  1
  C  C36  1  0.33333300  0.66666700  0.68494100  1
  C  C37  1  0.66666700  0.33333300  0.31505900  1
