# generated using pymatgen
data_Cu14Ni5C3
_symmetry_space_group_name_H-M   'P 1'
_cell_length_a   7.95623500
_cell_length_b   7.95623500
_cell_length_c   11.23250700
_cell_angle_alpha   90.00000000
_cell_angle_beta   90.00000000
_cell_angle_gamma   90.00000000
_symmetry_Int_Tables_number   1
_chemical_formula_structural   Cu14Ni5C3
_chemical_formula_sum   'Cu28 Ni10 C6'
_cell_volume   711.03651176
_cell_formula_units_Z   2
loop_
 _symmetry_equiv_pos_site_id
 _symmetry_equiv_pos_as_xyz
  1  'x, y, z'
loop_
 _atom_site_type_symbol
 _atom_site_label
 _atom_site_symmetry_multiplicity
 _atom_site_fract_x
 _atom_site_fract_y
 _atom_site_fract_z
 _atom_site_occupancy
  C  C0  1  0.00000000  0.00000000  0.00000000  1
  C  C1  1  0.50000000  0.50000000  0.50000000  1
  C  C2  1  0.00000000  0.50000000  0.00000000  1
  C  C3  1  0.50000000  0.00000000  0.00000000  1
  C  C4  1  0.50000000  0.00000000  0.50000000  1
  C  C5  1  0.00000000  0.50000000  0.50000000  1
  Ni  Ni6  1  0.00000000  0.00000000  0.50000000  1
  Ni  Ni7  1  0.50000000  0.50000000  0.00000000  1
  Ni  Ni8  1  0.32601400  0.82601400  0.25000000  1
  Ni  Ni9  1  0.67398600  0.17398600  0.75000000  1
  Ni  Ni10  1  0.67398600  0.17398600  0.25000000  1
  Ni  Ni11  1  0.17398600  0.32601400  0.25000000  1
  Ni  Ni12  1  0.32601400  0.82601400  0.75000000  1
  Ni  Ni13  1  0.82601400  0.67398600  0.75000000  1
  Ni  Ni14  1  0.82601400  0.67398600  0.25000000  1
  Ni  Ni15  1  0.17398600  0.32601400  0.75000000  1
  Cu  Cu16  1  0.25858100  0.06128800  0.00000000  1
  Cu  Cu17  1  0.74141900  0.93871200  0.00000000  1
  Cu  Cu18  1  0.93871200  0.25858100  0.00000000  1
  Cu  Cu19  1  0.24141900  0.56128800  0.50000000  1
  Cu  Cu20  1  0.06128800  0.74141900  0.00000000  1
  Cu  Cu21  1  0.75858100  0.43871200  0.50000000  1
  Cu  Cu22  1  0.56128800  0.75858100  0.50000000  1
  Cu  Cu23  1  0.43871200  0.24141900  0.50000000  1
  Cu  Cu24  1  0.00000000  0.00000000  0.17205000  1
  Cu  Cu25  1  0.00000000  0.00000000  0.82795000  1
  Cu  Cu26  1  0.50000000  0.50000000  0.32795000  1
  Cu  Cu27  1  0.50000000  0.50000000  0.67205000  1
  Cu  Cu28  1  0.04931700  0.31572200  0.37116600  1
  Cu  Cu29  1  0.95068300  0.68427800  0.62883400  1
  Cu  Cu30  1  0.95068300  0.68427800  0.37116600  1
  Cu  Cu31  1  0.68427800  0.04931700  0.37116600  1
  Cu  Cu32  1  0.45068300  0.81572200  0.12883400  1
  Cu  Cu33  1  0.04931700  0.31572200  0.62883400  1
  Cu  Cu34  1  0.31572200  0.95068300  0.62883400  1
  Cu  Cu35  1  0.54931700  0.18427800  0.87116600  1
  Cu  Cu36  1  0.31572200  0.95068300  0.37116600  1
  Cu  Cu37  1  0.54931700  0.18427800  0.12883400  1
  Cu  Cu38  1  0.68427800  0.04931700  0.62883400  1
  Cu  Cu39  1  0.45068300  0.81572200  0.87116600  1
  Cu  Cu40  1  0.81572200  0.54931700  0.12883400  1
  Cu  Cu41  1  0.18427800  0.45068300  0.87116600  1
  Cu  Cu42  1  0.18427800  0.45068300  0.12883400  1
  Cu  Cu43  1  0.81572200  0.54931700  0.87116600  1
