# generated using pymatgen
data_CuNiC8
_symmetry_space_group_name_H-M   'P 1'
_cell_length_a   7.98600274
_cell_length_b   9.75921184
_cell_length_c   7.98822598
_cell_angle_alpha   114.05001289
_cell_angle_beta   89.70940140
_cell_angle_gamma   114.03176311
_symmetry_Int_Tables_number   1
_chemical_formula_structural   CuNiC8
_chemical_formula_sum   'Cu4 Ni4 C32'
_cell_volume   509.49913648
_cell_formula_units_Z   4
loop_
 _symmetry_equiv_pos_site_id
 _symmetry_equiv_pos_as_xyz
  1  'x, y, z'
loop_
 _atom_site_type_symbol
 _atom_site_label
 _atom_site_symmetry_multiplicity
 _atom_site_fract_x
 _atom_site_fract_y
 _atom_site_fract_z
 _atom_site_occupancy
  C  C0  1  0.73939100  0.49291200  0.73943100  1
  C  C1  1  0.23942500  0.49292500  0.23944700  1
  C  C2  1  0.48941100  0.99294800  0.98942400  1
  C  C3  1  0.98942300  0.99295000  0.48944100  1
  Ni  Ni4  1  0.61547400  0.74369000  0.11549100  1
  Ni  Ni5  1  0.11548900  0.74369400  0.61547900  1
  Ni  Ni6  1  0.36542200  0.24366700  0.36550800  1
  Ni  Ni7  1  0.86542300  0.24366700  0.86549900  1
  Cu  Cu8  1  0.85235500  0.23495100  0.35244700  1
  Cu  Cu9  1  0.10232100  0.73484800  0.10226900  1
  Cu  Cu10  1  0.35237900  0.23497200  0.85245000  1
  Cu  Cu11  1  0.60242100  0.73490100  0.60235000  1
  C  C12  1  0.27754000  0.51849700  0.77749100  1
  C  C13  1  0.77753400  0.51849500  0.27749100  1
  C  C14  1  0.02746500  0.01849800  0.02760800  1
  C  C15  1  0.52744700  0.01849500  0.52760100  1
  C  C16  1  0.81184000  0.24021600  0.60086900  1
  C  C17  1  0.31187900  0.24025500  0.10090000  1
  C  C18  1  0.56183300  0.74028100  0.85086600  1
  C  C19  1  0.06183000  0.74027900  0.35086500  1
  C  C20  1  0.48075100  0.48052800  0.93223500  1
  C  C21  1  0.98075100  0.48053000  0.43223300  1
  C  C22  1  0.23077000  0.98051100  0.18217400  1
  C  C23  1  0.73077500  0.98051500  0.68218100  1
  C  C24  1  0.82652800  0.69177000  0.58631800  1
  C  C25  1  0.32652200  0.69176500  0.08631400  1
  C  C26  1  0.57654600  0.19179000  0.83634500  1
  C  C27  1  0.07654600  0.19178800  0.33634200  1
  C  C28  1  0.93673000  0.47448000  0.99294500  1
  C  C29  1  0.43675100  0.47449000  0.49295700  1
  C  C30  1  0.68681500  0.97443600  0.24293000  1
  C  C31  1  0.18686100  0.97445100  0.74294100  1
  C  C32  1  0.85236300  0.75614200  0.07737200  1
  C  C33  1  0.35236900  0.75614200  0.57737800  1
  C  C34  1  0.60236900  0.25606000  0.32738100  1
  C  C35  1  0.10237200  0.25606200  0.82738300  1
  C  C36  1  0.10584800  0.69940200  0.82427900  1
  C  C37  1  0.60589300  0.69941500  0.32433000  1
  C  C38  1  0.85583300  0.19948600  0.07429000  1
  C  C39  1  0.35590300  0.19950400  0.57434700  1
