# generated using pymatgen
data_Cu3NiC9
_symmetry_space_group_name_H-M   'P 1'
_cell_length_a   5.79390337
_cell_length_b   5.79390337
_cell_length_c   13.28456692
_cell_angle_alpha   86.05903113
_cell_angle_beta   86.05903113
_cell_angle_gamma   54.34890032
_symmetry_Int_Tables_number   1
_chemical_formula_structural   Cu3NiC9
_chemical_formula_sum   'Cu6 Ni2 C18'
_cell_volume   361.29069138
_cell_formula_units_Z   2
loop_
 _symmetry_equiv_pos_site_id
 _symmetry_equiv_pos_as_xyz
  1  'x, y, z'
loop_
 _atom_site_type_symbol
 _atom_site_label
 _atom_site_symmetry_multiplicity
 _atom_site_fract_x
 _atom_site_fract_y
 _atom_site_fract_z
 _atom_site_occupancy
  Ni  Ni0  1  0.71780300  0.70553400  0.42969700  1
  Ni  Ni1  1  0.70553400  0.71780300  0.92969700  1
  Cu  Cu2  1  0.63876400  0.61919400  0.66585400  1
  Cu  Cu3  1  0.30794700  0.30332000  0.31422300  1
  Cu  Cu4  1  0.96567300  0.99389900  0.99593200  1
  Cu  Cu5  1  0.30332000  0.30794700  0.81422300  1
  Cu  Cu6  1  0.99389900  0.96567300  0.49593200  1
  Cu  Cu7  1  0.61919400  0.63876400  0.16585400  1
  C  C8  1  0.64135300  0.27824300  0.73281800  1
  C  C9  1  0.32530600  0.94208000  0.40258700  1
  C  C10  1  0.89558700  0.66584600  0.05480000  1
  C  C11  1  0.50534000  0.84656000  0.80685900  1
  C  C12  1  0.11632300  0.54322600  0.44849200  1
  C  C13  1  0.83103900  0.20143200  0.13229400  1
  C  C14  1  0.02037300  0.72896400  0.86967200  1
  C  C15  1  0.72791800  0.41944400  0.51384400  1
  C  C16  1  0.38585800  0.08047200  0.18405400  1
  C  C17  1  0.94208000  0.32530600  0.90258700  1
  C  C18  1  0.66584600  0.89558700  0.55480000  1
  C  C19  1  0.27824300  0.64135300  0.23281800  1
  C  C20  1  0.08047200  0.38585800  0.68405400  1
  C  C21  1  0.72896400  0.02037300  0.36967200  1
  C  C22  1  0.41944400  0.72791800  0.01384400  1
  C  C23  1  0.20143200  0.83103900  0.63229400  1
  C  C24  1  0.84656000  0.50534000  0.30685900  1
  C  C25  1  0.54322600  0.11632300  0.94849200  1
