# generated using pymatgen
data_CuNiC6
_symmetry_space_group_name_H-M   'P 1'
_cell_length_a   7.88880200
_cell_length_b   7.88880200
_cell_length_c   7.88880200
_cell_angle_alpha   90.00000000
_cell_angle_beta   90.00000000
_cell_angle_gamma   90.00000000
_symmetry_Int_Tables_number   1
_chemical_formula_structural   CuNiC6
_chemical_formula_sum   'Cu4 Ni4 C24'
_cell_volume   490.94536892
_cell_formula_units_Z   4
loop_
 _symmetry_equiv_pos_site_id
 _symmetry_equiv_pos_as_xyz
  1  'x, y, z'
loop_
 _atom_site_type_symbol
 _atom_site_label
 _atom_site_symmetry_multiplicity
 _atom_site_fract_x
 _atom_site_fract_y
 _atom_site_fract_z
 _atom_site_occupancy
  Ni  Ni0  1  0.75000000  0.25000000  0.25000000  1
  Ni  Ni1  1  0.25000000  0.25000000  0.75000000  1
  Ni  Ni2  1  0.25000000  0.75000000  0.25000000  1
  Ni  Ni3  1  0.75000000  0.75000000  0.75000000  1
  Cu  Cu4  1  0.25000000  0.75000000  0.75000000  1
  Cu  Cu5  1  0.75000000  0.75000000  0.25000000  1
  Cu  Cu6  1  0.75000000  0.25000000  0.75000000  1
  Cu  Cu7  1  0.25000000  0.25000000  0.25000000  1
  C  C8  1  0.50682300  0.41265000  0.16323400  1
  C  C9  1  0.49317700  0.41265000  0.83676600  1
  C  C10  1  0.49317700  0.58735000  0.16323400  1
  C  C11  1  0.50682300  0.58735000  0.83676600  1
  C  C12  1  0.16323400  0.50682300  0.41265000  1
  C  C13  1  0.83676600  0.49317700  0.41265000  1
  C  C14  1  0.16323400  0.49317700  0.58735000  1
  C  C15  1  0.83676600  0.50682300  0.58735000  1
  C  C16  1  0.41265000  0.16323400  0.50682300  1
  C  C17  1  0.41265000  0.83676600  0.49317700  1
  C  C18  1  0.58735000  0.16323400  0.49317700  1
  C  C19  1  0.58735000  0.83676600  0.50682300  1
  C  C20  1  0.99317700  0.08735000  0.33676600  1
  C  C21  1  0.00682300  0.08735000  0.66323400  1
  C  C22  1  0.00682300  0.91265000  0.33676600  1
  C  C23  1  0.99317700  0.91265000  0.66323400  1
  C  C24  1  0.33676600  0.99317700  0.08735000  1
  C  C25  1  0.66323400  0.00682300  0.08735000  1
  C  C26  1  0.33676600  0.00682300  0.91265000  1
  C  C27  1  0.66323400  0.99317700  0.91265000  1
  C  C28  1  0.08735000  0.33676600  0.99317700  1
  C  C29  1  0.08735000  0.66323400  0.00682300  1
  C  C30  1  0.91265000  0.33676600  0.00682300  1
  C  C31  1  0.91265000  0.66323400  0.99317700  1
