# generated using pymatgen
data_Cu3NiC13
_symmetry_space_group_name_H-M   'P 1'
_cell_length_a   8.53310300
_cell_length_b   8.71991900
_cell_length_c   12.98386100
_cell_angle_alpha   90.00000000
_cell_angle_beta   90.00000000
_cell_angle_gamma   90.00000000
_symmetry_Int_Tables_number   1
_chemical_formula_structural   Cu3NiC13
_chemical_formula_sum   'Cu12 Ni4 C52'
_cell_volume   966.10270054
_cell_formula_units_Z   4
loop_
 _symmetry_equiv_pos_site_id
 _symmetry_equiv_pos_as_xyz
  1  'x, y, z'
loop_
 _atom_site_type_symbol
 _atom_site_label
 _atom_site_symmetry_multiplicity
 _atom_site_fract_x
 _atom_site_fract_y
 _atom_site_fract_z
 _atom_site_occupancy
  C  C0  1  0.35774100  0.65266800  0.75000000  1
  C  C1  1  0.14225900  0.15266800  0.75000000  1
  C  C2  1  0.64225900  0.34733200  0.25000000  1
  C  C3  1  0.85774100  0.84733200  0.25000000  1
  C  C4  1  0.50000000  0.00000000  0.50000000  1
  C  C5  1  0.00000000  0.50000000  0.00000000  1
  C  C6  1  0.50000000  0.00000000  0.00000000  1
  C  C7  1  0.00000000  0.50000000  0.50000000  1
  Ni  Ni8  1  0.67232000  0.31703400  0.75000000  1
  Ni  Ni9  1  0.82768000  0.81703400  0.75000000  1
  Ni  Ni10  1  0.32768000  0.68296600  0.25000000  1
  Ni  Ni11  1  0.17232000  0.18296600  0.25000000  1
  Cu  Cu12  1  0.56462300  0.01624300  0.75000000  1
  Cu  Cu13  1  0.93537700  0.51624300  0.75000000  1
  Cu  Cu14  1  0.43537700  0.98375700  0.25000000  1
  Cu  Cu15  1  0.06462300  0.48375700  0.25000000  1
  Cu  Cu16  1  0.38249100  0.62653900  0.45707900  1
  Cu  Cu17  1  0.11750900  0.12653900  0.04292100  1
  Cu  Cu18  1  0.61750900  0.37346100  0.95707900  1
  Cu  Cu19  1  0.88249100  0.87346100  0.54292100  1
  Cu  Cu20  1  0.61750900  0.37346100  0.54292100  1
  Cu  Cu21  1  0.88249100  0.87346100  0.95707900  1
  Cu  Cu22  1  0.38249100  0.62653900  0.04292100  1
  Cu  Cu23  1  0.11750900  0.12653900  0.45707900  1
  C  C24  1  0.66392100  0.86618800  0.75000000  1
  C  C25  1  0.83607900  0.36618800  0.75000000  1
  C  C26  1  0.33607900  0.13381200  0.25000000  1
  C  C27  1  0.16392100  0.63381200  0.25000000  1
  C  C28  1  0.68625100  0.14946900  0.75000000  1
  C  C29  1  0.81374900  0.64946900  0.75000000  1
  C  C30  1  0.31374900  0.85053100  0.25000000  1
  C  C31  1  0.18625100  0.35053100  0.25000000  1
  C  C32  1  0.50000000  0.50000000  0.50000000  1
  C  C33  1  0.00000000  0.00000000  0.00000000  1
  C  C34  1  0.50000000  0.50000000  0.00000000  1
  C  C35  1  0.00000000  0.00000000  0.50000000  1
  C  C36  1  0.41971000  0.62468000  0.33892900  1
  C  C37  1  0.08029000  0.12468000  0.16107100  1
  C  C38  1  0.58029000  0.37532000  0.83892900  1
  C  C39  1  0.91971000  0.87532000  0.66107100  1
  C  C40  1  0.58029000  0.37532000  0.66107100  1
  C  C41  1  0.91971000  0.87532000  0.83892900  1
  C  C42  1  0.41971000  0.62468000  0.16107100  1
  C  C43  1  0.08029000  0.12468000  0.33892900  1
  C  C44  1  0.45997300  0.01820800  0.65428100  1
  C  C45  1  0.04002700  0.51820800  0.84571900  1
  C  C46  1  0.54002700  0.98179200  0.15428100  1
  C  C47  1  0.95997300  0.48179200  0.34571900  1
  C  C48  1  0.54002700  0.98179200  0.34571900  1
  C  C49  1  0.95997300  0.48179200  0.15428100  1
  C  C50  1  0.45997300  0.01820800  0.84571900  1
  C  C51  1  0.04002700  0.51820800  0.65428100  1
  C  C52  1  0.42537100  0.77640300  0.50852200  1
  C  C53  1  0.07462900  0.27640300  0.99147800  1
  C  C54  1  0.57462900  0.22359700  0.00852200  1
  C  C55  1  0.92537100  0.72359700  0.49147800  1
  C  C56  1  0.57462900  0.22359700  0.49147800  1
  C  C57  1  0.92537100  0.72359700  0.00852200  1
  C  C58  1  0.42537100  0.77640300  0.99147800  1
  C  C59  1  0.07462900  0.27640300  0.50852200  1
  C  C60  1  0.21925300  0.56996400  0.47957800  1
  C  C61  1  0.28074700  0.06996400  0.02042200  1
  C  C62  1  0.78074700  0.43003600  0.97957800  1
  C  C63  1  0.71925300  0.93003600  0.52042200  1
  C  C64  1  0.78074700  0.43003600  0.52042200  1
  C  C65  1  0.71925300  0.93003600  0.97957800  1
  C  C66  1  0.21925300  0.56996400  0.02042200  1
  C  C67  1  0.28074700  0.06996400  0.47957800  1
