# generated using pymatgen
data_Cu7Ni5C7
_symmetry_space_group_name_H-M   'P 1'
_cell_length_a   8.57099207
_cell_length_b   5.74153479
_cell_length_c   5.87571707
_cell_angle_alpha   73.53528981
_cell_angle_beta   67.86022300
_cell_angle_gamma   73.22585350
_symmetry_Int_Tables_number   1
_chemical_formula_structural   Cu7Ni5C7
_chemical_formula_sum   'Cu7 Ni5 C7'
_cell_volume   251.40973732
_cell_formula_units_Z   1
loop_
 _symmetry_equiv_pos_site_id
 _symmetry_equiv_pos_as_xyz
  1  'x, y, z'
loop_
 _atom_site_type_symbol
 _atom_site_label
 _atom_site_symmetry_multiplicity
 _atom_site_fract_x
 _atom_site_fract_y
 _atom_site_fract_z
 _atom_site_occupancy
  C  C0  1  0.45708671  0.71517193  0.74966924  1
  C  C1  1  0.83904506  0.68836275  0.65334691  1
  C  C2  1  0.70380279  0.33018755  0.33919045  1
  C  C3  1  0.20586819  0.66463417  0.52531424  1
  C  C4  1  0.14301195  0.24418856  0.32098795  1
  C  C5  1  0.53637431  0.02169817  0.08642780  1
  C  C6  1  0.98429603  0.01667328  0.99866150  1
  Ni  Ni7  1  0.70949553  0.53466698  0.53199529  1
  Ni  Ni8  1  0.94820674  0.21094939  0.23628490  1
  Ni  Ni9  1  0.73515138  0.10744870  0.11604807  1
  Ni  Ni10  1  0.00659767  0.84141884  0.73543334  1
  Ni  Ni11  1  0.33047330  0.92157951  0.40644857  1
  Cu  Cu12  1  0.62185292  0.01688671  0.68084501  1
  Cu  Cu13  1  0.36131503  0.36723314  0.02074179  1
  Cu  Cu14  1  0.23316722  0.97174424  0.95061166  1
  Cu  Cu15  1  0.42731498  0.42158371  0.46045412  1
  Cu  Cu16  1  0.64101237  0.64375410  0.02666452  1
  Cu  Cu17  1  0.07796330  0.36528571  0.67355792  1
  Cu  Cu18  1  0.05648353  0.66653356  0.28939873  1
