# generated using pymatgen
data_CuNiC8
_symmetry_space_group_name_H-M   'P 1'
_cell_length_a   5.60882619
_cell_length_b   5.61136096
_cell_length_c   7.92742914
_cell_angle_alpha   90.38646322
_cell_angle_beta   90.31960238
_cell_angle_gamma   90.60450338
_symmetry_Int_Tables_number   1
_chemical_formula_structural   CuNiC8
_chemical_formula_sum   'Cu2 Ni2 C16'
_cell_volume   249.47760989
_cell_formula_units_Z   2
loop_
 _symmetry_equiv_pos_site_id
 _symmetry_equiv_pos_as_xyz
  1  'x, y, z'
loop_
 _atom_site_type_symbol
 _atom_site_label
 _atom_site_symmetry_multiplicity
 _atom_site_fract_x
 _atom_site_fract_y
 _atom_site_fract_z
 _atom_site_occupancy
  Ni  Ni0  1  0.50487801  0.51915276  0.24937517  1
  Ni  Ni1  1  0.49512199  0.48084724  0.75062483  1
  Cu  Cu2  1  0.99646647  0.02306001  0.25062550  1
  Cu  Cu3  1  0.00353353  0.97693999  0.74937450  1
  C  C4  1  0.50000000  -0.00000000  -0.00000000  1
  C  C5  1  -0.00000000  0.50000000  0.50000000  1
  C  C6  1  -0.00000000  0.50000000  -0.00000000  1
  C  C7  1  0.50000000  -0.00000000  0.50000000  1
  C  C8  1  0.24040506  0.19110284  0.96576425  1
  C  C9  1  0.24804528  0.69981299  0.53016182  1
  C  C10  1  0.75959494  0.80889716  0.03423575  1
  C  C11  1  0.75195472  0.30018701  0.46983818  1
  C  C12  1  0.30249731  0.75060233  0.96858178  1
  C  C13  1  0.18941243  0.23746277  0.53244435  1
  C  C14  1  0.69750269  0.24939767  0.03141822  1
  C  C15  1  0.81058757  0.76253723  0.46755565  1
  C  C16  1  0.42963951  0.99526688  0.22402572  1
  C  C17  1  0.05411895  0.48554170  0.27554506  1
  C  C18  1  0.57036049  0.00473312  0.77597428  1
  C  C19  1  0.94588105  0.51445830  0.72445494  1
