# generated using pymatgen
data_Cu14NiC17
_symmetry_space_group_name_H-M   'P 1'
_cell_length_a   8.68342203
_cell_length_b   8.63009150
_cell_length_c   4.31104872
_cell_angle_alpha   90.00000000
_cell_angle_beta   90.00000000
_cell_angle_gamma   90.00000000
_symmetry_Int_Tables_number   1
_chemical_formula_structural   Cu14NiC17
_chemical_formula_sum   'Cu14 Ni1 C17'
_cell_volume   323.06450161
_cell_formula_units_Z   1
loop_
 _symmetry_equiv_pos_site_id
 _symmetry_equiv_pos_as_xyz
  1  'x, y, z'
loop_
 _atom_site_type_symbol
 _atom_site_label
 _atom_site_symmetry_multiplicity
 _atom_site_fract_x
 _atom_site_fract_y
 _atom_site_fract_z
 _atom_site_occupancy
  Ni  Ni0  1  0.00000000  0.50000000  0.00000000  1
  Cu  Cu1  1  0.50000000  0.00000000  0.00000000  1
  Cu  Cu2  1  0.50000000  0.50000000  0.00000000  1
  Cu  Cu3  1  0.00000000  0.24290523  0.50000000  1
  Cu  Cu4  1  0.00000000  0.75709477  0.50000000  1
  Cu  Cu5  1  0.50000000  0.24878348  0.50000000  1
  Cu  Cu6  1  0.50000000  0.75121652  0.50000000  1
  Cu  Cu7  1  0.25232698  0.00000000  0.50000000  1
  Cu  Cu8  1  0.25661498  0.50000000  0.50000000  1
  Cu  Cu9  1  0.74767302  -0.00000000  0.50000000  1
  Cu  Cu10  1  0.74338502  0.50000000  0.50000000  1
  Cu  Cu11  1  0.25589139  0.24470525  -0.00000000  1
  Cu  Cu12  1  0.25589139  0.75529475  -0.00000000  1
  Cu  Cu13  1  0.74410861  0.24470525  0.00000000  1
  Cu  Cu14  1  0.74410861  0.75529475  0.00000000  1
  C  C15  1  0.00000000  0.00000000  0.00000000  1
  C  C16  1  0.25976541  0.00000000  0.00000000  1
  C  C17  1  0.25599544  0.50000000  0.00000000  1
  C  C18  1  0.74023459  0.00000000  0.00000000  1
  C  C19  1  0.74400456  0.50000000  -0.00000000  1
  C  C20  1  0.24878500  0.25047792  0.50000000  1
  C  C21  1  0.24878500  0.74952208  0.50000000  1
  C  C22  1  0.75121500  0.25047792  0.50000000  1
  C  C23  1  0.75121500  0.74952208  0.50000000  1
  C  C24  1  0.00000000  0.00000000  0.50000000  1
  C  C25  1  0.00000000  0.50000000  0.50000000  1
  C  C26  1  0.50000000  0.00000000  0.50000000  1
  C  C27  1  0.50000000  0.50000000  0.50000000  1
  C  C28  1  0.00000000  0.25404136  -0.00000000  1
  C  C29  1  0.00000000  0.74595864  0.00000000  1
  C  C30  1  0.50000000  0.25128110  0.00000000  1
  C  C31  1  0.50000000  0.74871890  -0.00000000  1
