# generated using pymatgen
data_Cu3NiC5
_symmetry_space_group_name_H-M   'P 1'
_cell_length_a   8.44937100
_cell_length_b   9.98771978
_cell_length_c   9.59682219
_cell_angle_alpha   116.44644210
_cell_angle_beta   90.00000000
_cell_angle_gamma   90.00000000
_symmetry_Int_Tables_number   1
_chemical_formula_structural   Cu3NiC5
_chemical_formula_sum   'Cu24 Ni8 C40'
_cell_volume   725.12274617
_cell_formula_units_Z   8
loop_
 _symmetry_equiv_pos_site_id
 _symmetry_equiv_pos_as_xyz
  1  'x, y, z'
loop_
 _atom_site_type_symbol
 _atom_site_label
 _atom_site_symmetry_multiplicity
 _atom_site_fract_x
 _atom_site_fract_y
 _atom_site_fract_z
 _atom_site_occupancy
  C  C0  1  0.61637200  0.75428900  0.99359200  1
  C  C1  1  0.11637200  0.24571100  0.50640800  1
  C  C2  1  0.38362800  0.24571100  0.00640800  1
  C  C3  1  0.88362800  0.75428900  0.49359200  1
  Ni  Ni4  1  0.93249300  0.58097800  0.73156300  1
  Ni  Ni5  1  0.43249300  0.41902200  0.76843700  1
  Ni  Ni6  1  0.06750700  0.41902200  0.26843700  1
  Ni  Ni7  1  0.56750700  0.58097800  0.23156300  1
  Ni  Ni8  1  0.81643400  0.98659600  0.32715800  1
  Ni  Ni9  1  0.31643400  0.01340400  0.17284200  1
  Ni  Ni10  1  0.18356600  0.01340400  0.67284200  1
  Ni  Ni11  1  0.68356600  0.98659600  0.82715800  1
  Cu  Cu12  1  0.67350400  0.99096600  0.51955900  1
  Cu  Cu13  1  0.17350400  0.00903400  0.98044100  1
  Cu  Cu14  1  0.32649600  0.00903400  0.48044100  1
  Cu  Cu15  1  0.82649600  0.99096600  0.01955900  1
  Cu  Cu16  1  0.10225600  0.76545900  0.82005400  1
  Cu  Cu17  1  0.60225600  0.23454100  0.67994600  1
  Cu  Cu18  1  0.89774400  0.23454100  0.17994600  1
  Cu  Cu19  1  0.39774400  0.76545900  0.32005400  1
  Cu  Cu20  1  0.97153100  0.33683100  0.97976100  1
  Cu  Cu21  1  0.47153100  0.66316900  0.52023900  1
  Cu  Cu22  1  0.02846900  0.66316900  0.02023900  1
  Cu  Cu23  1  0.52846900  0.33683100  0.47976100  1
  Cu  Cu24  1  0.81281500  0.44759600  0.98973600  1
  Cu  Cu25  1  0.31281500  0.55240400  0.51026400  1
  Cu  Cu26  1  0.18718500  0.55240400  0.01026400  1
  Cu  Cu27  1  0.68718500  0.44759600  0.48973600  1
  Cu  Cu28  1  0.90367300  0.34759900  0.81831100  1
  Cu  Cu29  1  0.40367300  0.65240100  0.68168900  1
  Cu  Cu30  1  0.09632700  0.65240100  0.18168900  1
  Cu  Cu31  1  0.59632700  0.34759900  0.31831100  1
  Cu  Cu32  1  0.79169000  0.26340300  0.90580700  1
  Cu  Cu33  1  0.29169000  0.73659700  0.59419300  1
  Cu  Cu34  1  0.20831000  0.73659700  0.09419300  1
  Cu  Cu35  1  0.70831000  0.26340300  0.40580700  1
  C  C36  1  0.87116000  0.34799000  0.92344200  1
  C  C37  1  0.37116000  0.65201000  0.57655800  1
  C  C38  1  0.12884000  0.65201000  0.07655800  1
  C  C39  1  0.62884000  0.34799000  0.42344200  1
  C  C40  1  0.90161700  0.13759700  0.37698100  1
  C  C41  1  0.40161700  0.86240300  0.12301900  1
  C  C42  1  0.09838300  0.86240300  0.62301900  1
  C  C43  1  0.59838300  0.13759700  0.87698100  1
  C  C44  1  0.91235000  0.86678900  0.34828800  1
  C  C45  1  0.41235000  0.13321100  0.15171200  1
  C  C46  1  0.08765000  0.13321100  0.65171200  1
  C  C47  1  0.58765000  0.86678900  0.84828800  1
  C  C48  1  0.10598000  0.65648700  0.76825000  1
  C  C49  1  0.60598000  0.34351300  0.73175000  1
  C  C50  1  0.89402000  0.34351300  0.23175000  1
  C  C51  1  0.39402000  0.65648700  0.26825000  1
  C  C52  1  0.84352600  0.64713800  0.88769200  1
  C  C53  1  0.34352600  0.35286200  0.61230800  1
  C  C54  1  0.15647400  0.35286200  0.11230800  1
  C  C55  1  0.65647400  0.64713800  0.38769200  1
  C  C56  1  0.96615400  0.41416100  0.67821800  1
  C  C57  1  0.46615400  0.58583900  0.82178200  1
  C  C58  1  0.03384600  0.58583900  0.32178200  1
  C  C59  1  0.53384600  0.41416100  0.17821800  1
  C  C60  1  0.84917300  0.61090400  0.60633500  1
  C  C61  1  0.34917300  0.38909600  0.89366500  1
  C  C62  1  0.15082700  0.38909600  0.39366500  1
  C  C63  1  0.65082700  0.61090400  0.10633500  1
  C  C64  1  0.76057500  0.93631200  0.15739800  1
  C  C65  1  0.26057500  0.06368800  0.34260200  1
  C  C66  1  0.23942500  0.06368800  0.84260200  1
  C  C67  1  0.73942500  0.93631200  0.65739800  1
  C  C68  1  0.65858500  0.01914400  0.43219700  1
  C  C69  1  0.15858500  0.98085600  0.06780300  1
  C  C70  1  0.34141500  0.98085600  0.56780300  1
  C  C71  1  0.84141500  0.01914400  0.93219700  1
