# generated using pymatgen
data_Cu2NiC6
_symmetry_space_group_name_H-M   'P 1'
_cell_length_a   3.03186700
_cell_length_b   9.31168400
_cell_length_c   12.24052600
_cell_angle_alpha   90.00000000
_cell_angle_beta   90.00000000
_cell_angle_gamma   90.00000000
_symmetry_Int_Tables_number   1
_chemical_formula_structural   Cu2NiC6
_chemical_formula_sum   'Cu8 Ni4 C24'
_cell_volume   345.57192811
_cell_formula_units_Z   4
loop_
 _symmetry_equiv_pos_site_id
 _symmetry_equiv_pos_as_xyz
  1  'x, y, z'
loop_
 _atom_site_type_symbol
 _atom_site_label
 _atom_site_symmetry_multiplicity
 _atom_site_fract_x
 _atom_site_fract_y
 _atom_site_fract_z
 _atom_site_occupancy
  Ni  Ni0  1  0.00000000  0.24098100  0.38682800  1
  Ni  Ni1  1  0.00000000  0.75901900  0.61317200  1
  Ni  Ni2  1  0.00000000  0.25901900  0.88682800  1
  Ni  Ni3  1  0.00000000  0.74098100  0.11317200  1
  Cu  Cu4  1  0.50000000  0.00000000  0.50000000  1
  Cu  Cu5  1  0.50000000  0.50000000  0.00000000  1
  Cu  Cu6  1  0.50000000  0.00084000  0.21802600  1
  Cu  Cu7  1  0.50000000  0.99916000  0.78197400  1
  Cu  Cu8  1  0.50000000  0.49916000  0.71802600  1
  Cu  Cu9  1  0.50000000  0.50084000  0.28197400  1
  Cu  Cu10  1  0.00000000  0.00000000  0.00000000  1
  Cu  Cu11  1  0.00000000  0.50000000  0.50000000  1
  C  C12  1  0.00000000  0.27265000  0.13984300  1
  C  C13  1  0.00000000  0.72735000  0.86015700  1
  C  C14  1  0.00000000  0.22735000  0.63984300  1
  C  C15  1  0.00000000  0.77265000  0.36015700  1
  C  C16  1  0.50000000  0.10844400  0.35686900  1
  C  C17  1  0.50000000  0.89155600  0.64313100  1
  C  C18  1  0.50000000  0.39155600  0.85686900  1
  C  C19  1  0.50000000  0.60844400  0.14313100  1
  C  C20  1  0.00000000  0.12465800  0.14126300  1
  C  C21  1  0.00000000  0.87534200  0.85873700  1
  C  C22  1  0.00000000  0.37534200  0.64126300  1
  C  C23  1  0.00000000  0.62465800  0.35873700  1
  C  C24  1  0.50000000  0.38240100  0.42297400  1
  C  C25  1  0.50000000  0.61759900  0.57702600  1
  C  C26  1  0.50000000  0.11759900  0.92297400  1
  C  C27  1  0.50000000  0.88240100  0.07702600  1
  C  C28  1  0.00000000  0.34772600  0.23799200  1
  C  C29  1  0.00000000  0.65227400  0.76200800  1
  C  C30  1  0.00000000  0.15227400  0.73799200  1
  C  C31  1  0.00000000  0.84772600  0.26200800  1
  C  C32  1  0.00000000  0.34874700  0.04155200  1
  C  C33  1  0.00000000  0.65125300  0.95844800  1
  C  C34  1  0.00000000  0.15125300  0.54155200  1
  C  C35  1  0.00000000  0.84874700  0.45844800  1
