# generated using pymatgen
data_CuNiC6
_symmetry_space_group_name_H-M   'P 1'
_cell_length_a   6.53089650
_cell_length_b   6.37334325
_cell_length_c   11.90404000
_cell_angle_alpha   90.00000000
_cell_angle_beta   90.00000000
_cell_angle_gamma   113.85204701
_symmetry_Int_Tables_number   1
_chemical_formula_structural   CuNiC6
_chemical_formula_sum   'Cu4 Ni4 C24'
_cell_volume   453.17111970
_cell_formula_units_Z   4
loop_
 _symmetry_equiv_pos_site_id
 _symmetry_equiv_pos_as_xyz
  1  'x, y, z'
loop_
 _atom_site_type_symbol
 _atom_site_label
 _atom_site_symmetry_multiplicity
 _atom_site_fract_x
 _atom_site_fract_y
 _atom_site_fract_z
 _atom_site_occupancy
  Ni  Ni0  1  0.94706500  0.96325500  0.34976100  1
  Ni  Ni1  1  0.05293500  0.03674500  0.65023900  1
  Ni  Ni2  1  0.05293500  0.53674500  0.84976100  1
  Ni  Ni3  1  0.94706500  0.46325500  0.15023900  1
  Cu  Cu4  1  0.55791000  0.96207600  0.74588300  1
  Cu  Cu5  1  0.44209000  0.03792400  0.25411700  1
  Cu  Cu6  1  0.44209000  0.53792400  0.24588300  1
  Cu  Cu7  1  0.55791000  0.46207600  0.75411700  1
  C  C8  1  0.68186800  0.81980700  0.99796200  1
  C  C9  1  0.31813200  0.18019300  0.00203800  1
  C  C10  1  0.31813200  0.68019300  0.49796200  1
  C  C11  1  0.68186800  0.31980700  0.50203800  1
  C  C12  1  0.71987000  0.77709500  0.80543800  1
  C  C13  1  0.28013000  0.22290500  0.19456200  1
  C  C14  1  0.28013000  0.72290500  0.30543800  1
  C  C15  1  0.71987000  0.27709500  0.69456200  1
  C  C16  1  0.66558100  0.95336500  0.53163900  1
  C  C17  1  0.33441900  0.04663500  0.46836100  1
  C  C18  1  0.33441900  0.54663500  0.03163900  1
  C  C19  1  0.66558100  0.45336500  0.96836100  1
  C  C20  1  0.95577800  0.67272400  0.50665700  1
  C  C21  1  0.04422200  0.32727600  0.49334300  1
  C  C22  1  0.04422200  0.82727600  0.00665700  1
  C  C23  1  0.95577800  0.17272400  0.99334300  1
  C  C24  1  0.46419000  0.96626900  0.89566400  1
  C  C25  1  0.53581000  0.03373100  0.10433600  1
  C  C26  1  0.53581000  0.53373100  0.39566400  1
  C  C27  1  0.46419000  0.46626900  0.60433600  1
  C  C28  1  0.28717700  0.77840100  0.67419900  1
  C  C29  1  0.71282300  0.22159900  0.32580100  1
  C  C30  1  0.71282300  0.72159900  0.17419900  1
  C  C31  1  0.28717700  0.27840100  0.82580100  1
