# generated using pymatgen
data_Cu2NiC7
_symmetry_space_group_name_H-M   'P 1'
_cell_length_a   12.02533400
_cell_length_b   5.69440000
_cell_length_c   9.03287812
_cell_angle_alpha   89.33679646
_cell_angle_beta   90.00000000
_cell_angle_gamma   90.00000000
_symmetry_Int_Tables_number   1
_chemical_formula_structural   Cu2NiC7
_chemical_formula_sum   'Cu8 Ni4 C28'
_cell_volume   618.50351759
_cell_formula_units_Z   4
loop_
 _symmetry_equiv_pos_site_id
 _symmetry_equiv_pos_as_xyz
  1  'x, y, z'
loop_
 _atom_site_type_symbol
 _atom_site_label
 _atom_site_symmetry_multiplicity
 _atom_site_fract_x
 _atom_site_fract_y
 _atom_site_fract_z
 _atom_site_occupancy
  Ni  Ni0  1  0.63208900  0.30297300  0.31230000  1
  Ni  Ni1  1  0.13208900  0.69702700  0.18770000  1
  Ni  Ni2  1  0.36791100  0.69702700  0.68770000  1
  Ni  Ni3  1  0.86791100  0.30297300  0.81230000  1
  Cu  Cu4  1  0.94708800  0.23282100  0.35090000  1
  Cu  Cu5  1  0.44708800  0.76717900  0.14910000  1
  Cu  Cu6  1  0.05291200  0.76717900  0.64910000  1
  Cu  Cu7  1  0.55291200  0.23282100  0.85090000  1
  Cu  Cu8  1  0.79510400  0.78902300  0.04478600  1
  Cu  Cu9  1  0.29510400  0.21097700  0.45521400  1
  Cu  Cu10  1  0.20489600  0.21097700  0.95521400  1
  Cu  Cu11  1  0.70489600  0.78902300  0.54478600  1
  C  C12  1  0.77669300  0.00697200  0.77416700  1
  C  C13  1  0.27669300  0.99302800  0.72583300  1
  C  C14  1  0.22330700  0.99302800  0.22583300  1
  C  C15  1  0.72330700  0.00697200  0.27416700  1
  C  C16  1  0.77074600  0.50431600  0.30945400  1
  C  C17  1  0.27074600  0.49568400  0.19054600  1
  C  C18  1  0.22925400  0.49568400  0.69054600  1
  C  C19  1  0.72925400  0.50431600  0.80945400  1
  C  C20  1  0.33563500  0.79156600  0.47703300  1
  C  C21  1  0.83563500  0.20843400  0.02296700  1
  C  C22  1  0.66436500  0.20843400  0.52296700  1
  C  C23  1  0.16436500  0.79156600  0.97703300  1
  C  C24  1  0.39396900  0.10468600  0.99399900  1
  C  C25  1  0.89396900  0.89531400  0.50600100  1
  C  C26  1  0.60603100  0.89531400  0.00600100  1
  C  C27  1  0.10603100  0.10468600  0.49399900  1
  C  C28  1  0.48900200  0.11584300  0.31442900  1
  C  C29  1  0.98900200  0.88415700  0.18557100  1
  C  C30  1  0.51099800  0.88415700  0.68557100  1
  C  C31  1  0.01099800  0.11584300  0.81442900  1
  C  C32  1  0.44713400  0.40294700  0.63163300  1
  C  C33  1  0.94713400  0.59705300  0.86836700  1
  C  C34  1  0.55286600  0.59705300  0.36836700  1
  C  C35  1  0.05286600  0.40294700  0.13163300  1
  C  C36  1  0.40182500  0.58522000  0.89671600  1
  C  C37  1  0.90182500  0.41478000  0.60328400  1
  C  C38  1  0.59817500  0.41478000  0.10328400  1
  C  C39  1  0.09817500  0.58522000  0.39671600  1
