# generated using pymatgen
data_Cu2Ni3C10
_symmetry_space_group_name_H-M   'P 1'
_cell_length_a   10.75011940
_cell_length_b   10.75011940
_cell_length_c   10.75011940
_cell_angle_alpha   146.46845423
_cell_angle_beta   131.65245049
_cell_angle_gamma   60.11952420
_symmetry_Int_Tables_number   1
_chemical_formula_structural   Cu2Ni3C10
_chemical_formula_sum   'Cu4 Ni6 C20'
_cell_volume   508.05855978
_cell_formula_units_Z   2
loop_
 _symmetry_equiv_pos_site_id
 _symmetry_equiv_pos_as_xyz
  1  'x, y, z'
loop_
 _atom_site_type_symbol
 _atom_site_label
 _atom_site_symmetry_multiplicity
 _atom_site_fract_x
 _atom_site_fract_y
 _atom_site_fract_z
 _atom_site_occupancy
  Ni  Ni0  1  0.57904900  0.83952000  0.73952900  1
  Ni  Ni1  1  0.26537000  0.50000000  0.76537000  1
  Ni  Ni2  1  0.90000900  0.16048000  0.73952900  1
  Ni  Ni3  1  0.09999100  0.83952000  0.26047100  1
  Ni  Ni4  1  0.73463000  0.50000000  0.23463000  1
  Ni  Ni5  1  0.42095100  0.16048000  0.26047100  1
  Cu  Cu6  1  0.32638600  0.32638600  0.00000000  1
  Cu  Cu7  1  0.00000000  0.00000000  0.00000000  1
  Cu  Cu8  1  0.67361400  0.67361400  0.00000000  1
  Cu  Cu9  1  0.50000000  0.00000000  0.50000000  1
  C  C10  1  0.16508400  0.66508400  0.50000000  1
  C  C11  1  0.83491600  0.33491600  0.50000000  1
  C  C12  1  0.60565400  0.33068100  0.27497300  1
  C  C13  1  0.24713700  0.00000000  0.24713700  1
  C  C14  1  0.94429300  0.66931900  0.27497300  1
  C  C15  1  0.90952700  0.63467200  0.72514500  1
  C  C16  1  0.59026600  0.34088900  0.75062400  1
  C  C17  1  0.23877300  0.96421300  0.72544000  1
  C  C18  1  0.76122700  0.48666700  0.72544000  1
  C  C19  1  0.40973400  0.16035800  0.75062400  1
  C  C20  1  0.09047300  0.81561800  0.72514500  1
  C  C21  1  0.05570700  0.33068100  0.72502700  1
  C  C22  1  0.75286300  0.00000000  0.75286300  1
  C  C23  1  0.39434600  0.66931900  0.72502700  1
  C  C24  1  0.76122700  0.03578700  0.27456000  1
  C  C25  1  0.40973400  0.65911100  0.24937600  1
  C  C26  1  0.09047300  0.36532800  0.27485500  1
  C  C27  1  0.90952700  0.18438200  0.27485500  1
  C  C28  1  0.59026600  0.83964200  0.24937600  1
  C  C29  1  0.23877300  0.51333300  0.27456000  1
