# generated using pymatgen
data_Cu2NiC6
_symmetry_space_group_name_H-M   'P 1'
_cell_length_a   4.68105426
_cell_length_b   4.68105426
_cell_length_c   6.48705400
_cell_angle_alpha   90.00000000
_cell_angle_beta   90.00000000
_cell_angle_gamma   119.56276906
_symmetry_Int_Tables_number   1
_chemical_formula_structural   Cu2NiC6
_chemical_formula_sum   'Cu2 Ni1 C6'
_cell_volume   123.64088695
_cell_formula_units_Z   1
loop_
 _symmetry_equiv_pos_site_id
 _symmetry_equiv_pos_as_xyz
  1  'x, y, z'
loop_
 _atom_site_type_symbol
 _atom_site_label
 _atom_site_symmetry_multiplicity
 _atom_site_fract_x
 _atom_site_fract_y
 _atom_site_fract_z
 _atom_site_occupancy
  Ni  Ni0  1  0.50000000  0.50000000  0.50000000  1
  C  C1  1  0.15774200  0.84225800  0.50000000  1
  C  C2  1  0.15997300  0.32458300  0.16882600  1
  C  C3  1  0.67541700  0.84002700  0.83117400  1
  C  C4  1  0.84225800  0.15774200  0.50000000  1
  C  C5  1  0.84002700  0.67541700  0.16882600  1
  C  C6  1  0.32458300  0.15997300  0.83117400  1
  Cu  Cu7  1  0.50000000  0.00000000  0.16810500  1
  Cu  Cu8  1  0.00000000  0.50000000  0.83189500  1
