# generated using pymatgen
data_Cu19Ni2C19
_symmetry_space_group_name_H-M   'P 1'
_cell_length_a   6.17360800
_cell_length_b   31.77280900
_cell_length_c   8.60744241
_cell_angle_alpha   90.00000000
_cell_angle_beta   113.77614746
_cell_angle_gamma   90.00000000
_symmetry_Int_Tables_number   1
_chemical_formula_structural   Cu19Ni2C19
_chemical_formula_sum   'Cu76 Ni8 C76'
_cell_volume   1545.07809379
_cell_formula_units_Z   4
loop_
 _symmetry_equiv_pos_site_id
 _symmetry_equiv_pos_as_xyz
  1  'x, y, z'
loop_
 _atom_site_type_symbol
 _atom_site_label
 _atom_site_symmetry_multiplicity
 _atom_site_fract_x
 _atom_site_fract_y
 _atom_site_fract_z
 _atom_site_occupancy
  C  C0  1  0.23716400  0.24145900  0.37964700  1
  C  C1  1  0.23716400  0.25854100  0.87964700  1
  C  C2  1  0.76283600  0.75854100  0.62035300  1
  C  C3  1  0.76283600  0.74145900  0.12035300  1
  C  C4  1  0.51088100  0.33366100  0.33274000  1
  C  C5  1  0.51088100  0.16633900  0.83274000  1
  C  C6  1  0.48911900  0.66633900  0.66726000  1
  C  C7  1  0.48911900  0.83366100  0.16726000  1
  C  C8  1  0.19714800  0.51731400  0.90716000  1
  C  C9  1  0.19714800  0.98268600  0.40716000  1
  C  C10  1  0.80285200  0.48268600  0.09284000  1
  C  C11  1  0.80285200  0.01731400  0.59284000  1
  Ni  Ni12  1  0.98400200  0.10875100  0.09860100  1
  Ni  Ni13  1  0.98400200  0.39124900  0.59860100  1
  Ni  Ni14  1  0.01599800  0.89124900  0.90139900  1
  Ni  Ni15  1  0.01599800  0.60875100  0.40139900  1
  Ni  Ni16  1  0.77766100  0.16386400  0.28367900  1
  Ni  Ni17  1  0.77766100  0.33613600  0.78367900  1
  Ni  Ni18  1  0.22233900  0.83613600  0.71632100  1
  Ni  Ni19  1  0.22233900  0.66386400  0.21632100  1
  Cu  Cu20  1  0.37022800  0.11875600  0.15578600  1
  Cu  Cu21  1  0.37022800  0.38124400  0.65578600  1
  Cu  Cu22  1  0.62977200  0.88124400  0.84421400  1
  Cu  Cu23  1  0.62977200  0.61875600  0.34421400  1
  Cu  Cu24  1  0.35104700  0.30456600  0.62547800  1
  Cu  Cu25  1  0.35104700  0.19543400  0.12547800  1
  Cu  Cu26  1  0.64895300  0.69543400  0.37452200  1
  Cu  Cu27  1  0.64895300  0.80456600  0.87452200  1
  Cu  Cu28  1  0.08306400  0.29863300  0.57888800  1
  Cu  Cu29  1  0.08306400  0.20136700  0.07888800  1
  Cu  Cu30  1  0.91693600  0.70136700  0.42111200  1
  Cu  Cu31  1  0.91693600  0.79863300  0.92111200  1
  Cu  Cu32  1  0.55370800  0.16711000  0.50254400  1
  Cu  Cu33  1  0.55370800  0.33289000  0.00254400  1
  Cu  Cu34  1  0.44629200  0.83289000  0.49745600  1
  Cu  Cu35  1  0.44629200  0.66711000  0.99745600  1
  Cu  Cu36  1  0.29166200  0.15572600  0.46724700  1
  Cu  Cu37  1  0.29166200  0.34427400  0.96724700  1
  Cu  Cu38  1  0.70833800  0.84427400  0.53275300  1
  Cu  Cu39  1  0.70833800  0.65572600  0.03275300  1
  Cu  Cu40  1  0.04570300  0.32709900  0.32831400  1
  Cu  Cu41  1  0.04570300  0.17290100  0.82831400  1
  Cu  Cu42  1  0.95429700  0.67290100  0.67168600  1
  Cu  Cu43  1  0.95429700  0.82709900  0.17168600  1
  Cu  Cu44  1  0.00436700  0.32049000  0.13969500  1
  Cu  Cu45  1  0.00436700  0.17951000  0.63969500  1
  Cu  Cu46  1  0.99563300  0.67951000  0.86030500  1
  Cu  Cu47  1  0.99563300  0.82049000  0.36030500  1
  Cu  Cu48  1  0.73103300  0.26846200  0.55915900  1
  Cu  Cu49  1  0.73103300  0.23153800  0.05915900  1
  Cu  Cu50  1  0.26896700  0.73153800  0.44084100  1
  Cu  Cu51  1  0.26896700  0.76846200  0.94084100  1
  Cu  Cu52  1  0.72468400  0.24459100  0.39212700  1
  Cu  Cu53  1  0.72468400  0.25540900  0.89212700  1
  Cu  Cu54  1  0.27531600  0.75540900  0.60787300  1
  Cu  Cu55  1  0.27531600  0.74459100  0.10787300  1
  Cu  Cu56  1  0.25329400  0.41276300  0.26134900  1
  Cu  Cu57  1  0.25329400  0.08723700  0.76134900  1
  Cu  Cu58  1  0.74670600  0.58723700  0.73865100  1
  Cu  Cu59  1  0.74670600  0.91276300  0.23865100  1
  Cu  Cu60  1  0.53133400  0.41924000  0.38245200  1
  Cu  Cu61  1  0.53133400  0.08076000  0.88245200  1
  Cu  Cu62  1  0.46866600  0.58076000  0.61754800  1
  Cu  Cu63  1  0.46866600  0.91924000  0.11754800  1
  Cu  Cu64  1  0.81258200  0.46222500  0.73641700  1
  Cu  Cu65  1  0.81258200  0.03777500  0.23641700  1
  Cu  Cu66  1  0.18741800  0.53777500  0.26358300  1
  Cu  Cu67  1  0.18741800  0.96222500  0.76358300  1
  Cu  Cu68  1  0.63427900  0.49506200  0.75301800  1
  Cu  Cu69  1  0.63427900  0.00493800  0.25301800  1
  Cu  Cu70  1  0.36572100  0.50493800  0.24698200  1
  Cu  Cu71  1  0.36572100  0.99506200  0.74698200  1
  Cu  Cu72  1  0.09466700  0.60150500  0.73039700  1
  Cu  Cu73  1  0.09466700  0.89849500  0.23039700  1
  Cu  Cu74  1  0.90533300  0.39849500  0.26960300  1
  Cu  Cu75  1  0.90533300  0.10150500  0.76960300  1
  Cu  Cu76  1  0.11488100  0.60720500  0.91497700  1
  Cu  Cu77  1  0.11488100  0.89279500  0.41497700  1
  Cu  Cu78  1  0.88511900  0.39279500  0.08502300  1
  Cu  Cu79  1  0.88511900  0.10720500  0.58502300  1
  Cu  Cu80  1  0.62466700  0.56808600  0.10516300  1
  Cu  Cu81  1  0.62466700  0.93191400  0.60516300  1
  Cu  Cu82  1  0.37533300  0.43191400  0.89483700  1
  Cu  Cu83  1  0.37533300  0.06808600  0.39483700  1
  Cu  Cu84  1  0.58618200  0.56523000  0.91145400  1
  Cu  Cu85  1  0.58618200  0.93477000  0.41145400  1
  Cu  Cu86  1  0.41381800  0.43477000  0.08854600  1
  Cu  Cu87  1  0.41381800  0.06523000  0.58854600  1
  Cu  Cu88  1  0.77006000  0.52522200  0.38754700  1
  Cu  Cu89  1  0.77006000  0.97477800  0.88754700  1
  Cu  Cu90  1  0.22994000  0.47477800  0.61245300  1
  Cu  Cu91  1  0.22994000  0.02522200  0.11245300  1
  Cu  Cu92  1  0.77636300  0.47658500  0.43403400  1
  Cu  Cu93  1  0.77636300  0.02341500  0.93403400  1
  Cu  Cu94  1  0.22363700  0.52341500  0.56596600  1
  Cu  Cu95  1  0.22363700  0.97658500  0.06596600  1
  C  C96  1  0.91407300  0.13881600  0.94948100  1
  C  C97  1  0.91407300  0.36118400  0.44948100  1
  C  C98  1  0.08592700  0.86118400  0.05051900  1
  C  C99  1  0.08592700  0.63881600  0.55051900  1
  C  C100  1  0.83698200  0.06892000  0.06923100  1
  C  C101  1  0.83698200  0.43108000  0.56923100  1
  C  C102  1  0.16301800  0.93108000  0.93076900  1
  C  C103  1  0.16301800  0.56892000  0.43076900  1
  C  C104  1  0.25589200  0.09562400  0.16484800  1
  C  C105  1  0.25589200  0.40437600  0.66484800  1
  C  C106  1  0.74410800  0.90437600  0.83515200  1
  C  C107  1  0.74410800  0.59562400  0.33515200  1
  C  C108  1  0.98296000  0.13293300  0.26433100  1
  C  C109  1  0.98296000  0.36706700  0.76433100  1
  C  C110  1  0.01704000  0.86706700  0.73566900  1
  C  C111  1  0.01704000  0.63293300  0.23566900  1
  C  C112  1  0.85454800  0.20894900  0.27143200  1
  C  C113  1  0.85454800  0.29105100  0.77143200  1
  C  C114  1  0.14545200  0.79105100  0.72856800  1
  C  C115  1  0.14545200  0.70894900  0.22856800  1
  C  C116  1  0.53923200  0.15256900  0.13860400  1
  C  C117  1  0.53923200  0.34743100  0.63860400  1
  C  C118  1  0.46076800  0.84743100  0.86139600  1
  C  C119  1  0.46076800  0.65256900  0.36139600  1
  C  C120  1  0.79185400  0.15228800  0.46022400  1
  C  C121  1  0.79185400  0.34771200  0.96022400  1
  C  C122  1  0.20814600  0.84771200  0.53977600  1
  C  C123  1  0.20814600  0.65228800  0.03977600  1
  C  C124  1  0.22993400  0.28262300  0.61382100  1
  C  C125  1  0.22993400  0.21737700  0.11382100  1
  C  C126  1  0.77006600  0.71737700  0.38617900  1
  C  C127  1  0.77006600  0.78262300  0.88617900  1
  C  C128  1  0.41861100  0.17513800  0.53222000  1
  C  C129  1  0.41861100  0.32486200  0.03222000  1
  C  C130  1  0.58138900  0.82486200  0.46778000  1
  C  C131  1  0.58138900  0.67513800  0.96778000  1
  C  C132  1  0.10775800  0.31141600  0.25644500  1
  C  C133  1  0.10775800  0.18858400  0.75644500  1
  C  C134  1  0.89224200  0.68858400  0.74355500  1
  C  C135  1  0.89224200  0.81141600  0.24355500  1
  C  C136  1  0.63820800  0.26420100  0.43594700  1
  C  C137  1  0.63820800  0.23579900  0.93594700  1
  C  C138  1  0.36179200  0.73579900  0.56405300  1
  C  C139  1  0.36179200  0.76420100  0.06405300  1
  C  C140  1  0.41868600  0.40808000  0.27291100  1
  C  C141  1  0.41868600  0.09192000  0.77291100  1
  C  C142  1  0.58131400  0.59192000  0.72708900  1
  C  C143  1  0.58131400  0.90808000  0.22708900  1
  C  C144  1  0.79877200  0.48501400  0.81043000  1
  C  C145  1  0.79877200  0.01498600  0.31043000  1
  C  C146  1  0.20122800  0.51498600  0.18957000  1
  C  C147  1  0.20122800  0.98501400  0.68957000  1
  C  C148  1  0.05888700  0.58687400  0.81846200  1
  C  C149  1  0.05888700  0.91312600  0.31846200  1
  C  C150  1  0.94111300  0.41312600  0.18153800  1
  C  C151  1  0.94111300  0.08687400  0.68153800  1
  C  C152  1  0.59241500  0.54847600  0.01117300  1
  C  C153  1  0.59241500  0.95152400  0.51117300  1
  C  C154  1  0.40758500  0.45152400  0.98882700  1
  C  C155  1  0.40758500  0.04847600  0.48882700  1
  C  C156  1  0.71112900  0.49751500  0.34102300  1
  C  C157  1  0.71112900  0.00248500  0.84102300  1
  C  C158  1  0.28887100  0.50248500  0.65897700  1
  C  C159  1  0.28887100  0.99751500  0.15897700  1
