# generated using pymatgen
data_CuNiC7
_symmetry_space_group_name_H-M   'P 1'
_cell_length_a   5.25104104
_cell_length_b   9.09576649
_cell_length_c   10.04189801
_cell_angle_alpha   89.99534257
_cell_angle_beta   90.00268995
_cell_angle_gamma   90.00760134
_symmetry_Int_Tables_number   1
_chemical_formula_structural   CuNiC7
_chemical_formula_sum   'Cu4 Ni4 C28'
_cell_volume   479.62356746
_cell_formula_units_Z   4
loop_
 _symmetry_equiv_pos_site_id
 _symmetry_equiv_pos_as_xyz
  1  'x, y, z'
loop_
 _atom_site_type_symbol
 _atom_site_label
 _atom_site_symmetry_multiplicity
 _atom_site_fract_x
 _atom_site_fract_y
 _atom_site_fract_z
 _atom_site_occupancy
  C  C0  1  0.50004200  0.83334700  0.75000000  1
  C  C1  1  0.49995800  0.16665300  0.25000000  1
  C  C2  1  0.00004200  0.33334700  0.75000000  1
  C  C3  1  0.99995800  0.66665300  0.25000000  1
  Ni  Ni4  1  0.00000000  0.00000000  0.50000000  1
  Ni  Ni5  1  0.50000000  0.50000000  0.50000000  1
  Ni  Ni6  1  0.00000000  0.00000000  0.00000000  1
  Ni  Ni7  1  0.50000000  0.50000000  0.00000000  1
  Cu  Cu8  1  0.50009700  0.16669900  0.75000000  1
  Cu  Cu9  1  0.00009700  0.66669900  0.75000000  1
  Cu  Cu10  1  0.99990300  0.33330100  0.25000000  1
  Cu  Cu11  1  0.49990300  0.83330100  0.25000000  1
  C  C12  1  0.63145500  0.00441900  0.64171700  1
  C  C13  1  0.13145500  0.50441900  0.64171700  1
  C  C14  1  0.67773600  0.31351900  0.64173900  1
  C  C15  1  0.17773600  0.81351900  0.64173900  1
  C  C16  1  0.19092700  0.18210300  0.64173400  1
  C  C17  1  0.69092700  0.68210300  0.64173400  1
  C  C18  1  0.17764500  0.18648200  0.14171700  1
  C  C19  1  0.67764500  0.68648200  0.14171700  1
  C  C20  1  0.13138200  0.49558800  0.14173400  1
  C  C21  1  0.63138200  0.99558800  0.14173400  1
  C  C22  1  0.69085400  0.31789100  0.14173900  1
  C  C23  1  0.19085400  0.81789100  0.14173900  1
  C  C24  1  0.86854500  0.49558100  0.35828300  1
  C  C25  1  0.36854500  0.99558100  0.35828300  1
  C  C26  1  0.82226400  0.18648100  0.35826100  1
  C  C27  1  0.32226400  0.68648100  0.35826100  1
  C  C28  1  0.30907300  0.31789700  0.35826600  1
  C  C29  1  0.80907300  0.81789700  0.35826600  1
  C  C30  1  0.32235500  0.31351800  0.85828300  1
  C  C31  1  0.82235500  0.81351800  0.85828300  1
  C  C32  1  0.36861800  0.00441200  0.85826600  1
  C  C33  1  0.86861800  0.50441200  0.85826600  1
  C  C34  1  0.80914600  0.18210900  0.85826100  1
  C  C35  1  0.30914600  0.68210900  0.85826100  1
