# generated using pymatgen
data_Cu6Ni2C29
_symmetry_space_group_name_H-M   'P 1'
_cell_length_a   11.05817427
_cell_length_b   15.62033526
_cell_length_c   11.00394531
_cell_angle_alpha   90.24366358
_cell_angle_beta   91.15264858
_cell_angle_gamma   90.45129464
_symmetry_Int_Tables_number   1
_chemical_formula_structural   Cu6Ni2C29
_chemical_formula_sum   'Cu24 Ni8 C116'
_cell_volume   1900.27570605
_cell_formula_units_Z   4
loop_
 _symmetry_equiv_pos_site_id
 _symmetry_equiv_pos_as_xyz
  1  'x, y, z'
loop_
 _atom_site_type_symbol
 _atom_site_label
 _atom_site_symmetry_multiplicity
 _atom_site_fract_x
 _atom_site_fract_y
 _atom_site_fract_z
 _atom_site_occupancy
  Ni  Ni0  1  0.99923777  0.11330403  0.50217823  1
  Ni  Ni1  1  0.99938778  0.11269183  0.00093870  1
  Ni  Ni2  1  0.50831009  0.38651375  0.98940600  1
  Ni  Ni3  1  0.50322944  0.38265893  0.50767335  1
  Ni  Ni4  1  0.23693008  0.38635000  0.24378098  1
  Ni  Ni5  1  0.24256271  0.39603321  0.76440414  1
  Ni  Ni6  1  0.23229596  0.11678717  0.24914065  1
  Ni  Ni7  1  0.23062704  0.11181545  0.75064114  1
  Cu  Cu8  1  0.00424089  0.62226368  0.51041172  1
  Cu  Cu9  1  0.01182211  0.61986498  0.99309396  1
  Cu  Cu10  1  0.54421166  0.12601412  0.47594452  1
  Cu  Cu11  1  0.54330068  0.12939225  0.98318879  1
  Cu  Cu12  1  0.52962848  0.62910789  0.51305527  1
  Cu  Cu13  1  0.53343734  0.62241256  0.97477954  1
  Cu  Cu14  1  0.51696688  0.85830004  0.98636182  1
  Cu  Cu15  1  0.49141151  0.86608590  0.50935436  1
  Cu  Cu16  1  0.96403708  0.38789223  0.00142922  1
  Cu  Cu17  1  0.96164945  0.38761421  0.49989471  1
  Cu  Cu18  1  0.95784382  0.88123416  0.99864568  1
  Cu  Cu19  1  0.96681912  0.87256886  0.51175581  1
  Cu  Cu20  1  0.22664747  0.88675093  0.26925575  1
  Cu  Cu21  1  0.21632577  0.87056310  0.73674408  1
  Cu  Cu22  1  0.76776517  0.38176318  0.25491804  1
  Cu  Cu23  1  0.74894609  0.38889216  0.75658638  1
  Cu  Cu24  1  0.76474073  0.86965502  0.25606060  1
  Cu  Cu25  1  0.74317053  0.86620630  0.75244773  1
  Cu  Cu26  1  0.23651919  0.62596369  0.26010976  1
  Cu  Cu27  1  0.26873218  0.62908850  0.73743673  1
  Cu  Cu28  1  0.77922104  0.11878568  0.25038072  1
  Cu  Cu29  1  0.77896049  0.12133724  0.74954336  1
  Cu  Cu30  1  0.78084597  0.62022304  0.25259201  1
  Cu  Cu31  1  0.77056810  0.62261058  0.75664679  1
  C  C32  1  0.99188029  0.99265339  0.25361957  1
  C  C33  1  0.99069578  0.99152108  0.75341121  1
  C  C34  1  0.00237037  0.50253912  0.24889986  1
  C  C35  1  0.99814394  0.50211598  0.75226514  1
  C  C36  1  0.50848284  0.98028932  0.23049740  1
  C  C37  1  0.50958815  0.98849488  0.73215592  1
  C  C38  1  0.50689329  0.49528762  0.24243462  1
  C  C39  1  0.49915211  0.50446368  0.74726588  1
  C  C40  1  0.24553438  0.99147738  0.01721581  1
  C  C41  1  0.24292140  0.99662175  0.51511076  1
  C  C42  1  0.25141851  0.51580014  0.00722735  1
  C  C43  1  0.23639482  0.49887414  0.50779584  1
  C  C44  1  0.74019674  0.99961804  0.99448126  1
  C  C45  1  0.74285920  0.99659087  0.49474521  1
  C  C46  1  0.75246288  0.50510230  0.00176577  1
  C  C47  1  0.74656875  0.50381812  0.50267958  1
  C  C48  1  0.26768882  0.23925513  0.96411982  1
  C  C49  1  0.26672494  0.24558929  0.46536560  1
  C  C50  1  0.25995883  0.75285716  0.97442183  1
  C  C51  1  0.24747921  0.75072587  0.49710089  1
  C  C52  1  0.75458379  0.24960547  0.00513082  1
  C  C53  1  0.75449129  0.24941576  0.50540946  1
  C  C54  1  0.75478404  0.74630110  0.00043762  1
  C  C55  1  0.75213350  0.74571883  0.50524649  1
  C  C56  1  0.99028883  0.25320301  0.26045050  1
  C  C57  1  0.99022843  0.25627791  0.76384854  1
  C  C58  1  0.99631229  0.74955978  0.26286226  1
  C  C59  1  0.99639513  0.74942561  0.74856299  1
  C  C60  1  0.52318265  0.25676538  0.25585359  1
  C  C61  1  0.52199938  0.25297622  0.75214830  1
  C  C62  1  0.52091658  0.74837219  0.26421704  1
  C  C63  1  0.50353111  0.74807062  0.74781561  1
  C  C64  1  0.09748268  0.77146559  0.60659613  1
  C  C65  1  0.58810965  0.25444748  0.09786186  1
  C  C66  1  0.58947649  0.24774216  0.59504826  1
  C  C67  1  0.59739329  0.75386967  0.10987727  1
  C  C68  1  0.60165218  0.76246355  0.60345453  1
  C  C69  1  0.40658867  0.20490441  0.35464791  1
  C  C70  1  0.40615136  0.20520597  0.85879429  1
  C  C71  1  0.40530478  0.69939502  0.36346324  1
  C  C72  1  0.41075961  0.73115893  0.89922402  1
  C  C73  1  0.90031888  0.24424642  0.41563355  1
  C  C74  1  0.90143512  0.24260292  0.91803589  1
  C  C75  1  0.89215361  0.72971309  0.40584274  1
  C  C76  1  0.89885514  0.73298507  0.90132022  1
  C  C77  1  0.15043937  0.24947263  0.32281330  1
  C  C78  1  0.15382153  0.24949388  0.82991719  1
  C  C79  1  0.15820752  0.74988856  0.33369570  1
  C  C80  1  0.14639983  0.73930754  0.84497446  1
  C  C81  1  0.65732767  0.22177209  0.34990499  1
  C  C82  1  0.65889729  0.22537923  0.85413479  1
  C  C83  1  0.65708528  0.71797528  0.35587199  1
  C  C84  1  0.65059760  0.72838817  0.85564701  1
  C  C85  1  0.35567934  0.76430819  0.64511504  1
  C  C86  1  0.85165308  0.26998578  0.15181642  1
  C  C87  1  0.85362030  0.27485677  0.65227867  1
  C  C88  1  0.86618303  0.77053815  0.13976844  1
  C  C89  1  0.85112829  0.76952879  0.64630009  1
  C  C90  1  0.36086776  0.51937612  0.16006930  1
  C  C91  1  0.36304169  0.50056793  0.62786639  1
  C  C92  1  0.35072322  0.99698751  0.16912902  1
  C  C93  1  0.35184986  0.98940277  0.66340652  1
  C  C94  1  0.86019009  0.48694632  0.14330601  1
  C  C95  1  0.85934596  0.48172471  0.64139268  1
  C  C96  1  0.84726657  0.98061050  0.13787365  1
  C  C97  1  0.84514957  0.97870016  0.63833954  1
  C  C98  1  0.14322383  0.00572316  0.37072758  1
  C  C99  1  0.14880809  0.99507327  0.87169958  1
  C  C100  1  0.14713986  0.51037778  0.35436575  1
  C  C101  1  0.14465150  0.52687204  0.85910848  1
  C  C102  1  0.63002405  0.02399343  0.33964599  1
  C  C103  1  0.62782786  0.03263922  0.84204115  1
  C  C104  1  0.61779461  0.52423701  0.37014629  1
  C  C105  1  0.64139330  0.51534384  0.86197666  1
  C  C106  1  0.38746827  0.51669639  0.89545696  1
  C  C107  1  0.87961443  0.01052331  0.38523435  1
  C  C108  1  0.87927747  0.00912459  0.88825848  1
  C  C109  1  0.88897336  0.51822498  0.38735417  1
  C  C110  1  0.89021153  0.51591924  0.89396560  1
  C  C111  1  0.10733444  0.48339141  0.10400152  1
  C  C112  1  0.09759358  0.47927368  0.61423766  1
  C  C113  1  0.09820257  0.97358855  0.12193912  1
  C  C114  1  0.09838138  0.97865889  0.62191344  1
  C  C115  1  0.61441865  0.49930657  0.10972760  1
  C  C116  1  0.61507677  0.49137630  0.61822833  1
  C  C117  1  0.58499017  0.99287648  0.07681648  1
  C  C118  1  0.58777031  0.99488443  0.57774512  1
  C  C119  1  0.99352895  0.37905394  0.28055737  1
  C  C120  1  0.00354236  0.38021967  0.79203901  1
  C  C121  1  0.99281381  0.87037731  0.29279745  1
  C  C122  1  0.99376782  0.86973215  0.78908258  1
  C  C123  1  0.47304329  0.37677953  0.27500919  1
  C  C124  1  0.48766250  0.37422639  0.75874581  1
  C  C125  1  0.48083413  0.86891389  0.29378982  1
  C  C126  1  0.52015992  0.87198430  0.78050255  1
  C  C127  1  0.49215411  0.62774678  0.72283093  1
  C  C128  1  0.99640708  0.12826202  0.22753704  1
  C  C129  1  0.99659353  0.12962893  0.73215726  1
  C  C130  1  0.00499921  0.62818066  0.21613319  1
  C  C131  1  0.98578476  0.62529889  0.71792122  1
  C  C132  1  0.24400704  0.12447308  0.02041851  1
  C  C133  1  0.24491854  0.12587547  0.52730005  1
  C  C134  1  0.22446078  0.65212005  0.05172253  1
  C  C135  1  0.22432527  0.62665808  0.52134092  1
  C  C136  1  0.75014580  0.12418028  0.03633507  1
  C  C137  1  0.75373797  0.12226708  0.53317857  1
  C  C138  1  0.75143032  0.62652094  0.03656043  1
  C  C139  1  0.74747891  0.62576975  0.54398969  1
  C  C140  1  0.27214586  0.37147331  0.48827239  1
  C  C141  1  0.28327380  0.35271401  0.00841471  1
  C  C142  1  0.28140290  0.87836653  0.47279033  1
  C  C143  1  0.29408901  0.87103223  0.00111426  1
  C  C144  1  0.74195888  0.37802845  0.46773224  1
  C  C145  1  0.74692935  0.37706441  0.97399357  1
  C  C146  1  0.74253601  0.87115823  0.46391320  1
  C  C147  1  0.73958586  0.87283591  0.96806267  1
