# generated using pymatgen
data_Cu2NiC5
_symmetry_space_group_name_H-M   'P 1'
_cell_length_a   6.32764400
_cell_length_b   9.67270100
_cell_length_c   15.50360422
_cell_angle_alpha   72.40485455
_cell_angle_beta   90.00000000
_cell_angle_gamma   90.00000000
_symmetry_Int_Tables_number   1
_chemical_formula_structural   Cu2NiC5
_chemical_formula_sum   'Cu16 Ni8 C40'
_cell_volume   904.51115318
_cell_formula_units_Z   8
loop_
 _symmetry_equiv_pos_site_id
 _symmetry_equiv_pos_as_xyz
  1  'x, y, z'
loop_
 _atom_site_type_symbol
 _atom_site_label
 _atom_site_symmetry_multiplicity
 _atom_site_fract_x
 _atom_site_fract_y
 _atom_site_fract_z
 _atom_site_occupancy
  C  C0  1  0.74183300  0.89693700  0.88180300  1
  C  C1  1  0.24183300  0.10306300  0.61819700  1
  C  C2  1  0.25816700  0.10306300  0.11819700  1
  C  C3  1  0.75816700  0.89693700  0.38180300  1
  C  C4  1  0.73647200  0.40244000  0.38339800  1
  C  C5  1  0.23647200  0.59756000  0.11660200  1
  C  C6  1  0.26352800  0.59756000  0.61660200  1
  C  C7  1  0.76352800  0.40244000  0.88339800  1
  Ni  Ni8  1  0.26620300  0.14550100  0.87088700  1
  Ni  Ni9  1  0.76620300  0.85449900  0.62911300  1
  Ni  Ni10  1  0.73379700  0.85449900  0.12911300  1
  Ni  Ni11  1  0.23379700  0.14550100  0.37088700  1
  Ni  Ni12  1  0.24080500  0.64770800  0.37182900  1
  Ni  Ni13  1  0.74080500  0.35229200  0.12817100  1
  Ni  Ni14  1  0.75919500  0.35229200  0.62817100  1
  Ni  Ni15  1  0.25919500  0.64770800  0.87182900  1
  Cu  Cu16  1  0.23259300  0.90475200  0.93256100  1
  Cu  Cu17  1  0.73259300  0.09524800  0.56743900  1
  Cu  Cu18  1  0.76740700  0.09524800  0.06743900  1
  Cu  Cu19  1  0.26740700  0.90475200  0.43256100  1
  Cu  Cu20  1  0.22486500  0.40363900  0.43036100  1
  Cu  Cu21  1  0.72486500  0.59636100  0.06963900  1
  Cu  Cu22  1  0.77513500  0.59636100  0.56963900  1
  Cu  Cu23  1  0.27513500  0.40363900  0.93036100  1
  Cu  Cu24  1  0.01338800  0.23496900  0.76583500  1
  Cu  Cu25  1  0.51338800  0.76503100  0.73416500  1
  Cu  Cu26  1  0.98661200  0.76503100  0.23416500  1
  Cu  Cu27  1  0.48661200  0.23496900  0.26583500  1
  Cu  Cu28  1  0.47765600  0.73251700  0.25985400  1
  Cu  Cu29  1  0.97765600  0.26748300  0.24014600  1
  Cu  Cu30  1  0.52234400  0.26748300  0.74014600  1
  Cu  Cu31  1  0.02234400  0.73251700  0.75985400  1
  C  C32  1  0.25192700  0.99773000  0.95073600  1
  C  C33  1  0.75192700  0.00227000  0.54926400  1
  C  C34  1  0.32750800  0.26081200  0.91430300  1
  C  C35  1  0.82750800  0.73918800  0.58569700  1
  C  C36  1  0.41671800  0.13055200  0.79666500  1
  C  C37  1  0.91671800  0.86944800  0.70333500  1
  C  C38  1  0.02960700  0.16871900  0.83220300  1
  C  C39  1  0.52960700  0.83128100  0.66779700  1
  C  C40  1  0.74807300  0.00227000  0.04926400  1
  C  C41  1  0.24807300  0.99773000  0.45073600  1
  C  C42  1  0.67249200  0.73918800  0.08569700  1
  C  C43  1  0.17249200  0.26081200  0.41430300  1
  C  C44  1  0.58328200  0.86944800  0.20333500  1
  C  C45  1  0.08328200  0.13055200  0.29666500  1
  C  C46  1  0.97039300  0.83128100  0.16779700  1
  C  C47  1  0.47039300  0.16871900  0.33220300  1
  C  C48  1  0.25467200  0.49556900  0.44848900  1
  C  C49  1  0.75467200  0.50443100  0.05151100  1
  C  C50  1  0.30725700  0.76036300  0.41636700  1
  C  C51  1  0.80725700  0.23963700  0.08363300  1
  C  C52  1  0.41493500  0.63377600  0.29990100  1
  C  C53  1  0.91493500  0.36622400  0.20009900  1
  C  C54  1  0.02185000  0.66777500  0.32778900  1
  C  C55  1  0.52185000  0.33222500  0.17221100  1
  C  C56  1  0.74532800  0.50443100  0.55151100  1
  C  C57  1  0.24532800  0.49556900  0.94848900  1
  C  C58  1  0.69274300  0.23963700  0.58363300  1
  C  C59  1  0.19274300  0.76036300  0.91636700  1
  C  C60  1  0.58506500  0.36622400  0.70009900  1
  C  C61  1  0.08506500  0.63377600  0.79990100  1
  C  C62  1  0.97815000  0.33222500  0.67221100  1
  C  C63  1  0.47815000  0.66777500  0.82778900  1
