# generated using pymatgen
data_CuNi3C2
_symmetry_space_group_name_H-M   'P 1'
_cell_length_a   5.43395700
_cell_length_b   5.70997500
_cell_length_c   14.02941700
_cell_angle_alpha   90.00000000
_cell_angle_beta   90.00000000
_cell_angle_gamma   90.00000000
_symmetry_Int_Tables_number   1
_chemical_formula_structural   CuNi3C2
_chemical_formula_sum   'Cu4 Ni12 C8'
_cell_volume   435.30136427
_cell_formula_units_Z   4
loop_
 _symmetry_equiv_pos_site_id
 _symmetry_equiv_pos_as_xyz
  1  'x, y, z'
loop_
 _atom_site_type_symbol
 _atom_site_label
 _atom_site_symmetry_multiplicity
 _atom_site_fract_x
 _atom_site_fract_y
 _atom_site_fract_z
 _atom_site_occupancy
  C  C0  1  0.95743600  0.25000000  0.86679200  1
  C  C1  1  0.45743600  0.25000000  0.63320800  1
  C  C2  1  0.04256400  0.75000000  0.13320800  1
  C  C3  1  0.54256400  0.75000000  0.36679200  1
  C  C4  1  0.42073500  0.75000000  0.87211100  1
  C  C5  1  0.92073500  0.75000000  0.62788900  1
  C  C6  1  0.57926500  0.25000000  0.12788900  1
  C  C7  1  0.07926500  0.25000000  0.37211100  1
  Ni  Ni8  1  0.17703900  0.75000000  0.91584200  1
  Ni  Ni9  1  0.67703900  0.75000000  0.58415800  1
  Ni  Ni10  1  0.82296100  0.25000000  0.08415800  1
  Ni  Ni11  1  0.32296100  0.25000000  0.41584200  1
  Ni  Ni12  1  0.48808800  0.96622800  0.82384500  1
  Ni  Ni13  1  0.98808800  0.53377200  0.67615500  1
  Ni  Ni14  1  0.51191200  0.46622800  0.17615500  1
  Ni  Ni15  1  0.01191200  0.03377200  0.32384500  1
  Ni  Ni16  1  0.51191200  0.03377200  0.17615500  1
  Ni  Ni17  1  0.01191200  0.46622800  0.32384500  1
  Ni  Ni18  1  0.48808800  0.53377200  0.82384500  1
  Ni  Ni19  1  0.98808800  0.96622800  0.67615500  1
  Cu  Cu20  1  0.60438000  0.75000000  0.96521600  1
  Cu  Cu21  1  0.10438000  0.75000000  0.53478400  1
  Cu  Cu22  1  0.39562000  0.25000000  0.03478400  1
  Cu  Cu23  1  0.89562000  0.25000000  0.46521600  1
