# generated using pymatgen
data_Cu7Ni2C7
_symmetry_space_group_name_H-M   'P 1'
_cell_length_a   6.15928339
_cell_length_b   6.75815938
_cell_length_c   8.63278301
_cell_angle_alpha   72.66820549
_cell_angle_beta   73.14751027
_cell_angle_gamma   78.90456815
_symmetry_Int_Tables_number   1
_chemical_formula_structural   Cu7Ni2C7
_chemical_formula_sum   'Cu14 Ni4 C14'
_cell_volume   326.07541031
_cell_formula_units_Z   2
loop_
 _symmetry_equiv_pos_site_id
 _symmetry_equiv_pos_as_xyz
  1  'x, y, z'
loop_
 _atom_site_type_symbol
 _atom_site_label
 _atom_site_symmetry_multiplicity
 _atom_site_fract_x
 _atom_site_fract_y
 _atom_site_fract_z
 _atom_site_occupancy
  C  C0  1  0.72839600  0.05305000  0.34520300  1
  C  C1  1  0.62468700  0.43376300  0.92520200  1
  C  C2  1  0.96639100  0.65483600  0.32289600  1
  C  C3  1  0.73412400  0.65721700  0.27692100  1
  C  C4  1  0.29165200  0.91747300  0.45236900  1
  C  C5  1  0.44463300  0.74135600  0.56459700  1
  C  C6  1  0.89607200  0.75765300  0.70602100  1
  C  C7  1  0.05312500  0.58057500  0.81764600  1
  C  C8  1  0.38301700  0.75544000  0.08434500  1
  C  C9  1  0.62458100  0.82294900  0.00948000  1
  C  C10  1  0.29395800  0.46963500  0.41856800  1
  C  C11  1  0.07305800  0.52665600  0.55280500  1
  C  C12  1  0.09117600  0.98922100  0.88445000  1
  C  C13  1  0.29024000  0.97108400  0.72896200  1
  Ni  Ni14  1  0.61717900  0.34617900  0.58942100  1
  Ni  Ni15  1  0.72445700  0.13536800  0.68976200  1
  Ni  Ni16  1  0.24682800  0.16648600  0.19286800  1
  Ni  Ni17  1  0.10997000  0.32367500  0.07238600  1
  Cu  Cu18  1  0.59346100  0.35541700  0.44560900  1
  Cu  Cu19  1  0.55884100  0.49682400  0.65703500  1
  Cu  Cu20  1  0.79244300  0.98979400  0.61595000  1
  Cu  Cu21  1  0.73719900  0.12083700  0.83661500  1
  Cu  Cu22  1  0.45271100  0.19602600  0.17224700  1
  Cu  Cu23  1  0.14562200  0.02071300  0.30211700  1
  Cu  Cu24  1  0.20967100  0.47093200  0.96397100  1
  Cu  Cu25  1  0.90508900  0.29086400  0.09356800  1
  Cu  Cu26  1  0.85082900  0.74624400  0.26183900  1
  Cu  Cu27  1  0.39854600  0.89422800  0.52579800  1
  Cu  Cu28  1  0.94266900  0.60350400  0.74693300  1
  Cu  Cu29  1  0.54409800  0.70028500  0.07434200  1
  Cu  Cu30  1  0.12674800  0.50044500  0.43993900  1
  Cu  Cu31  1  0.25566800  0.99376900  0.84190600  1
