# generated using pymatgen
data_Cu8Ni2C3
_symmetry_space_group_name_H-M   'P 1'
_cell_length_a   9.35726000
_cell_length_b   9.40510242
_cell_length_c   10.17778162
_cell_angle_alpha   113.84705002
_cell_angle_beta   92.45635536
_cell_angle_gamma   90.78575717
_symmetry_Int_Tables_number   1
_chemical_formula_structural   Cu8Ni2C3
_chemical_formula_sum   'Cu32 Ni8 C12'
_cell_volume   818.01239570
_cell_formula_units_Z   4
loop_
 _symmetry_equiv_pos_site_id
 _symmetry_equiv_pos_as_xyz
  1  'x, y, z'
loop_
 _atom_site_type_symbol
 _atom_site_label
 _atom_site_symmetry_multiplicity
 _atom_site_fract_x
 _atom_site_fract_y
 _atom_site_fract_z
 _atom_site_occupancy
  C  C0  1  0.64471500  0.93374900  0.66717400  1
  C  C1  1  0.35528500  0.06625100  0.33282600  1
  C  C2  1  0.86227200  0.65407100  0.91724300  1
  C  C3  1  0.13772800  0.34592900  0.08275700  1
  C  C4  1  0.56085000  0.70944000  0.78313500  1
  C  C5  1  0.43915000  0.29056000  0.21686500  1
  C  C6  1  0.63372900  0.89079200  0.35610600  1
  C  C7  1  0.36627100  0.10920800  0.64389400  1
  C  C8  1  0.86825500  0.33015700  0.87828800  1
  C  C9  1  0.13174500  0.66984300  0.12171200  1
  C  C10  1  0.92676200  0.75074600  0.68191400  1
  C  C11  1  0.07323800  0.24925400  0.31808600  1
  Ni  Ni12  1  0.80092900  0.53649000  0.30735300  1
  Ni  Ni13  1  0.19907100  0.46351000  0.69264700  1
  Ni  Ni14  1  0.68440700  0.33084600  0.54561400  1
  Ni  Ni15  1  0.31559300  0.66915400  0.45438600  1
  Ni  Ni16  1  0.50000000  0.50000000  0.00000000  1
  Ni  Ni17  1  0.22720000  0.94459900  0.90884800  1
  Ni  Ni18  1  0.77280000  0.05540100  0.09115200  1
  Ni  Ni19  1  0.00000000  0.00000000  0.50000000  1
  Cu  Cu20  1  0.76366000  0.86803900  0.27629500  1
  Cu  Cu21  1  0.23634000  0.13196100  0.72370500  1
  Cu  Cu22  1  0.90906100  0.80455300  0.84403300  1
  Cu  Cu23  1  0.09093900  0.19544700  0.15596700  1
  Cu  Cu24  1  0.61803100  0.87810300  0.82528100  1
  Cu  Cu25  1  0.38196900  0.12189700  0.17471900  1
  Cu  Cu26  1  0.66696900  0.63014400  0.84880700  1
  Cu  Cu27  1  0.33303100  0.36985600  0.15119300  1
  Cu  Cu28  1  0.96427900  0.27443300  0.97336600  1
  Cu  Cu29  1  0.03572100  0.72556700  0.02663400  1
  Cu  Cu30  1  0.82294900  0.49489700  0.98040200  1
  Cu  Cu31  1  0.17705100  0.50510300  0.01959800  1
  Cu  Cu32  1  0.88756100  0.58567600  0.60752700  1
  Cu  Cu33  1  0.11243900  0.41432400  0.39247300  1
  Cu  Cu34  1  0.74456400  0.22208100  0.84019000  1
  Cu  Cu35  1  0.25543600  0.77791900  0.15981000  1
  Cu  Cu36  1  0.83230300  0.85446900  0.63396500  1
  Cu  Cu37  1  0.16769700  0.14553100  0.36603500  1
  Cu  Cu38  1  0.93975700  0.34295500  0.75920500  1
  Cu  Cu39  1  0.06024300  0.65704500  0.24079500  1
  Cu  Cu40  1  0.42780500  0.70965700  0.85202700  1
  Cu  Cu41  1  0.57219500  0.29034300  0.14797300  1
  Cu  Cu42  1  0.56300300  0.74674600  0.34535300  1
  Cu  Cu43  1  0.43699700  0.25325400  0.65464700  1
  Cu  Cu44  1  0.07372300  0.78715000  0.65792000  1
  Cu  Cu45  1  0.92627700  0.21285000  0.34208000  1
  Cu  Cu46  1  0.66709800  0.99920100  0.51578600  1
  Cu  Cu47  1  0.33290200  0.00079900  0.48421400  1
  Cu  Cu48  1  0.55429400  0.63073500  0.62647800  1
  Cu  Cu49  1  0.44570600  0.36926500  0.37352200  1
  Cu  Cu50  1  0.54116800  0.98669800  0.29605900  1
  Cu  Cu51  1  0.45883200  0.01330200  0.70394100  1
