# generated using pymatgen
data_CuNiC16
_symmetry_space_group_name_H-M   'P 1'
_cell_length_a   8.45038900
_cell_length_b   7.35640300
_cell_length_c   7.97634631
_cell_angle_alpha   88.49533940
_cell_angle_beta   90.00000000
_cell_angle_gamma   90.00000000
_symmetry_Int_Tables_number   1
_chemical_formula_structural   CuNiC16
_chemical_formula_sum   'Cu2 Ni2 C32'
_cell_volume   495.67434534
_cell_formula_units_Z   2
loop_
 _symmetry_equiv_pos_site_id
 _symmetry_equiv_pos_as_xyz
  1  'x, y, z'
loop_
 _atom_site_type_symbol
 _atom_site_label
 _atom_site_symmetry_multiplicity
 _atom_site_fract_x
 _atom_site_fract_y
 _atom_site_fract_z
 _atom_site_occupancy
  Ni  Ni0  1  0.93831700  0.73277600  0.71676200  1
  Ni  Ni1  1  0.43831700  0.26722400  0.28323800  1
  Cu  Cu2  1  0.25031900  0.76184900  0.24206700  1
  Cu  Cu3  1  0.75031900  0.23815100  0.75793300  1
  C  C4  1  0.90205600  0.00484300  0.38168700  1
  C  C5  1  0.40205600  0.99515700  0.61831300  1
  C  C6  1  0.99874900  0.38662100  0.39739700  1
  C  C7  1  0.49874900  0.61337900  0.60260300  1
  C  C8  1  0.87612600  0.56606600  0.09213300  1
  C  C9  1  0.37612600  0.43393400  0.90786700  1
  C  C10  1  0.66893900  0.90229000  0.09915800  1
  C  C11  1  0.16893900  0.09771000  0.90084200  1
  C  C12  1  0.93929300  0.39172500  0.57404500  1
  C  C13  1  0.43929300  0.60827500  0.42595500  1
  C  C14  1  0.70006100  0.98053300  0.92646500  1
  C  C15  1  0.20006100  0.01946700  0.07353500  1
  C  C16  1  0.15294300  0.47602500  0.35317100  1
  C  C17  1  0.65294300  0.52397500  0.64682900  1
  C  C18  1  0.86083400  0.46478000  0.27370300  1
  C  C19  1  0.36083400  0.53522000  0.72629700  1
  C  C20  1  0.01161400  0.17911300  0.33902200  1
  C  C21  1  0.51161400  0.82088700  0.66097800  1
  C  C22  1  0.80622200  0.03508900  0.53717600  1
  C  C23  1  0.30622200  0.96491100  0.46282400  1
  C  C24  1  0.00599200  0.09088300  0.82816200  1
  C  C25  1  0.50599300  0.90911700  0.17183800  1
  C  C26  1  0.22129800  0.30776900  0.89260500  1
  C  C27  1  0.72129800  0.69223100  0.10739500  1
  C  C28  1  0.28822600  0.99020000  0.77914200  1
  C  C29  1  0.78822600  0.00980000  0.22085800  1
  C  C30  1  0.50656300  0.16024400  0.61713400  1
  C  C31  1  0.00656300  0.83975600  0.38286600  1
  C  C32  1  0.52277800  0.32094400  0.92810300  1
  C  C33  1  0.02277800  0.67905600  0.07189700  1
  C  C34  1  0.34627000  0.56810700  0.04293100  1
  C  C35  1  0.84627000  0.43189300  0.95706900  1
