# generated using pymatgen
data_Cu2(NiC2)3
_symmetry_space_group_name_H-M   'P 1'
_cell_length_a   11.34688668
_cell_length_b   11.34688668
_cell_length_c   11.34688668
_cell_angle_alpha   157.56415343
_cell_angle_beta   157.56415343
_cell_angle_gamma   31.93866590
_symmetry_Int_Tables_number   1
_chemical_formula_structural   Cu2(NiC2)3
_chemical_formula_sum   'Cu2 Ni3 C6'
_cell_volume   212.62854556
_cell_formula_units_Z   1
loop_
 _symmetry_equiv_pos_site_id
 _symmetry_equiv_pos_as_xyz
  1  'x, y, z'
loop_
 _atom_site_type_symbol
 _atom_site_label
 _atom_site_symmetry_multiplicity
 _atom_site_fract_x
 _atom_site_fract_y
 _atom_site_fract_z
 _atom_site_occupancy
  Ni  Ni0  1  0.68314900  0.68314900  0.00000000  1
  Ni  Ni1  1  0.50000000  0.50000000  0.00000000  1
  Ni  Ni2  1  0.31685100  0.31685100  0.00000000  1
  Cu  Cu3  1  0.89833100  0.89833100  0.00000000  1
  Cu  Cu4  1  0.10166900  0.10166900  0.00000000  1
  C  C5  1  0.08281400  0.58281400  0.50000000  1
  C  C6  1  0.41718600  0.91718600  0.50000000  1
  C  C7  1  0.80059100  0.80059100  0.00000000  1
  C  C8  1  0.19940900  0.19940900  0.00000000  1
  C  C9  1  0.91718600  0.41718600  0.50000000  1
  C  C10  1  0.58281400  0.08281400  0.50000000  1
