# generated using pymatgen
data_CuNiC11
_symmetry_space_group_name_H-M   'P 1'
_cell_length_a   14.63169300
_cell_length_b   5.22111600
_cell_length_c   9.39141067
_cell_angle_alpha   75.28498849
_cell_angle_beta   90.00000000
_cell_angle_gamma   90.00000000
_symmetry_Int_Tables_number   1
_chemical_formula_structural   CuNiC11
_chemical_formula_sum   'Cu4 Ni4 C44'
_cell_volume   693.91391568
_cell_formula_units_Z   4
loop_
 _symmetry_equiv_pos_site_id
 _symmetry_equiv_pos_as_xyz
  1  'x, y, z'
loop_
 _atom_site_type_symbol
 _atom_site_label
 _atom_site_symmetry_multiplicity
 _atom_site_fract_x
 _atom_site_fract_y
 _atom_site_fract_z
 _atom_site_occupancy
  C  C0  1  0.32514000  0.17903400  0.18420500  1
  C  C1  1  0.82514000  0.82096600  0.31579500  1
  C  C2  1  0.67486000  0.82096600  0.81579500  1
  C  C3  1  0.17486000  0.17903400  0.68420500  1
  Ni  Ni4  1  0.12822500  0.77441000  0.38165000  1
  Ni  Ni5  1  0.62822500  0.22559000  0.11835000  1
  Ni  Ni6  1  0.87177500  0.22559000  0.61835000  1
  Ni  Ni7  1  0.37177500  0.77441000  0.88165000  1
  Cu  Cu8  1  0.04767200  0.24363600  0.03667800  1
  Cu  Cu9  1  0.54767200  0.75636400  0.46332200  1
  Cu  Cu10  1  0.95232800  0.75636400  0.96332200  1
  Cu  Cu11  1  0.45232800  0.24363600  0.53667800  1
  C  C12  1  0.17273500  0.74415900  0.03785500  1
  C  C13  1  0.67273500  0.25584100  0.46214500  1
  C  C14  1  0.82726500  0.25584100  0.96214500  1
  C  C15  1  0.32726500  0.74415900  0.53785500  1
  C  C16  1  0.00698800  0.30966000  0.32340500  1
  C  C17  1  0.50698800  0.69034000  0.17659500  1
  C  C18  1  0.99301200  0.69034000  0.67659500  1
  C  C19  1  0.49301200  0.30966000  0.82340500  1
  C  C20  1  0.24448600  0.88275000  0.44482500  1
  C  C21  1  0.74448600  0.11725000  0.05517500  1
  C  C22  1  0.75551400  0.11725000  0.55517500  1
  C  C23  1  0.25551400  0.88275000  0.94482500  1
  C  C24  1  0.18899900  0.76919600  0.19631700  1
  C  C25  1  0.68899900  0.23080400  0.30368300  1
  C  C26  1  0.81100100  0.23080400  0.80368300  1
  C  C27  1  0.31100100  0.76919600  0.69631700  1
  C  C28  1  0.08637200  0.91084600  0.96935100  1
  C  C29  1  0.58637200  0.08915400  0.53064900  1
  C  C30  1  0.91362800  0.08915400  0.03064900  1
  C  C31  1  0.41362800  0.91084600  0.46935100  1
  C  C32  1  0.16617000  0.45306800  0.03236400  1
  C  C33  1  0.66617000  0.54693200  0.46763600  1
  C  C34  1  0.83383000  0.54693200  0.96763600  1
  C  C35  1  0.33383000  0.45306800  0.53236400  1
  C  C36  1  0.98492800  0.50874800  0.17588900  1
  C  C37  1  0.48492800  0.49125200  0.32411100  1
  C  C38  1  0.01507200  0.49125200  0.82411100  1
  C  C39  1  0.51507200  0.50874800  0.67588900  1
  C  C40  1  0.04888800  0.06382400  0.27625200  1
  C  C41  1  0.54888800  0.93617600  0.22374800  1
  C  C42  1  0.95111200  0.93617600  0.72374800  1
  C  C43  1  0.45111200  0.06382400  0.77625200  1
  C  C44  1  0.08003000  0.41567900  0.41395300  1
  C  C45  1  0.58003000  0.58432100  0.08604700  1
  C  C46  1  0.91997000  0.58432100  0.58604700  1
  C  C47  1  0.41997000  0.41567900  0.91395300  1
  C  C48  1  0.92043400  0.22140400  0.41622500  1
  C  C49  1  0.42043400  0.77859600  0.08377500  1
  C  C50  1  0.07956600  0.77859600  0.58377500  1
  C  C51  1  0.57956600  0.22140400  0.91622500  1
