# generated using pymatgen
data_Cu8(Ni13C2)3
_symmetry_space_group_name_H-M   'P 1'
_cell_length_a   10.94585885
_cell_length_b   10.94585885
_cell_length_c   17.43860442
_cell_angle_alpha   90.00000000
_cell_angle_beta   90.00000000
_cell_angle_gamma   120.00000028
_symmetry_Int_Tables_number   1
_chemical_formula_structural   Cu8(Ni13C2)3
_chemical_formula_sum   'Cu16 Ni78 C12'
_cell_volume   1809.43106976
_cell_formula_units_Z   2
loop_
 _symmetry_equiv_pos_site_id
 _symmetry_equiv_pos_as_xyz
  1  'x, y, z'
loop_
 _atom_site_type_symbol
 _atom_site_label
 _atom_site_symmetry_multiplicity
 _atom_site_fract_x
 _atom_site_fract_y
 _atom_site_fract_z
 _atom_site_occupancy
  C  C0  1  0.46722684  0.46722684  0.90314625  1
  C  C1  1  0.53277316  0.53277316  0.09685375  1
  C  C2  1  0.00000000  0.53277316  0.90314625  1
  C  C3  1  0.53277316  0.53277316  0.40314625  1
  C  C4  1  0.00000000  0.53277316  0.59685375  1
  C  C5  1  1.00000000  0.46722684  0.09685375  1
  C  C6  1  0.46722684  0.46722684  0.59685375  1
  C  C7  1  1.00000000  0.46722684  0.40314625  1
  C  C8  1  0.53277316  0.00000000  0.90314625  1
  C  C9  1  0.46722684  1.00000000  0.09685375  1
  C  C10  1  0.46722684  1.00000000  0.40314625  1
  C  C11  1  0.53277316  0.00000000  0.59685375  1
  Ni  Ni12  1  0.84708059  0.45137435  0.75000000  1
  Ni  Ni13  1  0.15291941  0.54862565  0.25000000  1
  Ni  Ni14  1  0.60429377  0.15291941  0.75000000  1
  Ni  Ni15  1  0.39570623  0.54862565  0.75000000  1
  Ni  Ni16  1  0.39570623  0.84708059  0.25000000  1
  Ni  Ni17  1  0.60429377  0.45137435  0.25000000  1
  Ni  Ni18  1  0.54862565  0.39570623  0.75000000  1
  Ni  Ni19  1  0.45137435  0.84708059  0.75000000  1
  Ni  Ni20  1  0.45137435  0.60429377  0.25000000  1
  Ni  Ni21  1  0.54862565  0.15291941  0.25000000  1
  Ni  Ni22  1  0.15291941  0.60429377  0.75000000  1
  Ni  Ni23  1  0.84708059  0.39570623  0.25000000  1
  Ni  Ni24  1  0.84533933  0.84533933  0.38472578  1
  Ni  Ni25  1  0.15466067  0.15466067  0.61527422  1
  Ni  Ni26  1  1.00000000  0.15466067  0.38472578  1
  Ni  Ni27  1  0.15466067  0.15466067  0.88472578  1
  Ni  Ni28  1  1.00000000  0.15466067  0.11527422  1
  Ni  Ni29  1  0.00000000  0.84533933  0.61527422  1
  Ni  Ni30  1  0.84533933  0.84533933  0.11527422  1
  Ni  Ni31  1  0.00000000  0.84533933  0.88472578  1
  Ni  Ni32  1  0.15466067  1.00000000  0.38472578  1
  Ni  Ni33  1  0.84533933  0.00000000  0.61527422  1
  Ni  Ni34  1  0.84533933  0.00000000  0.88472578  1
  Ni  Ni35  1  0.15466067  1.00000000  0.11527422  1
  Ni  Ni36  1  0.75053341  0.24946659  0.00000000  1
  Ni  Ni37  1  0.24946659  0.75053341  0.00000000  1
  Ni  Ni38  1  0.49893318  0.24946659  -0.00000000  1
  Ni  Ni39  1  0.24946659  0.75053341  0.50000000  1
  Ni  Ni40  1  0.50106682  0.75053341  0.50000000  1
  Ni  Ni41  1  0.50106682  0.75053341  0.00000000  1
  Ni  Ni42  1  0.75053341  0.24946659  0.50000000  1
  Ni  Ni43  1  0.49893318  0.24946659  0.50000000  1
  Ni  Ni44  1  0.75053341  0.50106682  0.00000000  1
  Ni  Ni45  1  0.24946659  0.49893318  -0.00000000  1
  Ni  Ni46  1  0.24946659  0.49893318  0.50000000  1
  Ni  Ni47  1  0.75053341  0.50106682  0.50000000  1
  Ni  Ni48  1  0.84944424  0.84944424  0.75000000  1
  Ni  Ni49  1  0.15055576  0.15055576  0.25000000  1
  Ni  Ni50  1  0.00000000  0.15055576  0.75000000  1
  Ni  Ni51  1  1.00000000  0.84944424  0.25000000  1
  Ni  Ni52  1  0.15055576  0.00000000  0.75000000  1
  Ni  Ni53  1  0.84944424  1.00000000  0.25000000  1
  Ni  Ni54  1  0.75032724  0.75032724  0.97082520  1
  Ni  Ni55  1  0.24967276  0.24967276  0.02917480  1
  Ni  Ni56  1  1.00000000  0.24967276  0.97082520  1
  Ni  Ni57  1  0.24967276  0.24967276  0.47082520  1
  Ni  Ni58  1  1.00000000  0.24967276  0.52917480  1
  Ni  Ni59  1  0.00000000  0.75032724  0.02917480  1
  Ni  Ni60  1  0.75032724  0.75032724  0.52917480  1
  Ni  Ni61  1  0.00000000  0.75032724  0.47082520  1
  Ni  Ni62  1  0.24967276  1.00000000  0.97082520  1
  Ni  Ni63  1  0.75032724  0.00000000  0.02917480  1
  Ni  Ni64  1  0.75032724  0.00000000  0.47082520  1
  Ni  Ni65  1  0.24967276  1.00000000  0.52917480  1
  Ni  Ni66  1  0.83566041  0.23172821  0.83767985  1
  Ni  Ni67  1  0.16433959  0.76827179  0.16232015  1
  Ni  Ni68  1  0.39606780  0.16433959  0.83767985  1
  Ni  Ni69  1  0.16433959  0.76827179  0.33767985  1
  Ni  Ni70  1  0.60393220  0.76827179  0.66232015  1
  Ni  Ni71  1  0.60393220  0.83566041  0.16232015  1
  Ni  Ni72  1  0.83566041  0.23172821  0.66232015  1
  Ni  Ni73  1  0.39606780  0.23172821  0.33767985  1
  Ni  Ni74  1  0.76827179  0.60393220  0.83767985  1
  Ni  Ni75  1  0.60393220  0.83566041  0.33767985  1
  Ni  Ni76  1  0.23172821  0.83566041  0.66232015  1
  Ni  Ni77  1  0.23172821  0.39606780  0.16232015  1
  Ni  Ni78  1  0.39606780  0.16433959  0.66232015  1
  Ni  Ni79  1  0.76827179  0.16433959  0.33767985  1
  Ni  Ni80  1  0.39606780  0.23172821  0.16232015  1
  Ni  Ni81  1  0.60393220  0.76827179  0.83767985  1
  Ni  Ni82  1  0.23172821  0.39606780  0.33767985  1
  Ni  Ni83  1  0.76827179  0.16433959  0.16232015  1
  Ni  Ni84  1  0.76827179  0.60393220  0.66232015  1
  Ni  Ni85  1  0.23172821  0.83566041  0.83767985  1
  Ni  Ni86  1  0.16433959  0.39606780  0.66232015  1
  Ni  Ni87  1  0.83566041  0.60393220  0.33767985  1
  Ni  Ni88  1  0.83566041  0.60393220  0.16232015  1
  Ni  Ni89  1  0.16433959  0.39606780  0.83767985  1
  Cu  Cu90  1  0.66666700  0.33333300  0.86781763  1
  Cu  Cu91  1  0.33333300  0.66666700  0.13218237  1
  Cu  Cu92  1  0.33333300  0.66666700  0.36781763  1
  Cu  Cu93  1  0.33333300  0.66666700  0.63218237  1
  Cu  Cu94  1  0.66666700  0.33333300  0.63218237  1
  Cu  Cu95  1  0.66666700  0.33333300  0.36781763  1
  Cu  Cu96  1  0.66666700  0.33333300  0.13218237  1
  Cu  Cu97  1  0.33333300  0.66666700  0.86781763  1
  Cu  Cu98  1  -0.00000000  -0.00000000  0.00000000  1
  Cu  Cu99  1  -0.00000000  -0.00000000  0.50000000  1
  Cu  Cu100  1  0.25789981  0.25789981  0.75000000  1
  Cu  Cu101  1  0.74210019  0.74210019  0.25000000  1
  Cu  Cu102  1  0.00000000  0.74210019  0.75000000  1
  Cu  Cu103  1  1.00000000  0.25789981  0.25000000  1
  Cu  Cu104  1  0.74210019  0.00000000  0.75000000  1
  Cu  Cu105  1  0.25789981  1.00000000  0.25000000  1
