# generated using pymatgen
data_Cu4NiC
_symmetry_space_group_name_H-M   'P 1'
_cell_length_a   4.82064500
_cell_length_b   14.58080600
_cell_length_c   15.06732235
_cell_angle_alpha   58.94944692
_cell_angle_beta   90.00000000
_cell_angle_gamma   90.00000000
_symmetry_Int_Tables_number   1
_chemical_formula_structural   Cu4NiC
_chemical_formula_sum   'Cu32 Ni8 C8'
_cell_volume   907.31457134
_cell_formula_units_Z   8
loop_
 _symmetry_equiv_pos_site_id
 _symmetry_equiv_pos_as_xyz
  1  'x, y, z'
loop_
 _atom_site_type_symbol
 _atom_site_label
 _atom_site_symmetry_multiplicity
 _atom_site_fract_x
 _atom_site_fract_y
 _atom_site_fract_z
 _atom_site_occupancy
  C  C0  1  0.64374300  0.87580800  0.91933300  1
  C  C1  1  0.14374300  0.12419200  0.58066700  1
  C  C2  1  0.35625700  0.12419200  0.08066700  1
  C  C3  1  0.85625700  0.87580800  0.41933300  1
  C  C4  1  0.20441800  0.62381900  0.83200900  1
  C  C5  1  0.70441800  0.37618100  0.66799100  1
  C  C6  1  0.79558200  0.37618100  0.16799100  1
  C  C7  1  0.29558200  0.62381900  0.33200900  1
  Ni  Ni8  1  0.70069400  0.87563700  0.67432100  1
  Ni  Ni9  1  0.20069400  0.12436300  0.82567900  1
  Ni  Ni10  1  0.29930600  0.12436300  0.32567900  1
  Ni  Ni11  1  0.79930600  0.87563700  0.17432100  1
  Ni  Ni12  1  0.27225500  0.62548400  0.58129100  1
  Ni  Ni13  1  0.77225500  0.37451600  0.91870900  1
  Ni  Ni14  1  0.72774500  0.37451600  0.41870900  1
  Ni  Ni15  1  0.22774500  0.62548400  0.08129100  1
  Cu  Cu16  1  0.61251400  0.96925500  0.68009500  1
  Cu  Cu17  1  0.11251400  0.03074500  0.81990500  1
  Cu  Cu18  1  0.38748600  0.03074500  0.31990500  1
  Cu  Cu19  1  0.88748600  0.96925500  0.18009500  1
  Cu  Cu20  1  0.53225200  0.86225400  0.59761000  1
  Cu  Cu21  1  0.03225200  0.13774600  0.90239000  1
  Cu  Cu22  1  0.46774800  0.13774600  0.40239000  1
  Cu  Cu23  1  0.96774800  0.86225400  0.09761000  1
  Cu  Cu24  1  0.70140700  0.77704300  0.77720700  1
  Cu  Cu25  1  0.20140700  0.22295700  0.72279300  1
  Cu  Cu26  1  0.29859300  0.22295700  0.22279300  1
  Cu  Cu27  1  0.79859300  0.77704300  0.27720700  1
  Cu  Cu28  1  0.97966600  0.89663700  0.62213200  1
  Cu  Cu29  1  0.47966600  0.10336300  0.87786800  1
  Cu  Cu30  1  0.02033400  0.10336300  0.37786800  1
  Cu  Cu31  1  0.52033400  0.89663700  0.12213200  1
  Cu  Cu32  1  0.19579100  0.53376400  0.56976300  1
  Cu  Cu33  1  0.69579100  0.46623600  0.93023700  1
  Cu  Cu34  1  0.80420900  0.46623600  0.43023700  1
  Cu  Cu35  1  0.30420900  0.53376400  0.06976300  1
  Cu  Cu36  1  0.49063100  0.59290500  0.66305300  1
  Cu  Cu37  1  0.99063100  0.40709500  0.83694700  1
  Cu  Cu38  1  0.50936900  0.40709500  0.33694700  1
  Cu  Cu39  1  0.00936900  0.59290500  0.16305300  1
  Cu  Cu40  1  0.37573400  0.71599400  0.48137800  1
  Cu  Cu41  1  0.87573400  0.28400600  0.01862200  1
  Cu  Cu42  1  0.62426600  0.28400600  0.51862200  1
  Cu  Cu43  1  0.12426600  0.71599400  0.98137800  1
  Cu  Cu44  1  0.02473900  0.66202900  0.61477500  1
  Cu  Cu45  1  0.52473900  0.33797100  0.88522500  1
  Cu  Cu46  1  0.97526100  0.33797100  0.38522500  1
  Cu  Cu47  1  0.47526100  0.66202900  0.11477500  1
