# generated using pymatgen
data_Cu18Ni3C19
_symmetry_space_group_name_H-M   'P 1'
_cell_length_a   11.80141955
_cell_length_b   11.80141955
_cell_length_c   6.79405400
_cell_angle_alpha   90.00000000
_cell_angle_beta   90.00000000
_cell_angle_gamma   119.99999747
_symmetry_Int_Tables_number   1
_chemical_formula_structural   Cu18Ni3C19
_chemical_formula_sum   'Cu36 Ni6 C38'
_cell_volume   819.46071326
_cell_formula_units_Z   2
loop_
 _symmetry_equiv_pos_site_id
 _symmetry_equiv_pos_as_xyz
  1  'x, y, z'
loop_
 _atom_site_type_symbol
 _atom_site_label
 _atom_site_symmetry_multiplicity
 _atom_site_fract_x
 _atom_site_fract_y
 _atom_site_fract_z
 _atom_site_occupancy
  C  C0  1  0.33333300  0.66666700  0.74676000  1
  C  C1  1  0.66666700  0.33333300  0.24676000  1
  C  C2  1  0.11765600  0.74579800  0.75723300  1
  C  C3  1  0.25420200  0.37185800  0.75723300  1
  C  C4  1  0.62814200  0.88234400  0.75723300  1
  C  C5  1  0.25420200  0.88234400  0.75723300  1
  C  C6  1  0.62814200  0.74579800  0.75723300  1
  C  C7  1  0.11765600  0.37185800  0.75723300  1
  C  C8  1  0.88234400  0.25420200  0.25723300  1
  C  C9  1  0.74579800  0.62814200  0.25723300  1
  C  C10  1  0.37185800  0.11765600  0.25723300  1
  C  C11  1  0.74579800  0.11765600  0.25723300  1
  C  C12  1  0.37185800  0.25420200  0.25723300  1
  C  C13  1  0.88234400  0.62814200  0.25723300  1
  C  C14  1  0.37072800  0.49646200  0.06077300  1
  C  C15  1  0.50353800  0.87426600  0.06077300  1
  C  C16  1  0.12573400  0.62927200  0.06077300  1
  C  C17  1  0.50353800  0.62927200  0.06077300  1
  C  C18  1  0.12573400  0.49646200  0.06077300  1
  C  C19  1  0.37072800  0.87426600  0.06077300  1
  C  C20  1  0.62932100  0.50430200  0.93974100  1
  C  C21  1  0.49569800  0.12501900  0.93974100  1
  C  C22  1  0.87498100  0.37067900  0.93974100  1
  C  C23  1  0.49569800  0.37067900  0.93974100  1
  C  C24  1  0.87498100  0.50430200  0.93974100  1
  C  C25  1  0.62932100  0.12501900  0.93974100  1
  C  C26  1  0.62927200  0.50353800  0.56077300  1
  C  C27  1  0.49646200  0.12573400  0.56077300  1
  C  C28  1  0.87426600  0.37072800  0.56077300  1
  C  C29  1  0.49646200  0.37072800  0.56077300  1
  C  C30  1  0.87426600  0.50353800  0.56077300  1
  C  C31  1  0.62927200  0.12573400  0.56077300  1
  C  C32  1  0.37067900  0.49569800  0.43974100  1
  C  C33  1  0.50430200  0.87498100  0.43974100  1
  C  C34  1  0.12501900  0.62932100  0.43974100  1
  C  C35  1  0.50430200  0.62932100  0.43974100  1
  C  C36  1  0.12501900  0.49569800  0.43974100  1
  C  C37  1  0.37067900  0.87498100  0.43974100  1
  Ni  Ni38  1  0.12990700  0.87009300  0.25730000  1
  Ni  Ni39  1  0.12990700  0.25981500  0.25730000  1
  Ni  Ni40  1  0.74018500  0.87009300  0.25730000  1
  Ni  Ni41  1  0.87009300  0.12990700  0.75730000  1
  Ni  Ni42  1  0.87009300  0.74018500  0.75730000  1
  Ni  Ni43  1  0.25981500  0.12990700  0.75730000  1
  Cu  Cu44  1  0.29562900  0.93250200  0.25119100  1
  Cu  Cu45  1  0.06749800  0.36312700  0.25119100  1
  Cu  Cu46  1  0.63687300  0.70437100  0.25119100  1
  Cu  Cu47  1  0.06749800  0.70437100  0.25119100  1
  Cu  Cu48  1  0.63687300  0.93250200  0.25119100  1
  Cu  Cu49  1  0.29562900  0.36312700  0.25119100  1
  Cu  Cu50  1  0.70437100  0.06749800  0.75119100  1
  Cu  Cu51  1  0.93250200  0.63687300  0.75119100  1
  Cu  Cu52  1  0.36312700  0.29562900  0.75119100  1
  Cu  Cu53  1  0.93250200  0.29562900  0.75119100  1
  Cu  Cu54  1  0.36312700  0.06749800  0.75119100  1
  Cu  Cu55  1  0.70437100  0.63687300  0.75119100  1
  Cu  Cu56  1  0.42281500  0.57718500  0.98399300  1
  Cu  Cu57  1  0.42281500  0.84563000  0.98399300  1
  Cu  Cu58  1  0.15437000  0.57718500  0.98399300  1
  Cu  Cu59  1  0.57705500  0.42294500  0.01490000  1
  Cu  Cu60  1  0.57705500  0.15411000  0.01490000  1
  Cu  Cu61  1  0.84589000  0.42294500  0.01490000  1
  Cu  Cu62  1  0.57718500  0.42281500  0.48399300  1
  Cu  Cu63  1  0.57718500  0.15437000  0.48399300  1
  Cu  Cu64  1  0.84563000  0.42281500  0.48399300  1
  Cu  Cu65  1  0.42294500  0.57705500  0.51490000  1
  Cu  Cu66  1  0.42294500  0.84589000  0.51490000  1
  Cu  Cu67  1  0.15411000  0.57705500  0.51490000  1
  Cu  Cu68  1  0.21269800  0.78730200  0.73614400  1
  Cu  Cu69  1  0.21269800  0.42539600  0.73614400  1
  Cu  Cu70  1  0.57460400  0.78730200  0.73614400  1
  Cu  Cu71  1  0.78730200  0.21269800  0.23614400  1
  Cu  Cu72  1  0.78730200  0.57460400  0.23614400  1
  Cu  Cu73  1  0.42539600  0.21269800  0.23614400  1
  Cu  Cu74  1  0.09225300  0.90774700  0.04173600  1
  Cu  Cu75  1  0.09225300  0.18450700  0.04173600  1
  Cu  Cu76  1  0.81549300  0.90774700  0.04173600  1
  Cu  Cu77  1  0.90774700  0.09225300  0.54173600  1
  Cu  Cu78  1  0.90774700  0.81549300  0.54173600  1
  Cu  Cu79  1  0.18450700  0.09225300  0.54173600  1
