# generated using pymatgen
data_Cu6Ni3C25
_symmetry_space_group_name_H-M   'P 1'
_cell_length_a   6.13584200
_cell_length_b   6.30486379
_cell_length_c   13.19500381
_cell_angle_alpha   102.84492888
_cell_angle_beta   92.16076867
_cell_angle_gamma   110.99179332
_symmetry_Int_Tables_number   1
_chemical_formula_structural   Cu6Ni3C25
_chemical_formula_sum   'Cu6 Ni3 C25'
_cell_volume   460.77587983
_cell_formula_units_Z   1
loop_
 _symmetry_equiv_pos_site_id
 _symmetry_equiv_pos_as_xyz
  1  'x, y, z'
loop_
 _atom_site_type_symbol
 _atom_site_label
 _atom_site_symmetry_multiplicity
 _atom_site_fract_x
 _atom_site_fract_y
 _atom_site_fract_z
 _atom_site_occupancy
  C  C0  1  0.50000000  0.00000000  0.00000000  1
  Ni  Ni1  1  0.66331600  0.66732800  0.83154600  1
  Ni  Ni2  1  0.00000000  0.00000000  0.50000000  1
  Ni  Ni3  1  0.33668400  0.33267200  0.16845400  1
  Cu  Cu4  1  0.41125700  0.73500000  0.58300200  1
  Cu  Cu5  1  0.75946500  0.08021000  0.26217800  1
  Cu  Cu6  1  0.08115800  0.40428300  0.91320100  1
  Cu  Cu7  1  0.24053500  0.91979000  0.73782200  1
  Cu  Cu8  1  0.58874300  0.26500000  0.41699800  1
  Cu  Cu9  1  0.91884200  0.59571700  0.08679900  1
  C  C10  1  0.95861900  0.20182400  0.83272300  1
  C  C11  1  0.29904500  0.53173800  0.50159000  1
  C  C12  1  0.64611600  0.89811100  0.16259600  1
  C  C13  1  0.57663000  0.58203300  0.69895100  1
  C  C14  1  0.92344800  0.92048400  0.36787200  1
  C  C15  1  0.26183200  0.25253200  0.02534500  1
  C  C16  1  0.97288700  0.68245200  0.82321800  1
  C  C17  1  0.31230100  0.02363600  0.49089300  1
  C  C18  1  0.64459400  0.35957700  0.15547600  1
  C  C19  1  0.52218400  0.98817200  0.69138300  1
  C  C20  1  0.86169500  0.32675800  0.35603300  1
  C  C21  1  0.19150700  0.66747700  0.02117300  1
  C  C22  1  0.07655200  0.07951600  0.63212800  1
  C  C23  1  0.42337000  0.41796700  0.30104900  1
  C  C24  1  0.73816800  0.74746800  0.97465500  1
  C  C25  1  0.35388400  0.10188900  0.83740400  1
  C  C26  1  0.70095500  0.46826200  0.49841000  1
  C  C27  1  0.04138100  0.79817600  0.16727700  1
  C  C28  1  0.35540600  0.64042300  0.84452400  1
  C  C29  1  0.68769900  0.97636400  0.50910700  1
  C  C30  1  0.02711300  0.31754800  0.17678200  1
  C  C31  1  0.13830500  0.67324200  0.64396700  1
  C  C32  1  0.47781600  0.01182800  0.30861700  1
  C  C33  1  0.80849300  0.33252300  0.97882700  1
