# generated using pymatgen
data_Cu6NiC7
_symmetry_space_group_name_H-M   'P 1'
_cell_length_a   11.26303255
_cell_length_b   11.23649888
_cell_length_c   11.25449605
_cell_angle_alpha   90.13275120
_cell_angle_beta   89.96714057
_cell_angle_gamma   90.02497879
_symmetry_Int_Tables_number   1
_chemical_formula_structural   Cu6NiC7
_chemical_formula_sum   'Cu24 Ni4 C28'
_cell_volume   1424.33165715
_cell_formula_units_Z   4
loop_
 _symmetry_equiv_pos_site_id
 _symmetry_equiv_pos_as_xyz
  1  'x, y, z'
loop_
 _atom_site_type_symbol
 _atom_site_label
 _atom_site_symmetry_multiplicity
 _atom_site_fract_x
 _atom_site_fract_y
 _atom_site_fract_z
 _atom_site_occupancy
  C  C0  1  0.00003294  0.99986554  0.50050864  1
  C  C1  1  0.00052880  0.49978837  0.00027129  1
  C  C2  1  0.49960752  0.99975806  0.00028167  1
  C  C3  1  0.49975564  0.49990054  0.50024257  1
  Ni  Ni4  1  0.50021126  0.50035000  0.00035381  1
  Ni  Ni5  1  0.49869470  0.00051157  0.50002166  1
  Ni  Ni6  1  0.00185303  0.49943940  0.50092086  1
  Ni  Ni7  1  0.99920569  0.99923060  0.99988844  1
  Cu  Cu8  1  0.52038991  0.72991563  0.18512239  1
  Cu  Cu9  1  0.47766205  0.22733119  0.31719440  1
  Cu  Cu10  1  0.98125608  0.27071638  0.68461271  1
  Cu  Cu11  1  0.02016209  0.77030445  0.81873750  1
  Cu  Cu12  1  0.18567884  0.52281669  0.72764300  1
  Cu  Cu13  1  0.31621565  0.47892850  0.22873443  1
  Cu  Cu14  1  0.68544448  0.97956612  0.27079412  1
  Cu  Cu15  1  0.81518852  0.02077033  0.76986965  1
  Cu  Cu16  1  0.73027702  0.18605935  0.52026831  1
  Cu  Cu17  1  0.22878564  0.31600894  0.47692557  1
  Cu  Cu18  1  0.27218486  0.68290684  0.97728231  1
  Cu  Cu19  1  0.76838156  0.81501424  0.01864854  1
  Cu  Cu20  1  0.48005958  0.27087380  0.81863940  1
  Cu  Cu21  1  0.51758370  0.77025944  0.68446361  1
  Cu  Cu22  1  0.02349703  0.72623285  0.31802449  1
  Cu  Cu23  1  0.97964486  0.23038522  0.18385798  1
  Cu  Cu24  1  0.81379346  0.48065749  0.27002693  1
  Cu  Cu25  1  0.68477549  0.52050962  0.76950529  1
  Cu  Cu26  1  0.31523384  0.02469857  0.72664550  1
  Cu  Cu27  1  0.18270638  0.97943759  0.22978144  1
  Cu  Cu28  1  0.27053401  0.81680595  0.47841786  1
  Cu  Cu29  1  0.77002229  0.68652899  0.52056301  1
  Cu  Cu30  1  0.73014581  0.31513348  0.01942836  1
  Cu  Cu31  1  0.22986392  0.18161286  0.97993597  1
  C  C32  1  0.43700964  0.64103133  0.60914001  1
  C  C33  1  0.56065449  0.14138784  0.89245942  1
  C  C34  1  0.06100895  0.35889179  0.10880219  1
  C  C35  1  0.94221987  0.85552740  0.39182503  1
  C  C36  1  0.60776179  0.43875128  0.64228386  1
  C  C37  1  0.89094677  0.56161432  0.14242705  1
  C  C38  1  0.10671839  0.06061052  0.35798345  1
  C  C39  1  0.39013733  0.94349144  0.85490095  1
  C  C40  1  0.64139285  0.60893558  0.44181649  1
  C  C41  1  0.14243177  0.89177856  0.56014543  1
  C  C42  1  0.35773668  0.10639092  0.06165471  1
  C  C43  1  0.85881499  0.39167539  0.94016130  1
  C  C44  1  0.55882501  0.35612934  0.39193970  1
  C  C45  1  0.43954013  0.85812313  0.10914013  1
  C  C46  1  0.93932393  0.64129229  0.89315984  1
  C  C47  1  0.06229564  0.14179685  0.60922219  1
  C  C48  1  0.39259613  0.55951934  0.35702319  1
  C  C49  1  0.10957791  0.44197527  0.85556412  1
  C  C50  1  0.89262119  0.93906171  0.64280092  1
  C  C51  1  0.60889521  0.06068772  0.14316482  1
  C  C52  1  0.35691944  0.39108570  0.55833096  1
  C  C53  1  0.85826632  0.10785053  0.44086229  1
  C  C54  1  0.64068306  0.89258285  0.93888223  1
  C  C55  1  0.14424480  0.60749232  0.05869898  1
