# generated using pymatgen
data_Cu2Ni3C31
_symmetry_space_group_name_H-M   'P 1'
_cell_length_a   8.65181947
_cell_length_b   8.65181947
_cell_length_c   8.65181877
_cell_angle_alpha   60.60688370
_cell_angle_beta   60.60688370
_cell_angle_gamma   60.60688915
_symmetry_Int_Tables_number   1
_chemical_formula_structural   Cu2Ni3C31
_chemical_formula_sum   'Cu2 Ni3 C31'
_cell_volume   464.21514391
_cell_formula_units_Z   1
loop_
 _symmetry_equiv_pos_site_id
 _symmetry_equiv_pos_as_xyz
  1  'x, y, z'
loop_
 _atom_site_type_symbol
 _atom_site_label
 _atom_site_symmetry_multiplicity
 _atom_site_fract_x
 _atom_site_fract_y
 _atom_site_fract_z
 _atom_site_occupancy
  C  C0  1  0.14286000  0.14286000  0.14286000  1
  Ni  Ni1  1  0.64205200  0.64205200  0.64205200  1
  Ni  Ni2  1  0.85582700  0.85582700  0.85582700  1
  Ni  Ni3  1  0.35827400  0.35827400  0.35827400  1
  Cu  Cu4  1  0.99507500  0.99507500  0.99507500  1
  Cu  Cu5  1  0.49931200  0.49931200  0.49931200  1
  C  C6  1  0.54838300  0.95559500  0.25248600  1
  C  C7  1  0.25248600  0.54838300  0.95559500  1
  C  C8  1  0.95559500  0.25248600  0.54838300  1
  C  C9  1  0.04222100  0.74520600  0.46179100  1
  C  C10  1  0.74520600  0.46179100  0.04222100  1
  C  C11  1  0.46179100  0.04222100  0.74520600  1
  C  C12  1  0.31175200  0.50516100  0.11389700  1
  C  C13  1  0.11389700  0.31175200  0.50516100  1
  C  C14  1  0.50516100  0.11389700  0.31175200  1
  C  C15  1  0.73807700  0.94024500  0.08861000  1
  C  C16  1  0.38347500  0.00398500  0.18700800  1
  C  C17  1  0.55531300  0.76208400  0.40878700  1
  C  C18  1  0.08861000  0.73807700  0.94024500  1
  C  C19  1  0.40878700  0.55531300  0.76208400  1
  C  C20  1  0.00481800  0.81267200  0.61342200  1
  C  C21  1  0.76208400  0.40878700  0.55531300  1
  C  C22  1  0.06186500  0.91000900  0.26280900  1
  C  C23  1  0.81267200  0.61342200  0.00481800  1
  C  C24  1  0.18700800  0.38347500  0.00398500  1
  C  C25  1  0.94024500  0.08861000  0.73807700  1
  C  C26  1  0.23868900  0.58991100  0.44044500  1
  C  C27  1  0.00398500  0.18700800  0.38347500  1
  C  C28  1  0.58991100  0.44044500  0.23868900  1
  C  C29  1  0.91000900  0.26280900  0.06186500  1
  C  C30  1  0.44044500  0.23868900  0.58991100  1
  C  C31  1  0.61342200  0.00481800  0.81267200  1
  C  C32  1  0.26280900  0.06186500  0.91000900  1
  C  C33  1  0.49244000  0.88516600  0.69029000  1
  C  C34  1  0.88516600  0.69029000  0.49244000  1
  C  C35  1  0.69029000  0.49244000  0.88516600  1
