# generated using pymatgen
data_Cu2Ni3C4
_symmetry_space_group_name_H-M   'P 1'
_cell_length_a   15.60667700
_cell_length_b   6.36794700
_cell_length_c   7.57317343
_cell_angle_alpha   76.70725749
_cell_angle_beta   90.00000000
_cell_angle_gamma   90.00000000
_symmetry_Int_Tables_number   1
_chemical_formula_structural   Cu2Ni3C4
_chemical_formula_sum   'Cu8 Ni12 C16'
_cell_volume   732.47609733
_cell_formula_units_Z   4
loop_
 _symmetry_equiv_pos_site_id
 _symmetry_equiv_pos_as_xyz
  1  'x, y, z'
loop_
 _atom_site_type_symbol
 _atom_site_label
 _atom_site_symmetry_multiplicity
 _atom_site_fract_x
 _atom_site_fract_y
 _atom_site_fract_z
 _atom_site_occupancy
  C  C0  1  0.11854100  0.84699700  0.05274300  1
  C  C1  1  0.61854100  0.15300300  0.44725700  1
  C  C2  1  0.88145900  0.15300300  0.94725700  1
  C  C3  1  0.38145900  0.84699700  0.55274300  1
  C  C4  1  0.29511600  0.16700600  0.98674200  1
  C  C5  1  0.79511600  0.83299400  0.51325800  1
  C  C6  1  0.70488400  0.83299400  0.01325800  1
  C  C7  1  0.20488400  0.16700600  0.48674200  1
  C  C8  1  0.16558400  0.19176100  0.98204400  1
  C  C9  1  0.66558400  0.80823900  0.51795600  1
  C  C10  1  0.83441600  0.80823900  0.01795600  1
  C  C11  1  0.33441600  0.19176100  0.48204400  1
  C  C12  1  0.25277600  0.72274800  0.07866700  1
  C  C13  1  0.75277600  0.27725200  0.42133300  1
  C  C14  1  0.74722400  0.27725200  0.92133300  1
  C  C15  1  0.24722400  0.72274800  0.57866700  1
  Ni  Ni16  1  0.06536700  0.78766000  0.24487100  1
  Ni  Ni17  1  0.56536700  0.21234000  0.25512900  1
  Ni  Ni18  1  0.93463300  0.21234000  0.75512900  1
  Ni  Ni19  1  0.43463300  0.78766000  0.74487100  1
  Ni  Ni20  1  0.06895600  0.76907600  0.88754200  1
  Ni  Ni21  1  0.56895600  0.23092400  0.61245800  1
  Ni  Ni22  1  0.93104400  0.23092400  0.11245800  1
  Ni  Ni23  1  0.43104400  0.76907600  0.38754200  1
  Ni  Ni24  1  0.32078800  0.92112500  0.03717300  1
  Ni  Ni25  1  0.82078800  0.07887500  0.46282700  1
  Ni  Ni26  1  0.67921200  0.07887500  0.96282700  1
  Ni  Ni27  1  0.17921200  0.92112500  0.53717300  1
  Cu  Cu28  1  0.01625600  0.72614800  0.36264600  1
  Cu  Cu29  1  0.51625600  0.27385200  0.13735400  1
  Cu  Cu30  1  0.98374400  0.27385200  0.63735400  1
  Cu  Cu31  1  0.48374400  0.72614800  0.86264600  1
  Cu  Cu32  1  0.97766700  0.31300900  0.19838000  1
  Cu  Cu33  1  0.47766700  0.68699100  0.30162000  1
  Cu  Cu34  1  0.02233300  0.68699100  0.80162000  1
  Cu  Cu35  1  0.52233300  0.31300900  0.69838000  1
