# generated using pymatgen
data_Cu3NiC2
_symmetry_space_group_name_H-M   'P 1'
_cell_length_a   7.43786100
_cell_length_b   5.74342400
_cell_length_c   9.01301576
_cell_angle_alpha   89.83197142
_cell_angle_beta   90.00000000
_cell_angle_gamma   90.00000000
_symmetry_Int_Tables_number   1
_chemical_formula_structural   Cu3NiC2
_chemical_formula_sum   'Cu12 Ni4 C8'
_cell_volume   385.02346611
_cell_formula_units_Z   4
loop_
 _symmetry_equiv_pos_site_id
 _symmetry_equiv_pos_as_xyz
  1  'x, y, z'
loop_
 _atom_site_type_symbol
 _atom_site_label
 _atom_site_symmetry_multiplicity
 _atom_site_fract_x
 _atom_site_fract_y
 _atom_site_fract_z
 _atom_site_occupancy
  C  C0  1  0.65743100  0.25656300  0.17887500  1
  C  C1  1  0.34256900  0.74343700  0.82112500  1
  C  C2  1  0.15743100  0.74343700  0.32112500  1
  C  C3  1  0.84256900  0.25656300  0.67887500  1
  C  C4  1  0.20344400  0.27254100  0.06669900  1
  C  C5  1  0.79655600  0.72745900  0.93330100  1
  C  C6  1  0.70344400  0.72745900  0.43330100  1
  C  C7  1  0.29655600  0.27254100  0.56669900  1
  Ni  Ni8  1  0.29812100  0.44592600  0.08151300  1
  Ni  Ni9  1  0.70187900  0.55407400  0.91848700  1
  Ni  Ni10  1  0.79812100  0.55407400  0.41848700  1
  Ni  Ni11  1  0.20187900  0.44592600  0.58151300  1
  Cu  Cu12  1  0.05937200  0.24145800  0.17222300  1
  Cu  Cu13  1  0.94062800  0.75854200  0.82777700  1
  Cu  Cu14  1  0.55937200  0.75854200  0.32777700  1
  Cu  Cu15  1  0.44062800  0.24145800  0.67222300  1
  Cu  Cu16  1  0.29640400  0.04738800  0.08164300  1
  Cu  Cu17  1  0.70359600  0.95261200  0.91835700  1
  Cu  Cu18  1  0.79640400  0.95261200  0.41835700  1
  Cu  Cu19  1  0.20359600  0.04738800  0.58164300  1
  Cu  Cu20  1  0.38626700  0.24174500  0.42812600  1
  Cu  Cu21  1  0.61373300  0.75825500  0.57187400  1
  Cu  Cu22  1  0.88626700  0.75825500  0.07187400  1
  Cu  Cu23  1  0.11373300  0.24174500  0.92812600  1
