# generated using pymatgen
data_CuNiC10
_symmetry_space_group_name_H-M   'P 1'
_cell_length_a   7.88209300
_cell_length_b   11.31047200
_cell_length_c   14.34927000
_cell_angle_alpha   90.00000000
_cell_angle_beta   90.00000000
_cell_angle_gamma   90.00000000
_symmetry_Int_Tables_number   1
_chemical_formula_structural   CuNiC10
_chemical_formula_sum   'Cu4 Ni4 C40'
_cell_volume   1279.24017811
_cell_formula_units_Z   4
loop_
 _symmetry_equiv_pos_site_id
 _symmetry_equiv_pos_as_xyz
  1  'x, y, z'
loop_
 _atom_site_type_symbol
 _atom_site_label
 _atom_site_symmetry_multiplicity
 _atom_site_fract_x
 _atom_site_fract_y
 _atom_site_fract_z
 _atom_site_occupancy
  Ni  Ni0  1  0.25000000  0.91708300  0.90743900  1
  Ni  Ni1  1  0.25000000  0.58291700  0.40743900  1
  Ni  Ni2  1  0.75000000  0.08291700  0.09256100  1
  Ni  Ni3  1  0.75000000  0.41708300  0.59256100  1
  Cu  Cu4  1  0.25000000  0.33706000  0.84640900  1
  Cu  Cu5  1  0.25000000  0.16294000  0.34640900  1
  Cu  Cu6  1  0.75000000  0.66294000  0.15359100  1
  Cu  Cu7  1  0.75000000  0.83706000  0.65359100  1
  C  C8  1  0.09878200  0.95097400  0.83717100  1
  C  C9  1  0.40121800  0.54902600  0.33717100  1
  C  C10  1  0.59878200  0.04902600  0.16282900  1
  C  C11  1  0.90121800  0.45097400  0.66282900  1
  C  C12  1  0.90121800  0.04902600  0.16282900  1
  C  C13  1  0.59878200  0.45097400  0.66282900  1
  C  C14  1  0.40121800  0.95097400  0.83717100  1
  C  C15  1  0.09878200  0.54902600  0.33717100  1
  C  C16  1  0.14531000  0.72864000  0.89654900  1
  C  C17  1  0.35469000  0.77136000  0.39654900  1
  C  C18  1  0.64531000  0.27136000  0.10345100  1
  C  C19  1  0.85469000  0.22864000  0.60345100  1
  C  C20  1  0.85469000  0.27136000  0.10345100  1
  C  C21  1  0.64531000  0.22864000  0.60345100  1
  C  C22  1  0.35469000  0.72864000  0.89654900  1
  C  C23  1  0.14531000  0.77136000  0.39654900  1
  C  C24  1  0.25000000  0.65216200  0.86044500  1
  C  C25  1  0.25000000  0.84783800  0.36044500  1
  C  C26  1  0.75000000  0.34783800  0.13955500  1
  C  C27  1  0.75000000  0.15216200  0.63955500  1
  C  C28  1  0.25000000  0.42519900  0.98743400  1
  C  C29  1  0.25000000  0.07480100  0.48743400  1
  C  C30  1  0.75000000  0.57480100  0.01256600  1
  C  C31  1  0.75000000  0.92519900  0.51256600  1
  C  C32  1  0.96270700  0.34150800  0.84465100  1
  C  C33  1  0.53729300  0.15849200  0.34465100  1
  C  C34  1  0.46270700  0.65849200  0.15534900  1
  C  C35  1  0.03729300  0.84150800  0.65534900  1
  C  C36  1  0.03729300  0.65849200  0.15534900  1
  C  C37  1  0.46270700  0.84150800  0.65534900  1
  C  C38  1  0.53729300  0.34150800  0.84465100  1
  C  C39  1  0.96270700  0.15849200  0.34465100  1
  C  C40  1  0.25000000  0.23078200  0.71340400  1
  C  C41  1  0.25000000  0.26921800  0.21340400  1
  C  C42  1  0.75000000  0.76921800  0.28659600  1
  C  C43  1  0.75000000  0.73078200  0.78659600  1
  C  C44  1  0.25000000  0.03857700  0.02366300  1
  C  C45  1  0.25000000  0.46142300  0.52366300  1
  C  C46  1  0.75000000  0.96142300  0.97633700  1
  C  C47  1  0.75000000  0.53857700  0.47633700  1
