# generated using pymatgen
data_Cu12NiC8
_symmetry_space_group_name_H-M   'P 1'
_cell_length_a   10.28256654
_cell_length_b   10.28256654
_cell_length_c   7.37930100
_cell_angle_alpha   90.00000000
_cell_angle_beta   90.00000000
_cell_angle_gamma   120.00000350
_symmetry_Int_Tables_number   1
_chemical_formula_structural   Cu12NiC8
_chemical_formula_sum   'Cu24 Ni2 C16'
_cell_volume   675.69219028
_cell_formula_units_Z   2
loop_
 _symmetry_equiv_pos_site_id
 _symmetry_equiv_pos_as_xyz
  1  'x, y, z'
loop_
 _atom_site_type_symbol
 _atom_site_label
 _atom_site_symmetry_multiplicity
 _atom_site_fract_x
 _atom_site_fract_y
 _atom_site_fract_z
 _atom_site_occupancy
  C  C0  1  0.99804900  0.74601600  0.75572900  1
  C  C1  1  0.33333300  0.66666700  0.49777300  1
  C  C2  1  0.74601600  0.74796700  0.25572900  1
  C  C3  1  0.66666700  0.33333300  0.49997300  1
  C  C4  1  0.25203300  0.99804900  0.25572900  1
  C  C5  1  0.25398400  0.25203300  0.75572900  1
  C  C6  1  0.00195100  0.25398400  0.25572900  1
  C  C7  1  0.66666700  0.33333300  0.99777300  1
  C  C8  1  0.74796700  0.00195100  0.75572900  1
  C  C9  1  0.33333300  0.66666700  0.99997300  1
  C  C10  1  0.03210200  0.40536300  0.75348500  1
  C  C11  1  0.37326200  0.96789800  0.75348500  1
  C  C12  1  0.59463700  0.62673800  0.75348500  1
  C  C13  1  0.96789800  0.59463700  0.25348500  1
  C  C14  1  0.62673800  0.03210200  0.25348500  1
  C  C15  1  0.40536300  0.37326200  0.25348500  1
  Ni  Ni16  1  0.00000000  0.00000000  0.50994100  1
  Ni  Ni17  1  0.00000000  0.00000000  0.00994100  1
  Cu  Cu18  1  0.16174300  0.68152600  0.25059500  1
  Cu  Cu19  1  0.73577300  0.09795300  0.44483100  1
  Cu  Cu20  1  0.09329800  0.34688500  0.57031000  1
  Cu  Cu21  1  0.26422700  0.90204700  0.94483100  1
  Cu  Cu22  1  0.13041900  0.59969400  0.74632000  1
  Cu  Cu23  1  0.25358700  0.90670200  0.57031000  1
  Cu  Cu24  1  0.51978200  0.83825700  0.25059500  1
  Cu  Cu25  1  0.48021800  0.16174300  0.75059500  1
  Cu  Cu26  1  0.65311500  0.74641300  0.57031000  1
  Cu  Cu27  1  0.40030600  0.53072500  0.74632000  1
  Cu  Cu28  1  0.31847400  0.48021800  0.25059500  1
  Cu  Cu29  1  0.36218000  0.26422700  0.44483100  1
  Cu  Cu30  1  0.90670200  0.65311500  0.07031000  1
  Cu  Cu31  1  0.83825700  0.31847400  0.75059500  1
  Cu  Cu32  1  0.86958100  0.40030600  0.24632000  1
  Cu  Cu33  1  0.09795300  0.36218000  0.94483100  1
  Cu  Cu34  1  0.90204700  0.63782000  0.44483100  1
  Cu  Cu35  1  0.59969400  0.46927500  0.24632000  1
  Cu  Cu36  1  0.34688500  0.25358700  0.07031000  1
  Cu  Cu37  1  0.68152600  0.51978200  0.75059500  1
  Cu  Cu38  1  0.63782000  0.73577300  0.94483100  1
  Cu  Cu39  1  0.74641300  0.09329800  0.07031000  1
  Cu  Cu40  1  0.46927500  0.86958100  0.74632000  1
  Cu  Cu41  1  0.53072500  0.13041900  0.24632000  1
