# generated using pymatgen
data_CuNi3C11
_symmetry_space_group_name_H-M   'P 1'
_cell_length_a   12.98832500
_cell_length_b   7.16401100
_cell_length_c   12.49424886
_cell_angle_alpha   68.22327629
_cell_angle_beta   90.00000000
_cell_angle_gamma   90.00000000
_symmetry_Int_Tables_number   1
_chemical_formula_structural   CuNi3C11
_chemical_formula_sum   'Cu4 Ni12 C44'
_cell_volume   1079.60614472
_cell_formula_units_Z   4
loop_
 _symmetry_equiv_pos_site_id
 _symmetry_equiv_pos_as_xyz
  1  'x, y, z'
loop_
 _atom_site_type_symbol
 _atom_site_label
 _atom_site_symmetry_multiplicity
 _atom_site_fract_x
 _atom_site_fract_y
 _atom_site_fract_z
 _atom_site_occupancy
  C  C0  1  0.56068000  0.59473800  0.65049200  1
  C  C1  1  0.43932000  0.40526200  0.34950800  1
  C  C2  1  0.06068000  0.40526200  0.84950800  1
  C  C3  1  0.93932000  0.59473800  0.15049200  1
  Ni  Ni4  1  0.15050900  0.67325600  0.59237600  1
  Ni  Ni5  1  0.84949100  0.32674400  0.40762400  1
  Ni  Ni6  1  0.65050900  0.32674400  0.90762400  1
  Ni  Ni7  1  0.34949100  0.67325600  0.09237600  1
  Ni  Ni8  1  0.34189500  0.64978800  0.86593100  1
  Ni  Ni9  1  0.65810500  0.35021200  0.13406900  1
  Ni  Ni10  1  0.84189500  0.35021200  0.63406900  1
  Ni  Ni11  1  0.15810500  0.64978800  0.36593100  1
  Ni  Ni12  1  0.16896700  0.82873900  0.94110400  1
  Ni  Ni13  1  0.83103300  0.17126100  0.05889600  1
  Ni  Ni14  1  0.66896700  0.17126100  0.55889600  1
  Ni  Ni15  1  0.33103300  0.82873900  0.44110400  1
  Cu  Cu16  1  0.36625000  0.28144200  0.72069400  1
  Cu  Cu17  1  0.63375000  0.71855800  0.27930600  1
  Cu  Cu18  1  0.86625000  0.71855800  0.77930600  1
  Cu  Cu19  1  0.13375000  0.28144200  0.22069500  1
  C  C20  1  0.65609500  0.73538400  0.01624800  1
  C  C21  1  0.34390500  0.26461600  0.98375200  1
  C  C22  1  0.15609500  0.26461600  0.48375200  1
  C  C23  1  0.84390500  0.73538400  0.51624800  1
  C  C24  1  0.28623400  0.42433900  0.91947400  1
  C  C25  1  0.71376600  0.57566100  0.08052600  1
  C  C26  1  0.78623400  0.57566100  0.58052600  1
  C  C27  1  0.21376600  0.42433900  0.41947400  1
  C  C28  1  0.40203600  0.67044300  0.96928900  1
  C  C29  1  0.59796400  0.32955700  0.03071100  1
  C  C30  1  0.90203600  0.32955700  0.53071100  1
  C  C31  1  0.09796400  0.67044300  0.46928900  1
  C  C32  1  0.09756200  0.65011600  0.98454100  1
  C  C33  1  0.90243800  0.34988400  0.01545900  1
  C  C34  1  0.59756200  0.34988400  0.51545900  1
  C  C35  1  0.40243800  0.65011600  0.48454100  1
  C  C36  1  0.24516100  0.82783300  0.53452400  1
  C  C37  1  0.75483900  0.17216700  0.46547600  1
  C  C38  1  0.74516100  0.17216700  0.96547600  1
  C  C39  1  0.25483900  0.82783300  0.03452400  1
  C  C40  1  0.24339200  0.78825900  0.84145300  1
  C  C41  1  0.75660800  0.21174100  0.15854700  1
  C  C42  1  0.74339200  0.21174100  0.65854700  1
  C  C43  1  0.25660800  0.78825900  0.34145300  1
  C  C44  1  0.12513600  0.03423900  0.89075300  1
  C  C45  1  0.87486400  0.96576100  0.10924700  1
  C  C46  1  0.62513600  0.96576100  0.60924700  1
  C  C47  1  0.37486400  0.03423900  0.39075300  1
  C  C48  1  0.40469200  0.67726800  0.76328900  1
  C  C49  1  0.59530800  0.32273200  0.23671100  1
  C  C50  1  0.90469200  0.32273200  0.73671100  1
  C  C51  1  0.09530800  0.67726800  0.26328900  1
  C  C52  1  0.07313700  0.76416700  0.64601700  1
  C  C53  1  0.92686300  0.23583300  0.35398300  1
  C  C54  1  0.57313700  0.23583300  0.85398300  1
  C  C55  1  0.42686300  0.76416700  0.14601700  1
  C  C56  1  0.19004800  0.46756900  0.66199700  1
  C  C57  1  0.80995200  0.53243100  0.33800300  1
  C  C58  1  0.69004800  0.53243100  0.83800300  1
  C  C59  1  0.30995200  0.46756900  0.16199700  1
