# generated using pymatgen
data_Cu8Ni6C29
_symmetry_space_group_name_H-M   'P 1'
_cell_length_a   8.23667705
_cell_length_b   8.18196689
_cell_length_c   9.90158040
_cell_angle_alpha   115.52721263
_cell_angle_beta   115.64949583
_cell_angle_gamma   70.61954070
_symmetry_Int_Tables_number   1
_chemical_formula_structural   Cu8Ni6C29
_chemical_formula_sum   'Cu8 Ni6 C29'
_cell_volume   534.08319107
_cell_formula_units_Z   1
loop_
 _symmetry_equiv_pos_site_id
 _symmetry_equiv_pos_as_xyz
  1  'x, y, z'
loop_
 _atom_site_type_symbol
 _atom_site_label
 _atom_site_symmetry_multiplicity
 _atom_site_fract_x
 _atom_site_fract_y
 _atom_site_fract_z
 _atom_site_occupancy
  C  C0  1  0.22289700  0.59722700  0.67736000  1
  C  C1  1  0.77832500  0.40123200  0.32523700  1
  C  C2  1  0.14175500  0.01860500  0.84845900  1
  C  C3  1  0.86325000  0.97792000  0.15069100  1
  C  C4  1  0.09243200  0.58421100  0.93950300  1
  C  C5  1  0.90281300  0.41366100  0.05895700  1
  Ni  Ni6  1  0.17670500  0.21795300  0.41734400  1
  Ni  Ni7  1  0.82289900  0.78264900  0.58132800  1
  Ni  Ni8  1  0.71405400  0.10490600  0.83573200  1
  Ni  Ni9  1  0.28496600  0.89706100  0.16367900  1
  Ni  Ni10  1  0.31063200  0.25943000  0.76093000  1
  Ni  Ni11  1  0.68897600  0.74040400  0.23847200  1
  Cu  Cu12  1  0.81476600  0.52638700  0.71351500  1
  Cu  Cu13  1  0.17465700  0.46962600  0.27765200  1
  Cu  Cu14  1  0.48657200  0.70021700  0.70058000  1
  Cu  Cu15  1  0.48312900  0.33305000  0.29871000  1
  Cu  Cu16  1  0.84114200  0.38155400  0.79223100  1
  Cu  Cu17  1  0.15450200  0.61749000  0.20655000  1
  Cu  Cu18  1  0.53584100  0.72939800  0.88119100  1
  Cu  Cu19  1  0.47754900  0.26028200  0.12415700  1
  C  C20  1  0.68298100  0.93691800  0.66690500  1
  C  C21  1  0.31795300  0.06222700  0.33438200  1
  C  C22  1  0.01733300  0.80851900  0.68285900  1
  C  C23  1  0.98301800  0.19129300  0.31472100  1
  C  C24  1  0.85789600  0.50626200  0.81582400  1
  C  C25  1  0.13893800  0.49027500  0.17661900  1
  C  C26  1  0.86102900  0.20095200  0.86339100  1
  C  C27  1  0.13691400  0.80073000  0.13282900  1
  C  C28  1  0.23040100  0.15871400  0.56984500  1
  C  C29  1  0.76717600  0.84343500  0.42945900  1
  C  C30  1  0.44874100  0.68451100  0.77438700  1
  C  C31  1  0.55589500  0.30808400  0.23462800  1
  C  C32  1  0.22352700  0.40326300  0.46622900  1
  C  C33  1  0.77548700  0.59775800  0.53225100  1
  C  C34  1  0.76666800  0.53708400  0.20035800  1
  C  C35  1  0.23244100  0.46262800  0.80110200  1
  C  C36  1  0.52405300  0.24463000  0.79187300  1
  C  C37  1  0.47475800  0.75603700  0.20549700  1
  C  C38  1  0.73396100  0.04001200  0.96155000  1
  C  C39  1  0.26580900  0.96713300  0.04089200  1
  C  C40  1  0.71729400  0.84228700  0.15946600  1
  C  C41  1  0.28536900  0.15395500  0.83845300  1
  C  C42  1  0.34649800  0.71903000  0.48420300  1
