# generated using pymatgen
data_Cu2Ni2C13
_symmetry_space_group_name_H-M   'P 1'
_cell_length_a   8.32123136
_cell_length_b   9.62570539
_cell_length_c   10.88504400
_cell_angle_alpha   90.00000000
_cell_angle_beta   90.00000000
_cell_angle_gamma   92.51757268
_symmetry_Int_Tables_number   1
_chemical_formula_structural   Cu2Ni2C13
_chemical_formula_sum   'Cu8 Ni8 C52'
_cell_volume   871.02569380
_cell_formula_units_Z   4
loop_
 _symmetry_equiv_pos_site_id
 _symmetry_equiv_pos_as_xyz
  1  'x, y, z'
loop_
 _atom_site_type_symbol
 _atom_site_label
 _atom_site_symmetry_multiplicity
 _atom_site_fract_x
 _atom_site_fract_y
 _atom_site_fract_z
 _atom_site_occupancy
  C  C0  1  0.07438600  0.26256000  0.39147200  1
  C  C1  1  0.92561400  0.23744000  0.89147200  1
  C  C2  1  0.92561400  0.73744000  0.60852800  1
  C  C3  1  0.07438600  0.76256000  0.10852800  1
  Ni  Ni4  1  0.17562500  0.06042400  0.65653000  1
  Ni  Ni5  1  0.82437500  0.43957600  0.15653000  1
  Ni  Ni6  1  0.82437500  0.93957600  0.34347000  1
  Ni  Ni7  1  0.17562500  0.56042400  0.84347000  1
  Ni  Ni8  1  0.22319200  0.61571300  0.38931300  1
  Ni  Ni9  1  0.77680800  0.88428700  0.88931300  1
  Ni  Ni10  1  0.77680800  0.38428700  0.61068700  1
  Ni  Ni11  1  0.22319200  0.11571300  0.11068700  1
  C  C12  1  0.34741600  0.94719500  0.79742600  1
  C  C13  1  0.65258400  0.55280500  0.29742600  1
  C  C14  1  0.65258400  0.05280500  0.20257400  1
  C  C15  1  0.34741600  0.44719500  0.70257400  1
  C  C16  1  0.43800300  0.96154800  0.64928100  1
  C  C17  1  0.56199700  0.53845200  0.14928100  1
  C  C18  1  0.56199700  0.03845200  0.35071900  1
  C  C19  1  0.43800300  0.46154800  0.85071900  1
  C  C20  1  0.43810800  0.10923300  0.74749600  1
  C  C21  1  0.56189200  0.39076700  0.24749600  1
  C  C22  1  0.56189200  0.89076700  0.25250400  1
  C  C23  1  0.43810800  0.60923300  0.75250400  1
  C  C24  1  0.37978400  0.81106400  0.46280900  1
  C  C25  1  0.62021600  0.68893600  0.96280900  1
  C  C26  1  0.62021600  0.18893600  0.53719100  1
  C  C27  1  0.37978400  0.31106400  0.03719100  1
  C  C28  1  0.39358100  0.66499600  0.56228300  1
  C  C29  1  0.60641900  0.83500400  0.06228300  1
  C  C30  1  0.60641900  0.33500400  0.43771700  1
  C  C31  1  0.39358100  0.16499600  0.93771700  1
  C  C32  1  0.50784200  0.67374400  0.42409700  1
  C  C33  1  0.49215800  0.82625600  0.92409700  1
  C  C34  1  0.49215800  0.32625600  0.57590300  1
  C  C35  1  0.50784200  0.17374400  0.07590300  1
  Cu  Cu36  1  0.36798800  0.01618200  0.71813800  1
  Cu  Cu37  1  0.63201200  0.48381800  0.21813800  1
  Cu  Cu38  1  0.63201200  0.98381800  0.28186200  1
  Cu  Cu39  1  0.36798800  0.51618200  0.78186200  1
  Cu  Cu40  1  0.39307700  0.69828000  0.46599500  1
  Cu  Cu41  1  0.60692300  0.80172000  0.96599500  1
  Cu  Cu42  1  0.60692300  0.30172000  0.53400500  1
  Cu  Cu43  1  0.39307700  0.19828000  0.03400500  1
  C  C44  1  0.20579800  0.15554100  0.54404100  1
  C  C45  1  0.79420200  0.34445900  0.04404100  1
  C  C46  1  0.79420200  0.84445900  0.45595900  1
  C  C47  1  0.20579800  0.65554100  0.95595900  1
  C  C48  1  0.08319900  0.13364700  0.75908100  1
  C  C49  1  0.91680100  0.36635300  0.25908100  1
  C  C50  1  0.91680100  0.86635300  0.24091900  1
  C  C51  1  0.08319900  0.63364700  0.74091900  1
  C  C52  1  0.08851000  0.92222400  0.61899500  1
  C  C53  1  0.91149000  0.57777600  0.11899500  1
  C  C54  1  0.91149000  0.07777600  0.38100500  1
  C  C55  1  0.08851000  0.42222400  0.88100500  1
  C  C56  1  0.23836500  0.45603500  0.39359400  1
  C  C57  1  0.76163500  0.04396500  0.89359400  1
  C  C58  1  0.76163500  0.54396500  0.60640600  1
  C  C59  1  0.23836500  0.95603500  0.10640600  1
  C  C60  1  0.06985900  0.65721800  0.45737400  1
  C  C61  1  0.93014100  0.84278200  0.95737400  1
  C  C62  1  0.93014100  0.34278200  0.54262600  1
  C  C63  1  0.06985900  0.15721800  0.04262600  1
  C  C64  1  0.22336000  0.66988200  0.25537800  1
  C  C65  1  0.77664000  0.83011800  0.75537800  1
  C  C66  1  0.77664000  0.33011800  0.74462200  1
  C  C67  1  0.22336000  0.16988200  0.24462200  1
