# generated using pymatgen
data_Cu14Ni3C
_symmetry_space_group_name_H-M   'P 1'
_cell_length_a   7.15668800
_cell_length_b   9.33130571
_cell_length_c   9.87956314
_cell_angle_alpha   65.40711549
_cell_angle_beta   82.52923324
_cell_angle_gamma   74.09625371
_symmetry_Int_Tables_number   1
_chemical_formula_structural   Cu14Ni3C
_chemical_formula_sum   'Cu28 Ni6 C2'
_cell_volume   576.86110071
_cell_formula_units_Z   2
loop_
 _symmetry_equiv_pos_site_id
 _symmetry_equiv_pos_as_xyz
  1  'x, y, z'
loop_
 _atom_site_type_symbol
 _atom_site_label
 _atom_site_symmetry_multiplicity
 _atom_site_fract_x
 _atom_site_fract_y
 _atom_site_fract_z
 _atom_site_occupancy
  C  C0  1  0.18457000  0.33134600  0.77172200  1
  C  C1  1  0.81543000  0.66865400  0.22827800  1
  Ni  Ni2  1  0.02798200  0.16595700  0.05827500  1
  Ni  Ni3  1  0.97201800  0.83404300  0.94172500  1
  Ni  Ni4  1  0.98829400  0.67248500  0.61067300  1
  Ni  Ni5  1  0.01170600  0.32751500  0.38932700  1
  Ni  Ni6  1  0.49266600  0.17129200  0.63994700  1
  Ni  Ni7  1  0.50733400  0.82870800  0.36005300  1
  Cu  Cu8  1  0.19105000  0.10520100  0.00678200  1
  Cu  Cu9  1  0.80895000  0.89479900  0.99321800  1
  Cu  Cu10  1  0.94718500  0.31582700  0.97565300  1
  Cu  Cu11  1  0.05281500  0.68417300  0.02434700  1
  Cu  Cu12  1  0.95331100  0.08836000  0.17512300  1
  Cu  Cu13  1  0.04668900  0.91164000  0.82487700  1
  Cu  Cu14  1  0.00410300  0.60564100  0.75311800  1
  Cu  Cu15  1  0.99589700  0.39435900  0.24688200  1
  Cu  Cu16  1  0.10350500  0.58546600  0.54383300  1
  Cu  Cu17  1  0.89649500  0.41453400  0.45616700  1
  Cu  Cu18  1  0.87588300  0.80168100  0.54303500  1
  Cu  Cu19  1  0.12411700  0.19831900  0.45696500  1
  Cu  Cu20  1  0.40947400  0.09714200  0.76552900  1
  Cu  Cu21  1  0.59052600  0.90285800  0.23447100  1
  Cu  Cu22  1  0.43318300  0.32950700  0.58761900  1
  Cu  Cu23  1  0.56681700  0.67049300  0.41238100  1
  Cu  Cu24  1  0.61309600  0.09987800  0.57639900  1
  Cu  Cu25  1  0.38690400  0.90012200  0.42360100  1
  Cu  Cu26  1  0.92853100  0.27186800  0.71400800  1
  Cu  Cu27  1  0.07146900  0.72813200  0.28599200  1
  Cu  Cu28  1  0.48137000  0.61190200  0.73023000  1
  Cu  Cu29  1  0.51863000  0.38809800  0.26977000  1
  Cu  Cu30  1  0.59238900  0.24390000  0.94494900  1
  Cu  Cu31  1  0.40761100  0.75610000  0.05505100  1
  Cu  Cu32  1  0.43414400  0.33681000  0.95239300  1
  Cu  Cu33  1  0.56585600  0.66319000  0.04760700  1
  Cu  Cu34  1  0.49819400  0.27402200  0.24649900  1
  Cu  Cu35  1  0.50180600  0.72597800  0.75350100  1
