# generated using pymatgen
data_Cu5Ni2C25
_symmetry_space_group_name_H-M   'P 1'
_cell_length_a   5.00642700
_cell_length_b   5.17726853
_cell_length_c   11.28450033
_cell_angle_alpha   82.18196936
_cell_angle_beta   86.55208951
_cell_angle_gamma   79.19132910
_symmetry_Int_Tables_number   1
_chemical_formula_structural   Cu5Ni2C25
_chemical_formula_sum   'Cu5 Ni2 C25'
_cell_volume   284.45008860
_cell_formula_units_Z   1
loop_
 _symmetry_equiv_pos_site_id
 _symmetry_equiv_pos_as_xyz
  1  'x, y, z'
loop_
 _atom_site_type_symbol
 _atom_site_label
 _atom_site_symmetry_multiplicity
 _atom_site_fract_x
 _atom_site_fract_y
 _atom_site_fract_z
 _atom_site_occupancy
  C  C0  1  0.26391000  0.06846400  0.93649500  1
  C  C1  1  0.73551700  0.18982000  0.81607400  1
  C  C2  1  0.25447500  0.31281400  0.68740300  1
  C  C3  1  0.26448300  0.81018000  0.18392600  1
  C  C4  1  0.73609000  0.93153600  0.06350500  1
  C  C5  1  0.24732900  0.56181100  0.43698100  1
  C  C6  1  0.74552500  0.68718600  0.31259700  1
  C  C7  1  0.75267100  0.43818900  0.56301900  1
  C  C8  1  0.50000000  0.50000000  0.00000000  1
  Ni  Ni9  1  0.00242000  0.61685000  0.87779000  1
  Ni  Ni10  1  0.99758000  0.38315000  0.12221000  1
  Cu  Cu11  1  0.49894100  0.73763300  0.75602900  1
  Cu  Cu12  1  0.99462400  0.87809200  0.62598700  1
  Cu  Cu13  1  0.50000000  0.00000000  0.50000000  1
  Cu  Cu14  1  0.00537600  0.12190800  0.37401300  1
  Cu  Cu15  1  0.50105900  0.26236700  0.24397100  1
  C  C16  1  0.10631700  0.69219600  0.02914000  1
  C  C17  1  0.63763100  0.83179000  0.89408700  1
  C  C18  1  0.13250800  0.92629900  0.78769800  1
  C  C19  1  0.13533800  0.45295800  0.27223900  1
  C  C20  1  0.64760200  0.58358100  0.15643900  1
  C  C21  1  0.12805800  0.20454700  0.53175900  1
  C  C22  1  0.63244100  0.32039600  0.39714500  1
  C  C23  1  0.63724300  0.08540700  0.64836300  1
  C  C24  1  0.35239800  0.41641900  0.84356100  1
  C  C25  1  0.86466200  0.54704200  0.72776100  1
  C  C26  1  0.36755900  0.67960400  0.60285500  1
  C  C27  1  0.36236900  0.16821000  0.10591300  1
  C  C28  1  0.89368300  0.30780400  0.97086000  1
  C  C29  1  0.36275700  0.91459300  0.35163700  1
  C  C30  1  0.86749200  0.07370100  0.21230200  1
  C  C31  1  0.87194200  0.79545300  0.46824100  1
