# generated using pymatgen
data_Cu4Ni2C27
_symmetry_space_group_name_H-M   'P 1'
_cell_length_a   5.62951547
_cell_length_b   7.64682847
_cell_length_c   10.50332790
_cell_angle_alpha   89.93517652
_cell_angle_beta   89.51072096
_cell_angle_gamma   102.80161133
_symmetry_Int_Tables_number   1
_chemical_formula_structural   Cu4Ni2C27
_chemical_formula_sum   'Cu4 Ni2 C27'
_cell_volume   440.88947211
_cell_formula_units_Z   1
loop_
 _symmetry_equiv_pos_site_id
 _symmetry_equiv_pos_as_xyz
  1  'x, y, z'
loop_
 _atom_site_type_symbol
 _atom_site_label
 _atom_site_symmetry_multiplicity
 _atom_site_fract_x
 _atom_site_fract_y
 _atom_site_fract_z
 _atom_site_occupancy
  C  C0  1  0.55337389  0.88053511  0.97033308  1
  C  C1  1  0.44849705  0.13667187  0.32354960  1
  C  C2  1  0.04368747  0.87533966  0.82054700  1
  Ni  Ni3  1  0.54162393  0.87146947  0.66938356  1
  Ni  Ni4  1  0.94736960  0.13733216  0.18536262  1
  Cu  Cu5  1  0.91581695  0.46904754  0.35870269  1
  Cu  Cu6  1  0.58316758  0.50835254  0.85205807  1
  Cu  Cu7  1  0.07819537  0.54033276  0.64700273  1
  Cu  Cu8  1  0.41162014  0.46632256  0.14736480  1
  C  C9  1  0.55800161  0.27930049  0.60524662  1
  C  C10  1  0.95981824  0.73212951  0.10984441  1
  C  C11  1  0.44353574  0.73007761  0.38906727  1
  C  C12  1  0.04002356  0.26894288  0.89750229  1
  C  C13  1  0.59919015  0.11386890  0.71079634  1
  C  C14  1  0.91607679  0.89236011  0.21485790  1
  C  C15  1  0.41921937  0.90401284  0.28654402  1
  C  C16  1  0.11366371  0.11035392  0.79809632  1
  C  C17  1  0.84079612  0.37811636  0.54150598  1
  C  C18  1  0.67238603  0.66355794  0.03828718  1
  C  C19  1  0.16270525  0.64028299  0.45698468  1
  C  C20  1  0.30963144  0.37532687  0.97042892  1
  C  C21  1  0.75058617  0.23810068  0.28343357  1
  C  C22  1  0.72085221  0.80966126  0.80889698  1
  C  C23  1  0.22642039  0.77631331  0.72271596  1
  C  C24  1  0.26629552  0.22515936  0.21726560  1
  C  C25  1  0.43033497  0.43509025  0.68225461  1
  C  C26  1  0.06346167  0.56286189  0.17751544  1
  C  C27  1  0.56381593  0.57290723  0.31027203  1
  C  C28  1  0.91440707  0.42735445  0.82413942  1
  C  C29  1  0.37600068  0.17180727  0.48473824  1
  C  C30  1  0.16488007  0.83365281  0.98146705  1
  C  C31  1  0.64313029  0.82238319  0.50986091  1
  C  C32  1  0.83183203  0.12716422  0.01022509  1
