# generated using pymatgen
data_Cu28Ni2C37
_symmetry_space_group_name_H-M   'P 1'
_cell_length_a   7.00459200
_cell_length_b   9.06482287
_cell_length_c   11.74034500
_cell_angle_alpha   107.34325857
_cell_angle_beta   99.24023379
_cell_angle_gamma   90.39173939
_symmetry_Int_Tables_number   1
_chemical_formula_structural   Cu28Ni2C37
_chemical_formula_sum   'Cu28 Ni2 C37'
_cell_volume   701.14791787
_cell_formula_units_Z   1
loop_
 _symmetry_equiv_pos_site_id
 _symmetry_equiv_pos_as_xyz
  1  'x, y, z'
loop_
 _atom_site_type_symbol
 _atom_site_label
 _atom_site_symmetry_multiplicity
 _atom_site_fract_x
 _atom_site_fract_y
 _atom_site_fract_z
 _atom_site_occupancy
  C  C0  1  0.68217200  0.03561400  0.22674100  1
  C  C1  1  0.62838500  0.63983300  0.14967800  1
  C  C2  1  0.63492100  0.34128600  0.38462500  1
  C  C3  1  0.36507900  0.65871400  0.61537500  1
  C  C4  1  0.37161500  0.36016700  0.85032200  1
  C  C5  1  0.31782800  0.96438600  0.77325900  1
  Ni  Ni6  1  0.84372900  0.15493100  0.79598300  1
  Ni  Ni7  1  0.15627100  0.84506900  0.20401700  1
  Cu  Cu8  1  0.99560100  0.52759800  0.18243100  1
  Cu  Cu9  1  0.89134200  0.37110600  0.09048700  1
  Cu  Cu10  1  0.95956300  0.76632600  0.52626200  1
  Cu  Cu11  1  0.91018700  0.83651200  0.33746200  1
  Cu  Cu12  1  0.91151000  0.34981500  0.26328100  1
  Cu  Cu13  1  0.99786300  0.80481700  0.72681600  1
  Cu  Cu14  1  0.83015600  0.90717800  0.53427300  1
  Cu  Cu15  1  0.81115900  0.67555600  0.98592400  1
  Cu  Cu16  1  0.65713600  0.10825500  0.50582900  1
  Cu  Cu17  1  0.73613900  0.50652600  0.90234700  1
  Cu  Cu18  1  0.67491900  0.83300000  0.80275200  1
  Cu  Cu19  1  0.47307000  0.05273100  0.40086500  1
  Cu  Cu20  1  0.41143700  0.28650100  0.14267400  1
  Cu  Cu21  1  0.38482000  0.87717600  0.06886400  1
  Cu  Cu22  1  0.61518000  0.12282400  0.93113600  1
  Cu  Cu23  1  0.58856300  0.71349900  0.85732600  1
  Cu  Cu24  1  0.52693000  0.94726900  0.59913500  1
  Cu  Cu25  1  0.32508100  0.16700000  0.19724800  1
  Cu  Cu26  1  0.26386100  0.49347400  0.09765300  1
  Cu  Cu27  1  0.34286400  0.89174500  0.49417100  1
  Cu  Cu28  1  0.18884100  0.32444400  0.01407600  1
  Cu  Cu29  1  0.16984400  0.09282200  0.46572700  1
  Cu  Cu30  1  0.00213700  0.19518300  0.27318400  1
  Cu  Cu31  1  0.08849000  0.65018500  0.73671900  1
  Cu  Cu32  1  0.08981300  0.16348800  0.66253800  1
  Cu  Cu33  1  0.04043700  0.23367400  0.47373800  1
  Cu  Cu34  1  0.10865800  0.62889400  0.90951300  1
  Cu  Cu35  1  0.00439900  0.47240200  0.81756900  1
  C  C36  1  0.00000000  0.00000000  0.00000000  1
  C  C37  1  0.89188600  0.83819200  0.25101600  1
  C  C38  1  0.87739500  0.45330800  0.16621500  1
  C  C39  1  0.91850700  0.27698800  0.31408900  1
  C  C40  1  0.87376600  0.81471500  0.47518100  1
  C  C41  1  0.76349700  0.01275800  0.03446400  1
  C  C42  1  0.97737900  0.21178200  0.97020400  1
  C  C43  1  0.88628000  0.94406700  0.81989900  1
  C  C44  1  0.63834100  0.46353100  0.60117100  1
  C  C45  1  0.81061700  0.36429200  0.80476900  1
  C  C46  1  0.72722600  0.05832100  0.63404500  1
  C  C47  1  0.47430300  0.59877400  0.35276400  1
  C  C48  1  0.59966800  0.11695200  0.42463500  1
  C  C49  1  0.68922900  0.60648700  0.95384900  1
  C  C50  1  0.41542600  0.84936300  0.14467400  1
  C  C51  1  0.44618900  0.22964700  0.20310600  1
  C  C52  1  0.55381100  0.77035300  0.79689400  1
  C  C53  1  0.58457400  0.15063700  0.85532600  1
  C  C54  1  0.31077100  0.39351300  0.04615100  1
  C  C55  1  0.40033200  0.88304800  0.57536500  1
  C  C56  1  0.52569700  0.40122600  0.64723600  1
  C  C57  1  0.27277400  0.94167900  0.36595500  1
  C  C58  1  0.18938300  0.63570800  0.19523100  1
  C  C59  1  0.36165900  0.53646900  0.39882900  1
  C  C60  1  0.11372000  0.05593300  0.18010100  1
  C  C61  1  0.02262100  0.78821800  0.02979600  1
  C  C62  1  0.23650300  0.98724200  0.96553600  1
  C  C63  1  0.12623400  0.18528500  0.52481900  1
  C  C64  1  0.08149300  0.72301200  0.68591100  1
  C  C65  1  0.12260500  0.54669200  0.83378500  1
  C  C66  1  0.10811400  0.16180800  0.74898400  1
