# generated using pymatgen
data_CuNiC5
_symmetry_space_group_name_H-M   'P 1'
_cell_length_a   3.69316860
_cell_length_b   3.69316860
_cell_length_c   12.31148400
_cell_angle_alpha   90.00000000
_cell_angle_beta   90.00000000
_cell_angle_gamma   120.00001073
_symmetry_Int_Tables_number   1
_chemical_formula_structural   CuNiC5
_chemical_formula_sum   'Cu1 Ni1 C5'
_cell_volume   145.42506226
_cell_formula_units_Z   1
loop_
 _symmetry_equiv_pos_site_id
 _symmetry_equiv_pos_as_xyz
  1  'x, y, z'
loop_
 _atom_site_type_symbol
 _atom_site_label
 _atom_site_symmetry_multiplicity
 _atom_site_fract_x
 _atom_site_fract_y
 _atom_site_fract_z
 _atom_site_occupancy
  C  C0  1  0.00000000  0.00000000  0.77952100  1
  Ni  Ni1  1  0.66666700  0.33333300  0.22173600  1
  Cu  Cu2  1  0.33333300  0.66666700  0.49059900  1
  C  C3  1  0.66666700  0.33333300  0.88501900  1
  C  C4  1  0.00000000  0.00000000  0.13870200  1
  C  C5  1  0.66666700  0.33333300  0.40616700  1
  C  C6  1  0.00000000  0.00000000  0.57825600  1
