# generated using pymatgen
data_CuNiC
_symmetry_space_group_name_H-M   'P 1'
_cell_length_a   4.24115400
_cell_length_b   4.24115400
_cell_length_c   8.06575723
_cell_angle_alpha   105.24286611
_cell_angle_beta   105.24286611
_cell_angle_gamma   90.00000000
_symmetry_Int_Tables_number   1
_chemical_formula_structural   CuNiC
_chemical_formula_sum   'Cu2 Ni2 C2'
_cell_volume   134.68066997
_cell_formula_units_Z   2
loop_
 _symmetry_equiv_pos_site_id
 _symmetry_equiv_pos_as_xyz
  1  'x, y, z'
loop_
 _atom_site_type_symbol
 _atom_site_label
 _atom_site_symmetry_multiplicity
 _atom_site_fract_x
 _atom_site_fract_y
 _atom_site_fract_z
 _atom_site_occupancy
  C  C0  1  0.24973000  0.74973000  0.49946000  1
  C  C1  1  0.99973000  0.99973000  0.99946000  1
  Ni  Ni2  1  0.82695700  0.32695700  0.65391400  1
  Ni  Ni3  1  0.57695700  0.57695700  0.15391400  1
  Cu  Cu4  1  0.66131300  0.16131300  0.32262600  1
  Cu  Cu5  1  0.41131300  0.41131300  0.82262600  1
