# generated using pymatgen
data_Cu(NiC8)3
_symmetry_space_group_name_H-M   'P 1'
_cell_length_a   5.54491000
_cell_length_b   7.04645700
_cell_length_c   9.60047901
_cell_angle_alpha   89.99746956
_cell_angle_beta   90.00000000
_cell_angle_gamma   90.00000000
_symmetry_Int_Tables_number   1
_chemical_formula_structural   Cu(NiC8)3
_chemical_formula_sum   'Cu1 Ni3 C24'
_cell_volume   375.10962636
_cell_formula_units_Z   1
loop_
 _symmetry_equiv_pos_site_id
 _symmetry_equiv_pos_as_xyz
  1  'x, y, z'
loop_
 _atom_site_type_symbol
 _atom_site_label
 _atom_site_symmetry_multiplicity
 _atom_site_fract_x
 _atom_site_fract_y
 _atom_site_fract_z
 _atom_site_occupancy
  C  C0  1  0.50000000  0.50025300  0.00037800  1
  C  C1  1  0.00000000  0.50072500  0.49961200  1
  Ni  Ni2  1  0.00000000  0.83756000  0.83325000  1
  Ni  Ni3  1  0.00000000  0.16154700  0.16742900  1
  Ni  Ni4  1  0.50000000  0.16204300  0.66590700  1
  Cu  Cu5  1  0.50000000  0.83125200  0.33346400  1
  C  C6  1  0.50000000  0.99992200  0.00132400  1
  C  C7  1  0.00000000  0.99977200  0.49872600  1
  C  C8  1  0.50000000  0.27269800  0.33331800  1
  C  C9  1  0.00000000  0.27051500  0.83337600  1
  C  C10  1  0.00000000  0.72906200  0.16820300  1
  C  C11  1  0.50000000  0.72918700  0.66509100  1
  C  C12  1  0.73697300  0.17776300  0.41215300  1
  C  C13  1  0.23755100  0.17675700  0.91274500  1
  C  C14  1  0.26302700  0.17776300  0.41215300  1
  C  C15  1  0.76244900  0.17675700  0.91274500  1
  C  C16  1  0.50000000  0.17791500  0.17538800  1
  C  C17  1  0.00000000  0.17667900  0.67484200  1
  C  C18  1  0.76072200  0.82293400  0.09022300  1
  C  C19  1  0.26369400  0.82281800  0.58459100  1
  C  C20  1  0.23927800  0.82293400  0.09022300  1
  C  C21  1  0.73630600  0.82281800  0.58459100  1
  C  C22  1  0.00000000  0.82278700  0.32626200  1
  C  C23  1  0.50000000  0.82289400  0.82404200  1
  C  C24  1  0.50000000  0.50449600  0.33335000  1
  C  C25  1  0.00000000  0.49949900  0.83335700  1
  C  C26  1  0.00000000  0.50025600  0.16684500  1
  C  C27  1  0.50000000  0.50039000  0.66641200  1
