# generated using pymatgen
data_Cu3Ni13C80
_symmetry_space_group_name_H-M   'P 1'
_cell_length_a   5.08741900
_cell_length_b   8.84599812
_cell_length_c   19.65084639
_cell_angle_alpha   98.52103829
_cell_angle_beta   94.63013883
_cell_angle_gamma   90.10939060
_symmetry_Int_Tables_number   1
_chemical_formula_structural   Cu3Ni13C80
_chemical_formula_sum   'Cu3 Ni13 C80'
_cell_volume   871.65052195
_cell_formula_units_Z   1
loop_
 _symmetry_equiv_pos_site_id
 _symmetry_equiv_pos_as_xyz
  1  'x, y, z'
loop_
 _atom_site_type_symbol
 _atom_site_label
 _atom_site_symmetry_multiplicity
 _atom_site_fract_x
 _atom_site_fract_y
 _atom_site_fract_z
 _atom_site_occupancy
  C  C0  1  0.98756300  0.16869800  0.24950500  1
  C  C1  1  0.87388800  0.37571700  0.37518100  1
  C  C2  1  0.75143900  0.24945300  0.99944100  1
  C  C3  1  0.74205700  0.92073300  0.99987000  1
  C  C4  1  0.98862900  0.16986700  0.75005100  1
  C  C5  1  0.75602900  0.57819000  0.49917800  1
  C  C6  1  0.87412500  0.37296900  0.87468700  1
  C  C7  1  0.75564800  0.24987300  0.50016900  1
  C  C8  1  0.73851300  0.92049900  0.50004900  1
  C  C9  1  0.62478500  0.12498400  0.12493700  1
  C  C10  1  0.75910100  0.57950700  0.99989500  1
  C  C11  1  0.51008300  0.33176900  0.25054100  1
  C  C12  1  0.62384600  0.12556100  0.62527700  1
  C  C13  1  0.49915900  0.00034400  0.25022000  1
  C  C14  1  0.48773300  0.66885100  0.25050800  1
  C  C15  1  0.50742800  0.32880900  0.74937500  1
  C  C16  1  0.37424200  0.87376400  0.37492200  1
  C  C17  1  0.50615900  0.99976600  0.75017800  1
  C  C18  1  0.25179900  0.75016800  0.00020800  1
  C  C19  1  0.48792200  0.66982600  0.74968800  1
  C  C20  1  0.24085500  0.42132500  0.00026500  1
  C  C21  1  0.37355500  0.87553700  0.87520200  1
  C  C22  1  0.26031500  0.08132200  0.50050600  1
  C  C23  1  0.25117700  0.74956200  0.49980600  1
  C  C24  1  0.12508900  0.62499900  0.12504000  1
  C  C25  1  0.24069800  0.42027800  0.50031600  1
  C  C26  1  0.01106800  0.83068200  0.24994000  1
  C  C27  1  0.25557600  0.07798400  0.99921400  1
  C  C28  1  0.12434600  0.62352600  0.62478300  1
  C  C29  1  0.00434200  0.49945600  0.24999500  1
  C  C30  1  0.01051100  0.83165600  0.75053300  1
  C  C31  1  0.99976100  0.49961300  0.74974200  1
  Ni  Ni32  1  0.87185800  0.70858900  0.37334500  1
  Ni  Ni33  1  0.87951800  0.04130100  0.37453000  1
  Ni  Ni34  1  0.88081700  0.71087600  0.87713600  1
  Ni  Ni35  1  0.62621400  0.79086100  0.12519000  1
  Ni  Ni36  1  0.62451700  0.45902100  0.12512700  1
  Ni  Ni37  1  0.63066700  0.79049900  0.62443000  1
  Ni  Ni38  1  0.62253800  0.45779200  0.62332400  1
  Ni  Ni39  1  0.37989500  0.21145200  0.37718600  1
  Ni  Ni40  1  0.38052900  0.54069000  0.87424100  1
  Ni  Ni41  1  0.37130500  0.20792700  0.87318900  1
  Ni  Ni42  1  0.12420900  0.95895000  0.12501500  1
  Ni  Ni43  1  0.12653900  0.29056300  0.12483800  1
  Ni  Ni44  1  0.13084900  0.96105900  0.62714500  1
  Cu  Cu45  1  0.87072000  0.03996400  0.87496900  1
  Cu  Cu46  1  0.37101700  0.54024000  0.37519300  1
  Cu  Cu47  1  0.12157800  0.29024900  0.62516800  1
  C  C48  1  0.96283800  0.10603800  0.06858000  1
  C  C49  1  0.92868000  0.78449000  0.06846800  1
  C  C50  1  0.92813400  0.42713000  0.06720200  1
  C  C51  1  0.96514000  0.11249900  0.56958100  1
  C  C52  1  0.82150300  0.96551300  0.18173800  1
  C  C53  1  0.82200100  0.32295400  0.18267800  1
  C  C54  1  0.92709800  0.78579200  0.56810000  1
  C  C55  1  0.92486900  0.42885000  0.56728200  1
  C  C56  1  0.78683400  0.64370200  0.18152200  1
  C  C57  1  0.71311100  0.85583200  0.31826600  1
  C  C58  1  0.82148300  0.96575300  0.68157000  1
  C  C59  1  0.83063300  0.32093700  0.68195800  1
  C  C60  1  0.67400400  0.53314800  0.31951600  1
  C  C61  1  0.67758300  0.17731700  0.31735700  1
  C  C62  1  0.78350200  0.64351400  0.68170900  1
  C  C63  1  0.71498300  0.86245800  0.81947800  1
  C  C64  1  0.46294700  0.60612200  0.06851800  1
  C  C65  1  0.56836700  0.71223700  0.43069900  1
  C  C66  1  0.57114300  0.07361000  0.43293800  1
  C  C67  1  0.67664100  0.53586500  0.81791400  1
  C  C68  1  0.67454700  0.17868300  0.81716100  1
  C  C69  1  0.42824700  0.92736000  0.06750300  1
  C  C70  1  0.42825300  0.28433800  0.06813400  1
  C  C71  1  0.54074700  0.39248700  0.43195900  1
  C  C72  1  0.46321000  0.60566600  0.56833200  1
  C  C73  1  0.57120800  0.71569500  0.93149000  1
  C  C74  1  0.58081100  0.07089500  0.93186400  1
  C  C75  1  0.32181600  0.82281100  0.18267600  1
  C  C76  1  0.32162900  0.46543500  0.18157400  1
  C  C77  1  0.42768600  0.92730100  0.56714700  1
  C  C78  1  0.42408600  0.28306400  0.56943900  1
  C  C79  1  0.53369100  0.39340800  0.93142800  1
  C  C80  1  0.28658400  0.14419600  0.18161000  1
  C  C81  1  0.21543900  0.36220800  0.31960400  1
  C  C82  1  0.32126900  0.82378100  0.68286100  1
  C  C83  1  0.31807300  0.46224600  0.68053500  1
  C  C84  1  0.17465700  0.67867100  0.31727600  1
  C  C85  1  0.17718400  0.03603400  0.31838000  1
  C  C86  1  0.29031100  0.14247100  0.68184300  1
  C  C87  1  0.21275400  0.35567900  0.81819900  1
  C  C88  1  0.08090600  0.57096000  0.43184300  1
  C  C89  1  0.07127900  0.21581900  0.43177500  1
  C  C90  1  0.17731500  0.67719000  0.81706300  1
  C  C91  1  0.17386200  0.03302900  0.81936600  1
  C  C92  1  0.03339800  0.89349200  0.43174700  1
  C  C93  1  0.07057000  0.57343800  0.93262700  1
  C  C94  1  0.06805600  0.21216000  0.93047500  1
  C  C95  1  0.04070300  0.89240100  0.93177000  1
