# generated using pymatgen
data_Cu20Ni3C64
_symmetry_space_group_name_H-M   'P 1'
_cell_length_a   8.19164824
_cell_length_b   15.38866853
_cell_length_c   10.89832343
_cell_angle_alpha   95.77038803
_cell_angle_beta   112.07509487
_cell_angle_gamma   74.48288439
_symmetry_Int_Tables_number   1
_chemical_formula_structural   Cu20Ni3C64
_chemical_formula_sum   'Cu20 Ni3 C64'
_cell_volume   1226.71026803
_cell_formula_units_Z   1
loop_
 _symmetry_equiv_pos_site_id
 _symmetry_equiv_pos_as_xyz
  1  'x, y, z'
loop_
 _atom_site_type_symbol
 _atom_site_label
 _atom_site_symmetry_multiplicity
 _atom_site_fract_x
 _atom_site_fract_y
 _atom_site_fract_z
 _atom_site_occupancy
  Ni  Ni0  1  0.75000000  0.50000000  0.00000000  1
  Ni  Ni1  1  0.00102000  0.99825300  0.00000000  1
  Ni  Ni2  1  0.49898000  0.00174700  0.00000000  1
  Cu  Cu3  1  0.89582100  0.62576100  0.31967000  1
  Cu  Cu4  1  0.38965000  0.62293400  0.30922400  1
  Cu  Cu5  1  0.41957400  0.37706600  0.30922400  1
  Cu  Cu6  1  0.92385000  0.37423900  0.31967000  1
  Cu  Cu7  1  0.76415100  0.87816300  0.31044000  1
  Cu  Cu8  1  0.27459200  0.87500500  0.32300900  1
  Cu  Cu9  1  0.54841700  0.12499500  0.32300900  1
  Cu  Cu10  1  0.04628800  0.12183700  0.31044000  1
  Cu  Cu11  1  0.60417900  0.37423900  0.68033000  1
  Cu  Cu12  1  0.11035000  0.37706600  0.69077600  1
  Cu  Cu13  1  0.08042600  0.62293400  0.69077600  1
  Cu  Cu14  1  0.57615000  0.62576100  0.68033000  1
  Cu  Cu15  1  0.73584900  0.12183700  0.68956000  1
  Cu  Cu16  1  0.22540800  0.12499500  0.67699100  1
  Cu  Cu17  1  0.95158300  0.87500500  0.67699100  1
  Cu  Cu18  1  0.45371200  0.87816300  0.68956000  1
  Cu  Cu19  1  0.67829100  0.74846500  0.00000000  1
  Cu  Cu20  1  0.17788700  0.75398600  0.00000000  1
  Cu  Cu21  1  0.32211300  0.24601400  0.00000000  1
  Cu  Cu22  1  0.82170900  0.25153500  0.00000000  1
  C  C23  1  0.96346700  0.59903300  0.49993400  1
  C  C24  1  0.46353400  0.59903300  0.50006600  1
  C  C25  1  0.53653300  0.40096700  0.50006600  1
  C  C26  1  0.03646600  0.40096700  0.49993400  1
  C  C27  1  0.81052300  0.90930900  0.50563500  1
  C  C28  1  0.30488800  0.90930900  0.49436500  1
  C  C29  1  0.68947700  0.09069100  0.49436500  1
  C  C30  1  0.19511200  0.09069100  0.50563500  1
  C  C31  1  0.25222400  0.66004100  0.13673900  1
  C  C32  1  0.75417100  0.64488700  0.12543200  1
  C  C33  1  0.87126100  0.35511300  0.12543200  1
  C  C34  1  0.38451500  0.33995900  0.13673900  1
  C  C35  1  0.14544900  0.85729300  0.12240800  1
  C  C36  1  0.64357300  0.85784700  0.11916400  1
  C  C37  1  0.97559100  0.14215300  0.11916400  1
  C  C38  1  0.47696000  0.14270700  0.12240800  1
  C  C39  1  0.24777600  0.33995900  0.86326100  1
  C  C40  1  0.74582900  0.35511300  0.87456800  1
  C  C41  1  0.62873900  0.64488700  0.87456800  1
  C  C42  1  0.11548500  0.66004100  0.86326100  1
  C  C43  1  0.35455100  0.14270700  0.87759200  1
  C  C44  1  0.85642700  0.14215300  0.88083600  1
  C  C45  1  0.52440900  0.85784700  0.88083600  1
  C  C46  1  0.02304000  0.85729300  0.87759200  1
  C  C47  1  0.10836300  0.62519600  0.31725400  1
  C  C48  1  0.60536500  0.62250700  0.31514500  1
  C  C49  1  0.20978000  0.37749300  0.31514500  1
  C  C50  1  0.70889100  0.37480400  0.31725400  1
  C  C51  1  0.97970400  0.87814100  0.31612200  1
  C  C52  1  0.48464000  0.87645500  0.31585000  1
  C  C53  1  0.33121000  0.12354500  0.31585000  1
  C  C54  1  0.83641800  0.12185900  0.31612200  1
  C  C55  1  0.39163700  0.37480400  0.68274600  1
  C  C56  1  0.89463500  0.37749300  0.68485500  1
  C  C57  1  0.29022000  0.62250700  0.68485500  1
  C  C58  1  0.79110900  0.62519600  0.68274600  1
  C  C59  1  0.52029600  0.12185900  0.68387800  1
  C  C60  1  0.01536000  0.12354500  0.68415000  1
  C  C61  1  0.16879000  0.87645500  0.68415000  1
  C  C62  1  0.66358200  0.87814100  0.68387800  1
  C  C63  1  0.89069800  0.75076300  0.00000000  1
  C  C64  1  0.39289400  0.75149700  0.00000000  1
  C  C65  1  0.10710600  0.24850300  0.00000000  1
  C  C66  1  0.60930200  0.24923700  0.00000000  1
  C  C67  1  0.81084400  0.74816200  0.34595600  1
  C  C68  1  0.31627200  0.75353100  0.35358600  1
  C  C69  1  0.03511300  0.25183800  0.34595600  1
  C  C70  1  0.53731400  0.24646900  0.35358600  1
  C  C71  1  0.18372800  0.24646900  0.64641400  1
  C  C72  1  0.68915600  0.25183800  0.65404400  1
  C  C73  1  0.96268600  0.75353100  0.64641400  1
  C  C74  1  0.46488700  0.74816200  0.65404400  1
  C  C75  1  0.52888100  0.50376300  0.00000000  1
  C  C76  1  0.97111900  0.49623700  0.00000000  1
  C  C77  1  0.25000000  0.00000000  0.00000000  1
  C  C78  1  0.75000000  0.00000000  0.00000000  1
  C  C79  1  0.88047900  0.50000000  0.26095700  1
  C  C80  1  0.38701900  0.50000000  0.27403800  1
  C  C81  1  0.61694400  0.00270600  0.24184000  1
  C  C82  1  0.12489600  0.99729400  0.24184000  1
  C  C83  1  0.11298100  0.50000000  0.72596200  1
  C  C84  1  0.61952100  0.50000000  0.73904300  1
  C  C85  1  0.88305600  0.99729400  0.75816000  1
  C  C86  1  0.37510400  0.00270600  0.75816000  1
