# generated using pymatgen
data_Cu4NiC15
_symmetry_space_group_name_H-M   'P 1'
_cell_length_a   7.86533179
_cell_length_b   7.86533179
_cell_length_c   9.96264900
_cell_angle_alpha   90.00000000
_cell_angle_beta   90.00000000
_cell_angle_gamma   103.46002090
_symmetry_Int_Tables_number   1
_chemical_formula_structural   Cu4NiC15
_chemical_formula_sum   'Cu8 Ni2 C30'
_cell_volume   599.39495244
_cell_formula_units_Z   2
loop_
 _symmetry_equiv_pos_site_id
 _symmetry_equiv_pos_as_xyz
  1  'x, y, z'
loop_
 _atom_site_type_symbol
 _atom_site_label
 _atom_site_symmetry_multiplicity
 _atom_site_fract_x
 _atom_site_fract_y
 _atom_site_fract_z
 _atom_site_occupancy
  C  C0  1  0.70758000  0.29242000  0.25000000  1
  C  C1  1  0.29242000  0.70758000  0.75000000  1
  C  C2  1  0.13960200  0.13960200  0.00000000  1
  C  C3  1  0.86039800  0.86039800  0.50000000  1
  Ni  Ni4  1  0.72606500  0.72606500  0.00000000  1
  Ni  Ni5  1  0.27393500  0.27393500  0.50000000  1
  Cu  Cu6  1  0.45058600  0.86394200  0.12175700  1
  Cu  Cu7  1  0.86394200  0.45058600  0.87824300  1
  Cu  Cu8  1  0.54941400  0.13605800  0.62175700  1
  Cu  Cu9  1  0.13605800  0.54941400  0.37824300  1
  Cu  Cu10  1  0.66762300  0.06113600  0.90696200  1
  Cu  Cu11  1  0.06113600  0.66762300  0.09303800  1
  Cu  Cu12  1  0.33237700  0.93886400  0.40696200  1
  Cu  Cu13  1  0.93886400  0.33237700  0.59303800  1
  C  C14  1  0.75494600  0.89593500  0.89722900  1
  C  C15  1  0.89593500  0.75494600  0.10277100  1
  C  C16  1  0.24505400  0.10406500  0.39722900  1
  C  C17  1  0.10406500  0.24505400  0.60277100  1
  C  C18  1  0.54801400  0.71191700  0.08738500  1
  C  C19  1  0.71191700  0.54801400  0.91261500  1
  C  C20  1  0.45198600  0.28808300  0.58738500  1
  C  C21  1  0.28808300  0.45198600  0.41261500  1
  C  C22  1  0.81827600  0.24338900  0.92541400  1
  C  C23  1  0.24338900  0.81827600  0.07458600  1
  C  C24  1  0.18172400  0.75661100  0.42541400  1
  C  C25  1  0.75661100  0.18172400  0.57458600  1
  C  C26  1  0.45980900  0.92417800  0.27955500  1
  C  C27  1  0.92417800  0.45980900  0.72044500  1
  C  C28  1  0.54019100  0.07582200  0.77955500  1
  C  C29  1  0.07582200  0.54019100  0.22044500  1
  C  C30  1  0.53905300  0.04687300  0.04010000  1
  C  C31  1  0.04687300  0.53905300  0.95990000  1
  C  C32  1  0.46094700  0.95312700  0.54010000  1
  C  C33  1  0.95312700  0.46094700  0.45990000  1
  C  C34  1  0.94757600  0.05242400  0.25000000  1
  C  C35  1  0.05242400  0.94757600  0.75000000  1
  C  C36  1  0.40160300  0.36029200  0.16117600  1
  C  C37  1  0.36029200  0.40160300  0.83882400  1
  C  C38  1  0.59839700  0.63970800  0.66117600  1
  C  C39  1  0.63970800  0.59839700  0.33882400  1
