# generated using pymatgen
data_CuNiC7
_symmetry_space_group_name_H-M   'P 1'
_cell_length_a   7.36995976
_cell_length_b   7.36995976
_cell_length_c   7.36995976
_cell_angle_alpha   120.44287446
_cell_angle_beta   120.16549906
_cell_angle_gamma   89.47410503
_symmetry_Int_Tables_number   1
_chemical_formula_structural   CuNiC7
_chemical_formula_sum   'Cu2 Ni2 C14'
_cell_volume   281.74480161
_cell_formula_units_Z   2
loop_
 _symmetry_equiv_pos_site_id
 _symmetry_equiv_pos_as_xyz
  1  'x, y, z'
loop_
 _atom_site_type_symbol
 _atom_site_label
 _atom_site_symmetry_multiplicity
 _atom_site_fract_x
 _atom_site_fract_y
 _atom_site_fract_z
 _atom_site_occupancy
  C  C0  1  0.37017100  0.12017100  0.25000000  1
  C  C1  1  0.62982900  0.87982900  0.75000000  1
  Ni  Ni2  1  0.00000000  0.50000000  0.50000000  1
  Ni  Ni3  1  0.50000000  0.50000000  0.00000000  1
  Cu  Cu4  1  0.00000000  0.50000000  0.00000000  1
  Cu  Cu5  1  0.00000000  0.00000000  0.50000000  1
  C  C6  1  0.31677500  0.56677500  0.75000000  1
  C  C7  1  0.92536800  0.17536800  0.75000000  1
  C  C8  1  0.32931300  0.18581900  0.75982400  1
  C  C9  1  0.92599500  0.56948900  0.74017600  1
  C  C10  1  0.32931300  0.56948900  0.14349400  1
  C  C11  1  0.92599500  0.18581900  0.35650600  1
  C  C12  1  0.68322500  0.43322500  0.25000000  1
  C  C13  1  0.07463200  0.82463200  0.25000000  1
  C  C14  1  0.67068700  0.81418100  0.24017600  1
  C  C15  1  0.07400500  0.43051100  0.25982400  1
  C  C16  1  0.67068700  0.43051100  0.85650600  1
  C  C17  1  0.07400500  0.81418100  0.64349400  1
