# generated using pymatgen
data_CuNi6C
_symmetry_space_group_name_H-M   'P 1'
_cell_length_a   4.40431800
_cell_length_b   6.35114100
_cell_length_c   10.83975100
_cell_angle_alpha   90.00000000
_cell_angle_beta   90.00000000
_cell_angle_gamma   90.00000000
_symmetry_Int_Tables_number   1
_chemical_formula_structural   CuNi6C
_chemical_formula_sum   'Cu2 Ni12 C2'
_cell_volume   303.21433462
_cell_formula_units_Z   2
loop_
 _symmetry_equiv_pos_site_id
 _symmetry_equiv_pos_as_xyz
  1  'x, y, z'
loop_
 _atom_site_type_symbol
 _atom_site_label
 _atom_site_symmetry_multiplicity
 _atom_site_fract_x
 _atom_site_fract_y
 _atom_site_fract_z
 _atom_site_occupancy
  Ni  Ni0  1  0.00000000  0.27020900  0.08981000  1
  Ni  Ni1  1  0.00000000  0.72979100  0.08981000  1
  Ni  Ni2  1  0.00000000  0.50000000  0.83372200  1
  Ni  Ni3  1  0.50000000  0.23174700  0.90085900  1
  Ni  Ni4  1  0.50000000  0.76825300  0.90085900  1
  Ni  Ni5  1  0.50000000  0.50000000  0.66249200  1
  Ni  Ni6  1  0.00000000  0.77020900  0.58981000  1
  Ni  Ni7  1  0.00000000  0.22979100  0.58981000  1
  Ni  Ni8  1  0.00000000  0.00000000  0.33372200  1
  Ni  Ni9  1  0.50000000  0.73174700  0.40085900  1
  Ni  Ni10  1  0.50000000  0.26825300  0.40085900  1
  Ni  Ni11  1  0.50000000  0.00000000  0.16249200  1
  Cu  Cu12  1  0.00000000  0.50000000  0.30323100  1
  Cu  Cu13  1  0.00000000  0.00000000  0.80323100  1
  C  C14  1  0.50000000  0.50000000  0.21921800  1
  C  C15  1  0.50000000  0.00000000  0.71921800  1
