# generated using pymatgen
data_Cu4NiC17
_symmetry_space_group_name_H-M   'P 1'
_cell_length_a   5.00815911
_cell_length_b   7.09563368
_cell_length_c   8.37545134
_cell_angle_alpha   92.94236474
_cell_angle_beta   92.22820104
_cell_angle_gamma   108.75718733
_symmetry_Int_Tables_number   1
_chemical_formula_structural   Cu4NiC17
_chemical_formula_sum   'Cu4 Ni1 C17'
_cell_volume   280.96865101
_cell_formula_units_Z   1
loop_
 _symmetry_equiv_pos_site_id
 _symmetry_equiv_pos_as_xyz
  1  'x, y, z'
loop_
 _atom_site_type_symbol
 _atom_site_label
 _atom_site_symmetry_multiplicity
 _atom_site_fract_x
 _atom_site_fract_y
 _atom_site_fract_z
 _atom_site_occupancy
  C  C0  1  0.40289476  0.06917336  0.60591242  1
  Ni  Ni1  1  0.79617237  0.93615418  0.32593333  1
  Cu  Cu2  1  0.39933975  0.74605157  0.83056129  1
  Cu  Cu3  1  0.62003803  0.26482272  0.19366910  1
  Cu  Cu4  1  0.05106205  0.65967019  0.27487044  1
  Cu  Cu5  1  0.99257246  0.34670013  0.74203679  1
  C  C6  1  0.52130967  0.51132245  0.51044826  1
  C  C7  1  0.01605533  0.00256391  0.00620796  1
  C  C8  1  0.16404347  0.83506318  0.17129516  1
  C  C9  1  0.87537257  0.16042847  0.83383926  1
  C  C10  1  0.48784505  0.75362372  0.65407074  1
  C  C11  1  0.52633386  0.25880526  0.36823662  1
  C  C12  1  0.19335772  0.52494829  0.85958585  1
  C  C13  1  0.81676687  0.48739431  0.16593194  1
  C  C14  1  0.22284058  0.89114855  0.83383067  1
  C  C15  1  0.81438539  0.13107867  0.18280453  1
  C  C16  1  0.27958817  0.58200610  0.33455227  1
  C  C17  1  0.73653873  0.40010125  0.68112598  1
  C  C18  1  0.63552219  0.77967785  0.95760666  1
  C  C19  1  0.39162265  0.22531805  0.06122662  1
  C  C20  1  0.17077460  0.30336693  0.60615870  1
  C  C21  1  0.88556372  0.72317387  0.41728341  1
