# generated using pymatgen
data_Cu2NiC4
_symmetry_space_group_name_H-M   'P 1'
_cell_length_a   6.82027139
_cell_length_b   6.82027139
_cell_length_c   6.82027139
_cell_angle_alpha   119.57166500
_cell_angle_beta   119.08138261
_cell_angle_gamma   91.17102145
_symmetry_Int_Tables_number   1
_chemical_formula_structural   Cu2NiC4
_chemical_formula_sum   'Cu4 Ni2 C8'
_cell_volume   226.55867662
_cell_formula_units_Z   2
loop_
 _symmetry_equiv_pos_site_id
 _symmetry_equiv_pos_as_xyz
  1  'x, y, z'
loop_
 _atom_site_type_symbol
 _atom_site_label
 _atom_site_symmetry_multiplicity
 _atom_site_fract_x
 _atom_site_fract_y
 _atom_site_fract_z
 _atom_site_occupancy
  Ni  Ni0  1  0.50000000  0.50000000  0.00000000  1
  Ni  Ni1  1  0.00000000  0.50000000  0.50000000  1
  Cu  Cu2  1  0.00000000  0.00000000  0.50000000  1
  Cu  Cu3  1  0.50000000  0.00000000  0.50000000  1
  Cu  Cu4  1  0.00000000  0.50000000  0.00000000  1
  Cu  Cu5  1  0.00000000  0.00000000  0.00000000  1
  C  C6  1  0.20662900  0.24294700  0.96368200  1
  C  C7  1  0.76745400  0.79595700  0.52850300  1
  C  C8  1  0.77926500  0.24294700  0.53631800  1
  C  C9  1  0.23254600  0.76104900  0.02850300  1
  C  C10  1  0.22073500  0.75705300  0.46368200  1
  C  C11  1  0.23254600  0.20404300  0.47149700  1
  C  C12  1  0.76745400  0.23895100  0.97149700  1
  C  C13  1  0.79337100  0.75705300  0.03631800  1
