# generated using pymatgen
data_CuNi3C10
_symmetry_space_group_name_H-M   'P 1'
_cell_length_a   4.00406600
_cell_length_b   4.00406600
_cell_length_c   12.61931800
_cell_angle_alpha   90.00000000
_cell_angle_beta   90.00000000
_cell_angle_gamma   90.00000000
_symmetry_Int_Tables_number   1
_chemical_formula_structural   CuNi3C10
_chemical_formula_sum   'Cu1 Ni3 C10'
_cell_volume   202.31977780
_cell_formula_units_Z   1
loop_
 _symmetry_equiv_pos_site_id
 _symmetry_equiv_pos_as_xyz
  1  'x, y, z'
loop_
 _atom_site_type_symbol
 _atom_site_label
 _atom_site_symmetry_multiplicity
 _atom_site_fract_x
 _atom_site_fract_y
 _atom_site_fract_z
 _atom_site_occupancy
  Ni  Ni0  1  0.00000000  0.00000000  0.64926600  1
  Ni  Ni1  1  0.00000000  0.00000000  0.34918200  1
  Ni  Ni2  1  0.50000000  0.50000000  0.85118700  1
  Cu  Cu3  1  0.50000000  0.50000000  0.14993600  1
  C  C4  1  0.00000000  0.00000000  0.00120200  1
  C  C5  1  0.50000000  0.50000000  0.50001900  1
  C  C6  1  0.50000000  0.00000000  0.24802300  1
  C  C7  1  0.00000000  0.50000000  0.75014800  1
  C  C8  1  0.00000000  0.50000000  0.24802300  1
  C  C9  1  0.50000000  0.00000000  0.75014800  1
  C  C10  1  0.50000000  0.00000000  0.00191700  1
  C  C11  1  0.00000000  0.50000000  0.49951500  1
  C  C12  1  0.50000000  0.00000000  0.49951500  1
  C  C13  1  0.00000000  0.50000000  0.00191700  1
