# generated using pymatgen
data_Cu2NiC4
_symmetry_space_group_name_H-M   'P 1'
_cell_length_a   8.33912800
_cell_length_b   8.33912800
_cell_length_c   5.75619200
_cell_angle_alpha   90.00000000
_cell_angle_beta   90.00000000
_cell_angle_gamma   90.00000000
_symmetry_Int_Tables_number   1
_chemical_formula_structural   Cu2NiC4
_chemical_formula_sum   'Cu8 Ni4 C16'
_cell_volume   400.29166907
_cell_formula_units_Z   4
loop_
 _symmetry_equiv_pos_site_id
 _symmetry_equiv_pos_as_xyz
  1  'x, y, z'
loop_
 _atom_site_type_symbol
 _atom_site_label
 _atom_site_symmetry_multiplicity
 _atom_site_fract_x
 _atom_site_fract_y
 _atom_site_fract_z
 _atom_site_occupancy
  Ni  Ni0  1  0.50000000  0.00000000  0.25000000  1
  Ni  Ni1  1  0.00000000  0.50000000  0.75000000  1
  Ni  Ni2  1  0.50000000  0.00000000  0.75000000  1
  Ni  Ni3  1  0.00000000  0.50000000  0.25000000  1
  Cu  Cu4  1  0.17109100  0.18462900  0.00000000  1
  Cu  Cu5  1  0.18462900  0.82890900  0.50000000  1
  Cu  Cu6  1  0.82890900  0.81537100  0.00000000  1
  Cu  Cu7  1  0.81537100  0.17109100  0.50000000  1
  Cu  Cu8  1  0.32890900  0.68462900  0.00000000  1
  Cu  Cu9  1  0.67109100  0.31537100  0.00000000  1
  Cu  Cu10  1  0.68462900  0.67109100  0.50000000  1
  Cu  Cu11  1  0.31537100  0.32890900  0.50000000  1
  C  C12  1  0.31827500  0.18172500  0.25000000  1
  C  C13  1  0.18172500  0.68172500  0.75000000  1
  C  C14  1  0.68172500  0.81827500  0.25000000  1
  C  C15  1  0.81827500  0.31827500  0.75000000  1
  C  C16  1  0.68172500  0.81827500  0.75000000  1
  C  C17  1  0.81827500  0.31827500  0.25000000  1
  C  C18  1  0.31827500  0.18172500  0.75000000  1
  C  C19  1  0.18172500  0.68172500  0.25000000  1
  C  C20  1  0.63679400  0.10667600  0.00000000  1
  C  C21  1  0.10667600  0.36320600  0.50000000  1
  C  C22  1  0.36320600  0.89332400  0.00000000  1
  C  C23  1  0.89332400  0.63679400  0.50000000  1
  C  C24  1  0.86320600  0.60667600  0.00000000  1
  C  C25  1  0.13679400  0.39332400  0.00000000  1
  C  C26  1  0.60667600  0.13679400  0.50000000  1
  C  C27  1  0.39332400  0.86320600  0.50000000  1
