# generated using pymatgen
data_Cu(NiC)2
_symmetry_space_group_name_H-M   'P 1'
_cell_length_a   7.51310668
_cell_length_b   7.51310668
_cell_length_c   6.02855200
_cell_angle_alpha   90.00000000
_cell_angle_beta   90.00000000
_cell_angle_gamma   132.88430634
_symmetry_Int_Tables_number   1
_chemical_formula_structural   Cu(NiC)2
_chemical_formula_sum   'Cu2 Ni4 C4'
_cell_volume   249.34214718
_cell_formula_units_Z   2
loop_
 _symmetry_equiv_pos_site_id
 _symmetry_equiv_pos_as_xyz
  1  'x, y, z'
loop_
 _atom_site_type_symbol
 _atom_site_label
 _atom_site_symmetry_multiplicity
 _atom_site_fract_x
 _atom_site_fract_y
 _atom_site_fract_z
 _atom_site_occupancy
  Ni  Ni0  1  0.40748800  0.59251200  0.21911300  1
  Ni  Ni1  1  0.59251200  0.40748800  0.78088700  1
  Ni  Ni2  1  0.09251200  0.90748800  0.21911300  1
  Ni  Ni3  1  0.90748800  0.09251200  0.78088700  1
  Cu  Cu4  1  0.75000000  0.25000000  0.24127900  1
  Cu  Cu5  1  0.25000000  0.75000000  0.75872100  1
  C  C6  1  0.25000000  0.25000000  0.00000000  1
  C  C7  1  0.75000000  0.75000000  0.00000000  1
  C  C8  1  0.25000000  0.25000000  0.50000000  1
  C  C9  1  0.75000000  0.75000000  0.50000000  1
