# generated using pymatgen
data_Cu6NiC18
_symmetry_space_group_name_H-M   'P 1'
_cell_length_a   8.94050709
_cell_length_b   10.61407206
_cell_length_c   4.06703606
_cell_angle_alpha   78.94838158
_cell_angle_beta   90.01242857
_cell_angle_gamma   91.27763775
_symmetry_Int_Tables_number   1
_chemical_formula_structural   Cu6NiC18
_chemical_formula_sum   'Cu6 Ni1 C18'
_cell_volume   378.68739577
_cell_formula_units_Z   1
loop_
 _symmetry_equiv_pos_site_id
 _symmetry_equiv_pos_as_xyz
  1  'x, y, z'
loop_
 _atom_site_type_symbol
 _atom_site_label
 _atom_site_symmetry_multiplicity
 _atom_site_fract_x
 _atom_site_fract_y
 _atom_site_fract_z
 _atom_site_occupancy
  C  C0  1  0.25178500  0.72632700  0.13465400  1
  C  C1  1  0.73990300  0.03129700  0.98268200  1
  Ni  Ni2  1  0.25737100  0.99272400  0.50093000  1
  Cu  Cu3  1  0.04152500  0.27376300  0.36089100  1
  Cu  Cu4  1  0.24282800  0.46019100  0.76778100  1
  Cu  Cu5  1  0.44885600  0.28105900  0.35773600  1
  Cu  Cu6  1  0.57014300  0.73198400  0.63157300  1
  Cu  Cu7  1  0.76235000  0.54046800  0.22763900  1
  Cu  Cu8  1  0.92811500  0.73486400  0.63064100  1
  C  C9  1  0.74699100  0.59959500  0.69802900  1
  C  C10  1  0.90909800  0.41937100  0.28817300  1
  C  C11  1  0.09416900  0.86617900  0.56554100  1
  C  C12  1  0.08708100  0.29940200  0.84806600  1
  C  C13  1  0.09537400  0.59398400  0.70105300  1
  C  C14  1  0.24783000  0.43958200  0.27806600  1
  C  C15  1  0.24928900  0.17469500  0.41042200  1
  C  C16  1  0.40207200  0.59656700  0.69943000  1
  C  C17  1  0.40877000  0.30983700  0.84307400  1
  C  C18  1  0.41777200  0.87064300  0.56146800  1
  C  C19  1  0.56954700  0.14333300  0.42681600  1
  C  C20  1  0.57436900  0.72935300  0.13306500  1
  C  C21  1  0.58695900  0.42549200  0.28524500  1
  C  C22  1  0.75526300  0.85908000  0.56848700  1
  C  C23  1  0.92262900  0.72361200  0.13640800  1
  C  C24  1  0.91460400  0.13462000  0.43049600  1
