# generated using pymatgen
data_Cu2NiC10
_symmetry_space_group_name_H-M   'P 1'
_cell_length_a   4.45952000
_cell_length_b   9.43540100
_cell_length_c   13.63324900
_cell_angle_alpha   90.00000000
_cell_angle_beta   90.00000000
_cell_angle_gamma   90.00000000
_symmetry_Int_Tables_number   1
_chemical_formula_structural   Cu2NiC10
_chemical_formula_sum   'Cu8 Ni4 C40'
_cell_volume   573.65111888
_cell_formula_units_Z   4
loop_
 _symmetry_equiv_pos_site_id
 _symmetry_equiv_pos_as_xyz
  1  'x, y, z'
loop_
 _atom_site_type_symbol
 _atom_site_label
 _atom_site_symmetry_multiplicity
 _atom_site_fract_x
 _atom_site_fract_y
 _atom_site_fract_z
 _atom_site_occupancy
  C  C0  1  0.45907600  0.52689800  0.64016200  1
  C  C1  1  0.04092400  0.02689800  0.85983800  1
  C  C2  1  0.04092400  0.47310200  0.14016200  1
  C  C3  1  0.45907600  0.97310200  0.35983800  1
  C  C4  1  0.54092400  0.47310200  0.35983800  1
  C  C5  1  0.95907600  0.97310200  0.14016200  1
  C  C6  1  0.95907600  0.52689800  0.85983800  1
  C  C7  1  0.54092400  0.02689800  0.64016200  1
  Ni  Ni8  1  0.92278400  0.75000000  0.50000000  1
  Ni  Ni9  1  0.57721600  0.25000000  0.00000000  1
  Ni  Ni10  1  0.07721600  0.25000000  0.50000000  1
  Ni  Ni11  1  0.42278400  0.75000000  0.00000000  1
  Cu  Cu12  1  0.52955400  0.70249100  0.20044400  1
  Cu  Cu13  1  0.97044600  0.20249100  0.29955600  1
  Cu  Cu14  1  0.97044600  0.29750900  0.70044400  1
  Cu  Cu15  1  0.52955400  0.79750900  0.79955600  1
  Cu  Cu16  1  0.47044600  0.29750900  0.79955600  1
  Cu  Cu17  1  0.02955400  0.79750900  0.70044400  1
  Cu  Cu18  1  0.02955400  0.70249100  0.29955600  1
  Cu  Cu19  1  0.47044600  0.20249100  0.20044400  1
  C  C20  1  0.53607300  0.54945400  0.19235200  1
  C  C21  1  0.96392700  0.04945400  0.30764800  1
  C  C22  1  0.96392700  0.45054600  0.69235200  1
  C  C23  1  0.53607300  0.95054600  0.80764800  1
  C  C24  1  0.46392700  0.45054600  0.80764800  1
  C  C25  1  0.03607300  0.95054600  0.69235200  1
  C  C26  1  0.03607300  0.54945400  0.30764800  1
  C  C27  1  0.46392700  0.04945400  0.19235200  1
  C  C28  1  0.65522800  0.76726000  0.10720600  1
  C  C29  1  0.84477200  0.26726000  0.39279400  1
  C  C30  1  0.84477200  0.23274000  0.60720600  1
  C  C31  1  0.65522800  0.73274000  0.89279400  1
  C  C32  1  0.34477200  0.23274000  0.89279400  1
  C  C33  1  0.15522800  0.73274000  0.60720600  1
  C  C34  1  0.15522800  0.76726000  0.39279400  1
  C  C35  1  0.34477200  0.26726000  0.10720600  1
  C  C36  1  0.21765500  0.75799600  0.21631600  1
  C  C37  1  0.28234500  0.25799600  0.28368400  1
  C  C38  1  0.28234500  0.24200400  0.71631600  1
  C  C39  1  0.21765500  0.74200400  0.78368400  1
  C  C40  1  0.78234500  0.24200400  0.78368400  1
  C  C41  1  0.71765500  0.74200400  0.71631600  1
  C  C42  1  0.71765500  0.75799600  0.28368400  1
  C  C43  1  0.78234500  0.25799600  0.21631600  1
  C  C44  1  0.70171500  0.59753900  0.49512600  1
  C  C45  1  0.79828500  0.09753900  0.00487400  1
  C  C46  1  0.79828500  0.40246100  0.99512600  1
  C  C47  1  0.70171500  0.90246100  0.50487400  1
  C  C48  1  0.29828500  0.40246100  0.50487400  1
  C  C49  1  0.20171500  0.90246100  0.99512600  1
  C  C50  1  0.20171500  0.59753900  0.00487400  1
  C  C51  1  0.29828500  0.09753900  0.49512600  1
