# generated using pymatgen
data_Cu3NiC20
_symmetry_space_group_name_H-M   'P 1'
_cell_length_a   7.50840400
_cell_length_b   7.92517100
_cell_length_c   14.87685200
_cell_angle_alpha   90.00000000
_cell_angle_beta   90.00000000
_cell_angle_gamma   90.00000000
_symmetry_Int_Tables_number   1
_chemical_formula_structural   Cu3NiC20
_chemical_formula_sum   'Cu6 Ni2 C40'
_cell_volume   885.25281533
_cell_formula_units_Z   2
loop_
 _symmetry_equiv_pos_site_id
 _symmetry_equiv_pos_as_xyz
  1  'x, y, z'
loop_
 _atom_site_type_symbol
 _atom_site_label
 _atom_site_symmetry_multiplicity
 _atom_site_fract_x
 _atom_site_fract_y
 _atom_site_fract_z
 _atom_site_occupancy
  C  C0  1  0.23165100  0.50000000  0.50000000  1
  C  C1  1  0.76834900  0.00000000  0.00000000  1
  C  C2  1  0.64425100  0.34408900  0.24185500  1
  C  C3  1  0.64425100  0.65591100  0.75814500  1
  C  C4  1  0.35574900  0.84408900  0.25814500  1
  C  C5  1  0.35574900  0.15591100  0.74185500  1
  C  C6  1  0.93559300  0.00000000  0.50000000  1
  C  C7  1  0.06440700  0.50000000  0.00000000  1
  Ni  Ni8  1  0.73051100  0.50000000  0.50000000  1
  Ni  Ni9  1  0.26948900  0.00000000  0.00000000  1
  Cu  Cu10  1  0.14644400  0.34462100  0.26161100  1
  Cu  Cu11  1  0.14644400  0.65537900  0.73838900  1
  Cu  Cu12  1  0.85355600  0.84462100  0.23838900  1
  Cu  Cu13  1  0.85355600  0.15537900  0.76161100  1
  Cu  Cu14  1  0.56068400  0.50000000  0.00000000  1
  Cu  Cu15  1  0.43931600  0.00000000  0.50000000  1
  C  C16  1  0.26094600  0.48392700  0.29655000  1
  C  C17  1  0.26094600  0.51607300  0.70345000  1
  C  C18  1  0.73905400  0.98392700  0.20345000  1
  C  C19  1  0.73905400  0.01607300  0.79655000  1
  C  C20  1  0.04561700  0.26963000  0.33794600  1
  C  C21  1  0.04561700  0.73037000  0.66205400  1
  C  C22  1  0.95438300  0.76963000  0.16205400  1
  C  C23  1  0.95438300  0.23037000  0.83794600  1
  C  C24  1  0.02345500  0.41136900  0.19198100  1
  C  C25  1  0.02345500  0.58863100  0.80801900  1
  C  C26  1  0.97654500  0.91136900  0.30801900  1
  C  C27  1  0.97654500  0.08863100  0.69198100  1
  C  C28  1  0.26101200  0.21219600  0.21948700  1
  C  C29  1  0.26101200  0.78780400  0.78051300  1
  C  C30  1  0.73898800  0.71219600  0.28051300  1
  C  C31  1  0.73898800  0.28780400  0.71948700  1
  C  C32  1  0.32502500  0.13743400  0.53694500  1
  C  C33  1  0.32502500  0.86256600  0.46305500  1
  C  C34  1  0.67497500  0.63743400  0.96305500  1
  C  C35  1  0.67497500  0.36256600  0.03694500  1
  C  C36  1  0.44881700  0.56352500  0.07549200  1
  C  C37  1  0.44881700  0.43647500  0.92450800  1
  C  C38  1  0.55118300  0.06352500  0.42450800  1
  C  C39  1  0.55118300  0.93647500  0.57549200  1
  C  C40  1  0.85824300  0.37194700  0.54448700  1
  C  C41  1  0.85824300  0.62805300  0.45551300  1
  C  C42  1  0.14175700  0.87194700  0.95551300  1
  C  C43  1  0.14175700  0.12805300  0.04448700  1
  C  C44  1  0.60596500  0.41514000  0.43136000  1
  C  C45  1  0.60596500  0.58486000  0.56864000  1
  C  C46  1  0.39403500  0.91514000  0.06864000  1
  C  C47  1  0.39403500  0.08486000  0.93136000  1
