# generated using pymatgen
data_CuNiC7
_symmetry_space_group_name_H-M   'P 1'
_cell_length_a   8.56477892
_cell_length_b   8.56477892
_cell_length_c   8.56477892
_cell_angle_alpha   127.58732529
_cell_angle_beta   126.72594417
_cell_angle_gamma   77.99728616
_symmetry_Int_Tables_number   1
_chemical_formula_structural   CuNiC7
_chemical_formula_sum   'Cu2 Ni2 C14'
_cell_volume   386.68550831
_cell_formula_units_Z   2
loop_
 _symmetry_equiv_pos_site_id
 _symmetry_equiv_pos_as_xyz
  1  'x, y, z'
loop_
 _atom_site_type_symbol
 _atom_site_label
 _atom_site_symmetry_multiplicity
 _atom_site_fract_x
 _atom_site_fract_y
 _atom_site_fract_z
 _atom_site_occupancy
  C  C0  1  0.78230900  0.50000000  0.28230900  1
  C  C1  1  0.28230900  0.00000000  0.28230900  1
  C  C2  1  0.41594300  0.88428400  0.80022700  1
  C  C3  1  0.91594300  0.11571600  0.53165900  1
  Ni  Ni4  1  0.31666200  0.50000000  0.81666200  1
  Ni  Ni5  1  0.81666200  0.00000000  0.81666200  1
  Cu  Cu6  1  0.74744000  0.57917400  0.82661400  1
  Cu  Cu7  1  0.24744000  0.42082600  0.16826600  1
  C  C8  1  0.01323700  0.55982100  0.77567400  1
  C  C9  1  0.21585400  0.44017900  0.45341700  1
  C  C10  1  0.71585400  0.26243700  0.77567400  1
  C  C11  1  0.51323700  0.73756300  0.45341700  1
  C  C12  1  0.56031700  0.78543400  0.13520200  1
  C  C13  1  0.34976800  0.21456600  0.77488300  1
  C  C14  1  0.84976800  0.07488400  0.13520200  1
  C  C15  1  0.06031700  0.92511600  0.77488300  1
  C  C16  1  0.03316900  0.74193600  0.27510500  1
  C  C17  1  0.53316900  0.25806400  0.29123400  1
