# generated using pymatgen
data_CuNi2C
_symmetry_space_group_name_H-M   'P 1'
_cell_length_a   9.07992910
_cell_length_b   9.07992910
_cell_length_c   4.24979100
_cell_angle_alpha   90.00000000
_cell_angle_beta   90.00000000
_cell_angle_gamma   152.67747278
_symmetry_Int_Tables_number   1
_chemical_formula_structural   CuNi2C
_chemical_formula_sum   'Cu2 Ni4 C2'
_cell_volume   160.82150887
_cell_formula_units_Z   2
loop_
 _symmetry_equiv_pos_site_id
 _symmetry_equiv_pos_as_xyz
  1  'x, y, z'
loop_
 _atom_site_type_symbol
 _atom_site_label
 _atom_site_symmetry_multiplicity
 _atom_site_fract_x
 _atom_site_fract_y
 _atom_site_fract_z
 _atom_site_occupancy
  C  C0  1  0.59701200  0.40298800  0.25000000  1
  C  C1  1  0.40298800  0.59701200  0.75000000  1
  Ni  Ni2  1  0.96746700  0.03253300  0.25000000  1
  Ni  Ni3  1  0.03253300  0.96746700  0.75000000  1
  Ni  Ni4  1  0.83531600  0.16468400  0.25000000  1
  Ni  Ni5  1  0.16468400  0.83531600  0.75000000  1
  Cu  Cu6  1  0.25164600  0.74835400  0.25000000  1
  Cu  Cu7  1  0.74835400  0.25164600  0.75000000  1
