# generated using pymatgen
data_Cu2NiC4
_symmetry_space_group_name_H-M   'P 1'
_cell_length_a   3.43602300
_cell_length_b   10.19098100
_cell_length_c   12.03608600
_cell_angle_alpha   90.00000000
_cell_angle_beta   90.00000000
_cell_angle_gamma   90.00000000
_symmetry_Int_Tables_number   1
_chemical_formula_structural   Cu2NiC4
_chemical_formula_sum   'Cu8 Ni4 C16'
_cell_volume   421.46094474
_cell_formula_units_Z   4
loop_
 _symmetry_equiv_pos_site_id
 _symmetry_equiv_pos_as_xyz
  1  'x, y, z'
loop_
 _atom_site_type_symbol
 _atom_site_label
 _atom_site_symmetry_multiplicity
 _atom_site_fract_x
 _atom_site_fract_y
 _atom_site_fract_z
 _atom_site_occupancy
  Ni  Ni0  1  0.75000000  0.25368300  0.85094100  1
  Ni  Ni1  1  0.25000000  0.74631700  0.14905900  1
  Ni  Ni2  1  0.75000000  0.75368300  0.64905900  1
  Ni  Ni3  1  0.25000000  0.24631700  0.35094100  1
  Cu  Cu4  1  0.25000000  0.57780900  0.88970100  1
  Cu  Cu5  1  0.75000000  0.42219100  0.11029900  1
  Cu  Cu6  1  0.25000000  0.07780900  0.61029900  1
  Cu  Cu7  1  0.75000000  0.92219100  0.38970100  1
  Cu  Cu8  1  0.75000000  0.92432200  0.88764900  1
  Cu  Cu9  1  0.25000000  0.07567800  0.11235100  1
  Cu  Cu10  1  0.75000000  0.42432200  0.61235100  1
  Cu  Cu11  1  0.25000000  0.57567800  0.38764900  1
  C  C12  1  0.25000000  0.57599400  0.57701700  1
  C  C13  1  0.75000000  0.42400600  0.42298300  1
  C  C14  1  0.25000000  0.07599400  0.92298300  1
  C  C15  1  0.75000000  0.92400600  0.07701700  1
  C  C16  1  0.25000000  0.48397000  0.21606900  1
  C  C17  1  0.75000000  0.51603000  0.78393100  1
  C  C18  1  0.25000000  0.98397000  0.28393100  1
  C  C19  1  0.75000000  0.01603000  0.71606900  1
  C  C20  1  0.25000000  0.87496100  0.52088000  1
  C  C21  1  0.75000000  0.12503900  0.47912000  1
  C  C22  1  0.25000000  0.37496100  0.97912000  1
  C  C23  1  0.75000000  0.62503900  0.02088000  1
  C  C24  1  0.75000000  0.71048300  0.32564700  1
  C  C25  1  0.25000000  0.28951700  0.67435300  1
  C  C26  1  0.75000000  0.21048300  0.17435300  1
  C  C27  1  0.25000000  0.78951700  0.82564700  1
