# generated using pymatgen
data_Cu17Ni3C11
_symmetry_space_group_name_H-M   'P 1'
_cell_length_a   7.02964300
_cell_length_b   9.59478636
_cell_length_c   15.86886263
_cell_angle_alpha   87.77130012
_cell_angle_beta   81.85382788
_cell_angle_gamma   84.65290255
_symmetry_Int_Tables_number   1
_chemical_formula_structural   Cu17Ni3C11
_chemical_formula_sum   'Cu34 Ni6 C22'
_cell_volume   1054.55323407
_cell_formula_units_Z   2
loop_
 _symmetry_equiv_pos_site_id
 _symmetry_equiv_pos_as_xyz
  1  'x, y, z'
loop_
 _atom_site_type_symbol
 _atom_site_label
 _atom_site_symmetry_multiplicity
 _atom_site_fract_x
 _atom_site_fract_y
 _atom_site_fract_z
 _atom_site_occupancy
  C  C0  1  0.87343800  0.15977900  0.54587800  1
  C  C1  1  0.12656200  0.84022100  0.45412200  1
  C  C2  1  0.61338500  0.15979700  0.80900000  1
  C  C3  1  0.38661500  0.84020300  0.19100000  1
  C  C4  1  0.62057000  0.99349700  0.36609000  1
  C  C5  1  0.37943000  0.00650300  0.63391000  1
  C  C6  1  0.86475100  0.99688700  0.12860900  1
  C  C7  1  0.13524900  0.00311300  0.87139100  1
  C  C8  1  0.37077900  0.16091200  0.05171500  1
  C  C9  1  0.62922100  0.83908800  0.94828500  1
  C  C10  1  0.87287100  0.84484800  0.69263800  1
  C  C11  1  0.12712900  0.15515200  0.30736200  1
  C  C12  1  0.83170800  0.63933500  0.25463600  1
  C  C13  1  0.16829200  0.36066500  0.74536400  1
  C  C14  1  0.64722500  0.28670200  0.23262500  1
  C  C15  1  0.35277500  0.71329800  0.76737500  1
  C  C16  1  0.64060400  0.71023300  0.49747300  1
  C  C17  1  0.35939600  0.28976700  0.50252700  1
  C  C18  1  0.70533500  0.44593000  0.66512700  1
  C  C19  1  0.29466500  0.55407000  0.33487300  1
  C  C20  1  0.11632100  0.70765900  0.03883900  1
  C  C21  1  0.88367900  0.29234100  0.96116100  1
  Ni  Ni22  1  0.85119100  0.40341200  0.37607000  1
  Ni  Ni23  1  0.14880900  0.59658800  0.62393000  1
  Ni  Ni24  1  0.70257700  0.60687800  0.08592400  1
  Ni  Ni25  1  0.29742300  0.39312200  0.91407600  1
  Ni  Ni26  1  0.87265700  0.60626800  0.83009800  1
  Ni  Ni27  1  0.12734300  0.39373200  0.16990200  1
  Cu  Cu28  1  0.69510900  0.86888500  0.23849000  1
  Cu  Cu29  1  0.30489100  0.13111500  0.76151000  1
  Cu  Cu30  1  0.58083600  0.95860500  0.07593500  1
  Cu  Cu31  1  0.41916400  0.04139500  0.92406500  1
  Cu  Cu32  1  0.68853300  0.05155600  0.66387500  1
  Cu  Cu33  1  0.31146700  0.94844400  0.33612500  1
  Cu  Cu34  1  0.81083300  0.95774600  0.83098000  1
  Cu  Cu35  1  0.18916700  0.04225400  0.16902000  1
  Cu  Cu36  1  0.08018300  0.96584000  0.58328500  1
  Cu  Cu37  1  0.91981700  0.03416000  0.41671500  1
  Cu  Cu38  1  0.61459600  0.22414400  0.13698600  1
  Cu  Cu39  1  0.38540400  0.77585600  0.86301400  1
  Cu  Cu40  1  0.45927200  0.22777500  0.30308700  1
  Cu  Cu41  1  0.54072800  0.77222500  0.69691300  1
  Cu  Cu42  1  0.81682800  0.14704700  0.25570800  1
  Cu  Cu43  1  0.18317200  0.85295300  0.74429200  1
  Cu  Cu44  1  0.81347800  0.77616900  0.54767900  1
  Cu  Cu45  1  0.18652200  0.22383100  0.45232100  1
  Cu  Cu46  1  0.75154000  0.74644400  0.39474500  1
  Cu  Cu47  1  0.24846000  0.25355600  0.60525500  1
  Cu  Cu48  1  0.46543700  0.85601500  0.50200600  1
  Cu  Cu49  1  0.53456300  0.14398500  0.49799400  1
  Cu  Cu50  1  0.67972900  0.38695400  0.56823100  1
  Cu  Cu51  1  0.32027100  0.61304600  0.43176900  1
  Cu  Cu52  1  0.50595200  0.39140400  0.73155900  1
  Cu  Cu53  1  0.49404800  0.60859600  0.26844100  1
  Cu  Cu54  1  0.87275300  0.31155900  0.69427100  1
  Cu  Cu55  1  0.12724700  0.68844100  0.30572900  1
  Cu  Cu56  1  0.33412800  0.77264400  0.03791000  1
  Cu  Cu57  1  0.66587200  0.22735600  0.96209000  1
  Cu  Cu58  1  0.04059100  0.75577500  0.14481900  1
  Cu  Cu59  1  0.95940900  0.24422500  0.85518100  1
  Cu  Cu60  1  0.98339200  0.84853000  0.99117400  1
  Cu  Cu61  1  0.01660800  0.15147000  0.00882600  1
