# generated using pymatgen
data_Cu22Ni10C79
_symmetry_space_group_name_H-M   'P 1'
_cell_length_a   8.24618213
_cell_length_b   11.92364070
_cell_length_c   18.00893435
_cell_angle_alpha   109.33239122
_cell_angle_beta   103.23508379
_cell_angle_gamma   90.00000000
_symmetry_Int_Tables_number   1
_chemical_formula_structural   Cu22Ni10C79
_chemical_formula_sum   'Cu22 Ni10 C79'
_cell_volume   1620.94912279
_cell_formula_units_Z   1
loop_
 _symmetry_equiv_pos_site_id
 _symmetry_equiv_pos_as_xyz
  1  'x, y, z'
loop_
 _atom_site_type_symbol
 _atom_site_label
 _atom_site_symmetry_multiplicity
 _atom_site_fract_x
 _atom_site_fract_y
 _atom_site_fract_z
 _atom_site_occupancy
  Ni  Ni0  1  0.12537191  0.38615404  0.25074381  1
  Ni  Ni1  1  0.87462809  0.61384596  0.74925619  1
  Ni  Ni2  1  0.12537191  0.86458977  0.25074381  1
  Ni  Ni3  1  0.87462809  0.13541023  0.74925619  1
  Ni  Ni4  1  0.25355621  0.49407170  0.50711241  1
  Ni  Ni5  1  0.74644379  0.50592830  0.49288759  1
  Ni  Ni6  1  0.25355621  0.01304071  0.50711241  1
  Ni  Ni7  1  0.74644379  0.98695929  0.49288759  1
  Ni  Ni8  1  0.50000000  0.75764460  1.00000000  1
  Ni  Ni9  1  0.50000000  0.24235540  0.00000000  1
  Cu  Cu10  1  0.37016928  0.62755189  0.74033856  1
  Cu  Cu11  1  0.62983072  0.37244811  0.25966144  1
  Cu  Cu12  1  0.37016928  0.11278667  0.74033856  1
  Cu  Cu13  1  0.62983072  0.88721333  0.25966144  1
  Cu  Cu14  1  0.32157369  0.06641981  0.13283963  1
  Cu  Cu15  1  0.67842631  0.93358019  0.86716037  1
  Cu  Cu16  1  0.81126594  0.06641981  0.13283963  1
  Cu  Cu17  1  0.18873406  0.93358019  0.86716037  1
  Cu  Cu18  1  0.69737123  0.43863660  0.87727320  1
  Cu  Cu19  1  0.30262877  0.56136340  0.12272680  1
  Cu  Cu20  1  0.17990197  0.43863660  0.87727320  1
  Cu  Cu21  1  0.82009803  0.56136340  0.12272680  1
  Cu  Cu22  1  0.42844408  0.18746044  0.37492088  1
  Cu  Cu23  1  0.57155592  0.81253956  0.62507912  1
  Cu  Cu24  1  0.94647680  0.18746044  0.37492088  1
  Cu  Cu25  1  0.05352320  0.81253956  0.62507912  1
  Cu  Cu26  1  0.56889415  0.30609727  0.61219453  1
  Cu  Cu27  1  0.43110585  0.69390273  0.38780547  1
  Cu  Cu28  1  0.04330038  0.30609727  0.61219453  1
  Cu  Cu29  1  0.95669962  0.69390273  0.38780547  1
  Cu  Cu30  1  0.00000000  0.25338453  0.00000000  1
  Cu  Cu31  1  1.00000000  0.74661547  1.00000000  1
  C  C32  1  0.21491695  0.21310987  0.08712073  1
  C  C33  1  0.78508305  0.78689013  0.91287927  1
  C  C34  1  0.87220378  0.87401086  0.08712073  1
  C  C35  1  0.78508305  0.12598914  0.91287927  1
  C  C36  1  0.12779622  0.12598914  0.91287927  1
  C  C37  1  0.21491695  0.87401086  0.08712073  1
  C  C38  1  0.12779622  0.78689013  0.91287927  1
  C  C39  1  0.87220378  0.21310987  0.08712073  1
  C  C40  1  0.27918685  0.27918685  0.55837371  1
  C  C41  1  0.72081315  0.72081315  0.44162629  1
  C  C42  1  0.45763335  0.45763335  0.91526671  1
  C  C43  1  0.54236665  0.54236665  0.08473329  1
  C  C44  1  0.05634196  0.44469602  0.11268392  1
  C  C45  1  0.94365804  0.55530398  0.88731608  1
  C  C46  1  0.05634196  0.66798791  0.11268392  1
  C  C47  1  0.94365804  0.33201209  0.88731608  1
  C  C48  1  0.18577198  0.29109552  0.37154397  1
  C  C49  1  0.81422802  0.70890448  0.62845603  1
  C  C50  1  0.18577198  0.08044844  0.37154397  1
  C  C51  1  0.81422802  0.91955156  0.62845603  1
  C  C52  1  0.22634106  0.38689822  1.00000000  1
  C  C53  1  0.77365894  0.61310178  0.00000000  1
  C  C54  1  0.77365894  0.38689822  1.00000000  1
  C  C55  1  0.22634106  0.61310178  0.00000000  1
  C  C56  1  0.70819112  0.37308188  0.74616375  1
  C  C57  1  0.29180888  0.62691812  0.25383625  1
  C  C58  1  0.03797263  0.37308188  0.74616375  1
  C  C59  1  0.96202737  0.62691812  0.25383625  1
  C  C60  1  0.42785655  0.81686685  0.85571310  1
  C  C61  1  0.57214345  0.18313315  0.14428690  1
  C  C62  1  0.42785655  0.03884625  0.85571310  1
  C  C63  1  0.57214345  0.96115375  0.14428690  1
  C  C64  1  -0.00000000  -0.00000000  0.00000000  1
  C  C65  1  0.35174420  0.35174420  0.70348840  1
  C  C66  1  0.64825580  0.64825580  0.29651160  1
  C  C67  1  0.31803457  0.71200255  0.63606914  1
  C  C68  1  0.68196543  0.28799745  0.36393086  1
  C  C69  1  0.31803457  0.92406659  0.63606914  1
  C  C70  1  0.68196543  0.07593341  0.36393086  1
  C  C71  1  0.50758671  0.35072118  0.48776715  1
  C  C72  1  0.49241329  0.64927882  0.51223285  1
  C  C73  1  0.98018044  0.13704597  0.48776715  1
  C  C74  1  0.49241329  0.86295403  0.51223285  1
  C  C75  1  0.01981956  0.86295403  0.51223285  1
  C  C76  1  0.50758671  0.13704597  0.48776715  1
  C  C77  1  0.01981956  0.64927882  0.51223285  1
  C  C78  1  0.98018044  0.35072118  0.48776715  1
  C  C79  1  0.19389607  0.58761439  0.38779215  1
  C  C80  1  0.80610393  0.41238561  0.61220785  1
  C  C81  1  0.19389607  0.80017776  0.38779215  1
  C  C82  1  0.80610393  0.19982224  0.61220785  1
  C  C83  1  0.41738601  0.42216111  0.17419243  1
  C  C84  1  0.58261399  0.57783889  0.82580757  1
  C  C85  1  0.75680642  0.75203132  0.17419243  1
  C  C86  1  0.58261399  0.24796868  0.82580757  1
  C  C87  1  0.24319358  0.24796868  0.82580757  1
  C  C88  1  0.41738601  0.75203132  0.17419243  1
  C  C89  1  0.24319358  0.57783889  0.82580757  1
  C  C90  1  0.75680642  0.42216111  0.17419243  1
  C  C91  1  0.09080176  0.09080176  0.18160352  1
  C  C92  1  0.90919824  0.90919824  0.81839648  1
  C  C93  1  0.33845484  -0.00000000  0.00000000  1
  C  C94  1  0.66154516  -0.00000000  0.00000000  1
  C  C95  1  0.39549558  0.24046197  0.25580310  1
  C  C96  1  0.60450442  0.75953803  0.74419690  1
  C  C97  1  0.86030753  0.01534114  0.25580310  1
  C  C98  1  0.60450442  0.98465886  0.74419690  1
  C  C99  1  0.13969247  0.98465886  0.74419690  1
  C  C100  1  0.39549558  0.01534114  0.25580310  1
  C  C101  1  0.13969247  0.75953803  0.74419690  1
  C  C102  1  0.86030753  0.24046197  0.25580310  1
  C  C103  1  0.50166908  0.50509683  0.64988874  1
  C  C104  1  0.49833092  0.49490317  0.35011126  1
  C  C105  1  0.14821966  0.14479192  0.64988874  1
  C  C106  1  0.49833092  0.85520808  0.35011126  1
  C  C107  1  0.85178034  0.85520808  0.35011126  1
  C  C108  1  0.50166908  0.14479192  0.64988874  1
  C  C109  1  0.85178034  0.49490317  0.35011126  1
  C  C110  1  0.14821966  0.50509683  0.64988874  1
