# generated using pymatgen
data_Cu3NiC
_symmetry_space_group_name_H-M   'P 1'
_cell_length_a   7.77917600
_cell_length_b   7.77917600
_cell_length_c   7.77917600
_cell_angle_alpha   90.00000000
_cell_angle_beta   90.00000000
_cell_angle_gamma   90.00000000
_symmetry_Int_Tables_number   1
_chemical_formula_structural   Cu3NiC
_chemical_formula_sum   'Cu12 Ni4 C4'
_cell_volume   470.76134164
_cell_formula_units_Z   4
loop_
 _symmetry_equiv_pos_site_id
 _symmetry_equiv_pos_as_xyz
  1  'x, y, z'
loop_
 _atom_site_type_symbol
 _atom_site_label
 _atom_site_symmetry_multiplicity
 _atom_site_fract_x
 _atom_site_fract_y
 _atom_site_fract_z
 _atom_site_occupancy
  C  C0  1  0.49873000  0.99873000  0.50127000  1
  C  C1  1  0.99873000  0.50127000  0.49873000  1
  C  C2  1  0.50127000  0.49873000  0.99873000  1
  C  C3  1  0.00127000  0.00127000  0.00127000  1
  Ni  Ni4  1  0.05096000  0.55096000  0.94904000  1
  Ni  Ni5  1  0.55096000  0.94904000  0.05096000  1
  Ni  Ni6  1  0.94904000  0.05096000  0.55096000  1
  Ni  Ni7  1  0.44904000  0.44904000  0.44904000  1
  Cu  Cu8  1  0.23478500  0.45219300  0.89112500  1
  Cu  Cu9  1  0.10887500  0.73478500  0.04780700  1
  Cu  Cu10  1  0.95219300  0.60887500  0.76521500  1
  Cu  Cu11  1  0.73478500  0.04780700  0.10887500  1
  Cu  Cu12  1  0.60887500  0.76521500  0.95219300  1
  Cu  Cu13  1  0.45219300  0.89112500  0.23478500  1
  Cu  Cu14  1  0.76521500  0.95219300  0.60887500  1
  Cu  Cu15  1  0.89112500  0.23478500  0.45219300  1
  Cu  Cu16  1  0.04780700  0.10887500  0.73478500  1
  Cu  Cu17  1  0.26521500  0.54780700  0.39112500  1
  Cu  Cu18  1  0.39112500  0.26521500  0.54780700  1
  Cu  Cu19  1  0.54780700  0.39112500  0.26521500  1
