# generated using pymatgen
data_Cu2NiC10
_symmetry_space_group_name_H-M   'P 1'
_cell_length_a   9.32002680
_cell_length_b   11.49944610
_cell_length_c   7.32196748
_cell_angle_alpha   26.32898641
_cell_angle_beta   50.47292372
_cell_angle_gamma   35.85752691
_symmetry_Int_Tables_number   1
_chemical_formula_structural   Cu2NiC10
_chemical_formula_sum   'Cu2 Ni1 C10'
_cell_volume   191.26583221
_cell_formula_units_Z   1
loop_
 _symmetry_equiv_pos_site_id
 _symmetry_equiv_pos_as_xyz
  1  'x, y, z'
loop_
 _atom_site_type_symbol
 _atom_site_label
 _atom_site_symmetry_multiplicity
 _atom_site_fract_x
 _atom_site_fract_y
 _atom_site_fract_z
 _atom_site_occupancy
  Ni  Ni0  1  0.54906800  0.50000000  0.00000000  1
  Cu  Cu1  1  0.00368100  0.00000000  0.00000000  1
  Cu  Cu2  1  0.82935000  0.50000000  0.00000000  1
  C  C3  1  0.57067800  0.00000000  0.00000000  1
  C  C4  1  0.23636300  0.50000000  0.00000000  1
  C  C5  1  0.37321000  0.92720000  0.74610700  1
  C  C6  1  0.18469300  0.45124600  0.79785200  1
  C  C7  1  0.38268600  0.35858000  0.40206100  1
  C  C8  1  0.89380100  0.99144200  0.77245600  1
  C  C9  1  0.97371800  0.07280000  0.25389300  1
  C  C10  1  0.50190800  0.64142000  0.59793900  1
  C  C11  1  0.88503600  0.54875400  0.20214800  1
  C  C12  1  0.64914100  0.00855800  0.22754400  1
