# generated using pymatgen
data_Cu(NiC)2
_symmetry_space_group_name_H-M   'P 1'
_cell_length_a   8.21096400
_cell_length_b   8.22249659
_cell_length_c   8.22237628
_cell_angle_alpha   109.60630718
_cell_angle_beta   109.31778930
_cell_angle_gamma   109.41157849
_symmetry_Int_Tables_number   1
_chemical_formula_structural   Cu(NiC)2
_chemical_formula_sum   'Cu8 Ni16 C16'
_cell_volume   427.74845100
_cell_formula_units_Z   8
loop_
 _symmetry_equiv_pos_site_id
 _symmetry_equiv_pos_as_xyz
  1  'x, y, z'
loop_
 _atom_site_type_symbol
 _atom_site_label
 _atom_site_symmetry_multiplicity
 _atom_site_fract_x
 _atom_site_fract_y
 _atom_site_fract_z
 _atom_site_occupancy
  C  C0  1  0.24226200  0.95319300  0.80016200  1
  C  C1  1  0.01132900  0.51004100  0.00037100  1
  C  C2  1  0.04324000  0.79812200  0.23994200  1
  C  C3  1  0.45649500  0.69520900  0.76364300  1
  C  C4  1  0.28933500  0.74612100  0.46883800  1
  C  C5  1  0.78402600  0.75178100  0.95942800  1
  C  C6  1  0.50978200  0.00766200  0.00496200  1
  C  C7  1  0.99711500  0.00610300  0.49037000  1
  C  C8  1  0.49768300  0.49861500  0.49753900  1
  C  C9  1  0.25384400  0.45313500  0.29171400  1
  C  C10  1  0.73998700  0.53709700  0.70315100  1
  C  C11  1  0.71593100  0.25725100  0.53683900  1
  C  C12  1  0.21075300  0.24470400  0.04845200  1
  C  C13  1  0.54915600  0.29355800  0.24510200  1
  C  C14  1  0.95505400  0.21646100  0.74138400  1
  C  C15  1  0.75252500  0.04694100  0.20621600  1
  Ni  Ni16  1  0.22588200  0.73314800  0.72439800  1
  Ni  Ni17  1  0.22373100  0.46185100  0.55242500  1
  Ni  Ni18  1  0.72461200  0.77330200  0.73856700  1
  Ni  Ni19  1  0.45976300  0.45127500  0.77266800  1
  Ni  Ni20  1  0.27335700  0.04758500  0.98782300  1
  Ni  Ni21  1  0.23566000  0.51234100  0.04145200  1
  Ni  Ni22  1  0.94648200  0.98795700  0.27869700  1
  Ni  Ni23  1  0.73454900  0.27564000  0.77757900  1
  Ni  Ni24  1  0.72749300  0.95268900  0.00575300  1
  Ni  Ni25  1  0.54164300  0.54747900  0.22602100  1
  Ni  Ni26  1  0.27441800  0.22261300  0.26594000  1
  Ni  Ni27  1  0.77409100  0.53748500  0.45084900  1
  Ni  Ni28  1  0.48811700  0.03711900  0.23666300  1
  Ni  Ni29  1  0.98933400  0.72348100  0.04928800  1
  Ni  Ni30  1  0.77330400  0.26513500  0.27402300  1
  Ni  Ni31  1  0.95779100  0.23005300  0.49401500  1
  Cu  Cu32  1  0.04314100  0.76648500  0.50490900  1
  Cu  Cu33  1  0.50855500  0.96498500  0.75933800  1
  Cu  Cu34  1  0.00825500  0.27256300  0.95379700  1
  Cu  Cu35  1  0.05578900  0.01051700  0.72339000  1
  Cu  Cu36  1  0.26321600  0.72484100  0.22671900  1
  Cu  Cu37  1  0.55119000  0.77375200  0.45521500  1
  Cu  Cu38  1  0.76343700  0.48685500  0.96036100  1
  Cu  Cu39  1  0.44766900  0.22485400  0.54199600  1
