# generated using pymatgen
data_CuNiC32
_symmetry_space_group_name_H-M   'P 1'
_cell_length_a   9.05278588
_cell_length_b   9.18283010
_cell_length_c   9.11131363
_cell_angle_alpha   109.46407620
_cell_angle_beta   109.78116699
_cell_angle_gamma   108.97642269
_symmetry_Int_Tables_number   1
_chemical_formula_structural   CuNiC32
_chemical_formula_sum   'Cu1 Ni1 C32'
_cell_volume   584.42179148
_cell_formula_units_Z   1
loop_
 _symmetry_equiv_pos_site_id
 _symmetry_equiv_pos_as_xyz
  1  'x, y, z'
loop_
 _atom_site_type_symbol
 _atom_site_label
 _atom_site_symmetry_multiplicity
 _atom_site_fract_x
 _atom_site_fract_y
 _atom_site_fract_z
 _atom_site_occupancy
  Ni  Ni0  1  0.18536732  0.09506391  0.30745525  1
  Cu  Cu1  1  0.99028052  0.01072041  0.97200919  1
  C  C2  1  0.81668692  0.66677799  0.50018175  1
  C  C3  1  0.18831617  0.74217776  0.91184707  1
  C  C4  1  0.81664684  0.31774550  0.11773035  1
  C  C5  1  0.63978743  0.47240280  0.78304816  1
  C  C6  1  0.16474142  0.38443953  0.55580887  1
  C  C7  1  0.72791086  0.85947375  0.20183979  1
  C  C8  1  0.30761791  0.11577662  0.82486160  1
  C  C9  1  0.28192201  0.47644087  0.15002025  1
  C  C10  1  0.53203492  0.80519910  0.69214092  1
  C  C11  1  0.16428191  0.78801567  0.35099754  1
  C  C12  1  0.53986224  0.17293198  0.32009787  1
  C  C13  1  0.86192585  0.18206461  0.69605629  1
  C  C14  1  0.16307208  0.21998788  0.17120703  1
  C  C15  1  0.78112758  0.97829324  0.96282411  1
  C  C16  1  0.06578235  0.87530622  0.04799897  1
  C  C17  1  0.99918094  0.99522994  0.77676020  1
  C  C18  1  0.65759700  0.75700941  0.36947731  1
  C  C19  1  0.32095402  0.73932138  0.14760299  1
  C  C20  1  0.59925956  0.24001523  0.86430083  1
  C  C21  1  0.75422981  0.36397293  0.63444500  1
  C  C22  1  0.36019794  0.28159649  0.57150797  1
  C  C23  1  0.75740013  0.11597385  0.36497140  1
  C  C24  1  0.22182785  0.85690871  0.62595045  1
  C  C25  1  0.25371751  0.59570991  0.38117013  1
  C  C26  1  0.39391492  0.64192031  0.77908278  1
  C  C27  1  0.88766119  0.60203356  0.23254132  1
  C  C28  1  0.63639257  0.38103567  0.26919588  1
  C  C29  1  0.13191349  0.35001360  0.76582028  1
  C  C30  1  0.63783325  0.62425872  0.62343394  1
  C  C31  1  0.40005508  0.00953448  0.00675951  1
  C  C32  1  0.98569320  0.37695317  0.98808413  1
  C  C33  1  0.01052122  0.99855179  0.37562784  1
