# generated using pymatgen
data_Cu8Ni8C9
_symmetry_space_group_name_H-M   'P 1'
_cell_length_a   5.02570222
_cell_length_b   10.57154627
_cell_length_c   5.73694657
_cell_angle_alpha   84.04432272
_cell_angle_beta   92.96882725
_cell_angle_gamma   88.08538992
_symmetry_Int_Tables_number   1
_chemical_formula_structural   Cu8Ni8C9
_chemical_formula_sum   'Cu8 Ni8 C9'
_cell_volume   302.51784503
_cell_formula_units_Z   1
loop_
 _symmetry_equiv_pos_site_id
 _symmetry_equiv_pos_as_xyz
  1  'x, y, z'
loop_
 _atom_site_type_symbol
 _atom_site_label
 _atom_site_symmetry_multiplicity
 _atom_site_fract_x
 _atom_site_fract_y
 _atom_site_fract_z
 _atom_site_occupancy
  C  C0  1  0.50781700  0.37375500  0.37267700  1
  C  C1  1  0.50000400  0.24351800  0.80347500  1
  C  C2  1  0.50671000  0.99812500  0.49642700  1
  C  C3  1  0.51850500  0.74211000  0.24080800  1
  C  C4  1  0.53344200  0.53147500  0.93456700  1
  C  C5  1  0.99139100  0.22312500  0.26696100  1
  C  C6  1  0.03041600  0.77419500  0.72240100  1
  C  C7  1  0.01393200  0.50847900  0.49371200  1
  C  C8  1  0.00463400  0.99437600  0.99991000  1
  Ni  Ni9  1  0.82280500  0.06183100  0.26845700  1
  Ni  Ni10  1  0.69075200  0.82602200  0.51367400  1
  Ni  Ni11  1  0.67153700  0.57012100  0.26432100  1
  Ni  Ni12  1  0.70424400  0.32398700  0.06209600  1
  Ni  Ni13  1  0.35431300  0.43836200  0.71019400  1
  Ni  Ni14  1  0.33187600  0.69331400  0.94424100  1
  Ni  Ni15  1  0.33646200  0.17501600  0.46323300  1
  Ni  Ni16  1  0.18549600  0.93797000  0.72151200  1
  Cu  Cu17  1  0.85927900  0.59230700  0.77338100  1
  Cu  Cu18  1  0.87618000  0.30879300  0.57287400  1
  Cu  Cu19  1  0.82927000  0.82052600  0.02192500  1
  Cu  Cu20  1  0.68999000  0.06128500  0.79374400  1
  Cu  Cu21  1  0.32115200  0.92533000  0.20675900  1
  Cu  Cu22  1  0.19348700  0.69075000  0.44043500  1
  Cu  Cu23  1  0.17233100  0.16809700  0.97575200  1
  Cu  Cu24  1  0.13175400  0.42338100  0.19836800  1
