# generated using pymatgen
data_Cu15Ni3C
_symmetry_space_group_name_H-M   'P 1'
_cell_length_a   6.97726300
_cell_length_b   8.87162674
_cell_length_c   11.30436818
_cell_angle_alpha   112.05806765
_cell_angle_beta   90.82261964
_cell_angle_gamma   110.02415941
_symmetry_Int_Tables_number   1
_chemical_formula_structural   Cu15Ni3C
_chemical_formula_sum   'Cu30 Ni6 C2'
_cell_volume   601.04802369
_cell_formula_units_Z   2
loop_
 _symmetry_equiv_pos_site_id
 _symmetry_equiv_pos_as_xyz
  1  'x, y, z'
loop_
 _atom_site_type_symbol
 _atom_site_label
 _atom_site_symmetry_multiplicity
 _atom_site_fract_x
 _atom_site_fract_y
 _atom_site_fract_z
 _atom_site_occupancy
  C  C0  1  0.48282200  0.63486100  0.72241100  1
  C  C1  1  0.51717800  0.36513900  0.27758900  1
  Ni  Ni2  1  0.22174900  0.68315900  0.48472400  1
  Ni  Ni3  1  0.77825100  0.31684100  0.51527600  1
  Ni  Ni4  1  0.42071600  0.08210600  0.19970800  1
  Ni  Ni5  1  0.57928400  0.91789400  0.80029200  1
  Ni  Ni6  1  0.25559500  0.30717800  0.84206600  1
  Ni  Ni7  1  0.74440500  0.69282200  0.15793400  1
  Cu  Cu8  1  0.80943400  0.83158000  0.53232600  1
  Cu  Cu9  1  0.19056600  0.16842000  0.46767400  1
  Cu  Cu10  1  0.60950800  0.93613000  0.68801500  1
  Cu  Cu11  1  0.39049200  0.06387000  0.31198500  1
  Cu  Cu12  1  0.78433000  0.68323300  0.63137000  1
  Cu  Cu13  1  0.21567000  0.31676700  0.36863000  1
  Cu  Cu14  1  0.39175000  0.33581200  0.77307400  1
  Cu  Cu15  1  0.60825000  0.66418800  0.22692600  1
  Cu  Cu16  1  0.20735600  0.72860000  0.57724100  1
  Cu  Cu17  1  0.79264400  0.27140000  0.42275900  1
  Cu  Cu18  1  0.25010800  0.44403800  0.85790100  1
  Cu  Cu19  1  0.74989200  0.55596200  0.14209900  1
  Cu  Cu20  1  0.39801000  0.96443800  0.16470400  1
  Cu  Cu21  1  0.60199000  0.03556200  0.83529600  1
  Cu  Cu22  1  0.82573300  0.37569600  0.98476900  1
  Cu  Cu23  1  0.17426700  0.62430400  0.01523100  1
  Cu  Cu24  1  0.51712300  0.75736600  0.87322700  1
  Cu  Cu25  1  0.48287700  0.24263400  0.12677300  1
  Cu  Cu26  1  0.38348700  0.63054300  0.50668600  1
  Cu  Cu27  1  0.61651300  0.36945700  0.49331400  1
  Cu  Cu28  1  0.09186200  0.68896600  0.38816200  1
  Cu  Cu29  1  0.90813800  0.31103400  0.61183800  1
  Cu  Cu30  1  0.16702400  0.17264000  0.57093300  1
  Cu  Cu31  1  0.83297600  0.82736000  0.42906700  1
  Cu  Cu32  1  0.14266600  0.16758400  0.88764200  1
  Cu  Cu33  1  0.85733400  0.83241600  0.11235800  1
  Cu  Cu34  1  0.98045500  0.77620600  0.85795400  1
  Cu  Cu35  1  0.01954500  0.22379400  0.14204600  1
  Cu  Cu36  1  0.10788900  0.75800200  0.96613500  1
  Cu  Cu37  1  0.89211100  0.24199800  0.03386500  1
