# generated using pymatgen
data_CuNi2C
_symmetry_space_group_name_H-M   'P 1'
_cell_length_a   9.57634110
_cell_length_b   9.57634110
_cell_length_c   9.57634110
_cell_angle_alpha   153.93754818
_cell_angle_beta   125.60724702
_cell_angle_gamma   61.27922564
_symmetry_Int_Tables_number   1
_chemical_formula_structural   CuNi2C
_chemical_formula_sum   'Cu4 Ni8 C4'
_cell_volume   311.47405864
_cell_formula_units_Z   4
loop_
 _symmetry_equiv_pos_site_id
 _symmetry_equiv_pos_as_xyz
  1  'x, y, z'
loop_
 _atom_site_type_symbol
 _atom_site_label
 _atom_site_symmetry_multiplicity
 _atom_site_fract_x
 _atom_site_fract_y
 _atom_site_fract_z
 _atom_site_occupancy
  C  C0  1  0.70043000  0.20043000  0.50000000  1
  C  C1  1  0.26311700  0.00000000  0.26311700  1
  C  C2  1  0.29957000  0.79957000  0.50000000  1
  C  C3  1  0.73688300  0.00000000  0.73688300  1
  Ni  Ni4  1  0.05123200  0.20108900  0.85014300  1
  Ni  Ni5  1  0.94876800  0.79891100  0.14985700  1
  Ni  Ni6  1  0.64905400  0.79891100  0.85014300  1
  Ni  Ni7  1  0.35094600  0.20108900  0.14985700  1
  Ni  Ni8  1  0.57378900  0.57378900  0.00000000  1
  Ni  Ni9  1  0.92693700  0.42693700  0.50000000  1
  Ni  Ni10  1  0.07306300  0.57306300  0.50000000  1
  Ni  Ni11  1  0.42621100  0.42621100  0.00000000  1
  Cu  Cu12  1  0.60303500  0.35264500  0.25039000  1
  Cu  Cu13  1  0.39696500  0.64735500  0.74961000  1
  Cu  Cu14  1  0.89774400  0.64735500  0.25039000  1
  Cu  Cu15  1  0.10225600  0.35264500  0.74961000  1
