# generated using pymatgen
data_Cu5Ni3C14
_symmetry_space_group_name_H-M   'P 1'
_cell_length_a   4.72529900
_cell_length_b   7.93324030
_cell_length_c   15.31583961
_cell_angle_alpha   89.07749882
_cell_angle_beta   86.90107308
_cell_angle_gamma   72.67350234
_symmetry_Int_Tables_number   1
_chemical_formula_structural   Cu5Ni3C14
_chemical_formula_sum   'Cu10 Ni6 C28'
_cell_volume   547.28953435
_cell_formula_units_Z   2
loop_
 _symmetry_equiv_pos_site_id
 _symmetry_equiv_pos_as_xyz
  1  'x, y, z'
loop_
 _atom_site_type_symbol
 _atom_site_label
 _atom_site_symmetry_multiplicity
 _atom_site_fract_x
 _atom_site_fract_y
 _atom_site_fract_z
 _atom_site_occupancy
  C  C0  1  0.01476900  0.97292400  0.50107000  1
  C  C1  1  0.98769300  0.02707600  0.00107000  1
  C  C2  1  0.89119100  0.28411800  0.74742500  1
  C  C3  1  0.17530900  0.71588200  0.24742500  1
  Ni  Ni4  1  0.29723400  0.43299500  0.87051000  1
  Ni  Ni5  1  0.73022900  0.56700500  0.37051000  1
  Ni  Ni6  1  0.53091300  0.99756800  0.75051300  1
  Ni  Ni7  1  0.52848100  0.00243200  0.25051300  1
  Ni  Ni8  1  0.34826000  0.41733500  0.62209400  1
  Ni  Ni9  1  0.76559500  0.58266500  0.12209400  1
  Cu  Cu10  1  0.86682400  0.66432300  0.90000100  1
  Cu  Cu11  1  0.53114700  0.33567700  0.40000100  1
  Cu  Cu12  1  0.83655900  0.72913300  0.69535700  1
  Cu  Cu13  1  0.56569300  0.27086700  0.19535700  1
  Cu  Cu14  1  0.31834800  0.79671100  0.81788300  1
  Cu  Cu15  1  0.11505900  0.20328900  0.31788300  1
  Cu  Cu16  1  0.08411200  0.43873800  0.50131700  1
  Cu  Cu17  1  0.52285000  0.56126200  0.00131700  1
  Cu  Cu18  1  0.55839600  0.61339600  0.55350500  1
  Cu  Cu19  1  0.17179300  0.38660400  0.05350500  1
  C  C20  1  0.11017300  0.28491100  0.84919700  1
  C  C21  1  0.39508400  0.71508900  0.34919700  1
  C  C22  1  0.55869700  0.46107900  0.79483600  1
  C  C23  1  0.01977500  0.53892100  0.29483600  1
  C  C24  1  0.41592800  0.39925600  0.97448700  1
  C  C25  1  0.81518400  0.60074400  0.47448700  1
  C  C26  1  0.05475600  0.65368400  0.86627000  1
  C  C27  1  0.70844000  0.34631600  0.36627000  1
  C  C28  1  0.22657700  0.10590300  0.69542300  1
  C  C29  1  0.33247900  0.89409700  0.19542300  1
  C  C30  1  0.74167500  0.10128300  0.80196000  1
  C  C31  1  0.84295900  0.89871700  0.30196000  1
  C  C32  1  0.74790800  0.84933500  0.67149900  1
  C  C33  1  0.59724300  0.15066500  0.17149900  1
  C  C34  1  0.44160400  0.86867100  0.83658400  1
  C  C35  1  0.31027500  0.13132900  0.33658400  1
  C  C36  1  0.67835800  0.26785800  0.64500500  1
  C  C37  1  0.94621600  0.73214200  0.14500500  1
  C  C38  1  0.03980000  0.46557300  0.69165400  1
  C  C39  1  0.50537300  0.53442700  0.19165400  1
  C  C40  1  0.26848300  0.34113700  0.52150600  1
  C  C41  1  0.60962000  0.65886300  0.02150600  1
  C  C42  1  0.39023900  0.62582300  0.59993700  1
  C  C43  1  0.01606100  0.37417700  0.09993700  1
