# generated using pymatgen
data_Cu3Ni2C11
_symmetry_space_group_name_H-M   'P 1'
_cell_length_a   10.78870448
_cell_length_b   10.78870448
_cell_length_c   10.78870448
_cell_angle_alpha   113.90067638
_cell_angle_beta   113.90067638
_cell_angle_gamma   100.93499934
_symmetry_Int_Tables_number   1
_chemical_formula_structural   Cu3Ni2C11
_chemical_formula_sum   'Cu12 Ni8 C44'
_cell_volume   950.93933765
_cell_formula_units_Z   4
loop_
 _symmetry_equiv_pos_site_id
 _symmetry_equiv_pos_as_xyz
  1  'x, y, z'
loop_
 _atom_site_type_symbol
 _atom_site_label
 _atom_site_symmetry_multiplicity
 _atom_site_fract_x
 _atom_site_fract_y
 _atom_site_fract_z
 _atom_site_occupancy
  C  C0  1  0.03344100  0.79832200  0.76488100  1
  C  C1  1  0.54832200  0.28344100  0.26488100  1
  C  C2  1  0.01856000  0.28344100  0.73511900  1
  C  C3  1  0.03344100  0.26856000  0.23511900  1
  C  C4  1  0.71655900  0.45167800  0.73511900  1
  C  C5  1  0.20167800  0.96655900  0.23511900  1
  C  C6  1  0.73144000  0.96655900  0.76488100  1
  C  C7  1  0.71655900  0.98144000  0.26488100  1
  C  C8  1  0.67208300  0.67208300  0.34416600  1
  C  C9  1  0.32791700  0.67208300  0.00000000  1
  C  C10  1  0.42208300  0.92208300  0.84416600  1
  C  C11  1  0.07791700  0.92208300  0.50000000  1
  C  C12  1  0.67208300  0.32791700  0.00000000  1
  C  C13  1  0.32791700  0.32791700  0.65583400  1
  C  C14  1  0.42208300  0.57791700  0.50000000  1
  C  C15  1  0.07791700  0.57791700  0.15583400  1
  Ni  Ni16  1  0.27941400  0.15465200  0.87523800  1
  Ni  Ni17  1  0.90465200  0.52941400  0.37523800  1
  Ni  Ni18  1  0.15417700  0.52941400  0.62476200  1
  Ni  Ni19  1  0.27941400  0.40417700  0.12476200  1
  Ni  Ni20  1  0.47058600  0.09534800  0.62476200  1
  Ni  Ni21  1  0.84534800  0.72058600  0.12476200  1
  Ni  Ni22  1  0.59582300  0.72058600  0.87523800  1
  Ni  Ni23  1  0.47058600  0.84582300  0.37523800  1
  Cu  Cu24  1  0.72898800  0.12500000  0.10398800  1
  Cu  Cu25  1  0.02101200  0.12500000  0.39601200  1
  Cu  Cu26  1  0.87500000  0.97898800  0.60398800  1
  Cu  Cu27  1  0.37500000  0.97898800  0.10398800  1
  Cu  Cu28  1  0.72898800  0.62500000  0.60398800  1
  Cu  Cu29  1  0.02101200  0.62500000  0.89601200  1
  Cu  Cu30  1  0.87500000  0.27101200  0.89601200  1
  Cu  Cu31  1  0.37500000  0.27101200  0.39601200  1
  Cu  Cu32  1  0.00000000  0.00000000  0.00000000  1
  Cu  Cu33  1  0.75000000  0.25000000  0.50000000  1
  Cu  Cu34  1  0.25000000  0.75000000  0.50000000  1
  Cu  Cu35  1  0.50000000  0.50000000  0.00000000  1
  C  C36  1  0.45676300  0.19262800  0.98206900  1
  C  C37  1  0.21055900  0.19262800  0.73586500  1
  C  C38  1  0.94262800  0.70676300  0.48206900  1
  C  C39  1  0.22469400  0.70676300  0.76413500  1
  C  C40  1  0.45676300  0.47469400  0.26413500  1
  C  C41  1  0.21055900  0.47469400  0.01793100  1
  C  C42  1  0.94262800  0.46055900  0.23586500  1
  C  C43  1  0.22469400  0.46055900  0.51793100  1
  C  C44  1  0.29323700  0.05737200  0.51793100  1
  C  C45  1  0.53944100  0.05737200  0.76413500  1
  C  C46  1  0.80737200  0.54323700  0.01793100  1
  C  C47  1  0.52530600  0.54323700  0.73586500  1
  C  C48  1  0.29323700  0.77530600  0.23586500  1
  C  C49  1  0.53944100  0.77530600  0.48206900  1
  C  C50  1  0.80737200  0.78944100  0.26413500  1
  C  C51  1  0.52530600  0.78944100  0.98206900  1
  C  C52  1  0.20129700  0.96944400  0.76814800  1
  C  C53  1  0.71944400  0.45129700  0.26814800  1
  C  C54  1  0.18314900  0.45129700  0.73185200  1
  C  C55  1  0.20129700  0.43314900  0.23185200  1
  C  C56  1  0.54870300  0.28055600  0.73185200  1
  C  C57  1  0.03055600  0.79870300  0.23185200  1
  C  C58  1  0.56685100  0.79870300  0.76814800  1
  C  C59  1  0.54870300  0.81685100  0.26814800  1
  C  C60  1  0.22622500  0.22622500  0.00000000  1
  C  C61  1  0.97622500  0.47622500  0.50000000  1
  C  C62  1  0.52377500  0.02377500  0.50000000  1
  C  C63  1  0.77377500  0.77377500  0.00000000  1
