# generated using pymatgen
data_Cu5(Ni2C5)3
_symmetry_space_group_name_H-M   'P 1'
_cell_length_a   6.83545188
_cell_length_b   6.84233883
_cell_length_c   6.93825537
_cell_angle_alpha   86.65816645
_cell_angle_beta   86.05516297
_cell_angle_gamma   87.38747056
_symmetry_Int_Tables_number   1
_chemical_formula_structural   Cu5(Ni2C5)3
_chemical_formula_sum   'Cu5 Ni6 C15'
_cell_volume   322.90451034
_cell_formula_units_Z   1
loop_
 _symmetry_equiv_pos_site_id
 _symmetry_equiv_pos_as_xyz
  1  'x, y, z'
loop_
 _atom_site_type_symbol
 _atom_site_label
 _atom_site_symmetry_multiplicity
 _atom_site_fract_x
 _atom_site_fract_y
 _atom_site_fract_z
 _atom_site_occupancy
  Ni  Ni0  1  0.15430900  0.82488000  0.49002400  1
  Ni  Ni1  1  0.33521800  0.67392800  0.99896600  1
  Ni  Ni2  1  0.99362800  0.33299400  0.66874300  1
  Ni  Ni3  1  0.49323900  0.15805100  0.82451700  1
  Ni  Ni4  1  0.82808300  0.48949900  0.15189400  1
  Ni  Ni5  1  0.67567000  0.99925500  0.33319000  1
  Cu  Cu6  1  0.49819900  0.50028500  0.49457900  1
  Cu  Cu7  1  0.30365400  0.29852400  0.30502700  1
  Cu  Cu8  1  0.11053900  0.10503000  0.10840200  1
  Cu  Cu9  1  0.69578500  0.69776800  0.69221000  1
  Cu  Cu10  1  0.89324200  0.91144000  0.91101300  1
  C  C11  1  0.96712400  0.88581800  0.19672200  1
  C  C12  1  0.30300200  0.57657800  0.31227000  1
  C  C13  1  0.42277100  0.68944800  0.67317500  1
  C  C14  1  0.71539900  0.96562400  0.66495700  1
  C  C15  1  0.02748100  0.27567400  0.31847900  1
  C  C16  1  0.28514700  0.31626900  0.03471400  1
  C  C17  1  0.67868200  0.72285300  0.96705700  1
  C  C18  1  0.31120000  0.30964900  0.57620200  1
  C  C19  1  0.69214400  0.66893600  0.41783500  1
  C  C20  1  0.19841100  0.96488800  0.89178000  1
  C  C21  1  0.57846100  0.31991800  0.30617300  1
  C  C22  1  0.67147600  0.42230200  0.68698900  1
  C  C23  1  0.33881500  0.02922200  0.30457700  1
  C  C24  1  0.96841900  0.67796500  0.72299600  1
  C  C25  1  0.85990300  0.18320000  0.94751000  1
