# generated using pymatgen
data_Cu6Ni7C38
_symmetry_space_group_name_H-M   'P 1'
_cell_length_a   8.69669000
_cell_length_b   10.69974025
_cell_length_c   16.34866467
_cell_angle_alpha   98.28624587
_cell_angle_beta   103.68756460
_cell_angle_gamma   99.32643251
_symmetry_Int_Tables_number   1
_chemical_formula_structural   Cu6Ni7C38
_chemical_formula_sum   'Cu12 Ni14 C76'
_cell_volume   1431.88126442
_cell_formula_units_Z   2
loop_
 _symmetry_equiv_pos_site_id
 _symmetry_equiv_pos_as_xyz
  1  'x, y, z'
loop_
 _atom_site_type_symbol
 _atom_site_label
 _atom_site_symmetry_multiplicity
 _atom_site_fract_x
 _atom_site_fract_y
 _atom_site_fract_z
 _atom_site_occupancy
  C  C0  1  0.42872700  0.92172200  0.72532900  1
  C  C1  1  0.57127300  0.07827800  0.27467100  1
  C  C2  1  0.24672800  0.24071600  0.79206000  1
  C  C3  1  0.75327200  0.75928400  0.20794000  1
  C  C4  1  0.57374600  0.70394500  0.91081000  1
  C  C5  1  0.42625400  0.29605500  0.08919000  1
  C  C6  1  0.39746700  0.77334500  0.90439900  1
  C  C7  1  0.60253300  0.22665500  0.09560100  1
  C  C8  1  0.32879500  0.57284200  0.79539300  1
  C  C9  1  0.67120500  0.42715800  0.20460700  1
  C  C10  1  0.49341900  0.63205200  0.75199100  1
  C  C11  1  0.50658100  0.36794800  0.24800900  1
  C  C12  1  0.26725700  0.60699000  0.61713800  1
  C  C13  1  0.73274300  0.39301000  0.38286200  1
  C  C14  1  0.10993800  0.57727900  0.67071500  1
  C  C15  1  0.89006200  0.42272100  0.32928500  1
  C  C16  1  0.03066300  0.78370300  0.64659300  1
  C  C17  1  0.96933700  0.21629700  0.35340700  1
  C  C18  1  0.03595300  0.69500100  0.54527900  1
  C  C19  1  0.96404700  0.30499900  0.45472100  1
  C  C20  1  0.09136200  0.90992400  0.50208000  1
  C  C21  1  0.90863800  0.09007600  0.49792000  1
  C  C22  1  0.09529200  0.98965800  0.60802700  1
  C  C23  1  0.90470800  0.01034200  0.39197300  1
  C  C24  1  0.26293600  0.13522600  0.54431800  1
  C  C25  1  0.73706400  0.86477400  0.45568200  1
  C  C26  1  0.37574300  0.01436400  0.52188100  1
  C  C27  1  0.62425700  0.98563600  0.47811900  1
  C  C28  1  0.65786500  0.16698000  0.69876600  1
  C  C29  1  0.34213500  0.83302000  0.30123400  1
  C  C30  1  0.56937900  0.20403200  0.59727900  1
  C  C31  1  0.43062100  0.79596800  0.40272100  1
  C  C32  1  0.41747000  0.34747300  0.66127200  1
  C  C33  1  0.58253000  0.65252700  0.33872800  1
  C  C34  1  0.62923100  0.39793500  0.71280200  1
  C  C35  1  0.37076900  0.60206500  0.28719800  1
  C  C36  1  0.55795700  0.36664100  0.91226200  1
  C  C37  1  0.44204300  0.63335900  0.08773800  1
  C  C38  1  0.68364000  0.45255600  0.85765100  1
  C  C39  1  0.31636000  0.54744400  0.14234900  1
  C  C40  1  0.81490000  0.30879700  0.94283200  1
  C  C41  1  0.18510000  0.69120300  0.05716800  1
  C  C42  1  0.82067000  0.27529700  0.83409700  1
  C  C43  1  0.17933000  0.72470300  0.16590300  1
  C  C44  1  0.83260800  0.03292400  0.85449200  1
  C  C45  1  0.16739200  0.96707600  0.14550800  1
  C  C46  1  0.86119300  0.12007400  0.96087900  1
  C  C47  1  0.13880700  0.87992600  0.03912100  1
  C  C48  1  0.60959200  0.98002700  0.97193100  1
  C  C49  1  0.39040800  0.01997300  0.02806900  1
  C  C50  1  0.76512500  0.89360900  0.95975200  1
  C  C51  1  0.23487500  0.10639100  0.04024800  1
  C  C52  1  0.48713000  0.74924800  0.87020600  1
  C  C53  1  0.51287000  0.25075200  0.12979400  1
  C  C54  1  0.40418600  0.65934000  0.78551900  1
  C  C55  1  0.59581400  0.34066000  0.21448100  1
  C  C56  1  0.19598400  0.65242400  0.65593300  1
  C  C57  1  0.80401600  0.34757600  0.34406700  1
  C  C58  1  0.10917200  0.74413600  0.60996500  1
  C  C59  1  0.89082800  0.25586400  0.39003500  1
  C  C60  1  0.16780400  0.94944300  0.56779800  1
  C  C61  1  0.83219600  0.05055700  0.43220200  1
  C  C62  1  0.30823700  0.05184300  0.56583700  1
  C  C63  1  0.69176300  0.94815700  0.43416300  1
  C  C64  1  0.55058800  0.19399900  0.66046500  1
  C  C65  1  0.44941200  0.80600100  0.33953500  1
  C  C66  1  0.52187600  0.32077800  0.70237700  1
  C  C67  1  0.47812400  0.67922200  0.29762300  1
  C  C68  1  0.61739900  0.35678000  0.86024400  1
  C  C69  1  0.38260100  0.64322000  0.13975600  1
  C  C70  1  0.73874300  0.27020400  0.87660800  1
  C  C71  1  0.26125700  0.72979600  0.12339200  1
  C  C72  1  0.76972100  0.06316700  0.90289900  1
  C  C73  1  0.23027900  0.93683300  0.09710100  1
  C  C74  1  0.67913800  0.94790700  0.92740500  1
  C  C75  1  0.32086200  0.05209300  0.07259500  1
  Ni  Ni76  1  0.65196100  0.87363100  0.66790500  1
  Ni  Ni77  1  0.34803900  0.12636900  0.33209500  1
  Ni  Ni78  1  0.25350900  0.01713800  0.80801000  1
  Ni  Ni79  1  0.74649100  0.98286200  0.19199000  1
  Ni  Ni80  1  0.06289000  0.27288500  0.66876300  1
  Ni  Ni81  1  0.93711000  0.72711500  0.33123700  1
  Ni  Ni82  1  0.22535200  0.36797100  0.92386700  1
  Ni  Ni83  1  0.77464800  0.63202900  0.07613300  1
  Ni  Ni84  1  0.03637600  0.56259600  0.86408200  1
  Ni  Ni85  1  0.96362400  0.43740400  0.13591800  1
  Ni  Ni86  1  0.87779400  0.70825600  0.80252100  1
  Ni  Ni87  1  0.12220600  0.29174400  0.19747900  1
  Ni  Ni88  1  0.54443200  0.60592100  0.54615200  1
  Ni  Ni89  1  0.45556800  0.39407900  0.45384800  1
  Cu  Cu90  1  0.57221500  0.86407500  0.85184900  1
  Cu  Cu91  1  0.42778500  0.13592500  0.14815100  1
  Cu  Cu92  1  0.30231200  0.72916300  0.73488600  1
  Cu  Cu93  1  0.69768800  0.27083700  0.26511400  1
  Cu  Cu94  1  0.23255000  0.84723000  0.60311700  1
  Cu  Cu95  1  0.76745000  0.15277000  0.39688300  1
  Cu  Cu96  1  0.41386300  0.09124400  0.65150600  1
  Cu  Cu97  1  0.58613700  0.90875600  0.34849400  1
  Cu  Cu98  1  0.48430300  0.31352600  0.78340000  1
  Cu  Cu99  1  0.51569700  0.68647400  0.21660000  1
  Cu  Cu100  1  0.65823300  0.14079100  0.87068700  1
  Cu  Cu101  1  0.34176700  0.85920900  0.12931300  1
