# generated using pymatgen
data_Cu6Ni10C19
_symmetry_space_group_name_H-M   'P 1'
_cell_length_a   7.97406900
_cell_length_b   13.25848200
_cell_length_c   8.14710941
_cell_angle_alpha   90.00000000
_cell_angle_beta   118.51752172
_cell_angle_gamma   90.00000000
_symmetry_Int_Tables_number   1
_chemical_formula_structural   Cu6Ni10C19
_chemical_formula_sum   'Cu12 Ni20 C38'
_cell_volume   756.83935822
_cell_formula_units_Z   2
loop_
 _symmetry_equiv_pos_site_id
 _symmetry_equiv_pos_as_xyz
  1  'x, y, z'
loop_
 _atom_site_type_symbol
 _atom_site_label
 _atom_site_symmetry_multiplicity
 _atom_site_fract_x
 _atom_site_fract_y
 _atom_site_fract_z
 _atom_site_occupancy
  C  C0  1  0.00000000  0.00000000  0.00000000  1
  C  C1  1  0.00000000  0.50000000  0.50000000  1
  C  C2  1  0.63791200  0.84492500  0.10302500  1
  C  C3  1  0.63791200  0.65507500  0.60302500  1
  C  C4  1  0.36208800  0.15507500  0.89697500  1
  C  C5  1  0.36208800  0.34492500  0.39697500  1
  C  C6  1  0.73910700  0.05549200  0.40645800  1
  C  C7  1  0.73910700  0.44450800  0.90645800  1
  C  C8  1  0.26089300  0.94450800  0.59354200  1
  C  C9  1  0.26089300  0.55549200  0.09354200  1
  C  C10  1  0.57815600  0.95423000  0.30310600  1
  C  C11  1  0.57815600  0.54577000  0.80310600  1
  C  C12  1  0.42184400  0.04577000  0.69689400  1
  C  C13  1  0.42184400  0.45423000  0.19689400  1
  C  C14  1  0.89814100  0.81627300  0.04110000  1
  C  C15  1  0.89814100  0.68372700  0.54110000  1
  C  C16  1  0.10185900  0.18372700  0.95890000  1
  C  C17  1  0.10185900  0.31627300  0.45890000  1
  C  C18  1  0.71941100  0.86610300  0.85384900  1
  C  C19  1  0.71941100  0.63389700  0.35384900  1
  C  C20  1  0.28058900  0.13389700  0.14615100  1
  C  C21  1  0.28058900  0.36610300  0.64615100  1
  C  C22  1  0.59233700  0.28961400  0.34475600  1
  C  C23  1  0.59233700  0.21038600  0.84475600  1
  C  C24  1  0.40766300  0.71038600  0.65524400  1
  C  C25  1  0.40766300  0.78961400  0.15524400  1
  C  C26  1  0.56970400  0.21114100  0.47981600  1
  C  C27  1  0.56970400  0.28885900  0.97981600  1
  C  C28  1  0.43029600  0.78885900  0.52018400  1
  C  C29  1  0.43029600  0.71114100  0.02018400  1
  C  C30  1  0.77630800  0.98179000  0.21046600  1
  C  C31  1  0.77630800  0.51821000  0.71046600  1
  C  C32  1  0.22369200  0.01821000  0.78953400  1
  C  C33  1  0.22369200  0.48179000  0.28953400  1
  Ni  Ni34  1  0.81902600  0.88124400  0.98934900  1
  Ni  Ni35  1  0.81902600  0.61875600  0.48934900  1
  Ni  Ni36  1  0.18097400  0.11875600  0.01065100  1
  Ni  Ni37  1  0.18097400  0.38124400  0.51065100  1
  Ni  Ni38  1  0.72307300  0.90246900  0.09294000  1
  Ni  Ni39  1  0.72307300  0.59753100  0.59294000  1
  Ni  Ni40  1  0.27692700  0.09753100  0.90706000  1
  Ni  Ni41  1  0.27692700  0.40246900  0.40706000  1
  Ni  Ni42  1  0.69485800  0.99513500  0.31854200  1
  Ni  Ni43  1  0.69485800  0.50486500  0.81854200  1
  Ni  Ni44  1  0.30514200  0.00486500  0.68145800  1
  Ni  Ni45  1  0.30514200  0.49513500  0.18145800  1
  Ni  Ni46  1  0.91110200  0.04289000  0.20356900  1
  Ni  Ni47  1  0.91110200  0.45711000  0.70356900  1
  Ni  Ni48  1  0.08889800  0.95711000  0.79643100  1
  Ni  Ni49  1  0.08889800  0.54289000  0.29643100  1
  Ni  Ni50  1  0.97365100  0.12674100  0.31069000  1
  Ni  Ni51  1  0.97365100  0.37325900  0.81069000  1
  Ni  Ni52  1  0.02634900  0.87325900  0.68931000  1
  Ni  Ni53  1  0.02634900  0.62674100  0.18931000  1
  C  C54  1  0.29935300  0.90118900  0.26532900  1
  C  C55  1  0.29935300  0.59881100  0.76532900  1
  C  C56  1  0.70064700  0.09881100  0.73467100  1
  C  C57  1  0.70064700  0.40118900  0.23467100  1
  Cu  Cu58  1  0.08873600  0.17990900  0.28510600  1
  Cu  Cu59  1  0.08873600  0.32009100  0.78510600  1
  Cu  Cu60  1  0.91126400  0.82009100  0.71489400  1
  Cu  Cu61  1  0.91126400  0.67990900  0.21489400  1
  Cu  Cu62  1  0.92253700  0.14993100  0.42968800  1
  Cu  Cu63  1  0.92253700  0.35006900  0.92968800  1
  Cu  Cu64  1  0.07746300  0.85006900  0.57031200  1
  Cu  Cu65  1  0.07746300  0.64993100  0.07031200  1
  Cu  Cu66  1  0.49711800  0.25234000  0.36737900  1
  Cu  Cu67  1  0.49711800  0.24766000  0.86737900  1
  Cu  Cu68  1  0.50288200  0.74766000  0.63262100  1
  Cu  Cu69  1  0.50288200  0.75234000  0.13262100  1
