# generated using pymatgen
data_Cu2NiC8
_symmetry_space_group_name_H-M   'P 1'
_cell_length_a   9.72634600
_cell_length_b   9.48826600
_cell_length_c   11.22173010
_cell_angle_alpha   77.75120990
_cell_angle_beta   90.00000000
_cell_angle_gamma   90.00000000
_symmetry_Int_Tables_number   1
_chemical_formula_structural   Cu2NiC8
_chemical_formula_sum   'Cu8 Ni4 C32'
_cell_volume   1012.03529565
_cell_formula_units_Z   4
loop_
 _symmetry_equiv_pos_site_id
 _symmetry_equiv_pos_as_xyz
  1  'x, y, z'
loop_
 _atom_site_type_symbol
 _atom_site_label
 _atom_site_symmetry_multiplicity
 _atom_site_fract_x
 _atom_site_fract_y
 _atom_site_fract_z
 _atom_site_occupancy
  C  C0  1  0.40613800  0.26518900  0.58594400  1
  C  C1  1  0.90613800  0.23481100  0.41405600  1
  C  C2  1  0.59386200  0.73481100  0.41405600  1
  C  C3  1  0.09386200  0.76518900  0.58594400  1
  C  C4  1  0.25364200  0.49742900  0.02206200  1
  C  C5  1  0.75364200  0.00257100  0.97793800  1
  C  C6  1  0.74635800  0.50257100  0.97793800  1
  C  C7  1  0.24635800  0.99742900  0.02206200  1
  C  C8  1  0.40996300  0.17538500  0.26127800  1
  C  C9  1  0.90996300  0.32461500  0.73872200  1
  C  C10  1  0.59003700  0.82461500  0.73872200  1
  C  C11  1  0.09003700  0.67538500  0.26127800  1
  C  C12  1  0.52725700  0.06127500  0.21440500  1
  C  C13  1  0.02725700  0.43872500  0.78559500  1
  C  C14  1  0.47274300  0.93872500  0.78559500  1
  C  C15  1  0.97274300  0.56127500  0.21440500  1
  C  C16  1  0.56722200  0.13734400  0.33424200  1
  C  C17  1  0.06722200  0.36265600  0.66575800  1
  C  C18  1  0.43277800  0.86265600  0.66575800  1
  C  C19  1  0.93277800  0.63734400  0.33424200  1
  C  C20  1  0.53504400  0.30442800  0.24950000  1
  C  C21  1  0.03504400  0.19557200  0.75050000  1
  C  C22  1  0.46495600  0.69557200  0.75050000  1
  C  C23  1  0.96495600  0.80442800  0.24950000  1
  C  C24  1  0.50154400  0.22741300  0.12591200  1
  C  C25  1  0.00154400  0.27258700  0.87408800  1
  C  C26  1  0.49845600  0.77258700  0.87408800  1
  C  C27  1  0.99845600  0.72741300  0.12591200  1
  C  C28  1  0.65551900  0.19698800  0.19914700  1
  C  C29  1  0.15551900  0.30301200  0.80085300  1
  C  C30  1  0.34448100  0.80301200  0.80085300  1
  C  C31  1  0.84448100  0.69698800  0.19914700  1
  Ni  Ni32  1  0.25940100  0.16491900  0.29698100  1
  Ni  Ni33  1  0.75940100  0.33508100  0.70301900  1
  Ni  Ni34  1  0.74059900  0.83508100  0.70301900  1
  Ni  Ni35  1  0.24059900  0.66491900  0.29698100  1
  Cu  Cu36  1  0.16818700  0.19442400  0.21548100  1
  Cu  Cu37  1  0.66818700  0.30557600  0.78451900  1
  Cu  Cu38  1  0.83181300  0.80557600  0.78451900  1
  Cu  Cu39  1  0.33181300  0.69442400  0.21548100  1
  Cu  Cu40  1  0.22517600  0.12708600  0.40779900  1
  Cu  Cu41  1  0.72517600  0.37291400  0.59220100  1
  Cu  Cu42  1  0.77482400  0.87291400  0.59220100  1
  Cu  Cu43  1  0.27482400  0.62708600  0.40779900  1
