# generated using pymatgen
data_CuNi3C7
_symmetry_space_group_name_H-M   'P 1'
_cell_length_a   5.38524400
_cell_length_b   11.36430700
_cell_length_c   10.52900400
_cell_angle_alpha   90.00000000
_cell_angle_beta   90.00000000
_cell_angle_gamma   90.00000000
_symmetry_Int_Tables_number   1
_chemical_formula_structural   CuNi3C7
_chemical_formula_sum   'Cu4 Ni12 C28'
_cell_volume   644.37047612
_cell_formula_units_Z   4
loop_
 _symmetry_equiv_pos_site_id
 _symmetry_equiv_pos_as_xyz
  1  'x, y, z'
loop_
 _atom_site_type_symbol
 _atom_site_label
 _atom_site_symmetry_multiplicity
 _atom_site_fract_x
 _atom_site_fract_y
 _atom_site_fract_z
 _atom_site_occupancy
  Ni  Ni0  1  0.26954500  0.32201700  0.75000000  1
  Ni  Ni1  1  0.76954500  0.17798300  0.25000000  1
  Ni  Ni2  1  0.23045500  0.82201700  0.75000000  1
  Ni  Ni3  1  0.73045500  0.67798300  0.25000000  1
  Ni  Ni4  1  0.22529500  0.80629100  0.46927600  1
  Ni  Ni5  1  0.72529500  0.69370900  0.53072400  1
  Ni  Ni6  1  0.27470500  0.30629100  0.03072400  1
  Ni  Ni7  1  0.77470500  0.19370900  0.96927600  1
  Ni  Ni8  1  0.77470500  0.19370900  0.53072400  1
  Ni  Ni9  1  0.27470500  0.30629100  0.46927600  1
  Ni  Ni10  1  0.72529500  0.69370900  0.96927600  1
  Ni  Ni11  1  0.22529500  0.80629100  0.03072400  1
  Cu  Cu12  1  0.77230000  0.43691300  0.75000000  1
  Cu  Cu13  1  0.27230000  0.06308700  0.25000000  1
  Cu  Cu14  1  0.72770000  0.93691300  0.75000000  1
  Cu  Cu15  1  0.22770000  0.56308700  0.25000000  1
  C  C16  1  0.27099200  0.96761700  0.75000000  1
  C  C17  1  0.77099200  0.53238300  0.25000000  1
  C  C18  1  0.22900800  0.46761700  0.75000000  1
  C  C19  1  0.72900800  0.03238300  0.25000000  1
  C  C20  1  0.25061900  0.94367000  0.41339600  1
  C  C21  1  0.75061900  0.55633000  0.58660400  1
  C  C22  1  0.24938100  0.44367000  0.08660400  1
  C  C23  1  0.74938100  0.05633000  0.91339600  1
  C  C24  1  0.74938100  0.05633000  0.58660400  1
  C  C25  1  0.24938100  0.44367000  0.41339600  1
  C  C26  1  0.75061900  0.55633000  0.91339600  1
  C  C27  1  0.25061900  0.94367000  0.08660400  1
  C  C28  1  0.95601000  0.72163500  0.38867200  1
  C  C29  1  0.45601000  0.77836500  0.61132800  1
  C  C30  1  0.54399000  0.22163500  0.11132800  1
  C  C31  1  0.04399000  0.27836500  0.88867200  1
  C  C32  1  0.47842800  0.70391000  0.11423000  1
  C  C33  1  0.97842800  0.79609000  0.88577000  1
  C  C34  1  0.02157200  0.20391000  0.38577000  1
  C  C35  1  0.52157200  0.29609000  0.61423000  1
  C  C36  1  0.52157200  0.29609000  0.88577000  1
  C  C37  1  0.02157200  0.20391000  0.11423000  1
  C  C38  1  0.97842800  0.79609000  0.61423000  1
  C  C39  1  0.47842800  0.70391000  0.38577000  1
  C  C40  1  0.95601000  0.72163500  0.11132800  1
  C  C41  1  0.45601000  0.77836500  0.88867200  1
  C  C42  1  0.54399000  0.22163500  0.38867200  1
  C  C43  1  0.04399000  0.27836500  0.61132800  1
