# generated using pymatgen
data_CuNiC30
_symmetry_space_group_name_H-M   'P 1'
_cell_length_a   4.43111400
_cell_length_b   8.68321900
_cell_length_c   8.87288000
_cell_angle_alpha   90.00000000
_cell_angle_beta   90.00000000
_cell_angle_gamma   90.00000000
_symmetry_Int_Tables_number   1
_chemical_formula_structural   CuNiC30
_chemical_formula_sum   'Cu1 Ni1 C30'
_cell_volume   341.39588800
_cell_formula_units_Z   1
loop_
 _symmetry_equiv_pos_site_id
 _symmetry_equiv_pos_as_xyz
  1  'x, y, z'
loop_
 _atom_site_type_symbol
 _atom_site_label
 _atom_site_symmetry_multiplicity
 _atom_site_fract_x
 _atom_site_fract_y
 _atom_site_fract_z
 _atom_site_occupancy
  Ni  Ni0  1  0.00000000  0.00000000  0.50000000  1
  Cu  Cu1  1  0.00000000  0.00000000  0.00000000  1
  C  C2  1  0.00000000  0.50000000  0.00000000  1
  C  C3  1  0.00000000  0.50000000  0.50000000  1
  C  C4  1  0.50000000  0.00000000  0.26401200  1
  C  C5  1  0.50000000  0.00000000  0.73598800  1
  C  C6  1  0.50000000  0.50000000  0.25313100  1
  C  C7  1  0.50000000  0.50000000  0.74686900  1
  C  C8  1  0.50000000  0.26160500  0.00000000  1
  C  C9  1  0.50000000  0.25233800  0.50000000  1
  C  C10  1  0.50000000  0.73839500  0.00000000  1
  C  C11  1  0.50000000  0.74766200  0.50000000  1
  C  C12  1  0.00000000  0.25714600  0.25821500  1
  C  C13  1  0.00000000  0.25714600  0.74178500  1
  C  C14  1  0.00000000  0.74285400  0.25821500  1
  C  C15  1  0.00000000  0.74285400  0.74178500  1
  C  C16  1  0.00000000  0.26161400  0.00000000  1
  C  C17  1  0.00000000  0.27605200  0.50000000  1
  C  C18  1  0.00000000  0.73838600  0.00000000  1
  C  C19  1  0.00000000  0.72394800  0.50000000  1
  C  C20  1  0.50000000  0.24930100  0.24813500  1
  C  C21  1  0.50000000  0.24930100  0.75186500  1
  C  C22  1  0.50000000  0.75069900  0.24813500  1
  C  C23  1  0.50000000  0.75069900  0.75186500  1
  C  C24  1  0.50000000  0.00000000  0.00000000  1
  C  C25  1  0.50000000  0.00000000  0.50000000  1
  C  C26  1  0.50000000  0.50000000  0.00000000  1
  C  C27  1  0.50000000  0.50000000  0.50000000  1
  C  C28  1  0.00000000  0.00000000  0.23969700  1
  C  C29  1  0.00000000  0.00000000  0.76030300  1
  C  C30  1  0.00000000  0.50000000  0.24483200  1
  C  C31  1  0.00000000  0.50000000  0.75516800  1
