# generated using pymatgen
data_Cu5(Ni6C)2
_symmetry_space_group_name_H-M   'P 1'
_cell_length_a   8.04852800
_cell_length_b   8.28656005
_cell_length_c   8.28656005
_cell_angle_alpha   120.00670681
_cell_angle_beta   90.00000000
_cell_angle_gamma   90.00000000
_symmetry_Int_Tables_number   1
_chemical_formula_structural   Cu5(Ni6C)2
_chemical_formula_sum   'Cu10 Ni24 C4'
_cell_volume   478.59295378
_cell_formula_units_Z   2
loop_
 _symmetry_equiv_pos_site_id
 _symmetry_equiv_pos_as_xyz
  1  'x, y, z'
loop_
 _atom_site_type_symbol
 _atom_site_label
 _atom_site_symmetry_multiplicity
 _atom_site_fract_x
 _atom_site_fract_y
 _atom_site_fract_z
 _atom_site_occupancy
  C  C0  1  0.75000000  0.00001100  0.99998900  1
  C  C1  1  0.25000000  0.99998900  0.00001100  1
  C  C2  1  0.25000000  0.66652600  0.33347400  1
  C  C3  1  0.75000000  0.33347400  0.66652600  1
  Ni  Ni4  1  0.75000000  0.67338900  0.04862800  1
  Ni  Ni5  1  0.75000000  0.37524600  0.32666800  1
  Ni  Ni6  1  0.75000000  0.95129900  0.62474000  1
  Ni  Ni7  1  0.75000000  0.37526000  0.04870100  1
  Ni  Ni8  1  0.75000000  0.95137200  0.32661100  1
  Ni  Ni9  1  0.75000000  0.67333200  0.62475400  1
  Ni  Ni10  1  0.25000000  0.32661100  0.95137200  1
  Ni  Ni11  1  0.25000000  0.62475400  0.67333200  1
  Ni  Ni12  1  0.25000000  0.04870100  0.37526000  1
  Ni  Ni13  1  0.25000000  0.62474000  0.95129900  1
  Ni  Ni14  1  0.25000000  0.04862800  0.67338900  1
  Ni  Ni15  1  0.25000000  0.32666800  0.37524600  1
  Ni  Ni16  1  0.47576800  0.83763100  0.67538700  1
  Ni  Ni17  1  0.47574600  0.83773600  0.16226400  1
  Ni  Ni18  1  0.47576800  0.32461300  0.16236900  1
  Ni  Ni19  1  0.52423200  0.16236900  0.32461300  1
  Ni  Ni20  1  0.52425400  0.16226400  0.83773600  1
  Ni  Ni21  1  0.52423200  0.67538700  0.83763100  1
  Ni  Ni22  1  0.97576800  0.16236900  0.32461300  1
  Ni  Ni23  1  0.97574600  0.16226400  0.83773600  1
  Ni  Ni24  1  0.97576800  0.67538700  0.83763100  1
  Ni  Ni25  1  0.02423200  0.83763100  0.67538700  1
  Ni  Ni26  1  0.02425400  0.83773600  0.16226400  1
  Ni  Ni27  1  0.02423200  0.32461300  0.16236900  1
  Cu  Cu28  1  0.59885400  0.66663100  0.33336900  1
  Cu  Cu29  1  0.40114600  0.33336900  0.66663100  1
  Cu  Cu30  1  0.09885400  0.33336900  0.66663100  1
  Cu  Cu31  1  0.90114600  0.66663100  0.33336900  1
  Cu  Cu32  1  0.50000000  0.50000000  0.00000000  1
  Cu  Cu33  1  0.50000000  0.50000000  0.50000000  1
  Cu  Cu34  1  0.50000000  0.00000000  0.50000000  1
  Cu  Cu35  1  0.00000000  0.50000000  0.00000000  1
  Cu  Cu36  1  0.00000000  0.50000000  0.50000000  1
  Cu  Cu37  1  0.00000000  0.00000000  0.50000000  1
