# generated using pymatgen
data_Cu8NiC27
_symmetry_space_group_name_H-M   'P 1'
_cell_length_a   4.16588779
_cell_length_b   20.08064015
_cell_length_c   22.23059288
_cell_angle_alpha   90.00000000
_cell_angle_beta   84.62366187
_cell_angle_gamma   90.00000000
_symmetry_Int_Tables_number   1
_chemical_formula_structural   Cu8NiC27
_chemical_formula_sum   'Cu16 Ni2 C54'
_cell_volume   1851.49003674
_cell_formula_units_Z   2
loop_
 _symmetry_equiv_pos_site_id
 _symmetry_equiv_pos_as_xyz
  1  'x, y, z'
loop_
 _atom_site_type_symbol
 _atom_site_label
 _atom_site_symmetry_multiplicity
 _atom_site_fract_x
 _atom_site_fract_y
 _atom_site_fract_z
 _atom_site_occupancy
  Ni  Ni0  1  0.54092762  0.44679131  0.91814475  1
  Ni  Ni1  1  0.45907238  0.94679131  0.08185525  1
  Cu  Cu2  1  0.88459993  0.44292948  0.23080013  1
  Cu  Cu3  1  0.11540007  0.94292948  0.76919987  1
  Cu  Cu4  1  0.62155919  0.12002130  0.75688162  1
  Cu  Cu5  1  0.37844081  0.62002130  0.24311838  1
  Cu  Cu6  1  0.96824799  0.36741039  0.06350402  1
  Cu  Cu7  1  0.03175201  0.86741039  0.93649598  1
  Cu  Cu8  1  0.54034560  0.05349435  0.91930880  1
  Cu  Cu9  1  0.45965440  0.55349435  0.08069120  1
  Cu  Cu10  1  0.96944615  0.13052765  0.06110770  1
  Cu  Cu11  1  0.03055385  0.63052765  0.93889230  1
  Cu  Cu12  1  0.73719924  0.24930665  0.52560152  1
  Cu  Cu13  1  0.26280076  0.74930665  0.47439848  1
  Cu  Cu14  1  0.88265518  0.05524049  0.23468964  1
  Cu  Cu15  1  0.11734482  0.55524049  0.76531036  1
  Cu  Cu16  1  0.72703473  0.43824113  0.54593055  1
  Cu  Cu17  1  0.27296527  0.93824113  0.45406945  1
  C  C18  1  0.62939367  0.37329101  0.74121265  1
  C  C19  1  0.37060633  0.87329101  0.25878735  1
  C  C20  1  0.05690756  0.24587353  0.88618489  1
  C  C21  1  0.94309244  0.74587353  0.11381511  1
  C  C22  1  0.39799682  0.25869480  0.20400636  1
  C  C23  1  0.60200318  0.75869480  0.79599364  1
  C  C24  1  0.30774542  0.35725848  0.38450915  1
  C  C25  1  0.69225458  0.85725848  0.61549085  1
  C  C26  1  0.30687876  0.14205566  0.38624248  1
  C  C27  1  0.69312124  0.64205566  0.61375752  1
  C  C28  1  0.71554468  0.06089357  0.56891065  1
  C  C29  1  0.28445532  0.56089357  0.43108935  1
  C  C30  1  0.16677793  0.24821404  0.66644414  1
  C  C31  1  0.83322207  0.74821404  0.33355586  1
  C  C32  1  0.94535955  0.25100104  0.10928091  1
  C  C33  1  0.05464045  0.75100104  0.89071909  1
  C  C34  1  0.24422286  0.34129110  0.51155429  1
  C  C35  1  0.75577714  0.84129110  0.48844571  1
  C  C36  1  0.51331101  0.16140248  0.97337798  1
  C  C37  1  0.48668899  0.66140248  0.02662202  1
  C  C38  1  0.86125869  0.33253728  0.27748262  1
  C  C39  1  0.13874131  0.83253728  0.72251738  1
  C  C40  1  0.24106382  0.16132196  0.51787236  1
  C  C41  1  0.75893618  0.66132196  0.48212764  1
  C  C42  1  0.42894223  0.39700076  0.14211553  1
  C  C43  1  0.57105777  0.89700076  0.85788447  1
  C  C44  1  0.43491560  0.09508142  0.13016879  1
  C  C45  1  0.56508440  0.59508142  0.86983121  1
  C  C46  1  0.85917345  0.16430778  0.28165311  1
  C  C47  1  0.14082655  0.66430778  0.71834689  1
  C  C48  1  0.35347964  0.48283685  0.29304073  1
  C  C49  1  0.64652036  0.98283685  0.70695927  1
  C  C50  1  0.16994253  0.36279602  0.66011494  1
  C  C51  1  0.83005747  0.86279602  0.33988506  1
  C  C52  1  0.07517789  0.08973765  0.84964422  1
  C  C53  1  0.92482211  0.58973765  0.15035578  1
  C  C54  1  0.15768302  0.13415017  0.68463397  1
  C  C55  1  0.84231698  0.63415017  0.31536603  1
  C  C56  1  0.35419630  0.01499619  0.29160740  1
  C  C57  1  0.64580370  0.51499619  0.70839260  1
  C  C58  1  0.99916058  0.50508324  0.00167884  1
  C  C59  1  0.00083942  0.00508324  0.99832116  1
  C  C60  1  0.78311451  0.45834964  0.43377098  1
  C  C61  1  0.21688549  0.95834964  0.56622902  1
  C  C62  1  0.50700924  0.33693769  0.98598153  1
  C  C63  1  0.49299076  0.83693769  0.01401847  1
  C  C64  1  0.07322608  0.39725907  0.85354785  1
  C  C65  1  0.92677392  0.89725907  0.14645215  1
  C  C66  1  0.79320948  0.24580823  0.41358103  1
  C  C67  1  0.20679052  0.74580823  0.58641897  1
  C  C68  1  0.77724967  0.02072043  0.44550067  1
  C  C69  1  0.22275033  0.52072043  0.55449933  1
  C  C70  1  0.59997870  0.23843717  0.80004260  1
  C  C71  1  0.40002130  0.73843717  0.19995740  1
