# generated using pymatgen
data_Cu3Ni3C19
_symmetry_space_group_name_H-M   'P 1'
_cell_length_a   9.12454128
_cell_length_b   9.12454128
_cell_length_c   9.12454101
_cell_angle_alpha   90.76829213
_cell_angle_beta   90.76829213
_cell_angle_gamma   90.76829194
_symmetry_Int_Tables_number   1
_chemical_formula_structural   Cu3Ni3C19
_chemical_formula_sum   'Cu6 Ni6 C38'
_cell_volume   759.47748210
_cell_formula_units_Z   2
loop_
 _symmetry_equiv_pos_site_id
 _symmetry_equiv_pos_as_xyz
  1  'x, y, z'
loop_
 _atom_site_type_symbol
 _atom_site_label
 _atom_site_symmetry_multiplicity
 _atom_site_fract_x
 _atom_site_fract_y
 _atom_site_fract_z
 _atom_site_occupancy
  C  C0  1  0.31697500  0.68420300  0.31236200  1
  C  C1  1  0.68420300  0.31236200  0.31697500  1
  C  C2  1  0.31236200  0.31697500  0.68420300  1
  C  C3  1  0.18420300  0.81697500  0.81236200  1
  C  C4  1  0.81236200  0.18420300  0.81697500  1
  C  C5  1  0.81697500  0.81236200  0.18420300  1
  Ni  Ni6  1  0.50475300  0.75274900  0.99219500  1
  Ni  Ni7  1  0.99219500  0.50475300  0.75274900  1
  Ni  Ni8  1  0.75274900  0.99219500  0.50475300  1
  Ni  Ni9  1  0.00475300  0.49219500  0.25274900  1
  Ni  Ni10  1  0.25274900  0.00475300  0.49219500  1
  Ni  Ni11  1  0.49219500  0.25274900  0.00475300  1
  Cu  Cu12  1  0.00184500  0.74995300  0.50196600  1
  Cu  Cu13  1  0.50196600  0.00184500  0.74995300  1
  Cu  Cu14  1  0.74995300  0.50196600  0.00184500  1
  Cu  Cu15  1  0.50184500  0.00196600  0.24995300  1
  Cu  Cu16  1  0.24995300  0.50184500  0.00196600  1
  Cu  Cu17  1  0.00196600  0.24995300  0.50184500  1
  C  C18  1  0.65947600  0.64107800  0.93839600  1
  C  C19  1  0.93839600  0.65947600  0.64107800  1
  C  C20  1  0.64107800  0.93839600  0.65947600  1
  C  C21  1  0.35501300  0.63708800  0.06569800  1
  C  C22  1  0.07085100  0.64770900  0.37086000  1
  C  C23  1  0.36808900  0.92902900  0.34564700  1
  C  C24  1  0.64770900  0.37086000  0.07085100  1
  C  C25  1  0.92902900  0.34564700  0.36808900  1
  C  C26  1  0.63708800  0.06569800  0.35501300  1
  C  C27  1  0.34564700  0.36808900  0.92902900  1
  C  C28  1  0.06569800  0.35501300  0.63708800  1
  C  C29  1  0.37086000  0.07085100  0.64770900  1
  C  C30  1  0.14770900  0.57085100  0.87086000  1
  C  C31  1  0.42902900  0.86808900  0.84564700  1
  C  C32  1  0.13708800  0.85501300  0.56569800  1
  C  C33  1  0.84564700  0.42902900  0.86808900  1
  C  C34  1  0.56569800  0.13708800  0.85501300  1
  C  C35  1  0.87086000  0.14770900  0.57085100  1
  C  C36  1  0.15947600  0.43839600  0.14107800  1
  C  C37  1  0.43839600  0.14107800  0.15947600  1
  C  C38  1  0.14107800  0.15947600  0.43839600  1
  C  C39  1  0.85501300  0.56569800  0.13708800  1
  C  C40  1  0.57085100  0.87086000  0.14770900  1
  C  C41  1  0.86808900  0.84564700  0.42902900  1
  C  C42  1  0.00637300  0.00637300  0.00637300  1
  C  C43  1  0.06380300  0.88108200  0.05680700  1
  C  C44  1  0.88108200  0.05680700  0.06380300  1
  C  C45  1  0.05680700  0.06380300  0.88108200  1
  C  C46  1  0.38108200  0.56380300  0.55680700  1
  C  C47  1  0.55680700  0.38108200  0.56380300  1
  C  C48  1  0.50637300  0.50637300  0.50637300  1
  C  C49  1  0.56380300  0.55680700  0.38108200  1
