# generated using pymatgen
data_Cu7NiC28
_symmetry_space_group_name_H-M   'P 1'
_cell_length_a   11.62594658
_cell_length_b   11.73969738
_cell_length_c   17.67499438
_cell_angle_alpha   110.20750080
_cell_angle_beta   109.17979058
_cell_angle_gamma   89.55593646
_symmetry_Int_Tables_number   1
_chemical_formula_structural   Cu7NiC28
_chemical_formula_sum   'Cu28 Ni4 C112'
_cell_volume   2122.95563782
_cell_formula_units_Z   4
loop_
 _symmetry_equiv_pos_site_id
 _symmetry_equiv_pos_as_xyz
  1  'x, y, z'
loop_
 _atom_site_type_symbol
 _atom_site_label
 _atom_site_symmetry_multiplicity
 _atom_site_fract_x
 _atom_site_fract_y
 _atom_site_fract_z
 _atom_site_occupancy
  C  C0  1  0.30408800  0.06347300  0.10867500  1
  C  C1  1  0.30187900  0.56246400  0.10767100  1
  C  C2  1  0.80473000  0.06369600  0.11140500  1
  C  C3  1  0.80160300  0.55926600  0.10818700  1
  C  C4  1  0.19945900  0.93418200  0.39210000  1
  C  C5  1  0.19268500  0.92795900  0.88287400  1
  C  C6  1  0.70411100  0.43817500  0.39615200  1
  C  C7  1  0.69017100  0.42703300  0.88308400  1
  C  C8  1  0.69989200  0.93332500  0.39408500  1
  C  C9  1  0.05750000  0.29602200  0.10975000  1
  C  C10  1  0.05454900  0.79496400  0.10619800  1
  C  C11  1  0.55818200  0.29667400  0.11046100  1
  C  C12  1  0.55038600  0.79688000  0.10512900  1
  C  C13  1  0.45196100  0.71006500  0.39367200  1
  C  C14  1  0.43721000  0.70518300  0.88216700  1
  C  C15  1  0.94413100  0.70174300  0.88259700  1
  C  C16  1  0.29946300  0.07056900  0.60243900  1
  C  C17  1  0.30029600  0.56426600  0.59973600  1
  C  C18  1  0.80301400  0.06681400  0.60176700  1
  C  C19  1  0.79892100  0.56941400  0.60161900  1
  C  C20  1  0.20631500  0.43821300  0.40486400  1
  C  C21  1  0.19923400  0.44085400  0.89770500  1
  C  C22  1  0.69834600  0.93769400  0.89638300  1
  C  C23  1  0.05215800  0.28451100  0.60306600  1
  C  C24  1  0.05143200  0.79035300  0.60189300  1
  C  C25  1  0.55150800  0.28880800  0.60332600  1
  C  C26  1  0.55341300  0.78913800  0.60172600  1
  C  C27  1  0.45465200  0.21530800  0.40790200  1
  C  C28  1  0.44625400  0.21225100  0.89576800  1
  C  C29  1  0.95289600  0.21223400  0.40468400  1
  C  C30  1  0.94491000  0.20698700  0.89543700  1
  C  C31  1  0.94752200  0.71044000  0.40117700  1
  Ni  Ni32  1  0.00559300  0.99892600  0.99676400  1
  Ni  Ni33  1  0.00248000  0.49505300  0.99492300  1
  Ni  Ni34  1  0.50404600  0.99814800  0.99528500  1
  Ni  Ni35  1  0.25092900  0.74527400  0.99321800  1
  Cu  Cu36  1  0.01462600  0.00165100  0.50374100  1
  Cu  Cu37  1  0.01492800  0.50336500  0.50540300  1
  Cu  Cu38  1  0.51366300  0.00648200  0.50613900  1
  Cu  Cu39  1  0.50332600  0.49692700  0.99464300  1
  Cu  Cu40  1  0.51500900  0.50266900  0.50623200  1
  Cu  Cu41  1  0.25333000  0.24805900  0.99374400  1
  Cu  Cu42  1  0.26466700  0.25473200  0.50519800  1
  Cu  Cu43  1  0.26309300  0.74949300  0.50319800  1
  Cu  Cu44  1  0.75569000  0.24478800  0.99522100  1
  Cu  Cu45  1  0.76883200  0.25360400  0.50759500  1
  Cu  Cu46  1  0.75315300  0.74752600  0.99312300  1
  Cu  Cu47  1  0.76536100  0.75412900  0.50694700  1
  Cu  Cu48  1  0.09442800  0.11748500  0.25545800  1
  Cu  Cu49  1  0.08552500  0.09886100  0.74571400  1
  Cu  Cu50  1  0.09556000  0.59163100  0.25451100  1
  Cu  Cu51  1  0.08805100  0.58221800  0.73719200  1
  Cu  Cu52  1  0.60038500  0.10181500  0.25831100  1
  Cu  Cu53  1  0.58469800  0.09036800  0.74566900  1
  Cu  Cu54  1  0.60514200  0.58933000  0.24945000  1
  Cu  Cu55  1  0.58595900  0.58921200  0.74087300  1
  Cu  Cu56  1  0.35061300  0.40049700  0.25761400  1
  Cu  Cu57  1  0.33698000  0.40074100  0.74843100  1
  Cu  Cu58  1  0.34675900  0.91517000  0.25161800  1
  Cu  Cu59  1  0.34011600  0.90997900  0.74076800  1
  Cu  Cu60  1  0.86902900  0.38937100  0.25638700  1
  Cu  Cu61  1  0.84528000  0.40022700  0.74562000  1
  Cu  Cu62  1  0.85335600  0.90389700  0.25201500  1
  Cu  Cu63  1  0.83600700  0.91356200  0.74859500  1
  C  C64  1  0.12991300  0.12390700  0.49080400  1
  C  C65  1  0.12256200  0.12272600  0.98333000  1
  C  C66  1  0.12725300  0.61456500  0.48280400  1
  C  C67  1  0.12454000  0.61570300  0.98280300  1
  C  C68  1  0.63358900  0.12702800  0.49666100  1
  C  C69  1  0.63285700  0.12540300  0.98580700  1
  C  C70  1  0.63255700  0.62406300  0.49546600  1
  C  C71  1  0.62207200  0.61837700  0.98556700  1
  C  C72  1  0.13670300  0.36748000  0.99870300  1
  C  C73  1  0.14831300  0.38855200  0.52284900  1
  C  C74  1  0.12956900  0.87561400  0.00195700  1
  C  C75  1  0.14609100  0.88272500  0.52066100  1
  C  C76  1  0.62947700  0.37101100  0.00003400  1
  C  C77  1  0.64867500  0.38693000  0.52471700  1
  C  C78  1  0.63876000  0.86814900  0.99996000  1
  C  C79  1  0.64843700  0.88956600  0.52587800  1
  C  C80  1  0.38249800  0.12360500  0.48973000  1
  C  C81  1  0.37009800  0.13009400  0.98876000  1
  C  C82  1  0.38026100  0.61681900  0.49196500  1
  C  C83  1  0.37031400  0.61252300  0.98348000  1
  C  C84  1  0.88334600  0.11986200  0.48829700  1
  C  C85  1  0.87461700  0.11563800  0.98606600  1
  C  C86  1  0.88531800  0.62386900  0.49414000  1
  C  C87  1  0.86554300  0.62393800  0.98885600  1
  C  C88  1  0.38097400  0.37707300  0.00149900  1
  C  C89  1  0.39856100  0.38755300  0.52252700  1
  C  C90  1  0.37747600  0.87391800  0.00317200  1
  C  C91  1  0.39826200  0.89097700  0.52579700  1
  C  C92  1  0.87450200  0.36420900  0.99874100  1
  C  C93  1  0.90127400  0.38908200  0.52599200  1
  C  C94  1  0.87682200  0.87547900  0.00094500  1
  C  C95  1  0.89771600  0.88760300  0.52229100  1
  C  C96  1  0.07075700  0.08153200  0.13288300  1
  C  C97  1  0.08666100  0.11070800  0.63928500  1
  C  C98  1  0.06982400  0.58180600  0.13903700  1
  C  C99  1  0.09526000  0.61684000  0.64071000  1
  C  C100  1  0.57405600  0.08389000  0.13845100  1
  C  C101  1  0.58242700  0.11339700  0.64308600  1
  C  C102  1  0.57438900  0.58944800  0.13510900  1
  C  C103  1  0.58758200  0.61715200  0.64062900  1
  C  C104  1  0.44670300  0.39236000  0.36711000  1
  C  C105  1  0.43778400  0.39408200  0.85665500  1
  C  C106  1  0.44907800  0.91652600  0.36611300  1
  C  C107  1  0.44758600  0.91665100  0.85391300  1
  C  C108  1  0.94310000  0.39156100  0.37060800  1
  C  C109  1  0.93523100  0.39256800  0.85586900  1
  C  C110  1  0.94476800  0.89360100  0.36485900  1
  C  C111  1  0.94200300  0.91099300  0.85841200  1
  C  C112  1  0.31865600  0.30732000  0.13269200  1
  C  C113  1  0.33992400  0.28318200  0.63973700  1
  C  C114  1  0.32176100  0.80119900  0.13845000  1
  C  C115  1  0.33641500  0.77756200  0.63881000  1
  C  C116  1  0.82417800  0.30853400  0.12761100  1
  C  C117  1  0.85264200  0.27758800  0.64077000  1
  C  C118  1  0.82509900  0.80211000  0.13142200  1
  C  C119  1  0.83934300  0.78883900  0.64315400  1
  C  C120  1  0.20345900  0.22439900  0.36880800  1
  C  C121  1  0.19722800  0.20156500  0.86066500  1
  C  C122  1  0.20395500  0.70277100  0.36720300  1
  C  C123  1  0.18637600  0.68940300  0.85352100  1
  C  C124  1  0.70716000  0.20984700  0.37040300  1
  C  C125  1  0.70267500  0.18842800  0.85934700  1
  C  C126  1  0.70060700  0.69920300  0.36800800  1
  C  C127  1  0.68933800  0.69344300  0.85937000  1
  C  C128  1  0.44636400  0.07636300  0.27276800  1
  C  C129  1  0.41891900  0.07274800  0.75012600  1
  C  C130  1  0.44634800  0.53812700  0.24830000  1
  C  C131  1  0.41864000  0.53999100  0.72937700  1
  C  C132  1  0.94633400  0.06355900  0.26943100  1
  C  C133  1  0.92092900  0.06540600  0.74672000  1
  C  C134  1  0.93579700  0.55672300  0.25836900  1
  C  C135  1  0.91783000  0.54228800  0.72696600  1
  C  C136  1  0.19774900  0.45057200  0.27159500  1
  C  C137  1  0.17151900  0.43061500  0.75093000  1
  C  C138  1  0.18704000  0.96237900  0.25101000  1
  C  C139  1  0.17151600  0.94505400  0.73434800  1
  C  C140  1  0.70913600  0.45090400  0.25664800  1
  C  C141  1  0.67721800  0.43934100  0.73684500  1
  C  C142  1  0.69365000  0.95220700  0.24999400  1
  C  C143  1  0.66855100  0.93702200  0.75030800  1
