# generated using pymatgen
data_Cu2Ni2C11
_symmetry_space_group_name_H-M   'P 1'
_cell_length_a   10.18714763
_cell_length_b   9.17722466
_cell_length_c   6.90734480
_cell_angle_alpha   77.16901378
_cell_angle_beta   61.44611067
_cell_angle_gamma   41.38487555
_symmetry_Int_Tables_number   1
_chemical_formula_structural   Cu2Ni2C11
_chemical_formula_sum   'Cu4 Ni4 C22'
_cell_volume   364.48213383
_cell_formula_units_Z   2
loop_
 _symmetry_equiv_pos_site_id
 _symmetry_equiv_pos_as_xyz
  1  'x, y, z'
loop_
 _atom_site_type_symbol
 _atom_site_label
 _atom_site_symmetry_multiplicity
 _atom_site_fract_x
 _atom_site_fract_y
 _atom_site_fract_z
 _atom_site_occupancy
  C  C0  1  0.50342100  0.99657900  0.99657900  1
  C  C1  1  0.25342100  0.74657900  0.74657900  1
  Ni  Ni2  1  0.87519700  0.37966400  0.38149500  1
  Ni  Ni3  1  0.36364500  0.38149500  0.37966400  1
  Ni  Ni4  1  0.87033600  0.37480300  0.88635500  1
  Ni  Ni5  1  0.86850500  0.88635500  0.37480300  1
  Cu  Cu6  1  0.03837900  0.55066400  0.96047000  1
  Cu  Cu7  1  0.69933600  0.21162100  0.79951300  1
  Cu  Cu8  1  0.45048700  0.96047000  0.55066400  1
  Cu  Cu9  1  0.28953000  0.79951300  0.21162100  1
  C  C10  1  0.57110400  0.72972100  0.45488800  1
  C  C11  1  0.66321100  0.18664200  0.32776500  1
  C  C12  1  0.30451700  0.67343200  0.40975400  1
  C  C13  1  0.79511200  0.00571300  0.67889600  1
  C  C14  1  0.22336400  0.07102300  0.75678500  1
  C  C15  1  0.42893900  0.09040600  0.35491300  1
  C  C16  1  0.06335800  0.58678900  0.42761800  1
  C  C17  1  0.82238200  0.32776500  0.18664200  1
  C  C18  1  0.92223500  0.42761800  0.58678900  1
  C  C19  1  0.17897700  0.02663600  0.30117200  1
  C  C20  1  0.24428700  0.45488800  0.72972100  1
  C  C21  1  0.49321500  0.30117200  0.02663600  1
  C  C22  1  0.94882800  0.75678500  0.07102300  1
  C  C23  1  0.15959400  0.82106100  0.12425700  1
  C  C24  1  0.12574300  0.35491300  0.09040600  1
  C  C25  1  0.89508700  0.12425700  0.82106100  1
  C  C26  1  0.84024600  0.63770400  0.94548300  1
  C  C27  1  0.61229600  0.40975400  0.67343200  1
  C  C28  1  0.52027900  0.67889600  0.00571300  1
  C  C29  1  0.57656800  0.94548300  0.63770400  1
