# generated using pymatgen
data_Cu5Ni3C29
_symmetry_space_group_name_H-M   'P 1'
_cell_length_a   7.93039267
_cell_length_b   7.81873203
_cell_length_c   7.79689243
_cell_angle_alpha   90.58043998
_cell_angle_beta   89.22374201
_cell_angle_gamma   90.50060704
_symmetry_Int_Tables_number   1
_chemical_formula_structural   Cu5Ni3C29
_chemical_formula_sum   'Cu5 Ni3 C29'
_cell_volume   483.36405645
_cell_formula_units_Z   1
loop_
 _symmetry_equiv_pos_site_id
 _symmetry_equiv_pos_as_xyz
  1  'x, y, z'
loop_
 _atom_site_type_symbol
 _atom_site_label
 _atom_site_symmetry_multiplicity
 _atom_site_fract_x
 _atom_site_fract_y
 _atom_site_fract_z
 _atom_site_occupancy
  C  C0  1  0.24486100  0.26713500  0.25094400  1
  C  C1  1  0.26643300  0.29920300  0.72467500  1
  C  C2  1  0.22001300  0.72653900  0.27800500  1
  C  C3  1  0.24297700  0.70477300  0.74148300  1
  C  C4  1  0.77301600  0.26496400  0.28023000  1
  C  C5  1  0.70726600  0.27950900  0.74451700  1
  C  C6  1  0.73058100  0.74206200  0.25932600  1
  C  C7  1  0.73919600  0.73187200  0.73232500  1
  Ni  Ni8  1  0.02805100  0.98347800  0.98560600  1
  Ni  Ni9  1  0.00163600  0.99796100  0.52176300  1
  Ni  Ni10  1  0.49515100  0.99049500  0.98533100  1
  Cu  Cu11  1  0.98604300  0.50393500  0.02171700  1
  Cu  Cu12  1  0.99462300  0.49948100  0.51492300  1
  Cu  Cu13  1  0.50980300  0.00218800  0.46713900  1
  Cu  Cu14  1  0.49308300  0.50350300  0.99489200  1
  Cu  Cu15  1  0.49970100  0.50815200  0.49347900  1
  C  C16  1  0.96722600  0.97505100  0.76257100  1
  C  C17  1  0.00616100  0.48594800  0.26718800  1
  C  C18  1  0.99303400  0.51646800  0.77002000  1
  C  C19  1  0.58127000  0.05000200  0.18991900  1
  C  C20  1  0.59258500  0.99184000  0.76678200  1
  C  C21  1  0.49668500  0.54124200  0.74497500  1
  C  C22  1  0.25750300  0.95471000  0.97760100  1
  C  C23  1  0.22148700  0.00381300  0.41978400  1
  C  C24  1  0.24456400  0.53475200  0.01511100  1
  C  C25  1  0.25783600  0.49391900  0.49938000  1
  C  C26  1  0.79437000  0.98567900  0.42955700  1
  C  C27  1  0.73217400  0.45968600  0.03565200  1
  C  C28  1  0.73930200  0.51656600  0.48988500  1
  C  C29  1  0.98420400  0.18891100  0.07968400  1
  C  C30  1  0.99427500  0.24745800  0.53567900  1
  C  C31  1  0.95570300  0.79041900  0.08555400  1
  C  C32  1  0.02295600  0.74657700  0.51529800  1
  C  C33  1  0.45053700  0.25818500  0.95187200  1
  C  C34  1  0.50664300  0.25980100  0.50833600  1
  C  C35  1  0.53510100  0.74908200  0.02552300  1
  C  C36  1  0.48395300  0.74464200  0.43327400  1
