# generated using pymatgen
data_Cu11Ni9C11
_symmetry_space_group_name_H-M   'P 1'
_cell_length_a   4.85244535
_cell_length_b   4.93702334
_cell_length_c   15.55374021
_cell_angle_alpha   89.58636652
_cell_angle_beta   90.38187407
_cell_angle_gamma   95.97981017
_symmetry_Int_Tables_number   1
_chemical_formula_structural   Cu11Ni9C11
_chemical_formula_sum   'Cu11 Ni9 C11'
_cell_volume   370.57156176
_cell_formula_units_Z   1
loop_
 _symmetry_equiv_pos_site_id
 _symmetry_equiv_pos_as_xyz
  1  'x, y, z'
loop_
 _atom_site_type_symbol
 _atom_site_label
 _atom_site_symmetry_multiplicity
 _atom_site_fract_x
 _atom_site_fract_y
 _atom_site_fract_z
 _atom_site_occupancy
  C  C0  1  0.99057376  0.51517931  0.80080603  1
  C  C1  1  0.98999485  0.99454871  0.00654123  1
  C  C2  1  0.99382244  0.98985865  0.20389246  1
  C  C3  1  0.99132903  0.98126504  0.40311158  1
  C  C4  1  0.04064494  0.00041232  0.60218776  1
  C  C5  1  0.07053912  0.02477310  0.79425431  1
  C  C6  1  0.49119330  0.49232403  0.10649608  1
  C  C7  1  0.49085215  0.46997759  0.48844015  1
  C  C8  1  0.49359550  0.48922954  0.29890210  1
  C  C9  1  0.45727177  0.52507998  0.68978310  1
  C  C10  1  0.49220739  0.48994119  0.91624948  1
  Ni  Ni11  1  0.17948340  0.76933935  0.70373811  1
  Ni  Ni12  1  0.28988631  0.27119150  0.01291020  1
  Ni  Ni13  1  0.29232346  0.28864483  0.20410672  1
  Ni  Ni14  1  0.29317968  0.27949525  0.39613815  1
  Ni  Ni15  1  0.33159271  0.31083868  0.59374819  1
  Ni  Ni16  1  0.34314228  0.34527920  0.80054104  1
  Ni  Ni17  1  0.68710545  0.70952281  0.01015193  1
  Ni  Ni18  1  0.69300619  0.69051238  0.20416666  1
  Ni  Ni19  1  0.69524424  0.68348928  0.39953412  1
  Cu  Cu20  1  0.17693942  0.79370311  0.10713280  1
  Cu  Cu21  1  0.18334174  0.79833436  0.30234237  1
  Cu  Cu22  1  0.19846800  0.78436985  0.49404248  1
  Cu  Cu23  1  0.14781548  0.77517041  0.90115005  1
  Cu  Cu24  1  0.69150147  0.72640032  0.59759458  1
  Cu  Cu25  1  0.70138227  0.75669407  0.79656860  1
  Cu  Cu26  1  0.80148086  0.18409425  0.10682567  1
  Cu  Cu27  1  0.80725956  0.18800171  0.49521791  1
  Cu  Cu28  1  0.80331709  0.17144002  0.30240983  1
  Cu  Cu29  1  0.84740824  0.23043811  0.89373316  1
  Cu  Cu30  1  0.82021089  0.27044805  0.70895016  1
