# generated using pymatgen
data_CuNiC
_symmetry_space_group_name_H-M   'P 1'
_cell_length_a   4.81768300
_cell_length_b   7.68787700
_cell_length_c   8.06251900
_cell_angle_alpha   90.00000000
_cell_angle_beta   90.00000000
_cell_angle_gamma   90.00000000
_symmetry_Int_Tables_number   1
_chemical_formula_structural   CuNiC
_chemical_formula_sum   'Cu4 Ni4 C4'
_cell_volume   298.61759799
_cell_formula_units_Z   4
loop_
 _symmetry_equiv_pos_site_id
 _symmetry_equiv_pos_as_xyz
  1  'x, y, z'
loop_
 _atom_site_type_symbol
 _atom_site_label
 _atom_site_symmetry_multiplicity
 _atom_site_fract_x
 _atom_site_fract_y
 _atom_site_fract_z
 _atom_site_occupancy
  C  C0  1  0.25000000  0.01429300  0.29904600  1
  C  C1  1  0.25000000  0.51429300  0.20095400  1
  C  C2  1  0.75000000  0.98570700  0.70095400  1
  C  C3  1  0.75000000  0.48570700  0.79904600  1
  Ni  Ni4  1  0.25000000  0.18476500  0.91341900  1
  Ni  Ni5  1  0.25000000  0.68476500  0.58658100  1
  Ni  Ni6  1  0.75000000  0.81523500  0.08658100  1
  Ni  Ni7  1  0.75000000  0.31523500  0.41341900  1
  Cu  Cu8  1  0.25000000  0.30077600  0.58503800  1
  Cu  Cu9  1  0.25000000  0.80077600  0.91496200  1
  Cu  Cu10  1  0.75000000  0.69922400  0.41496200  1
  Cu  Cu11  1  0.75000000  0.19922400  0.08503800  1
