# generated using pymatgen
data_Cu2NiC4
_symmetry_space_group_name_H-M   'P 1'
_cell_length_a   9.37795384
_cell_length_b   9.28047862
_cell_length_c   9.35403929
_cell_angle_alpha   59.73094270
_cell_angle_beta   59.07112609
_cell_angle_gamma   60.26444969
_symmetry_Int_Tables_number   1
_chemical_formula_structural   Cu2NiC4
_chemical_formula_sum   'Cu8 Ni4 C16'
_cell_volume   571.46103478
_cell_formula_units_Z   4
loop_
 _symmetry_equiv_pos_site_id
 _symmetry_equiv_pos_as_xyz
  1  'x, y, z'
loop_
 _atom_site_type_symbol
 _atom_site_label
 _atom_site_symmetry_multiplicity
 _atom_site_fract_x
 _atom_site_fract_y
 _atom_site_fract_z
 _atom_site_occupancy
  C  C0  1  0.14912500  0.60141100  0.59985100  1
  C  C1  1  0.00004900  0.00031600  0.00011200  1
  C  C2  1  0.85268500  0.39780300  0.85390300  1
  C  C3  1  0.14635600  0.60311400  0.14499000  1
  C  C4  1  0.39817500  0.39895500  0.85231200  1
  C  C5  1  0.60287800  0.60196400  0.14656600  1
  C  C6  1  0.85007000  0.39953300  0.40081700  1
  C  C7  1  0.14869400  0.14782300  0.60033800  1
  C  C8  1  0.60377300  0.14701400  0.60122200  1
  C  C9  1  0.39725100  0.85319800  0.85366900  1
  C  C10  1  0.39691000  0.85221200  0.39950900  1
  C  C11  1  0.00016100  0.00046900  0.49931200  1
  C  C12  1  0.49872300  0.00025900  0.00070400  1
  C  C13  1  0.00047700  0.49877300  0.00026600  1
  C  C14  1  0.60359100  0.14616000  0.14516900  1
  C  C15  1  0.85072400  0.85146000  0.40028100  1
  Ni  Ni16  1  0.49961400  0.49980600  0.00082700  1
  Ni  Ni17  1  0.49986900  0.00081400  0.49949900  1
  Ni  Ni18  1  0.00079100  0.49980100  0.49959500  1
  Ni  Ni19  1  0.49981800  0.49977100  0.49961400  1
  Cu  Cu20  1  0.79951400  0.80135500  0.09666000  1
  Cu  Cu21  1  0.90397600  0.19750200  0.20030800  1
  Cu  Cu22  1  0.80089100  0.80015200  0.80270900  1
  Cu  Cu23  1  0.19684000  0.90252500  0.19892700  1
  Cu  Cu24  1  0.80177400  0.09664100  0.80216500  1
  Cu  Cu25  1  0.19916400  0.20054900  0.19822000  1
  Cu  Cu26  1  0.09662600  0.80272600  0.79933700  1
  Cu  Cu27  1  0.20148400  0.19789800  0.90312000  1
