# generated using pymatgen
data_Cu2NiC6
_symmetry_space_group_name_H-M   'P 1'
_cell_length_a   5.91354300
_cell_length_b   5.91354300
_cell_length_c   14.54037900
_cell_angle_alpha   90.00000000
_cell_angle_beta   90.00000000
_cell_angle_gamma   90.00000000
_symmetry_Int_Tables_number   1
_chemical_formula_structural   Cu2NiC6
_chemical_formula_sum   'Cu4 Ni2 C12'
_cell_volume   508.47692005
_cell_formula_units_Z   2
loop_
 _symmetry_equiv_pos_site_id
 _symmetry_equiv_pos_as_xyz
  1  'x, y, z'
loop_
 _atom_site_type_symbol
 _atom_site_label
 _atom_site_symmetry_multiplicity
 _atom_site_fract_x
 _atom_site_fract_y
 _atom_site_fract_z
 _atom_site_occupancy
  C  C0  1  0.75743100  0.75743100  0.00000000  1
  C  C1  1  0.24256900  0.75743100  0.50000000  1
  C  C2  1  0.75743100  0.24256900  0.50000000  1
  C  C3  1  0.24256900  0.24256900  0.00000000  1
  Ni  Ni4  1  0.50000000  0.50000000  0.25000000  1
  Ni  Ni5  1  0.50000000  0.50000000  0.75000000  1
  Cu  Cu6  1  0.00000000  0.50000000  0.75000000  1
  Cu  Cu7  1  0.50000000  0.00000000  0.75000000  1
  Cu  Cu8  1  0.50000000  0.00000000  0.25000000  1
  Cu  Cu9  1  0.00000000  0.50000000  0.25000000  1
  C  C10  1  0.73986700  0.26013300  0.15682300  1
  C  C11  1  0.73986700  0.73986700  0.34317700  1
  C  C12  1  0.26013300  0.26013300  0.65682300  1
  C  C13  1  0.73986700  0.73986700  0.65682300  1
  C  C14  1  0.26013300  0.26013300  0.34317700  1
  C  C15  1  0.73986700  0.26013300  0.84317700  1
  C  C16  1  0.26013300  0.73986700  0.84317700  1
  C  C17  1  0.26013300  0.73986700  0.15682300  1
