# generated using pymatgen
data_CuNiC
_symmetry_space_group_name_H-M   'P 1'
_cell_length_a   7.43555653
_cell_length_b   7.43555653
_cell_length_c   4.78766356
_cell_angle_alpha   89.46933458
_cell_angle_beta   89.46933458
_cell_angle_gamma   23.92069011
_symmetry_Int_Tables_number   1
_chemical_formula_structural   CuNiC
_chemical_formula_sum   'Cu3 Ni3 C3'
_cell_volume   107.32272123
_cell_formula_units_Z   3
loop_
 _symmetry_equiv_pos_site_id
 _symmetry_equiv_pos_as_xyz
  1  'x, y, z'
loop_
 _atom_site_type_symbol
 _atom_site_label
 _atom_site_symmetry_multiplicity
 _atom_site_fract_x
 _atom_site_fract_y
 _atom_site_fract_z
 _atom_site_occupancy
  C  C0  1  0.99740100  0.99740100  0.00538000  1
  C  C1  1  0.65951500  0.65951500  0.56144000  1
  C  C2  1  0.34107800  0.34107800  0.45960400  1
  Ni  Ni3  1  0.56035100  0.56035100  0.82323600  1
  Ni  Ni4  1  0.23137200  0.23137200  0.68530000  1
  Ni  Ni5  1  0.43772000  0.43772000  0.19606300  1
  Cu  Cu6  1  0.90007800  0.90007800  0.69074600  1
  Cu  Cu7  1  0.10098900  0.10098900  0.31609900  1
  Cu  Cu8  1  0.77149200  0.77149200  0.26213200  1
