# generated using pymatgen
data_Cu2(Ni2C)5
_symmetry_space_group_name_H-M   'P 1'
_cell_length_a   7.59694300
_cell_length_b   10.88515100
_cell_length_c   13.97566544
_cell_angle_alpha   71.41697112
_cell_angle_beta   90.00000000
_cell_angle_gamma   90.00000000
_symmetry_Int_Tables_number   1
_chemical_formula_structural   Cu2(Ni2C)5
_chemical_formula_sum   'Cu8 Ni40 C20'
_cell_volume   1095.44687604
_cell_formula_units_Z   4
loop_
 _symmetry_equiv_pos_site_id
 _symmetry_equiv_pos_as_xyz
  1  'x, y, z'
loop_
 _atom_site_type_symbol
 _atom_site_label
 _atom_site_symmetry_multiplicity
 _atom_site_fract_x
 _atom_site_fract_y
 _atom_site_fract_z
 _atom_site_occupancy
  C  C0  1  0.75539500  0.97617000  0.43630700  1
  C  C1  1  0.25539500  0.02383000  0.06369300  1
  C  C2  1  0.24460500  0.02383000  0.56369300  1
  C  C3  1  0.74460500  0.97617000  0.93630700  1
  C  C4  1  0.01224100  0.34857200  0.82649200  1
  C  C5  1  0.51224100  0.65142800  0.67350800  1
  C  C6  1  0.98775900  0.65142800  0.17350800  1
  C  C7  1  0.48775900  0.34857200  0.32649200  1
  C  C8  1  0.03865000  0.72977700  0.82909000  1
  C  C9  1  0.53865000  0.27022300  0.67091000  1
  C  C10  1  0.96135000  0.27022300  0.17091000  1
  C  C11  1  0.46135000  0.72977700  0.32909000  1
  C  C12  1  0.00134300  0.66663400  0.63976900  1
  C  C13  1  0.50134300  0.33336600  0.86023100  1
  C  C14  1  0.99865700  0.33336600  0.36023100  1
  C  C15  1  0.49865700  0.66663400  0.13976900  1
  C  C16  1  0.74081100  0.97150200  0.68282900  1
  C  C17  1  0.24081100  0.02849800  0.81717100  1
  C  C18  1  0.25918900  0.02849800  0.31717100  1
  C  C19  1  0.75918900  0.97150200  0.18282900  1
  Ni  Ni20  1  0.88553500  0.62674500  0.73444900  1
  Ni  Ni21  1  0.38553500  0.37325500  0.76555100  1
  Ni  Ni22  1  0.11446500  0.37325500  0.26555100  1
  Ni  Ni23  1  0.61446500  0.62674500  0.23444900  1
  Ni  Ni24  1  0.13995800  0.75190100  0.67160800  1
  Ni  Ni25  1  0.63995800  0.24809900  0.82839200  1
  Ni  Ni26  1  0.86004200  0.24809900  0.32839200  1
  Ni  Ni27  1  0.36004200  0.75190100  0.17160800  1
  Ni  Ni28  1  0.90233300  0.74954300  0.55391300  1
  Ni  Ni29  1  0.40233300  0.25045700  0.94608700  1
  Ni  Ni30  1  0.09766700  0.25045700  0.44608700  1
  Ni  Ni31  1  0.59766700  0.74954300  0.05391300  1
  Ni  Ni32  1  0.08442900  0.55515700  0.62372000  1
  Ni  Ni33  1  0.58442900  0.44484300  0.87628000  1
  Ni  Ni34  1  0.91557100  0.44484300  0.37628000  1
  Ni  Ni35  1  0.41557100  0.55515700  0.12372000  1
  Ni  Ni36  1  0.81546300  0.86621000  0.77309200  1
  Ni  Ni37  1  0.31546300  0.13379000  0.72690800  1
  Ni  Ni38  1  0.18453700  0.13379000  0.22690800  1
  Ni  Ni39  1  0.68453700  0.86621000  0.27309200  1
  Ni  Ni40  1  0.67562500  0.07357400  0.72786100  1
  Ni  Ni41  1  0.17562500  0.92642600  0.77213900  1
  Ni  Ni42  1  0.32437500  0.92642600  0.27213900  1
  Ni  Ni43  1  0.82437500  0.07357400  0.22786100  1
  Ni  Ni44  1  0.59094900  0.92076800  0.64085100  1
  Ni  Ni45  1  0.09094900  0.07923200  0.85914900  1
  Ni  Ni46  1  0.40905100  0.07923200  0.35914900  1
  Ni  Ni47  1  0.90905100  0.92076800  0.14085100  1
  Ni  Ni48  1  0.87983700  0.02462400  0.60915700  1
  Ni  Ni49  1  0.37983700  0.97537600  0.89084300  1
  Ni  Ni50  1  0.12016300  0.97537600  0.39084300  1
  Ni  Ni51  1  0.62016300  0.02462400  0.10915700  1
  Ni  Ni52  1  0.79179400  0.64058600  0.91318300  1
  Ni  Ni53  1  0.29179400  0.35941400  0.58681700  1
  Ni  Ni54  1  0.20820600  0.35941400  0.08681700  1
  Ni  Ni55  1  0.70820600  0.64058600  0.41318300  1
  Ni  Ni56  1  0.82615600  0.26959600  0.65938900  1
  Ni  Ni57  1  0.32615600  0.73040400  0.84061100  1
  Ni  Ni58  1  0.17384400  0.73040400  0.34061100  1
  Ni  Ni59  1  0.67384400  0.26959600  0.15938900  1
  Cu  Cu60  1  0.01758800  0.77393000  0.95998400  1
  Cu  Cu61  1  0.51758800  0.22607000  0.54001600  1
  Cu  Cu62  1  0.98241200  0.22607000  0.04001600  1
  Cu  Cu63  1  0.48241200  0.77393000  0.45998400  1
  Cu  Cu64  1  0.12077100  0.54487400  0.88782600  1
  Cu  Cu65  1  0.62077100  0.45512600  0.61217400  1
  Cu  Cu66  1  0.87922900  0.45512600  0.11217400  1
  Cu  Cu67  1  0.37922900  0.54487400  0.38782600  1
