# generated using pymatgen
data_CuNiC3
_symmetry_space_group_name_H-M   'P 1'
_cell_length_a   5.59044700
_cell_length_b   5.65178600
_cell_length_c   10.01902410
_cell_angle_alpha   57.15133302
_cell_angle_beta   90.00000000
_cell_angle_gamma   90.00000000
_symmetry_Int_Tables_number   1
_chemical_formula_structural   CuNiC3
_chemical_formula_sum   'Cu4 Ni4 C12'
_cell_volume   265.94500714
_cell_formula_units_Z   4
loop_
 _symmetry_equiv_pos_site_id
 _symmetry_equiv_pos_as_xyz
  1  'x, y, z'
loop_
 _atom_site_type_symbol
 _atom_site_label
 _atom_site_symmetry_multiplicity
 _atom_site_fract_x
 _atom_site_fract_y
 _atom_site_fract_z
 _atom_site_occupancy
  Ni  Ni0  1  0.02037900  0.77355500  0.24801500  1
  Ni  Ni1  1  0.47962100  0.77355500  0.74801500  1
  Ni  Ni2  1  0.52037900  0.22644500  0.25198500  1
  Ni  Ni3  1  0.97962100  0.22644500  0.75198500  1
  Cu  Cu4  1  0.00000000  0.50000000  0.00000000  1
  Cu  Cu5  1  0.50000000  0.00000000  0.00000000  1
  Cu  Cu6  1  0.50000000  0.50000000  0.50000000  1
  Cu  Cu7  1  0.00000000  0.00000000  0.50000000  1
  C  C8  1  0.62752200  0.12871200  0.73395100  1
  C  C9  1  0.87247800  0.12871200  0.23395100  1
  C  C10  1  0.12752200  0.87128800  0.76604900  1
  C  C11  1  0.37247800  0.87128800  0.26604900  1
  C  C12  1  0.35458900  0.24329600  0.42505700  1
  C  C13  1  0.16877500  0.55357300  0.58510800  1
  C  C14  1  0.85458900  0.75670400  0.07494300  1
  C  C15  1  0.66877500  0.44642700  0.91489200  1
  C  C16  1  0.33122500  0.55357300  0.08510800  1
  C  C17  1  0.14541100  0.24329600  0.92505700  1
  C  C18  1  0.64541100  0.75670400  0.57494300  1
  C  C19  1  0.83122500  0.44642700  0.41489200  1
