# generated using pymatgen
data_Cu2NiC7
_symmetry_space_group_name_H-M   'P 1'
_cell_length_a   5.68288600
_cell_length_b   5.34956500
_cell_length_c   9.65673128
_cell_angle_alpha   57.94835887
_cell_angle_beta   90.00000000
_cell_angle_gamma   90.00000000
_symmetry_Int_Tables_number   1
_chemical_formula_structural   Cu2NiC7
_chemical_formula_sum   'Cu4 Ni2 C14'
_cell_volume   248.82453601
_cell_formula_units_Z   2
loop_
 _symmetry_equiv_pos_site_id
 _symmetry_equiv_pos_as_xyz
  1  'x, y, z'
loop_
 _atom_site_type_symbol
 _atom_site_label
 _atom_site_symmetry_multiplicity
 _atom_site_fract_x
 _atom_site_fract_y
 _atom_site_fract_z
 _atom_site_occupancy
  C  C0  1  0.50000000  0.50000000  0.00000000  1
  C  C1  1  0.00000000  0.50000000  0.50000000  1
  Ni  Ni2  1  0.50000000  0.00000000  0.50000000  1
  Ni  Ni3  1  0.00000000  0.00000000  0.00000000  1
  Cu  Cu4  1  0.03902500  0.69707100  0.79564600  1
  Cu  Cu5  1  0.96097500  0.30292900  0.20435400  1
  Cu  Cu6  1  0.53902500  0.30292900  0.70435400  1
  Cu  Cu7  1  0.46097500  0.69707100  0.29564600  1
  C  C8  1  0.35449100  0.94585900  0.70885800  1
  C  C9  1  0.64550900  0.05414100  0.29114200  1
  C  C10  1  0.85449100  0.05414100  0.79114200  1
  C  C11  1  0.14550900  0.94585900  0.20885800  1
  C  C12  1  0.77395500  0.68002800  0.64230800  1
  C  C13  1  0.22604500  0.31997200  0.35769200  1
  C  C14  1  0.27395500  0.31997200  0.85769200  1
  C  C15  1  0.72604500  0.68002800  0.14230800  1
  C  C16  1  0.34436200  0.65847300  0.51863500  1
  C  C17  1  0.65563800  0.34152700  0.48136500  1
  C  C18  1  0.84436200  0.34152700  0.98136500  1
  C  C19  1  0.15563800  0.65847300  0.01863500  1
