# generated using pymatgen
data_CuNiC18
_symmetry_space_group_name_H-M   'P 1'
_cell_length_a   8.74775100
_cell_length_b   8.69916700
_cell_length_c   12.29348149
_cell_angle_alpha   88.78028217
_cell_angle_beta   90.00000000
_cell_angle_gamma   90.00000000
_symmetry_Int_Tables_number   1
_chemical_formula_structural   CuNiC18
_chemical_formula_sum   'Cu4 Ni4 C72'
_cell_volume   935.29918877
_cell_formula_units_Z   4
loop_
 _symmetry_equiv_pos_site_id
 _symmetry_equiv_pos_as_xyz
  1  'x, y, z'
loop_
 _atom_site_type_symbol
 _atom_site_label
 _atom_site_symmetry_multiplicity
 _atom_site_fract_x
 _atom_site_fract_y
 _atom_site_fract_z
 _atom_site_occupancy
  C  C0  1  0.90453000  0.17349300  0.44723600  1
  C  C1  1  0.29667200  0.17260000  0.50704300  1
  C  C2  1  0.22684000  0.04133500  0.92768500  1
  C  C3  1  0.72684000  0.95866500  0.07231500  1
  C  C4  1  0.79667200  0.82740000  0.49295700  1
  C  C5  1  0.40453000  0.82650700  0.55276400  1
  C  C6  1  0.59585400  0.66733800  0.94769400  1
  C  C7  1  0.20305800  0.66310100  0.00989600  1
  C  C8  1  0.27485400  0.53911400  0.42586700  1
  C  C9  1  0.77485400  0.46088600  0.57413300  1
  C  C10  1  0.70305700  0.33689900  0.99010400  1
  C  C11  1  0.09585400  0.33266200  0.05230600  1
  Ni  Ni12  1  0.95709800  0.50313500  0.36052700  1
  Ni  Ni13  1  0.03525100  0.50381500  0.85337000  1
  Ni  Ni14  1  0.45709800  0.49686500  0.63947300  1
  Ni  Ni15  1  0.53525100  0.49618500  0.14663000  1
  Cu  Cu16  1  0.46809900  0.00311500  0.36020700  1
  Cu  Cu17  1  0.54300800  0.00273700  0.86132100  1
  Cu  Cu18  1  0.96809900  0.99688500  0.63979300  1
  Cu  Cu19  1  0.04300800  0.99726300  0.13867900  1
  C  C20  1  0.75266700  0.21069100  0.24266900  1
  C  C21  1  0.61136400  0.14551000  0.60262700  1
  C  C22  1  0.90205900  0.14670900  0.89814200  1
  C  C23  1  0.11136400  0.85449000  0.39737300  1
  C  C24  1  0.40205900  0.85329100  0.10185800  1
  C  C25  1  0.25266700  0.78930900  0.75733100  1
  C  C26  1  0.75197700  0.71009200  0.74583900  1
  C  C27  1  0.59656400  0.64535400  0.40596100  1
  C  C28  1  0.88810400  0.64354200  0.10964400  1
  C  C29  1  0.09656400  0.35464600  0.59403900  1
  C  C30  1  0.38810400  0.35645800  0.89035600  1
  C  C31  1  0.25197700  0.28990800  0.25416100  1
  C  C32  1  0.13675100  0.20075300  0.18283100  1
  C  C33  1  0.32782800  0.18403500  0.34179300  1
  C  C34  1  0.40636400  0.18120200  0.91310200  1
  C  C35  1  0.10113600  0.17534200  0.59279800  1
  C  C36  1  0.64144500  0.13405400  0.32362900  1
  C  C37  1  0.58562700  0.10103000  0.72189000  1
  C  C38  1  0.77764800  0.10151400  0.56831600  1
  C  C39  1  0.02429000  0.09989000  0.98662600  1
  C  C40  1  0.74044400  0.09310900  0.93618200  1
  C  C41  1  0.83431600  0.08352200  0.17901100  1
  C  C42  1  0.95003000  0.08197800  0.79026700  1
  C  C43  1  0.49104300  0.05888200  0.53228800  1
  C  C44  1  0.99104300  0.94111800  0.46771200  1
  C  C45  1  0.45003000  0.91802200  0.20973300  1
  C  C46  1  0.33431600  0.91647800  0.82098900  1
  C  C47  1  0.24044400  0.90689100  0.06381800  1
  C  C48  1  0.27764800  0.89848600  0.43168400  1
  C  C49  1  0.52429000  0.90011000  0.01337400  1
  C  C50  1  0.08562700  0.89897000  0.27811000  1
  C  C51  1  0.14144500  0.86594600  0.67637100  1
  C  C52  1  0.60113600  0.82465800  0.40720200  1
  C  C53  1  0.90636400  0.81879800  0.08689800  1
  C  C54  1  0.82782800  0.81596500  0.65820700  1
  C  C55  1  0.63675100  0.79924700  0.81716900  1
  C  C56  1  0.36612500  0.70029300  0.68558800  1
  C  C57  1  0.17476400  0.68523500  0.84580000  1
  C  C58  1  0.09483100  0.67884800  0.41761500  1
  C  C59  1  0.39472500  0.67350700  0.09910900  1
  C  C60  1  0.86459300  0.64192700  0.83158000  1
  C  C61  1  0.90170500  0.61285300  0.23308500  1
  C  C62  1  0.47170600  0.60199100  0.49500800  1
  C  C63  1  0.72108700  0.60016300  0.07280200  1
  C  C64  1  0.75708200  0.59665100  0.44494200  1
  C  C65  1  0.67346600  0.58088800  0.68426800  1
  C  C66  1  0.54516000  0.57824500  0.30026100  1
  C  C67  1  0.00983300  0.55367300  0.04596000  1
  C  C68  1  0.50983300  0.44632700  0.95404000  1
  C  C69  1  0.04516000  0.42175500  0.69973900  1
  C  C70  1  0.17346600  0.41911200  0.31573200  1
  C  C71  1  0.25708200  0.40334900  0.55505800  1
  C  C72  1  0.97170600  0.39800900  0.50499200  1
  C  C73  1  0.22108700  0.39983700  0.92719800  1
  C  C74  1  0.40170500  0.38714700  0.76691500  1
  C  C75  1  0.36459300  0.35807300  0.16842000  1
  C  C76  1  0.89472500  0.32649300  0.90089100  1
  C  C77  1  0.59483100  0.32115200  0.58238500  1
  C  C78  1  0.67476400  0.31476500  0.15420000  1
  C  C79  1  0.86612500  0.29970700  0.31441200  1
