# generated using pymatgen
data_CuNi14C17
_symmetry_space_group_name_H-M   'P 1'
_cell_length_a   8.61365695
_cell_length_b   8.66645866
_cell_length_c   4.32124931
_cell_angle_alpha   90.00000000
_cell_angle_beta   90.00000000
_cell_angle_gamma   90.00000000
_symmetry_Int_Tables_number   1
_chemical_formula_structural   CuNi14C17
_chemical_formula_sum   'Cu1 Ni14 C17'
_cell_volume   322.58083694
_cell_formula_units_Z   1
loop_
 _symmetry_equiv_pos_site_id
 _symmetry_equiv_pos_as_xyz
  1  'x, y, z'
loop_
 _atom_site_type_symbol
 _atom_site_label
 _atom_site_symmetry_multiplicity
 _atom_site_fract_x
 _atom_site_fract_y
 _atom_site_fract_z
 _atom_site_occupancy
  Ni  Ni0  1  0.50000000  -0.00000000  0.00000000  1
  Ni  Ni1  1  0.50000000  0.50000000  0.00000000  1
  Ni  Ni2  1  0.00000000  0.24594736  0.50000000  1
  Ni  Ni3  1  0.00000000  0.75405264  0.50000000  1
  Ni  Ni4  1  0.50000000  0.24936264  0.50000000  1
  Ni  Ni5  1  0.50000000  0.75063736  0.50000000  1
  Ni  Ni6  1  0.25109468  -0.00000000  0.50000000  1
  Ni  Ni7  1  0.25518419  0.50000000  0.50000000  1
  Ni  Ni8  1  0.74890532  -0.00000000  0.50000000  1
  Ni  Ni9  1  0.74481581  0.50000000  0.50000000  1
  Ni  Ni10  1  0.25272895  0.24811106  -0.00000000  1
  Ni  Ni11  1  0.25272895  0.75188894  -0.00000000  1
  Ni  Ni12  1  0.74727105  0.24811106  0.00000000  1
  Ni  Ni13  1  0.74727105  0.75188894  0.00000000  1
  C  C14  1  0.00000000  -0.00000000  0.00000000  1
  Cu  Cu15  1  0.00000000  0.50000000  0.00000000  1
  C  C16  1  0.25598706  -0.00000000  0.00000000  1
  C  C17  1  0.26616513  0.50000000  0.00000000  1
  C  C18  1  0.74401294  -0.00000000  -0.00000000  1
  C  C19  1  0.73383487  0.50000000  -0.00000000  1
  C  C20  1  0.24914171  0.25012643  0.50000000  1
  C  C21  1  0.24914171  0.74987357  0.50000000  1
  C  C22  1  0.75085829  0.25012643  0.50000000  1
  C  C23  1  0.75085829  0.74987357  0.50000000  1
  C  C24  1  0.00000000  -0.00000000  0.50000000  1
  C  C25  1  0.00000000  0.50000000  0.50000000  1
  C  C26  1  0.50000000  -0.00000000  0.50000000  1
  C  C27  1  0.50000000  0.50000000  0.50000000  1
  C  C28  1  0.00000000  0.24131136  0.00000000  1
  C  C29  1  0.00000000  0.75868864  0.00000000  1
  C  C30  1  0.50000000  0.24735431  0.00000000  1
  C  C31  1  0.50000000  0.75264569  0.00000000  1
