# generated using pymatgen
data_Cu(NiC)4
_symmetry_space_group_name_H-M   'P 1'
_cell_length_a   5.29693200
_cell_length_b   11.79895100
_cell_length_c   13.93876000
_cell_angle_alpha   90.00000000
_cell_angle_beta   90.00000000
_cell_angle_gamma   90.00000000
_symmetry_Int_Tables_number   1
_chemical_formula_structural   Cu(NiC)4
_chemical_formula_sum   'Cu8 Ni32 C32'
_cell_volume   871.14798337
_cell_formula_units_Z   8
loop_
 _symmetry_equiv_pos_site_id
 _symmetry_equiv_pos_as_xyz
  1  'x, y, z'
loop_
 _atom_site_type_symbol
 _atom_site_label
 _atom_site_symmetry_multiplicity
 _atom_site_fract_x
 _atom_site_fract_y
 _atom_site_fract_z
 _atom_site_occupancy
  C  C0  1  0.73646800  0.82870500  0.74572400  1
  C  C1  1  0.23646800  0.17129500  0.75427600  1
  C  C2  1  0.76353200  0.32870500  0.75427600  1
  C  C3  1  0.26353200  0.67129500  0.74572400  1
  C  C4  1  0.26353200  0.17129500  0.25427600  1
  C  C5  1  0.76353200  0.82870500  0.24572400  1
  C  C6  1  0.23646800  0.67129500  0.24572400  1
  C  C7  1  0.73646800  0.32870500  0.25427600  1
  C  C8  1  0.75745600  0.08352800  0.37600300  1
  C  C9  1  0.25745600  0.91647200  0.12399700  1
  C  C10  1  0.74254400  0.58352800  0.12399700  1
  C  C11  1  0.24254400  0.41647200  0.37600300  1
  C  C12  1  0.24254400  0.91647200  0.62399700  1
  C  C13  1  0.74254400  0.08352800  0.87600300  1
  C  C14  1  0.25745600  0.41647200  0.87600300  1
  C  C15  1  0.75745600  0.58352800  0.62399700  1
  C  C16  1  0.78004300  0.82657900  0.51119300  1
  C  C17  1  0.28004300  0.17342100  0.98880700  1
  C  C18  1  0.71995700  0.32657900  0.98880700  1
  C  C19  1  0.21995700  0.67342100  0.51119300  1
  C  C20  1  0.21995700  0.17342100  0.48880700  1
  C  C21  1  0.71995700  0.82657900  0.01119300  1
  C  C22  1  0.28004300  0.67342100  0.01119300  1
  C  C23  1  0.78004300  0.32657900  0.48880700  1
  C  C24  1  0.29335900  0.91194700  0.38229700  1
  C  C25  1  0.79335900  0.08805300  0.11770300  1
  C  C26  1  0.20664100  0.41194700  0.11770300  1
  C  C27  1  0.70664100  0.58805300  0.38229700  1
  C  C28  1  0.70664100  0.08805300  0.61770300  1
  C  C29  1  0.20664100  0.91194700  0.88229700  1
  C  C30  1  0.79335900  0.58805300  0.88229700  1
  C  C31  1  0.29335900  0.41194700  0.61770300  1
  Ni  Ni32  1  0.76948000  0.95940900  0.60968000  1
  Ni  Ni33  1  0.26948000  0.04059100  0.89032000  1
  Ni  Ni34  1  0.73052000  0.45940900  0.89032000  1
  Ni  Ni35  1  0.23052000  0.54059100  0.60968000  1
  Ni  Ni36  1  0.23052000  0.04059100  0.39032000  1
  Ni  Ni37  1  0.73052000  0.95940900  0.10968000  1
  Ni  Ni38  1  0.26948000  0.54059100  0.10968000  1
  Ni  Ni39  1  0.76948000  0.45940900  0.39032000  1
  Ni  Ni40  1  0.58563200  0.89438800  0.39611200  1
  Ni  Ni41  1  0.08563200  0.10561200  0.10388800  1
  Ni  Ni42  1  0.91436800  0.39438800  0.10388800  1
  Ni  Ni43  1  0.41436800  0.60561200  0.39611200  1
  Ni  Ni44  1  0.41436800  0.10561200  0.60388800  1
  Ni  Ni45  1  0.91436800  0.89438800  0.89611200  1
  Ni  Ni46  1  0.08563200  0.60561200  0.89611200  1
  Ni  Ni47  1  0.58563200  0.39438800  0.60388800  1
  Ni  Ni48  1  0.20923500  0.86766900  0.28376900  1
  Ni  Ni49  1  0.70923500  0.13233100  0.21623100  1
  Ni  Ni50  1  0.29076500  0.36766900  0.21623100  1
  Ni  Ni51  1  0.79076500  0.63233100  0.28376900  1
  Ni  Ni52  1  0.79076500  0.13233100  0.71623100  1
  Ni  Ni53  1  0.29076500  0.86766900  0.78376900  1
  Ni  Ni54  1  0.70923500  0.63233100  0.78376900  1
  Ni  Ni55  1  0.20923500  0.36766900  0.71623100  1
  Ni  Ni56  1  0.15474600  0.84646500  0.46487800  1
  Ni  Ni57  1  0.65474600  0.15353500  0.03512200  1
  Ni  Ni58  1  0.34525400  0.34646500  0.03512200  1
  Ni  Ni59  1  0.84525400  0.65353500  0.46487800  1
  Ni  Ni60  1  0.84525400  0.15353500  0.53512200  1
  Ni  Ni61  1  0.34525400  0.84646500  0.96487800  1
  Ni  Ni62  1  0.65474600  0.65353500  0.96487800  1
  Ni  Ni63  1  0.15474600  0.34646500  0.53512200  1
  Cu  Cu64  1  0.50000000  0.25000000  0.87331400  1
  Cu  Cu65  1  0.00000000  0.75000000  0.62668600  1
  Cu  Cu66  1  0.50000000  0.75000000  0.12668600  1
  Cu  Cu67  1  0.00000000  0.25000000  0.37331400  1
  Cu  Cu68  1  0.00000000  0.25000000  0.90527600  1
  Cu  Cu69  1  0.50000000  0.75000000  0.59472400  1
  Cu  Cu70  1  0.00000000  0.75000000  0.09472400  1
  Cu  Cu71  1  0.50000000  0.25000000  0.40527600  1
