# generated using pymatgen
data_Cu(NiC2)4
_symmetry_space_group_name_H-M   'P 1'
_cell_length_a   7.38224045
_cell_length_b   7.38224045
_cell_length_c   7.38224143
_cell_angle_alpha   55.03573615
_cell_angle_beta   55.03573615
_cell_angle_gamma   55.03573262
_symmetry_Int_Tables_number   1
_chemical_formula_structural   Cu(NiC2)4
_chemical_formula_sum   'Cu1 Ni4 C8'
_cell_volume   251.62514785
_cell_formula_units_Z   1
loop_
 _symmetry_equiv_pos_site_id
 _symmetry_equiv_pos_as_xyz
  1  'x, y, z'
loop_
 _atom_site_type_symbol
 _atom_site_label
 _atom_site_symmetry_multiplicity
 _atom_site_fract_x
 _atom_site_fract_y
 _atom_site_fract_z
 _atom_site_occupancy
  Ni  Ni0  1  0.00000000  0.50000000  0.50000000  1
  Ni  Ni1  1  0.50000000  0.00000000  0.50000000  1
  Ni  Ni2  1  0.50000000  0.50000000  0.00000000  1
  Ni  Ni3  1  0.00000000  0.00000000  0.00000000  1
  Cu  Cu4  1  0.50000000  0.50000000  0.50000000  1
  C  C5  1  0.25873100  0.75349800  0.75349800  1
  C  C6  1  0.24650200  0.24650200  0.74126900  1
  C  C7  1  0.74126900  0.24650200  0.24650200  1
  C  C8  1  0.24650200  0.74126900  0.24650200  1
  C  C9  1  0.25831000  0.25831000  0.25831000  1
  C  C10  1  0.74169000  0.74169000  0.74169000  1
  C  C11  1  0.75349800  0.25873100  0.75349800  1
  C  C12  1  0.75349800  0.75349800  0.25873100  1
