# generated using pymatgen
data_Cu3Ni2
_symmetry_space_group_name_H-M   'P 1'
_cell_length_a   6.44470100
_cell_length_b   6.44470100
_cell_length_c   10.63373425
_cell_angle_alpha   107.63973694
_cell_angle_beta   107.63973694
_cell_angle_gamma   90.00000000
_symmetry_Int_Tables_number   1
_chemical_formula_structural   Cu3Ni2
_chemical_formula_sum   'Cu12 Ni8'
_cell_volume   399.05072038
_cell_formula_units_Z   4
loop_
 _symmetry_equiv_pos_site_id
 _symmetry_equiv_pos_as_xyz
  1  'x, y, z'
loop_
 _atom_site_type_symbol
 _atom_site_label
 _atom_site_symmetry_multiplicity
 _atom_site_fract_x
 _atom_site_fract_y
 _atom_site_fract_z
 _atom_site_occupancy
  Ni  Ni0  1  0.29337200  0.51734500  0.58674400  1
  Ni  Ni1  1  0.29337200  0.06939900  0.58674400  1
  Ni  Ni2  1  0.31939900  0.04337200  0.08674400  1
  Ni  Ni3  1  0.95662800  0.68060100  0.91325600  1
  Ni  Ni4  1  0.95662800  0.23265500  0.91325600  1
  Ni  Ni5  1  0.76734500  0.04337200  0.08674400  1
  Ni  Ni6  1  0.93060100  0.70662800  0.41325600  1
  Ni  Ni7  1  0.48265500  0.70662800  0.41325600  1
  Cu  Cu8  1  0.80318700  0.09071200  0.60637400  1
  Cu  Cu9  1  0.80318700  0.51566300  0.60637400  1
  Cu  Cu10  1  0.76566300  0.55318700  0.10637400  1
  Cu  Cu11  1  0.44681300  0.23433700  0.89362600  1
  Cu  Cu12  1  0.44681300  0.65928800  0.89362600  1
  Cu  Cu13  1  0.34071200  0.55318700  0.10637400  1
  Cu  Cu14  1  0.48433700  0.19681300  0.39362600  1
  Cu  Cu15  1  0.90928800  0.19681300  0.39362600  1
  Cu  Cu16  1  0.12500000  0.37500000  0.25000000  1
  Cu  Cu17  1  0.12500000  0.87500000  0.25000000  1
  Cu  Cu18  1  0.12500000  0.87500000  0.75000000  1
  Cu  Cu19  1  0.62500000  0.87500000  0.75000000  1
