# generated using pymatgen
data_Cu2NiC2
_symmetry_space_group_name_H-M   'P 1'
_cell_length_a   6.11252600
_cell_length_b   6.71879200
_cell_length_c   19.39220700
_cell_angle_alpha   90.00000000
_cell_angle_beta   90.00000000
_cell_angle_gamma   90.00000000
_symmetry_Int_Tables_number   1
_chemical_formula_structural   Cu2NiC2
_chemical_formula_sum   'Cu24 Ni12 C24'
_cell_volume   796.41449221
_cell_formula_units_Z   12
loop_
 _symmetry_equiv_pos_site_id
 _symmetry_equiv_pos_as_xyz
  1  'x, y, z'
loop_
 _atom_site_type_symbol
 _atom_site_label
 _atom_site_symmetry_multiplicity
 _atom_site_fract_x
 _atom_site_fract_y
 _atom_site_fract_z
 _atom_site_occupancy
  C  C0  1  0.76305200  0.53960700  0.40119700  1
  C  C1  1  0.73694800  0.46039300  0.90119700  1
  C  C2  1  0.26305200  0.96039300  0.59880300  1
  C  C3  1  0.23694800  0.03960700  0.09880300  1
  C  C4  1  0.11501900  0.65090400  0.45629600  1
  C  C5  1  0.38498100  0.34909600  0.95629600  1
  C  C6  1  0.61501900  0.84909600  0.54370400  1
  C  C7  1  0.88498100  0.15090400  0.04370400  1
  C  C8  1  0.44877400  0.55983800  0.41479500  1
  C  C9  1  0.05122600  0.44016200  0.91479500  1
  C  C10  1  0.94877400  0.94016200  0.58520500  1
  C  C11  1  0.55122600  0.05983800  0.08520500  1
  C  C12  1  0.23132000  0.47666600  0.38464900  1
  C  C13  1  0.26868000  0.52333400  0.88464900  1
  C  C14  1  0.73132000  0.02333400  0.61535100  1
  C  C15  1  0.76868000  0.97666600  0.11535100  1
  C  C16  1  0.21404300  0.52869600  0.30641100  1
  C  C17  1  0.28595700  0.47130400  0.80641100  1
  C  C18  1  0.71404300  0.97130400  0.69358900  1
  C  C19  1  0.78595700  0.02869600  0.19358900  1
  C  C20  1  0.21613300  0.24792000  0.39908700  1
  C  C21  1  0.28386700  0.75208000  0.89908700  1
  C  C22  1  0.71613300  0.25208000  0.60091300  1
  C  C23  1  0.78386700  0.74792000  0.10091300  1
  Ni  Ni24  1  0.62130000  0.49088800  0.38198100  1
  Ni  Ni25  1  0.87870000  0.50911200  0.88198100  1
  Ni  Ni26  1  0.12130000  0.00911200  0.61801900  1
  Ni  Ni27  1  0.37870000  0.99088800  0.11801900  1
  Ni  Ni28  1  0.44236900  0.67514100  0.46347400  1
  Ni  Ni29  1  0.05763100  0.32485900  0.96347400  1
  Ni  Ni30  1  0.94236900  0.82485900  0.53652600  1
  Ni  Ni31  1  0.55763100  0.17514100  0.03652600  1
  Ni  Ni32  1  0.05514800  0.56944900  0.41832100  1
  Ni  Ni33  1  0.44485200  0.43055100  0.91832100  1
  Ni  Ni34  1  0.55514800  0.93055100  0.58167900  1
  Ni  Ni35  1  0.94485200  0.06944900  0.08167900  1
  Cu  Cu36  1  0.27038200  0.72243100  0.29734200  1
  Cu  Cu37  1  0.22961800  0.27756900  0.79734200  1
  Cu  Cu38  1  0.77038200  0.77756900  0.70265800  1
  Cu  Cu39  1  0.72961800  0.22243100  0.20265800  1
  Cu  Cu40  1  0.34540200  0.41529400  0.26631300  1
  Cu  Cu41  1  0.15459800  0.58470600  0.76631300  1
  Cu  Cu42  1  0.84540200  0.08470600  0.73368700  1
  Cu  Cu43  1  0.65459800  0.91529400  0.23368700  1
  Cu  Cu44  1  0.00578600  0.50550400  0.28394500  1
  Cu  Cu45  1  0.49421400  0.49449600  0.78394500  1
  Cu  Cu46  1  0.50578600  0.99449600  0.71605500  1
  Cu  Cu47  1  0.99421400  0.00550400  0.21605500  1
  Cu  Cu48  1  0.23870700  0.21778400  0.46816800  1
  Cu  Cu49  1  0.26129300  0.78221600  0.96816800  1
  Cu  Cu50  1  0.73870700  0.28221600  0.53183200  1
  Cu  Cu51  1  0.76129300  0.71778400  0.03183200  1
  Cu  Cu52  1  0.37170300  0.14001000  0.36668000  1
  Cu  Cu53  1  0.12829700  0.85999000  0.86668000  1
  Cu  Cu54  1  0.87170300  0.35999000  0.63332000  1
  Cu  Cu55  1  0.62829700  0.64001000  0.13332000  1
  Cu  Cu56  1  0.01807400  0.17626200  0.38000100  1
  Cu  Cu57  1  0.48192600  0.82373800  0.88000100  1
  Cu  Cu58  1  0.51807400  0.32373800  0.61999900  1
  Cu  Cu59  1  0.98192600  0.67626200  0.11999900  1
