# generated using pymatgen
data_Cu10(Ni4C11)3
_symmetry_space_group_name_H-M   'P 1'
_cell_length_a   5.63317786
_cell_length_b   18.90455974
_cell_length_c   13.51170666
_cell_angle_alpha   33.92184036
_cell_angle_beta   103.40332977
_cell_angle_gamma   92.27279032
_symmetry_Int_Tables_number   1
_chemical_formula_structural   Cu10(Ni4C11)3
_chemical_formula_sum   'Cu10 Ni12 C33'
_cell_volume   749.58594593
_cell_formula_units_Z   1
loop_
 _symmetry_equiv_pos_site_id
 _symmetry_equiv_pos_as_xyz
  1  'x, y, z'
loop_
 _atom_site_type_symbol
 _atom_site_label
 _atom_site_symmetry_multiplicity
 _atom_site_fract_x
 _atom_site_fract_y
 _atom_site_fract_z
 _atom_site_occupancy
  Ni  Ni0  1  0.03517300  0.24092200  0.23113800  1
  Ni  Ni1  1  0.16950500  0.57246600  0.22904200  1
  Ni  Ni2  1  0.16968800  0.89507600  0.23795700  1
  Ni  Ni3  1  0.23024100  0.27464200  0.66141200  1
  Ni  Ni4  1  0.24186100  0.59275400  0.68291300  1
  Ni  Ni5  1  0.25406000  0.93938700  0.64812900  1
  Ni  Ni6  1  0.76062100  0.05888900  0.34946000  1
  Ni  Ni7  1  0.72787000  0.40244000  0.34439200  1
  Ni  Ni8  1  0.69657000  0.75237900  0.31246400  1
  Ni  Ni9  1  0.99234300  0.09797400  0.76317000  1
  Ni  Ni10  1  0.95211000  0.43272200  0.77108900  1
  Ni  Ni11  1  0.99746900  0.75921700  0.77320800  1
  Cu  Cu12  1  0.20180400  0.56846100  0.46487500  1
  Cu  Cu13  1  0.25194600  0.15095500  0.03010800  1
  Cu  Cu14  1  0.27270900  0.46145100  0.05668500  1
  Cu  Cu15  1  0.24852000  0.81160100  0.01353300  1
  Cu  Cu16  1  0.61615900  0.17548400  0.43874200  1
  Cu  Cu17  1  0.64492200  0.52306000  0.42496100  1
  Cu  Cu18  1  0.62701100  0.80882200  0.49379300  1
  Cu  Cu19  1  0.74006800  0.17394900  0.98122900  1
  Cu  Cu20  1  0.72912400  0.53300400  0.96834600  1
  Cu  Cu21  1  0.73312700  0.87410200  0.94943600  1
  C  C22  1  0.05565100  0.01964000  0.16738500  1
  C  C23  1  0.03819100  0.35946100  0.18061500  1
  C  C24  1  0.09046800  0.68327000  0.20083800  1
  C  C25  1  0.06630600  0.05186400  0.35741300  1
  C  C26  1  0.04114500  0.42133900  0.34782600  1
  C  C27  1  0.01145600  0.76378500  0.32720900  1
  C  C28  1  0.32613900  0.10706900  0.45592100  1
  C  C29  1  0.26797700  0.43269400  0.51448900  1
  C  C30  1  0.31650700  0.74653900  0.52143900  1
  C  C31  1  0.27387200  0.14557000  0.71152800  1
  C  C32  1  0.25818900  0.48729800  0.69482900  1
  C  C33  1  0.31069400  0.79589200  0.74169300  1
  C  C34  1  0.41522400  0.18110300  0.87934000  1
  C  C35  1  0.43158000  0.50013100  0.89850700  1
  C  C36  1  0.41423400  0.87774500  0.84286700  1
  C  C37  1  0.57263800  0.14189700  0.14006400  1
  C  C38  1  0.57646500  0.48082400  0.13467400  1
  C  C39  1  0.55859800  0.83087000  0.10368900  1
  C  C40  1  0.73919100  0.19845200  0.28247700  1
  C  C41  1  0.53448600  0.50117900  0.31007500  1
  C  C42  1  0.53066500  0.84344000  0.29391000  1
  C  C43  1  0.72113300  0.23343000  0.50765100  1
  C  C44  1  0.69943400  0.57883900  0.49427800  1
  C  C45  1  0.72844200  0.88959800  0.52354500  1
  C  C46  1  0.91249200  0.26912800  0.64947700  1
  C  C47  1  0.92256700  0.59388900  0.67055000  1
  C  C48  1  0.93515800  0.94487100  0.63306500  1
  C  C49  1  0.93254400  0.30585300  0.83623000  1
  C  C50  1  0.96287000  0.63056100  0.84137300  1
  C  C51  1  0.95226000  0.98039300  0.81019600  1
  C  C52  1  0.03803500  0.00259500  0.98472800  1
  C  C53  1  0.03430000  0.32122400  0.02483500  1
  C  C54  1  0.01559100  0.67523500  0.99400300  1
