# generated using pymatgen
data_CuNi2C13
_symmetry_space_group_name_H-M   'P 1'
_cell_length_a   7.88211627
_cell_length_b   7.88211627
_cell_length_c   15.15862700
_cell_angle_alpha   90.00000000
_cell_angle_beta   90.00000000
_cell_angle_gamma   120.00000224
_symmetry_Int_Tables_number   1
_chemical_formula_structural   CuNi2C13
_chemical_formula_sum   'Cu3 Ni6 C39'
_cell_volume   815.59801856
_cell_formula_units_Z   3
loop_
 _symmetry_equiv_pos_site_id
 _symmetry_equiv_pos_as_xyz
  1  'x, y, z'
loop_
 _atom_site_type_symbol
 _atom_site_label
 _atom_site_symmetry_multiplicity
 _atom_site_fract_x
 _atom_site_fract_y
 _atom_site_fract_z
 _atom_site_occupancy
  Ni  Ni0  1  0.87403500  0.91921500  0.67562600  1
  Ni  Ni1  1  0.49541200  0.19446400  0.80220200  1
  Ni  Ni2  1  0.04518000  0.12596500  0.00895900  1
  Ni  Ni3  1  0.80553600  0.30094700  0.46886800  1
  Ni  Ni4  1  0.69905300  0.50458800  0.13553500  1
  Ni  Ni5  1  0.08078500  0.95482000  0.34229200  1
  Cu  Cu6  1  0.53787100  0.70110900  0.88592700  1
  Cu  Cu7  1  0.16323800  0.46212900  0.21926100  1
  Cu  Cu8  1  0.29889100  0.83676200  0.55259400  1
  C  C9  1  0.00835400  0.63488100  0.89786000  1
  C  C10  1  0.10321700  0.49275200  0.73392500  1
  C  C11  1  0.50724800  0.61046400  0.40059200  1
  C  C12  1  0.62652700  0.99164600  0.23119300  1
  C  C13  1  0.38953600  0.89678300  0.06725800  1
  C  C14  1  0.36511900  0.37347300  0.56452700  1
  C  C15  1  0.08848700  0.82272500  0.07094300  1
  C  C16  1  0.79367600  0.35805700  0.92620100  1
  C  C17  1  0.73423700  0.91151300  0.40427700  1
  C  C18  1  0.41333500  0.07637400  0.45388000  1
  C  C19  1  0.82903100  0.90583700  0.19151000  1
  C  C20  1  0.22474100  0.24537500  0.16536300  1
  C  C21  1  0.92362600  0.33696100  0.12054700  1
  C  C22  1  0.75462500  0.97936500  0.83202900  1
  C  C23  1  0.07680600  0.17096900  0.52484300  1
  C  C24  1  0.64828400  0.92326900  0.00766800  1
  C  C25  1  0.66303900  0.58666500  0.78721400  1
  C  C26  1  0.17727500  0.26576300  0.73761000  1
  C  C27  1  0.75182100  0.66774300  0.97026400  1
  C  C28  1  0.44156600  0.17850300  0.03518500  1
  C  C29  1  0.91592200  0.24817900  0.30359800  1
  C  C30  1  0.64194300  0.43561900  0.59286800  1
  C  C31  1  0.32811100  0.82230800  0.91608200  1
  C  C32  1  0.27498600  0.35171600  0.34100100  1
  C  C33  1  0.27580300  0.67911000  0.41620300  1
  C  C34  1  0.33225700  0.08407800  0.63693100  1
  C  C35  1  0.40330800  0.72419700  0.74953600  1
  C  C36  1  0.82149700  0.26306400  0.70185200  1
  C  C37  1  0.73693600  0.55843400  0.36851900  1
  C  C38  1  0.49419700  0.67188900  0.24941500  1
  C  C39  1  0.07673100  0.72501400  0.67433500  1
  C  C40  1  0.09416300  0.92319400  0.85817600  1
  C  C41  1  0.56438100  0.20632400  0.25953400  1
  C  C42  1  0.34426200  0.38666300  0.90913100  1
  C  C43  1  0.04240100  0.65573800  0.24246400  1
  C  C44  1  0.32089000  0.59669200  0.08286900  1
  C  C45  1  0.02063500  0.77525900  0.49869600  1
  C  C46  1  0.17769200  0.50580300  0.58274900  1
  C  C47  1  0.61333700  0.95759900  0.57579800  1
