# generated using pymatgen
data_Cu3NiC16
_symmetry_space_group_name_H-M   'P 1'
_cell_length_a   6.31695800
_cell_length_b   7.51654300
_cell_length_c   10.16285366
_cell_angle_alpha   79.53458982
_cell_angle_beta   90.00000000
_cell_angle_gamma   90.00000000
_symmetry_Int_Tables_number   1
_chemical_formula_structural   Cu3NiC16
_chemical_formula_sum   'Cu6 Ni2 C32'
_cell_volume   474.52209805
_cell_formula_units_Z   2
loop_
 _symmetry_equiv_pos_site_id
 _symmetry_equiv_pos_as_xyz
  1  'x, y, z'
loop_
 _atom_site_type_symbol
 _atom_site_label
 _atom_site_symmetry_multiplicity
 _atom_site_fract_x
 _atom_site_fract_y
 _atom_site_fract_z
 _atom_site_occupancy
  Ni  Ni0  1  0.75000000  0.37108700  0.17965600  1
  Ni  Ni1  1  0.25000000  0.62891300  0.82034400  1
  C  C2  1  0.25000000  0.64053100  0.20125800  1
  C  C3  1  0.75000000  0.35946900  0.79874200  1
  C  C4  1  0.25000000  0.22690000  0.43650600  1
  C  C5  1  0.50000000  0.00000000  0.00000000  1
  C  C6  1  0.75000000  0.77310000  0.56349400  1
  C  C7  1  0.00000000  0.00000000  0.00000000  1
  Cu  Cu8  1  0.25000000  0.78792800  0.49116800  1
  Cu  Cu9  1  0.75000000  0.21207200  0.50883200  1
  Cu  Cu10  1  0.25000000  0.26652600  0.76382500  1
  Cu  Cu11  1  0.75000000  0.73347400  0.23617500  1
  Cu  Cu12  1  0.75000000  0.68313400  0.88920900  1
  Cu  Cu13  1  0.25000000  0.31686600  0.11079100  1
  C  C14  1  0.75000000  0.63636100  0.74647800  1
  C  C15  1  0.56021600  0.25125900  0.41009800  1
  C  C16  1  0.25000000  0.20787400  0.62980600  1
  C  C17  1  0.54161400  0.78658700  0.90353500  1
  C  C18  1  0.75000000  0.34416600  0.60808500  1
  C  C19  1  0.75000000  0.11997300  0.90126800  1
  C  C20  1  0.25000000  0.65583400  0.39191500  1
  C  C21  1  0.04161400  0.21341300  0.09646500  1
  C  C22  1  0.25000000  0.98170200  0.40866600  1
  C  C23  1  0.75000000  0.01829800  0.59133400  1
  C  C24  1  0.06321400  0.38953800  0.78947000  1
  C  C25  1  0.25000000  0.88002700  0.09873200  1
  C  C26  1  0.56321400  0.61046200  0.21053000  1
  C  C27  1  0.75000000  0.48738900  0.97318200  1
  C  C28  1  0.75000000  0.79212600  0.37019400  1
  C  C29  1  0.45838600  0.21341300  0.09646500  1
  C  C30  1  0.93978400  0.25125900  0.41009800  1
  C  C31  1  0.43978400  0.74874100  0.58990200  1
  C  C32  1  0.43678600  0.38953800  0.78947000  1
  C  C33  1  0.25000000  0.36363900  0.25352200  1
  C  C34  1  0.75000000  0.90908300  0.12492200  1
  C  C35  1  0.25000000  0.09091700  0.87507800  1
  C  C36  1  0.93678600  0.61046200  0.21053000  1
  C  C37  1  0.95838600  0.78658700  0.90353500  1
  C  C38  1  0.06021600  0.74874100  0.58990200  1
  C  C39  1  0.25000000  0.51261100  0.02681800  1
