# generated using pymatgen
data_Cu6NiC45
_symmetry_space_group_name_H-M   'P 1'
_cell_length_a   9.15440300
_cell_length_b   12.66724507
_cell_length_c   16.74592800
_cell_angle_alpha   90.00000000
_cell_angle_beta   90.00000000
_cell_angle_gamma   111.18260823
_symmetry_Int_Tables_number   1
_chemical_formula_structural   Cu6NiC45
_chemical_formula_sum   'Cu12 Ni2 C90'
_cell_volume   1810.66997708
_cell_formula_units_Z   2
loop_
 _symmetry_equiv_pos_site_id
 _symmetry_equiv_pos_as_xyz
  1  'x, y, z'
loop_
 _atom_site_type_symbol
 _atom_site_label
 _atom_site_symmetry_multiplicity
 _atom_site_fract_x
 _atom_site_fract_y
 _atom_site_fract_z
 _atom_site_occupancy
  C  C0  1  0.12021500  0.24042900  0.25000000  1
  C  C1  1  0.87978500  0.75957100  0.75000000  1
  C  C2  1  0.11695900  0.23391800  0.96191100  1
  C  C3  1  0.88304100  0.76608200  0.03808900  1
  C  C4  1  0.11695900  0.23391800  0.53808900  1
  C  C5  1  0.88304100  0.76608200  0.46191100  1
  C  C6  1  0.36096200  0.72192300  0.02726100  1
  C  C7  1  0.63903800  0.27807700  0.97273900  1
  C  C8  1  0.36096200  0.72192300  0.47273900  1
  C  C9  1  0.63903800  0.27807700  0.52726100  1
  C  C10  1  0.91480100  0.47561400  0.14871400  1
  C  C11  1  0.43918600  0.52438600  0.85128600  1
  C  C12  1  0.91480100  0.47561400  0.35128600  1
  C  C13  1  0.43918600  0.52438600  0.64871400  1
  C  C14  1  0.08519900  0.52438600  0.85128600  1
  C  C15  1  0.56081400  0.47561400  0.14871400  1
  C  C16  1  0.08519900  0.52438600  0.64871400  1
  C  C17  1  0.56081400  0.47561400  0.35128600  1
  C  C18  1  0.70295500  0.03492800  0.15321200  1
  C  C19  1  0.66802700  0.96507200  0.84678800  1
  C  C20  1  0.70295500  0.03492800  0.34678800  1
  C  C21  1  0.66802700  0.96507200  0.65321200  1
  C  C22  1  0.29704500  0.96507200  0.84678800  1
  C  C23  1  0.33197300  0.03492800  0.15321200  1
  C  C24  1  0.29704500  0.96507200  0.65321200  1
  C  C25  1  0.33197300  0.03492800  0.34678800  1
  Ni  Ni26  1  0.62760500  0.25521000  0.25000000  1
  Ni  Ni27  1  0.37239500  0.74479000  0.75000000  1
  Cu  Cu28  1  0.81187700  0.62375300  0.25000000  1
  Cu  Cu29  1  0.18812300  0.37624700  0.75000000  1
  Cu  Cu30  1  0.44383400  0.88766800  0.25000000  1
  Cu  Cu31  1  0.55616600  0.11233200  0.75000000  1
  Cu  Cu32  1  0.99157600  0.15154700  0.75000000  1
  Cu  Cu33  1  0.84002900  0.84845300  0.25000000  1
  Cu  Cu34  1  0.00842400  0.84845300  0.25000000  1
  Cu  Cu35  1  0.15997100  0.15154700  0.75000000  1
  Cu  Cu36  1  0.26101300  0.69401300  0.25000000  1
  Cu  Cu37  1  0.56700000  0.30598700  0.75000000  1
  Cu  Cu38  1  0.73898700  0.30598700  0.75000000  1
  Cu  Cu39  1  0.43300000  0.69401300  0.25000000  1
  C  C40  1  0.76999400  0.53998800  0.25000000  1
  C  C41  1  0.23000600  0.46001200  0.75000000  1
  C  C42  1  0.66665700  0.33331500  0.17473100  1
  C  C43  1  0.33334300  0.66668500  0.82526900  1
  C  C44  1  0.66665700  0.33331500  0.32526900  1
  C  C45  1  0.33334300  0.66668500  0.67473100  1
  C  C46  1  0.96753900  0.42364900  0.25000000  1
  C  C47  1  0.54389100  0.57635100  0.75000000  1
  C  C48  1  0.03246100  0.57635100  0.75000000  1
  C  C49  1  0.45610900  0.42364900  0.25000000  1
  C  C50  1  0.75354400  0.50708800  0.08785500  1
  C  C51  1  0.24645600  0.49291200  0.91214500  1
  C  C52  1  0.75354400  0.50708800  0.41214500  1
  C  C53  1  0.24645600  0.49291200  0.58785500  1
  C  C54  1  0.97153100  0.39165400  0.08256500  1
  C  C55  1  0.57987700  0.60834600  0.91743500  1
  C  C56  1  0.97153100  0.39165400  0.41743500  1
  C  C57  1  0.57987700  0.60834600  0.58256500  1
  C  C58  1  0.02846900  0.60834600  0.91743500  1
  C  C59  1  0.42012300  0.39165400  0.08256500  1
  C  C60  1  0.02846900  0.60834600  0.58256500  1
  C  C61  1  0.42012300  0.39165400  0.41743500  1
  C  C62  1  0.06012300  0.61015800  0.14333000  1
  C  C63  1  0.44996500  0.38984200  0.85667000  1
  C  C64  1  0.06012300  0.61015800  0.35667000  1
  C  C65  1  0.44996500  0.38984200  0.64333000  1
  C  C66  1  0.93987700  0.38984200  0.85667000  1
  C  C67  1  0.55003500  0.61015800  0.14333000  1
  C  C68  1  0.93987700  0.38984200  0.64333000  1
  C  C69  1  0.55003500  0.61015800  0.35667000  1
  C  C70  1  0.48620800  0.97241600  0.25000000  1
  C  C71  1  0.51379200  0.02758400  0.75000000  1
  C  C72  1  0.72687500  0.17801800  0.25000000  1
  C  C73  1  0.54885700  0.82198200  0.75000000  1
  C  C74  1  0.27312500  0.82198200  0.75000000  1
  C  C75  1  0.45114300  0.17801800  0.25000000  1
  C  C76  1  0.79640400  0.00021200  0.25000000  1
  C  C77  1  0.79619200  0.99978800  0.75000000  1
  C  C78  1  0.20359600  0.99978800  0.75000000  1
  C  C79  1  0.20380800  0.00021200  0.25000000  1
  C  C80  1  0.54304900  0.08609800  0.11043800  1
  C  C81  1  0.45695100  0.91390200  0.88956200  1
  C  C82  1  0.54304900  0.08609800  0.38956200  1
  C  C83  1  0.45695100  0.91390200  0.61043800  1
  C  C84  1  0.86824900  0.12291900  0.10256100  1
  C  C85  1  0.74533000  0.87708100  0.89743900  1
  C  C86  1  0.86824900  0.12291900  0.39743900  1
  C  C87  1  0.74533000  0.87708100  0.60256100  1
  C  C88  1  0.13175100  0.87708100  0.89743900  1
  C  C89  1  0.25467000  0.12291900  0.10256100  1
  C  C90  1  0.13175100  0.87708100  0.60256100  1
  C  C91  1  0.25467000  0.12291900  0.39743900  1
  C  C92  1  0.65305200  0.90317400  0.10745600  1
  C  C93  1  0.74987700  0.09682600  0.89254400  1
  C  C94  1  0.65305200  0.90317400  0.39254400  1
  C  C95  1  0.74987700  0.09682600  0.60745600  1
  C  C96  1  0.34694800  0.09682600  0.89254400  1
  C  C97  1  0.25012300  0.90317400  0.10745600  1
  C  C98  1  0.34694800  0.09682600  0.60745600  1
  C  C99  1  0.25012300  0.90317400  0.39254400  1
  C  C100  1  0.10151000  0.20302100  0.75000000  1
  C  C101  1  0.89849000  0.79697900  0.25000000  1
  C  C102  1  0.37120000  0.74239900  0.25000000  1
  C  C103  1  0.62880000  0.25760100  0.75000000  1
