# generated using pymatgen
data_Cu3(NiC7)2
_symmetry_space_group_name_H-M   'P 1'
_cell_length_a   9.28978592
_cell_length_b   9.28978592
_cell_length_c   7.31896852
_cell_angle_alpha   78.58901637
_cell_angle_beta   78.58901637
_cell_angle_gamma   114.57205769
_symmetry_Int_Tables_number   1
_chemical_formula_structural   Cu3(NiC7)2
_chemical_formula_sum   'Cu6 Ni4 C28'
_cell_volume   534.55268716
_cell_formula_units_Z   2
loop_
 _symmetry_equiv_pos_site_id
 _symmetry_equiv_pos_as_xyz
  1  'x, y, z'
loop_
 _atom_site_type_symbol
 _atom_site_label
 _atom_site_symmetry_multiplicity
 _atom_site_fract_x
 _atom_site_fract_y
 _atom_site_fract_z
 _atom_site_occupancy
  C  C0  1  0.47925500  0.47180100  0.87701700  1
  C  C1  1  0.47180100  0.47925500  0.37701700  1
  C  C2  1  0.82153000  0.14443300  0.33750900  1
  C  C3  1  0.14443300  0.82153000  0.83750900  1
  Ni  Ni4  1  0.09021400  0.09880000  0.60493700  1
  Ni  Ni5  1  0.09880000  0.09021400  0.10493700  1
  Ni  Ni6  1  0.75494600  0.42940000  0.13502300  1
  Ni  Ni7  1  0.42940000  0.75494600  0.63502300  1
  Cu  Cu8  1  0.69819900  0.82988400  0.99231100  1
  Cu  Cu9  1  0.82988400  0.69819900  0.49231100  1
  Cu  Cu10  1  0.02660800  0.40874100  0.76132700  1
  Cu  Cu11  1  0.40874100  0.02660800  0.26132700  1
  Cu  Cu12  1  0.55035000  0.19864300  0.68587100  1
  Cu  Cu13  1  0.19864300  0.55035000  0.18587100  1
  C  C14  1  0.29285800  0.52205400  0.80734200  1
  C  C15  1  0.52205400  0.29285800  0.30734200  1
  C  C16  1  0.57321400  0.99388700  0.48246400  1
  C  C17  1  0.99388700  0.57321400  0.98246400  1
  C  C18  1  0.06381900  0.27289700  0.15750400  1
  C  C19  1  0.27289700  0.06381900  0.65750400  1
  C  C20  1  0.14089800  0.03595900  0.36405900  1
  C  C21  1  0.03595900  0.14089800  0.86405900  1
  C  C22  1  0.33640400  0.22393800  0.98906100  1
  C  C23  1  0.22393800  0.33640400  0.48906100  1
  C  C24  1  0.75797400  0.22905800  0.08889600  1
  C  C25  1  0.22905800  0.75797400  0.58889600  1
  C  C26  1  0.54908800  0.44859200  0.60810600  1
  C  C27  1  0.44859200  0.54908800  0.10810600  1
  C  C28  1  0.89349500  0.11044600  0.57980900  1
  C  C29  1  0.11044600  0.89349500  0.07980900  1
  C  C30  1  0.61399200  0.73393300  0.70771200  1
  C  C31  1  0.73393300  0.61399200  0.20771200  1
  C  C32  1  0.69391900  0.47066700  0.89816300  1
  C  C33  1  0.47066700  0.69391900  0.39816300  1
  C  C34  1  0.85979200  0.95943300  0.25259800  1
  C  C35  1  0.95943300  0.85979200  0.75259800  1
  C  C36  1  0.82090300  0.36149400  0.36707000  1
  C  C37  1  0.36149400  0.82090300  0.86707000  1
