# generated using pymatgen
data_Cu2Ni2C7
_symmetry_space_group_name_H-M   'P 1'
_cell_length_a   5.91721133
_cell_length_b   5.91721133
_cell_length_c   5.57522932
_cell_angle_alpha   84.11705090
_cell_angle_beta   84.11705090
_cell_angle_gamma   108.67842955
_symmetry_Int_Tables_number   1
_chemical_formula_structural   Cu2Ni2C7
_chemical_formula_sum   'Cu2 Ni2 C7'
_cell_volume   182.04577167
_cell_formula_units_Z   1
loop_
 _symmetry_equiv_pos_site_id
 _symmetry_equiv_pos_as_xyz
  1  'x, y, z'
loop_
 _atom_site_type_symbol
 _atom_site_label
 _atom_site_symmetry_multiplicity
 _atom_site_fract_x
 _atom_site_fract_y
 _atom_site_fract_z
 _atom_site_occupancy
  Ni  Ni0  1  0.69088600  0.30911400  0.00000000  1
  Ni  Ni1  1  0.30911400  0.69088600  0.00000000  1
  Cu  Cu2  1  0.74381700  0.74381700  0.39741000  1
  Cu  Cu3  1  0.25618300  0.25618300  0.60259000  1
  C  C4  1  0.94015100  0.59748000  0.19984400  1
  C  C5  1  0.59748000  0.94015100  0.19984400  1
  C  C6  1  0.55914600  0.55914600  0.72696800  1
  C  C7  1  0.00000000  0.00000000  0.50000000  1
  C  C8  1  0.44085400  0.44085400  0.27303200  1
  C  C9  1  0.40252000  0.05984900  0.80015600  1
  C  C10  1  0.05984900  0.40252000  0.80015600  1
