# generated using pymatgen
data_Cu10Ni3C
_symmetry_space_group_name_H-M   'P 1'
_cell_length_a   6.69954900
_cell_length_b   7.51914600
_cell_length_c   10.22214145
_cell_angle_alpha   70.00390261
_cell_angle_beta   90.00000000
_cell_angle_gamma   90.00000000
_symmetry_Int_Tables_number   1
_chemical_formula_structural   Cu10Ni3C
_chemical_formula_sum   'Cu20 Ni6 C2'
_cell_volume   483.89658103
_cell_formula_units_Z   2
loop_
 _symmetry_equiv_pos_site_id
 _symmetry_equiv_pos_as_xyz
  1  'x, y, z'
loop_
 _atom_site_type_symbol
 _atom_site_label
 _atom_site_symmetry_multiplicity
 _atom_site_fract_x
 _atom_site_fract_y
 _atom_site_fract_z
 _atom_site_occupancy
  C  C0  1  0.00081800  0.26307000  0.81231000  1
  C  C1  1  0.50081800  0.73693000  0.18769000  1
  Ni  Ni2  1  0.47476100  0.03049900  0.77556600  1
  Ni  Ni3  1  0.97476100  0.96950100  0.22443400  1
  Ni  Ni4  1  0.02784500  0.66971900  0.95951100  1
  Ni  Ni5  1  0.52784500  0.33028100  0.04048900  1
  Ni  Ni6  1  0.12887900  0.39195500  0.41995000  1
  Ni  Ni7  1  0.62887900  0.60804500  0.58005000  1
  Cu  Cu8  1  0.36361200  0.20219600  0.84881100  1
  Cu  Cu9  1  0.86361200  0.79780400  0.15118900  1
  Cu  Cu10  1  0.71138400  0.15451100  0.72013300  1
  Cu  Cu11  1  0.21138400  0.84548900  0.27986700  1
  Cu  Cu12  1  0.55589200  0.85124500  0.93697600  1
  Cu  Cu13  1  0.05589200  0.14875500  0.06302400  1
  Cu  Cu14  1  0.14164100  0.54588700  0.85157100  1
  Cu  Cu15  1  0.64164100  0.45411300  0.14842900  1
  Cu  Cu16  1  0.09985200  0.91278900  0.85904500  1
  Cu  Cu17  1  0.59985200  0.08721100  0.14095500  1
  Cu  Cu18  1  0.21827600  0.60104900  0.09669100  1
  Cu  Cu19  1  0.71827600  0.39895100  0.90330900  1
  Cu  Cu20  1  0.39390900  0.46206900  0.38929000  1
  Cu  Cu21  1  0.89390900  0.53793100  0.61071000  1
  Cu  Cu22  1  0.13242200  0.20499100  0.34041300  1
  Cu  Cu23  1  0.63242200  0.79500900  0.65958700  1
  Cu  Cu24  1  0.16128100  0.24573300  0.60283200  1
  Cu  Cu25  1  0.66128100  0.75426700  0.39716800  1
  Cu  Cu26  1  0.82391600  0.22976800  0.41463700  1
  Cu  Cu27  1  0.32391600  0.77023200  0.58536300  1
