# generated using pymatgen
data_Cu8NiC16
_symmetry_space_group_name_H-M   'P 1'
_cell_length_a   7.55558635
_cell_length_b   7.40466630
_cell_length_c   5.63073388
_cell_angle_alpha   109.31112457
_cell_angle_beta   110.32624369
_cell_angle_gamma   82.62855082
_symmetry_Int_Tables_number   1
_chemical_formula_structural   Cu8NiC16
_chemical_formula_sum   'Cu8 Ni1 C16'
_cell_volume   278.75156286
_cell_formula_units_Z   1
loop_
 _symmetry_equiv_pos_site_id
 _symmetry_equiv_pos_as_xyz
  1  'x, y, z'
loop_
 _atom_site_type_symbol
 _atom_site_label
 _atom_site_symmetry_multiplicity
 _atom_site_fract_x
 _atom_site_fract_y
 _atom_site_fract_z
 _atom_site_occupancy
  Ni  Ni0  1  0.37088200  0.87008800  0.24181800  1
  Cu  Cu1  1  0.74549800  0.23809300  0.50161200  1
  Cu  Cu2  1  0.53065600  0.99629300  0.95304200  1
  Cu  Cu3  1  0.23390700  0.27494000  0.53251200  1
  Cu  Cu4  1  0.76121500  0.74812800  0.47844800  1
  Cu  Cu5  1  0.52388700  0.47561800  0.00293000  1
  Cu  Cu6  1  0.96842700  0.02921200  0.00443100  1
  Cu  Cu7  1  0.21458100  0.76016000  0.54176400  1
  Cu  Cu8  1  0.02427100  0.50022500  0.02277400  1
  C  C9  1  0.97730600  0.17354900  0.36319000  1
  C  C10  1  0.91574000  0.24299000  0.85622000  1
  C  C11  1  0.59578100  0.25509700  0.14195300  1
  C  C12  1  0.33531100  0.00645600  0.61822300  1
  C  C13  1  0.51749900  0.33145700  0.65812100  1
  C  C14  1  0.77957500  0.58117600  0.14821200  1
  C  C15  1  0.72939200  0.90004100  0.81257200  1
  C  C16  1  0.25265800  0.42768400  0.88986300  1
  C  C17  1  0.51638900  0.64603400  0.34046100  1
  C  C18  1  0.63749200  0.97421200  0.31922200  1
  C  C19  1  0.16841200  0.49466700  0.38597300  1
  C  C20  1  0.40374900  0.75798600  0.87092200  1
  C  C21  1  0.10914500  0.77430800  0.18025000  1
  C  C22  1  0.00466600  0.84754800  0.66315200  1
  C  C23  1  0.84723200  0.51873300  0.65588700  1
  C  C24  1  0.25299300  0.10123100  0.14978000  1
