# generated using pymatgen
data_CuNi3C11
_symmetry_space_group_name_H-M   'P 1'
_cell_length_a   6.63357800
_cell_length_b   8.79441600
_cell_length_c   14.54530900
_cell_angle_alpha   90.00000000
_cell_angle_beta   90.00000000
_cell_angle_gamma   90.00000000
_symmetry_Int_Tables_number   1
_chemical_formula_structural   CuNi3C11
_chemical_formula_sum   'Cu4 Ni12 C44'
_cell_volume   848.55070184
_cell_formula_units_Z   4
loop_
 _symmetry_equiv_pos_site_id
 _symmetry_equiv_pos_as_xyz
  1  'x, y, z'
loop_
 _atom_site_type_symbol
 _atom_site_label
 _atom_site_symmetry_multiplicity
 _atom_site_fract_x
 _atom_site_fract_y
 _atom_site_fract_z
 _atom_site_occupancy
  C  C0  1  0.05279500  0.75000000  0.09893800  1
  C  C1  1  0.44720500  0.75000000  0.59893800  1
  C  C2  1  0.94720500  0.25000000  0.90106200  1
  C  C3  1  0.55279500  0.25000000  0.40106200  1
  C  C4  1  0.10321600  0.75000000  0.99763400  1
  C  C5  1  0.39678400  0.75000000  0.49763400  1
  C  C6  1  0.89678400  0.25000000  0.00236600  1
  C  C7  1  0.60321600  0.25000000  0.50236600  1
  C  C8  1  0.86921700  0.58030000  0.20445500  1
  C  C9  1  0.63078300  0.91970000  0.70445500  1
  C  C10  1  0.13078300  0.08030000  0.79554500  1
  C  C11  1  0.36921700  0.41970000  0.29554500  1
  C  C12  1  0.13078300  0.41970000  0.79554500  1
  C  C13  1  0.36921700  0.08030000  0.29554500  1
  C  C14  1  0.86921700  0.91970000  0.20445500  1
  C  C15  1  0.63078300  0.58030000  0.70445500  1
  C  C16  1  0.00330900  0.47132200  0.11895900  1
  C  C17  1  0.49669100  0.02867800  0.61895900  1
  C  C18  1  0.99669100  0.97132200  0.88104100  1
  C  C19  1  0.50330900  0.52867800  0.38104100  1
  C  C20  1  0.99669100  0.52867800  0.88104100  1
  C  C21  1  0.50330900  0.97132200  0.38104100  1
  C  C22  1  0.00330900  0.02867800  0.11895900  1
  C  C23  1  0.49669100  0.47132200  0.61895900  1
  C  C24  1  0.76763900  0.56347400  0.08881400  1
  C  C25  1  0.73236100  0.93652600  0.58881400  1
  C  C26  1  0.23236100  0.06347400  0.91118600  1
  C  C27  1  0.26763900  0.43652600  0.41118600  1
  C  C28  1  0.23236100  0.43652600  0.91118600  1
  C  C29  1  0.26763900  0.06347400  0.41118600  1
  C  C30  1  0.76763900  0.93652600  0.08881400  1
  C  C31  1  0.73236100  0.56347400  0.58881400  1
  C  C32  1  0.38575500  0.85297300  0.14863500  1
  C  C33  1  0.11424500  0.64702700  0.64863500  1
  C  C34  1  0.61424500  0.35297300  0.85136500  1
  C  C35  1  0.88575500  0.14702700  0.35136500  1
  C  C36  1  0.61424500  0.14702700  0.85136500  1
  C  C37  1  0.88575500  0.35297300  0.35136500  1
  C  C38  1  0.38575500  0.64702700  0.14863500  1
  C  C39  1  0.11424500  0.85297300  0.64863500  1
  C  C40  1  0.25943500  0.75000000  0.24009400  1
  C  C41  1  0.24056500  0.75000000  0.74009400  1
  C  C42  1  0.74056500  0.25000000  0.75990600  1
  C  C43  1  0.75943500  0.25000000  0.25990600  1
  Ni  Ni44  1  0.90448800  0.56939700  0.13081600  1
  Ni  Ni45  1  0.59551200  0.93060300  0.63081600  1
  Ni  Ni46  1  0.09551200  0.06939700  0.86918400  1
  Ni  Ni47  1  0.40448800  0.43060300  0.36918400  1
  Ni  Ni48  1  0.09551200  0.43060300  0.86918400  1
  Ni  Ni49  1  0.40448800  0.06939700  0.36918400  1
  Ni  Ni50  1  0.90448800  0.93060300  0.13081600  1
  Ni  Ni51  1  0.59551200  0.56939700  0.63081600  1
  Ni  Ni52  1  0.30165700  0.75000000  0.16717000  1
  Ni  Ni53  1  0.19834300  0.75000000  0.66717000  1
  Ni  Ni54  1  0.69834300  0.25000000  0.83283000  1
  Ni  Ni55  1  0.80165700  0.25000000  0.33283000  1
  Cu  Cu56  1  0.88436700  0.75000000  0.39933200  1
  Cu  Cu57  1  0.61563300  0.75000000  0.89933200  1
  Cu  Cu58  1  0.11563300  0.25000000  0.60066800  1
  Cu  Cu59  1  0.38436700  0.25000000  0.10066800  1
