# generated using pymatgen
data_CuNiC5
_symmetry_space_group_name_H-M   'P 1'
_cell_length_a   11.35567762
_cell_length_b   3.44337000
_cell_length_c   12.12204339
_cell_angle_alpha   90.00000000
_cell_angle_beta   91.19662707
_cell_angle_gamma   90.00000000
_symmetry_Int_Tables_number   1
_chemical_formula_structural   CuNiC5
_chemical_formula_sum   'Cu4 Ni4 C20'
_cell_volume   473.89034096
_cell_formula_units_Z   4
loop_
 _symmetry_equiv_pos_site_id
 _symmetry_equiv_pos_as_xyz
  1  'x, y, z'
loop_
 _atom_site_type_symbol
 _atom_site_label
 _atom_site_symmetry_multiplicity
 _atom_site_fract_x
 _atom_site_fract_y
 _atom_site_fract_z
 _atom_site_occupancy
  Ni  Ni0  1  0.88736200  0.75000000  0.92536500  1
  Ni  Ni1  1  0.15560500  0.25000000  0.69428200  1
  Ni  Ni2  1  0.85029500  0.75000000  0.29519800  1
  Ni  Ni3  1  0.35123800  0.75000000  0.20532700  1
  Cu  Cu4  1  0.11135600  0.25000000  0.06774300  1
  Cu  Cu5  1  0.39060300  0.75000000  0.57204800  1
  Cu  Cu6  1  0.61613300  0.25000000  0.43392100  1
  Cu  Cu7  1  0.64717600  0.25000000  0.80147500  1
  C  C8  1  0.11498700  0.75000000  0.43266500  1
  C  C9  1  0.88211900  0.25000000  0.57029700  1
  C  C10  1  0.38772600  0.25000000  0.92786300  1
  C  C11  1  0.60901600  0.75000000  0.07116500  1
  C  C12  1  0.02625900  0.75000000  0.61803400  1
  C  C13  1  0.97146900  0.25000000  0.38442500  1
  C  C14  1  0.46638600  0.25000000  0.11582400  1
  C  C15  1  0.53150400  0.75000000  0.88678300  1
  C  C16  1  0.03253900  0.25000000  0.87646300  1
  C  C17  1  0.97203800  0.75000000  0.12217800  1
  C  C18  1  0.47320300  0.75000000  0.38535000  1
  C  C19  1  0.53095700  0.25000000  0.61897800  1
  C  C20  1  0.20866700  0.25000000  0.24766000  1
  C  C21  1  0.78286600  0.75000000  0.75149300  1
  C  C22  1  0.29316700  0.75000000  0.74933800  1
  C  C23  1  0.70788200  0.25000000  0.25005500  1
  C  C24  1  0.24555800  0.75000000  0.02163100  1
  C  C25  1  0.74946200  0.25000000  0.97878300  1
  C  C26  1  0.25140400  0.25000000  0.51696500  1
  C  C27  1  0.75302200  0.75000000  0.47869100  1
