# generated using pymatgen
data_CuNiC8
_symmetry_space_group_name_H-M   'P 1'
_cell_length_a   5.98699321
_cell_length_b   5.98699321
_cell_length_c   8.71321038
_cell_angle_alpha   90.00000000
_cell_angle_beta   90.00000000
_cell_angle_gamma   90.00000000
_symmetry_Int_Tables_number   1
_chemical_formula_structural   CuNiC8
_chemical_formula_sum   'Cu2 Ni2 C16'
_cell_volume   312.31707698
_cell_formula_units_Z   2
loop_
 _symmetry_equiv_pos_site_id
 _symmetry_equiv_pos_as_xyz
  1  'x, y, z'
loop_
 _atom_site_type_symbol
 _atom_site_label
 _atom_site_symmetry_multiplicity
 _atom_site_fract_x
 _atom_site_fract_y
 _atom_site_fract_z
 _atom_site_occupancy
  C  C0  1  0.50000000  0.50000000  0.50000000  1
  C  C1  1  -0.00000000  -0.00000000  0.50000000  1
  Ni  Ni2  1  0.50000000  0.50000000  -0.00000000  1
  Ni  Ni3  1  -0.00000000  -0.00000000  -0.00000000  1
  Cu  Cu4  1  0.50000000  0.00000000  0.24703131  1
  Cu  Cu5  1  0.00000000  0.50000000  0.75296869  1
  C  C6  1  0.50000000  0.00000000  0.75385105  1
  C  C7  1  0.00000000  0.50000000  0.24614895  1
  C  C8  1  0.50000000  0.00000000  0.99385149  1
  C  C9  1  -0.00000000  0.50000000  0.00614851  1
  C  C10  1  0.50000000  -0.00000000  0.50854442  1
  C  C11  1  0.00000000  0.50000000  0.49145558  1
  C  C12  1  0.65831327  0.68045036  0.75742848  1
  C  C13  1  0.34168673  0.31954964  0.75742848  1
  C  C14  1  0.81954964  0.15831327  0.75742848  1
  C  C15  1  0.18045036  0.84168673  0.75742848  1
  C  C16  1  0.84168673  0.18045036  0.24257152  1
  C  C17  1  0.15831327  0.81954964  0.24257152  1
  C  C18  1  0.68045036  0.65831327  0.24257152  1
  C  C19  1  0.31954964  0.34168673  0.24257152  1
