# generated using pymatgen
data_CuNi2C9
_symmetry_space_group_name_H-M   'P 1'
_cell_length_a   13.33679941
_cell_length_b   13.33679941
_cell_length_c   13.33679941
_cell_angle_alpha   157.09112141
_cell_angle_beta   156.94539936
_cell_angle_gamma   32.72688624
_symmetry_Int_Tables_number   1
_chemical_formula_structural   CuNi2C9
_chemical_formula_sum   'Cu2 Ni4 C18'
_cell_volume   361.31224617
_cell_formula_units_Z   2
loop_
 _symmetry_equiv_pos_site_id
 _symmetry_equiv_pos_as_xyz
  1  'x, y, z'
loop_
 _atom_site_type_symbol
 _atom_site_label
 _atom_site_symmetry_multiplicity
 _atom_site_fract_x
 _atom_site_fract_y
 _atom_site_fract_z
 _atom_site_occupancy
  Ni  Ni0  1  0.82246800  0.78117700  0.95870900  1
  Ni  Ni1  1  0.17753200  0.21882300  0.04129100  1
  Ni  Ni2  1  0.67753200  0.63624100  0.95870900  1
  Ni  Ni3  1  0.32246800  0.36375900  0.04129100  1
  Cu  Cu4  1  0.50000000  0.50000000  0.00000000  1
  Cu  Cu5  1  0.00000000  0.00000000  0.00000000  1
  C  C6  1  0.41870500  0.92750600  0.50880100  1
  C  C7  1  0.58129500  0.07249400  0.49119900  1
  C  C8  1  0.08129500  0.59009500  0.50880100  1
  C  C9  1  0.91870500  0.40990500  0.49119900  1
  C  C10  1  0.00000000  0.50000000  0.00000000  1
  C  C11  1  0.50000000  0.50000000  0.50000000  1
  C  C12  1  0.19751700  0.19751700  0.50000000  1
  C  C13  1  0.30248300  0.80248300  0.00000000  1
  C  C14  1  0.80248300  0.80248300  0.50000000  1
  C  C15  1  0.69751700  0.19751700  0.00000000  1
  C  C16  1  0.68995000  0.68995000  0.50000000  1
  C  C17  1  0.81005000  0.31005000  0.00000000  1
  C  C18  1  0.31005000  0.31005000  0.50000000  1
  C  C19  1  0.18995000  0.68995000  0.00000000  1
  C  C20  1  0.84641400  0.31652000  0.47010600  1
  C  C21  1  0.15358600  0.68348000  0.52989400  1
  C  C22  1  0.65358600  0.12369200  0.47010600  1
  C  C23  1  0.34641400  0.87630800  0.52989400  1
