# generated using pymatgen
data_Cu4NiC16
_symmetry_space_group_name_H-M   'P 1'
_cell_length_a   6.04781211
_cell_length_b   5.71653206
_cell_length_c   10.20694813
_cell_angle_alpha   90.00000157
_cell_angle_beta   97.90052657
_cell_angle_gamma   118.20395382
_symmetry_Int_Tables_number   1
_chemical_formula_structural   Cu4NiC16
_chemical_formula_sum   'Cu4 Ni1 C16'
_cell_volume   307.17673480
_cell_formula_units_Z   1
loop_
 _symmetry_equiv_pos_site_id
 _symmetry_equiv_pos_as_xyz
  1  'x, y, z'
loop_
 _atom_site_type_symbol
 _atom_site_label
 _atom_site_symmetry_multiplicity
 _atom_site_fract_x
 _atom_site_fract_y
 _atom_site_fract_z
 _atom_site_occupancy
  C  C0  1  0.81354400  0.40677200  0.71303500  1
  C  C1  1  0.32914100  0.66457100  0.26036500  1
  C  C2  1  0.05887700  0.02943900  0.48115600  1
  C  C3  1  0.89500700  0.94750300  0.05177700  1
  Ni  Ni4  1  0.36660900  0.18330400  0.86396200  1
  Cu  Cu5  1  0.35029500  0.67514800  0.87961600  1
  Cu  Cu6  1  0.69615300  0.34807600  0.38875400  1
  Cu  Cu7  1  0.56511500  0.28255700  0.12117500  1
  Cu  Cu8  1  0.41530200  0.70765200  0.61144000  1
  C  C9  1  0.26198800  0.38480300  0.72687600  1
  C  C10  1  0.77727900  0.15627400  0.24788300  1
  C  C11  1  0.35265800  0.17632800  0.27672600  1
  C  C12  1  0.66280100  0.83140100  0.78531700  1
  C  C13  1  0.26198800  0.87718700  0.72687600  1
  C  C14  1  0.77727900  0.62100500  0.24788300  1
  C  C15  1  0.62014600  0.04419300  0.51181700  1
  C  C16  1  0.32678100  0.40273200  0.01194200  1
  C  C17  1  0.32678100  0.92405000  0.01194200  1
  C  C18  1  0.62014600  0.57595200  0.51181700  1
  C  C19  1  0.08945000  0.54472500  0.46962300  1
  C  C20  1  0.74515700  0.37257900  0.96251800  1
