# generated using pymatgen
data_Cu5(NiC)3
_symmetry_space_group_name_H-M   'P 1'
_cell_length_a   9.49645700
_cell_length_b   6.10093800
_cell_length_c   31.65001876
_cell_angle_alpha   90.00000000
_cell_angle_beta   95.83600444
_cell_angle_gamma   90.00000000
_symmetry_Int_Tables_number   1
_chemical_formula_structural   Cu5(NiC)3
_chemical_formula_sum   'Cu40 Ni24 C24'
_cell_volume   1824.21234967
_cell_formula_units_Z   8
loop_
 _symmetry_equiv_pos_site_id
 _symmetry_equiv_pos_as_xyz
  1  'x, y, z'
loop_
 _atom_site_type_symbol
 _atom_site_label
 _atom_site_symmetry_multiplicity
 _atom_site_fract_x
 _atom_site_fract_y
 _atom_site_fract_z
 _atom_site_occupancy
  C  C0  1  0.54344600  0.74366100  0.15719500  1
  C  C1  1  0.45655400  0.24366100  0.34280500  1
  C  C2  1  0.45655400  0.25633900  0.84280500  1
  C  C3  1  0.54344600  0.75633900  0.65719500  1
  C  C4  1  0.91715900  0.13511600  0.09176100  1
  C  C5  1  0.08284100  0.63511600  0.40823900  1
  C  C6  1  0.08284100  0.86488400  0.90823900  1
  C  C7  1  0.91715900  0.36488400  0.59176100  1
  C  C8  1  0.27042600  0.07188300  0.22597000  1
  C  C9  1  0.72957400  0.57188300  0.27403000  1
  C  C10  1  0.72957400  0.92811700  0.77403000  1
  C  C11  1  0.27042600  0.42811700  0.72597000  1
  C  C12  1  0.48651100  0.18928500  0.04965400  1
  C  C13  1  0.51348900  0.68928500  0.45034600  1
  C  C14  1  0.51348900  0.81071500  0.95034600  1
  C  C15  1  0.48651100  0.31071500  0.54965400  1
  C  C16  1  0.18908600  0.67802100  0.03653300  1
  C  C17  1  0.81091400  0.17802100  0.46346700  1
  C  C18  1  0.81091400  0.32197900  0.96346700  1
  C  C19  1  0.18908600  0.82197900  0.53653300  1
  C  C20  1  0.99633100  0.60872700  0.17317700  1
  C  C21  1  0.00366900  0.10872700  0.32682300  1
  C  C22  1  0.00366900  0.39127300  0.82682300  1
  C  C23  1  0.99633100  0.89127300  0.67317700  1
  Ni  Ni24  1  0.83951500  0.81755900  0.00962700  1
  Ni  Ni25  1  0.16048500  0.31755900  0.49037300  1
  Ni  Ni26  1  0.16048500  0.18244100  0.99037300  1
  Ni  Ni27  1  0.83951500  0.68244100  0.50962700  1
  Ni  Ni28  1  0.66034600  0.24562000  0.17973600  1
  Ni  Ni29  1  0.33965400  0.74562000  0.32026400  1
  Ni  Ni30  1  0.33965400  0.75438000  0.82026400  1
  Ni  Ni31  1  0.66034600  0.25438000  0.67973600  1
  Ni  Ni32  1  0.25779800  0.36212500  0.12501600  1
  Ni  Ni33  1  0.74220200  0.86212500  0.37498400  1
  Ni  Ni34  1  0.74220200  0.63787500  0.87498400  1
  Ni  Ni35  1  0.25779800  0.13787500  0.62501600  1
  Ni  Ni36  1  0.26308000  0.02909800  0.11885800  1
  Ni  Ni37  1  0.73692000  0.52909800  0.38114200  1
  Ni  Ni38  1  0.73692000  0.97090200  0.88114200  1
  Ni  Ni39  1  0.26308000  0.47090200  0.61885800  1
  Ni  Ni40  1  0.71991100  0.67123400  0.05191900  1
  Ni  Ni41  1  0.28008900  0.17123400  0.44808100  1
  Ni  Ni42  1  0.28008900  0.32876600  0.94808100  1
  Ni  Ni43  1  0.71991100  0.82876600  0.55191900  1
  Ni  Ni44  1  0.83863500  0.08945400  0.20766400  1
  Ni  Ni45  1  0.16136500  0.58945400  0.29233600  1
  Ni  Ni46  1  0.16136500  0.91054600  0.79233600  1
  Ni  Ni47  1  0.83863500  0.41054600  0.70766400  1
  Cu  Cu48  1  0.57115800  0.74669300  0.04171500  1
  Cu  Cu49  1  0.42884200  0.24669300  0.45828500  1
  Cu  Cu50  1  0.42884200  0.25330700  0.95828500  1
  Cu  Cu51  1  0.57115800  0.75330700  0.54171500  1
  Cu  Cu52  1  0.73040100  0.42895400  0.04577000  1
  Cu  Cu53  1  0.26959900  0.92895400  0.45423000  1
  Cu  Cu54  1  0.26959900  0.57104600  0.95423000  1
  Cu  Cu55  1  0.73040100  0.07104600  0.54577000  1
  Cu  Cu56  1  0.77485200  0.73437900  0.09590700  1
  Cu  Cu57  1  0.22514800  0.23437900  0.40409300  1
  Cu  Cu58  1  0.22514800  0.26562100  0.90409300  1
  Cu  Cu59  1  0.77485200  0.76562100  0.59590700  1
  Cu  Cu60  1  0.11771200  0.44115400  0.10472900  1
  Cu  Cu61  1  0.88228800  0.94115400  0.39527100  1
  Cu  Cu62  1  0.88228800  0.55884600  0.89527100  1
  Cu  Cu63  1  0.11771200  0.05884600  0.60472900  1
  Cu  Cu64  1  0.27544100  0.42059300  0.17057300  1
  Cu  Cu65  1  0.72455900  0.92059300  0.32942700  1
  Cu  Cu66  1  0.72455900  0.57940700  0.82942700  1
  Cu  Cu67  1  0.27544100  0.07940700  0.67057300  1
  Cu  Cu68  1  0.37286400  0.46002100  0.10229700  1
  Cu  Cu69  1  0.62713600  0.96002100  0.39770300  1
  Cu  Cu70  1  0.62713600  0.53997900  0.89770300  1
  Cu  Cu71  1  0.37286400  0.03997900  0.60229700  1
  Cu  Cu72  1  0.88083800  0.19619700  0.24864600  1
  Cu  Cu73  1  0.11916200  0.69619700  0.25135400  1
  Cu  Cu74  1  0.11916200  0.80380300  0.75135400  1
  Cu  Cu75  1  0.88083800  0.30380300  0.74864600  1
  Cu  Cu76  1  0.95009400  0.11350100  0.17813900  1
  Cu  Cu77  1  0.04990600  0.61350100  0.32186100  1
  Cu  Cu78  1  0.04990600  0.88649900  0.82186100  1
  Cu  Cu79  1  0.95009400  0.38649900  0.67813900  1
  Cu  Cu80  1  0.79881700  0.85627000  0.21162700  1
  Cu  Cu81  1  0.20118300  0.35627000  0.28837300  1
  Cu  Cu82  1  0.20118300  0.14373000  0.78837300  1
  Cu  Cu83  1  0.79881700  0.64373000  0.71162700  1
  Cu  Cu84  1  0.44751800  0.72134000  0.25275700  1
  Cu  Cu85  1  0.55248200  0.22134000  0.24724300  1
  Cu  Cu86  1  0.55248200  0.27866000  0.74724300  1
  Cu  Cu87  1  0.44751800  0.77866000  0.75275700  1
