# generated using pymatgen
data_Cu4Ni3C16
_symmetry_space_group_name_H-M   'P 1'
_cell_length_a   9.11615935
_cell_length_b   9.11615935
_cell_length_c   9.86016030
_cell_angle_alpha   61.23978577
_cell_angle_beta   61.23978577
_cell_angle_gamma   50.40376669
_symmetry_Int_Tables_number   1
_chemical_formula_structural   Cu4Ni3C16
_chemical_formula_sum   'Cu8 Ni6 C32'
_cell_volume   534.73737677
_cell_formula_units_Z   2
loop_
 _symmetry_equiv_pos_site_id
 _symmetry_equiv_pos_as_xyz
  1  'x, y, z'
loop_
 _atom_site_type_symbol
 _atom_site_label
 _atom_site_symmetry_multiplicity
 _atom_site_fract_x
 _atom_site_fract_y
 _atom_site_fract_z
 _atom_site_occupancy
  C  C0  1  0.80065200  0.19934800  0.75000000  1
  C  C1  1  0.19934800  0.80065200  0.25000000  1
  C  C2  1  0.00000000  0.00000000  0.00000000  1
  C  C3  1  0.00000000  0.00000000  0.50000000  1
  Ni  Ni4  1  0.06427400  0.28124500  0.09536900  1
  Ni  Ni5  1  0.71875500  0.93572600  0.40463100  1
  Ni  Ni6  1  0.28124500  0.06427400  0.59536900  1
  Ni  Ni7  1  0.39465000  0.60535000  0.75000000  1
  Ni  Ni8  1  0.93572600  0.71875500  0.90463100  1
  Ni  Ni9  1  0.60535000  0.39465000  0.25000000  1
  Cu  Cu10  1  0.52701600  0.10769600  0.70938700  1
  Cu  Cu11  1  0.10769600  0.52701600  0.20938700  1
  Cu  Cu12  1  0.52371300  0.23383500  0.10070500  1
  Cu  Cu13  1  0.23383500  0.52371300  0.60070500  1
  Cu  Cu14  1  0.89230400  0.47298400  0.79061300  1
  Cu  Cu15  1  0.47628700  0.76616500  0.89929500  1
  Cu  Cu16  1  0.76616500  0.47628700  0.39929500  1
  Cu  Cu17  1  0.47298400  0.89230400  0.29061300  1
  C  C18  1  0.84228600  0.29277700  0.33405900  1
  C  C19  1  0.95499400  0.87983200  0.41791100  1
  C  C20  1  0.46072200  0.64425400  0.08704400  1
  C  C21  1  0.87983200  0.95499400  0.91791100  1
  C  C22  1  0.25723200  0.93661000  0.32452900  1
  C  C23  1  0.05286700  0.50669800  0.62605900  1
  C  C24  1  0.64425400  0.46072200  0.58704400  1
  C  C25  1  0.06339000  0.74276800  0.17547100  1
  C  C26  1  0.94713300  0.49330200  0.37394100  1
  C  C27  1  0.64119200  0.66815800  0.26713100  1
  C  C28  1  0.04500600  0.12016800  0.58208900  1
  C  C29  1  0.74276800  0.06339000  0.67547100  1
  C  C30  1  0.49330200  0.94713300  0.87394100  1
  C  C31  1  0.29277700  0.84228600  0.83405900  1
  C  C32  1  0.66815800  0.64119200  0.76713100  1
  C  C33  1  0.93661000  0.25723200  0.82452900  1
  C  C34  1  0.90098100  0.50742900  0.93434600  1
  C  C35  1  0.35880800  0.33184200  0.73286900  1
  C  C36  1  0.49257100  0.09901900  0.56565400  1
  C  C37  1  0.33184200  0.35880800  0.23286900  1
  C  C38  1  0.50669800  0.05286700  0.12605900  1
  C  C39  1  0.12016800  0.04500600  0.08208900  1
  C  C40  1  0.50742900  0.90098100  0.43434600  1
  C  C41  1  0.53927800  0.35574600  0.91295600  1
  C  C42  1  0.09901900  0.49257100  0.06565400  1
  C  C43  1  0.35574600  0.53927800  0.41295600  1
  C  C44  1  0.70722300  0.15771500  0.16594100  1
  C  C45  1  0.15771400  0.70722300  0.66594100  1
