# generated using pymatgen
data_CuNiC61
_symmetry_space_group_name_H-M   'P 1'
_cell_length_a   8.55223000
_cell_length_b   8.72609700
_cell_length_c   8.79606400
_cell_angle_alpha   90.00000000
_cell_angle_beta   90.00000000
_cell_angle_gamma   90.00000000
_symmetry_Int_Tables_number   1
_chemical_formula_structural   CuNiC61
_chemical_formula_sum   'Cu1 Ni1 C61'
_cell_volume   656.42904502
_cell_formula_units_Z   1
loop_
 _symmetry_equiv_pos_site_id
 _symmetry_equiv_pos_as_xyz
  1  'x, y, z'
loop_
 _atom_site_type_symbol
 _atom_site_label
 _atom_site_symmetry_multiplicity
 _atom_site_fract_x
 _atom_site_fract_y
 _atom_site_fract_z
 _atom_site_occupancy
  Ni  Ni0  1  0.50000000  0.50000000  0.97618300  1
  Cu  Cu1  1  0.00000000  0.00000000  0.99120800  1
  C  C2  1  0.00000000  0.50000000  0.97582300  1
  C  C3  1  0.50000000  0.00000000  0.99839700  1
  C  C4  1  0.00000000  0.00000000  0.50249300  1
  C  C5  1  0.00000000  0.50000000  0.51898400  1
  C  C6  1  0.50000000  0.00000000  0.50010800  1
  C  C7  1  0.50000000  0.50000000  0.48867500  1
  C  C8  1  0.24357200  0.24200300  0.00623700  1
  C  C9  1  0.24357200  0.75799700  0.00623700  1
  C  C10  1  0.75642800  0.24200300  0.00623700  1
  C  C11  1  0.75642800  0.75799700  0.00623700  1
  C  C12  1  0.24756900  0.24441900  0.49660400  1
  C  C13  1  0.24756900  0.75558100  0.49660400  1
  C  C14  1  0.75243100  0.24441900  0.49660400  1
  C  C15  1  0.75243100  0.75558100  0.49660400  1
  C  C16  1  0.00000000  0.22480700  0.24115000  1
  C  C17  1  0.00000000  0.77519300  0.24115000  1
  C  C18  1  0.50000000  0.23914400  0.25170900  1
  C  C19  1  0.50000000  0.76085600  0.25170900  1
  C  C20  1  0.00000000  0.24303500  0.75677000  1
  C  C21  1  0.00000000  0.75696500  0.75677000  1
  C  C22  1  0.50000000  0.24298900  0.73924000  1
  C  C23  1  0.50000000  0.75701100  0.73924000  1
  C  C24  1  0.25066000  0.00000000  0.24697000  1
  C  C25  1  0.26805900  0.50000000  0.25726100  1
  C  C26  1  0.74934000  0.00000000  0.24697000  1
  C  C27  1  0.73194100  0.50000000  0.25726100  1
  C  C28  1  0.24769800  0.00000000  0.75659500  1
  C  C29  1  0.25296600  0.50000000  0.72687800  1
  C  C30  1  0.75230200  0.00000000  0.75659500  1
  C  C31  1  0.74703400  0.50000000  0.72687800  1
  C  C32  1  0.00000000  0.00000000  0.26388800  1
  C  C33  1  0.50000000  0.00000000  0.26207800  1
  C  C34  1  0.50000000  0.50000000  0.27432500  1
  C  C35  1  0.00000000  0.00000000  0.73977700  1
  C  C36  1  0.00000000  0.50000000  0.74649900  1
  C  C37  1  0.50000000  0.00000000  0.74383200  1
  C  C38  1  0.50000000  0.50000000  0.69896100  1
  C  C39  1  0.24487500  0.24831400  0.25439700  1
  C  C40  1  0.24487500  0.75168600  0.25439700  1
  C  C41  1  0.75512500  0.24831400  0.25439700  1
  C  C42  1  0.75512500  0.75168600  0.25439700  1
  C  C43  1  0.25145500  0.25695300  0.75122800  1
  C  C44  1  0.25145500  0.74304700  0.75122800  1
  C  C45  1  0.74854500  0.25695300  0.75122800  1
  C  C46  1  0.74854500  0.74304700  0.75122800  1
  C  C47  1  0.00000000  0.24976100  0.99959800  1
  C  C48  1  0.00000000  0.75023900  0.99959800  1
  C  C49  1  0.50000000  0.21694800  0.01305400  1
  C  C50  1  0.50000000  0.78305200  0.01305400  1
  C  C51  1  0.00000000  0.25619400  0.49572900  1
  C  C52  1  0.00000000  0.74380600  0.49572900  1
  C  C53  1  0.50000000  0.24414400  0.49633300  1
  C  C54  1  0.50000000  0.75585600  0.49633300  1
  C  C55  1  0.24815100  0.00000000  0.00031600  1
  C  C56  1  0.20869400  0.50000000  0.04300800  1
  C  C57  1  0.75184900  0.00000000  0.00031600  1
  C  C58  1  0.79130600  0.50000000  0.04300800  1
  C  C59  1  0.24809000  0.00000000  0.50386800  1
  C  C60  1  0.23656800  0.50000000  0.48897200  1
  C  C61  1  0.75191000  0.00000000  0.50386800  1
  C  C62  1  0.76343200  0.50000000  0.48897200  1
