# generated using pymatgen
data_Cu7NiC4
_symmetry_space_group_name_H-M   'P 1'
_cell_length_a   10.32608841
_cell_length_b   10.32608841
_cell_length_c   5.73918700
_cell_angle_alpha   90.00000000
_cell_angle_beta   90.00000000
_cell_angle_gamma   120.00000261
_symmetry_Int_Tables_number   1
_chemical_formula_structural   Cu7NiC4
_chemical_formula_sum   'Cu14 Ni2 C8'
_cell_volume   529.97169329
_cell_formula_units_Z   2
loop_
 _symmetry_equiv_pos_site_id
 _symmetry_equiv_pos_as_xyz
  1  'x, y, z'
loop_
 _atom_site_type_symbol
 _atom_site_label
 _atom_site_symmetry_multiplicity
 _atom_site_fract_x
 _atom_site_fract_y
 _atom_site_fract_z
 _atom_site_occupancy
  C  C0  1  0.23255600  0.87842700  0.76641700  1
  C  C1  1  0.64587000  0.76744400  0.76641700  1
  C  C2  1  0.76744400  0.12157300  0.26641700  1
  C  C3  1  0.12157300  0.35413000  0.76641700  1
  C  C4  1  0.35413000  0.23255600  0.26641700  1
  C  C5  1  0.87842700  0.64587000  0.26641700  1
  C  C6  1  0.00000000  0.00000000  0.00224600  1
  C  C7  1  0.00000000  0.00000000  0.50224600  1
  Ni  Ni8  1  0.66666700  0.33333300  0.85066900  1
  Ni  Ni9  1  0.33333300  0.66666700  0.35066900  1
  Cu  Cu10  1  0.66666700  0.33333300  0.48509000  1
  Cu  Cu11  1  0.33333300  0.66666700  0.98509000  1
  Cu  Cu12  1  0.59110700  0.47624500  0.99076700  1
  Cu  Cu13  1  0.88513800  0.40889300  0.99076700  1
  Cu  Cu14  1  0.40889300  0.52375500  0.49076700  1
  Cu  Cu15  1  0.52375500  0.11486200  0.99076700  1
  Cu  Cu16  1  0.11486200  0.59110700  0.49076700  1
  Cu  Cu17  1  0.47624500  0.88513800  0.49076700  1
  Cu  Cu18  1  0.92050400  0.76583000  0.75314800  1
  Cu  Cu19  1  0.84532600  0.07949600  0.75314800  1
  Cu  Cu20  1  0.07949600  0.23417000  0.25314800  1
  Cu  Cu21  1  0.23417000  0.15467400  0.75314800  1
  Cu  Cu22  1  0.15467400  0.92050400  0.25314800  1
  Cu  Cu23  1  0.76583000  0.84532600  0.25314800  1
