# generated using pymatgen
data_Cu12Ni2C13
_symmetry_space_group_name_H-M   'P 1'
_cell_length_a   7.84919473
_cell_length_b   7.82042154
_cell_length_c   9.31047564
_cell_angle_alpha   67.12491142
_cell_angle_beta   84.94905407
_cell_angle_gamma   73.03856430
_symmetry_Int_Tables_number   1
_chemical_formula_structural   Cu12Ni2C13
_chemical_formula_sum   'Cu24 Ni4 C26'
_cell_volume   503.45375572
_cell_formula_units_Z   2
loop_
 _symmetry_equiv_pos_site_id
 _symmetry_equiv_pos_as_xyz
  1  'x, y, z'
loop_
 _atom_site_type_symbol
 _atom_site_label
 _atom_site_symmetry_multiplicity
 _atom_site_fract_x
 _atom_site_fract_y
 _atom_site_fract_z
 _atom_site_occupancy
  C  C0  1  0.13663800  0.23464700  0.79134200  1
  C  C1  1  0.86336200  0.76535300  0.20865800  1
  Ni  Ni2  1  0.08606000  0.09314000  0.18272500  1
  Ni  Ni3  1  0.91394000  0.90686000  0.81727500  1
  Ni  Ni4  1  0.23070500  0.42676500  0.41150800  1
  Ni  Ni5  1  0.76929500  0.57323500  0.58849200  1
  Cu  Cu6  1  0.35480900  0.50126900  0.09371400  1
  Cu  Cu7  1  0.64519100  0.49873100  0.90628600  1
  Cu  Cu8  1  0.66444400  0.17021500  0.08038200  1
  Cu  Cu9  1  0.33555600  0.82978500  0.91961800  1
  Cu  Cu10  1  0.31117500  0.99277000  0.34137400  1
  Cu  Cu11  1  0.68882500  0.00723000  0.65862600  1
  Cu  Cu12  1  0.60672300  0.58337300  0.27064700  1
  Cu  Cu13  1  0.39327700  0.41662700  0.72935300  1
  Cu  Cu14  1  0.17216100  0.63275400  0.00433400  1
  Cu  Cu15  1  0.82783900  0.36724600  0.99566600  1
  Cu  Cu16  1  0.00507200  0.32101900  0.28674600  1
  Cu  Cu17  1  0.99492800  0.67898100  0.71325400  1
  Cu  Cu18  1  0.17084900  0.73170200  0.36269700  1
  Cu  Cu19  1  0.82915100  0.26829800  0.63730300  1
  Cu  Cu20  1  0.29928400  0.03933500  0.55850700  1
  Cu  Cu21  1  0.70071600  0.96066500  0.44149300  1
  Cu  Cu22  1  0.53843900  0.03226500  0.13243900  1
  Cu  Cu23  1  0.46156100  0.96773500  0.86756100  1
  Cu  Cu24  1  0.50232700  0.25579900  0.37383800  1
  Cu  Cu25  1  0.49767300  0.74420100  0.62616200  1
  Cu  Cu26  1  0.68876900  0.55853800  0.11635700  1
  Cu  Cu27  1  0.31123100  0.44146200  0.88364300  1
  Cu  Cu28  1  0.77973900  0.13435900  0.41123600  1
  Cu  Cu29  1  0.22026100  0.86564100  0.58876400  1
  C  C30  1  0.05060900  0.21982400  0.01179500  1
  C  C31  1  0.94939100  0.78017600  0.98820500  1
  C  C32  1  0.39849900  0.36769500  0.31232800  1
  C  C33  1  0.60150100  0.63230500  0.68767200  1
  C  C34  1  0.66286300  0.03339900  0.11835900  1
  C  C35  1  0.33713700  0.96660100  0.88164100  1
  C  C36  1  0.29048600  0.05314800  0.22449900  1
  C  C37  1  0.70951400  0.94685200  0.77550100  1
  C  C38  1  0.06499400  0.48969100  0.30739200  1
  C  C39  1  0.93500600  0.51030900  0.69260800  1
  C  C40  1  0.69859900  0.41730700  0.01152700  1
  C  C41  1  0.30140100  0.58269300  0.98847300  1
  C  C42  1  0.24183600  0.25938500  0.56792200  1
  C  C43  1  0.75816400  0.74061500  0.43207800  1
  C  C44  1  0.67638600  0.63732300  0.18142800  1
  C  C45  1  0.32361400  0.36267700  0.81857200  1
  C  C46  1  0.04080400  0.90119300  0.23807200  1
  C  C47  1  0.95919600  0.09880700  0.76192800  1
  C  C48  1  0.97247200  0.20271800  0.28845200  1
  C  C49  1  0.02752800  0.79728200  0.71154800  1
  C  C50  1  0.25144900  0.60604500  0.44009300  1
  C  C51  1  0.74855100  0.39395500  0.55990700  1
  C  C52  1  0.67805300  0.08409900  0.46024200  1
  C  C53  1  0.32194700  0.91590100  0.53975800  1
