# generated using pymatgen
data_Cu6Ni5C4
_symmetry_space_group_name_H-M   'P 1'
_cell_length_a   9.45387183
_cell_length_b   9.45387183
_cell_length_c   15.20613900
_cell_angle_alpha   90.00000000
_cell_angle_beta   90.00000000
_cell_angle_gamma   154.15289390
_symmetry_Int_Tables_number   1
_chemical_formula_structural   Cu6Ni5C4
_chemical_formula_sum   'Cu12 Ni10 C8'
_cell_volume   592.51061097
_cell_formula_units_Z   2
loop_
 _symmetry_equiv_pos_site_id
 _symmetry_equiv_pos_as_xyz
  1  'x, y, z'
loop_
 _atom_site_type_symbol
 _atom_site_label
 _atom_site_symmetry_multiplicity
 _atom_site_fract_x
 _atom_site_fract_y
 _atom_site_fract_z
 _atom_site_occupancy
  C  C0  1  0.03247400  0.96752600  0.73642800  1
  C  C1  1  0.96752600  0.03247400  0.23642800  1
  C  C2  1  0.83305800  0.16694200  0.69678900  1
  C  C3  1  0.16694200  0.83305800  0.19678900  1
  C  C4  1  0.17484400  0.82515600  0.55600700  1
  C  C5  1  0.82515600  0.17484400  0.05600700  1
  C  C6  1  0.98138500  0.01861500  0.50116200  1
  C  C7  1  0.01861500  0.98138500  0.00116200  1
  Ni  Ni8  1  0.56561800  0.43438200  0.31375700  1
  Ni  Ni9  1  0.43438200  0.56561800  0.81375700  1
  Ni  Ni10  1  0.84906600  0.15093400  0.37314900  1
  Ni  Ni11  1  0.15093400  0.84906600  0.87314900  1
  Ni  Ni12  1  0.34910200  0.65089800  0.51899700  1
  Ni  Ni13  1  0.65089800  0.34910200  0.01899700  1
  Ni  Ni14  1  0.69896000  0.30104000  0.37609200  1
  Ni  Ni15  1  0.30104000  0.69896000  0.87609200  1
  Ni  Ni16  1  0.65536600  0.34463400  0.72599700  1
  Ni  Ni17  1  0.34463400  0.65536600  0.22599700  1
  Cu  Cu18  1  0.22881200  0.77118800  0.73401500  1
  Cu  Cu19  1  0.56936500  0.43063500  0.59108600  1
  Cu  Cu20  1  0.22377600  0.77622400  0.01508400  1
  Cu  Cu21  1  0.77622400  0.22377600  0.51508400  1
  Cu  Cu22  1  0.56025900  0.43974100  0.14553100  1
  Cu  Cu23  1  0.43974100  0.56025900  0.64553100  1
  Cu  Cu24  1  0.56591800  0.43408200  0.87098600  1
  Cu  Cu25  1  0.43408200  0.56591800  0.37098600  1
  Cu  Cu26  1  0.88841100  0.11158900  0.88357900  1
  Cu  Cu27  1  0.11158900  0.88841100  0.38357900  1
  Cu  Cu28  1  0.43063500  0.56936500  0.09108600  1
  Cu  Cu29  1  0.77118800  0.22881200  0.23401500  1
