# generated using pymatgen
data_Cu7NiC29
_symmetry_space_group_name_H-M   'P 1'
_cell_length_a   11.10209078
_cell_length_b   15.63545953
_cell_length_c   11.08908445
_cell_angle_alpha   90.23982469
_cell_angle_beta   91.14423943
_cell_angle_gamma   90.50313526
_symmetry_Int_Tables_number   1
_chemical_formula_structural   Cu7NiC29
_chemical_formula_sum   'Cu28 Ni4 C116'
_cell_volume   1924.43668455
_cell_formula_units_Z   4
loop_
 _symmetry_equiv_pos_site_id
 _symmetry_equiv_pos_as_xyz
  1  'x, y, z'
loop_
 _atom_site_type_symbol
 _atom_site_label
 _atom_site_symmetry_multiplicity
 _atom_site_fract_x
 _atom_site_fract_y
 _atom_site_fract_z
 _atom_site_occupancy
  Ni  Ni0  1  0.97910630  0.12086742  0.52903787  1
  Ni  Ni1  1  0.51044110  0.38510559  0.98831670  1
  Ni  Ni2  1  0.24119940  0.38782697  0.22531077  1
  Ni  Ni3  1  0.22890795  0.12414172  0.21869993  1
  Cu  Cu4  1  0.97932981  0.11592464  0.01565116  1
  Cu  Cu5  1  0.99359323  0.62254875  0.51087243  1
  Cu  Cu6  1  0.01471633  0.61937995  0.00302870  1
  Cu  Cu7  1  0.53656076  0.11700787  0.48047547  1
  Cu  Cu8  1  0.54075946  0.11949741  0.98572454  1
  Cu  Cu9  1  0.53348673  0.62947098  0.51245074  1
  Cu  Cu10  1  0.53315632  0.62368161  0.97176152  1
  Cu  Cu11  1  0.49549998  0.38067266  0.52340898  1
  Cu  Cu12  1  0.52167666  0.85433585  0.97657659  1
  Cu  Cu13  1  0.49890184  0.86108508  0.49637963  1
  Cu  Cu14  1  0.96808965  0.39470238  0.00635511  1
  Cu  Cu15  1  0.95455595  0.38853658  0.50869468  1
  Cu  Cu16  1  0.95660137  0.87041570  0.99479055  1
  Cu  Cu17  1  0.96515643  0.86524491  0.51160745  1
  Cu  Cu18  1  0.23923695  0.40665122  0.75497570  1
  Cu  Cu19  1  0.23659417  0.87927594  0.27687447  1
  Cu  Cu20  1  0.22879812  0.85621280  0.73221356  1
  Cu  Cu21  1  0.76129694  0.39464675  0.25731942  1
  Cu  Cu22  1  0.73371588  0.38821939  0.76168406  1
  Cu  Cu23  1  0.74391125  0.85829582  0.24732351  1
  Cu  Cu24  1  0.72159066  0.86484232  0.73857052  1
  Cu  Cu25  1  0.22765936  0.11381637  0.73512249  1
  Cu  Cu26  1  0.23409293  0.62172349  0.26658301  1
  Cu  Cu27  1  0.26809393  0.62739659  0.73533506  1
  Cu  Cu28  1  0.76116508  0.11420199  0.24275428  1
  Cu  Cu29  1  0.76954818  0.12650184  0.75539520  1
  Cu  Cu30  1  0.78050209  0.62249347  0.26026360  1
  Cu  Cu31  1  0.77285438  0.62450706  0.75853369  1
  C  C32  1  0.98747913  0.99267421  0.25874966  1
  C  C33  1  0.98879126  0.99092371  0.75962391  1
  C  C34  1  0.24878828  0.97973759  0.01328919  1
  C  C35  1  0.23998961  0.99755683  0.51268431  1
  C  C36  1  0.26438329  0.23926811  0.93193591  1
  C  C37  1  0.25598287  0.24459749  0.44775650  1
  C  C38  1  0.97257354  0.25321063  0.27350532  1
  C  C39  1  0.99803335  0.26032371  0.78474132  1
  C  C40  1  0.00545281  0.50120657  0.25189389  1
  C  C41  1  0.99809750  0.50199335  0.75640979  1
  C  C42  1  0.49981114  0.98687307  0.21579800  1
  C  C43  1  0.50130976  0.99636369  0.72221194  1
  C  C44  1  0.50877482  0.49240411  0.24719615  1
  C  C45  1  0.49728147  0.50323162  0.74862292  1
  C  C46  1  0.25507893  0.52155793  0.00410442  1
  C  C47  1  0.23062312  0.49571460  0.50958824  1
  C  C48  1  0.74447772  0.99495153  0.98668125  1
  C  C49  1  0.74097270  0.99479789  0.48769901  1
  C  C50  1  0.75342479  0.50519970  0.00498575  1
  C  C51  1  0.74254466  0.50128091  0.50849516  1
  C  C52  1  0.26125566  0.74808853  0.98175598  1
  C  C53  1  0.24894918  0.74299887  0.49606339  1
  C  C54  1  0.74988111  0.25062769  0.00936731  1
  C  C55  1  0.73691037  0.24815411  0.50331405  1
  C  C56  1  0.75640609  0.74480120  0.99912447  1
  C  C57  1  0.75199926  0.74643804  0.50429669  1
  C  C58  1  0.00171920  0.75142202  0.26500450  1
  C  C59  1  0.00144208  0.74704950  0.75009450  1
  C  C60  1  0.51416982  0.25886181  0.26411140  1
  C  C61  1  0.51290767  0.24845590  0.75229688  1
  C  C62  1  0.50501859  0.75236484  0.26402212  1
  C  C63  1  0.50026249  0.74539588  0.74551781  1
  C  C64  1  0.10550756  0.77202291  0.59734717  1
  C  C65  1  0.56278129  0.24801679  0.10430441  1
  C  C66  1  0.57776556  0.24885145  0.58674725  1
  C  C67  1  0.59276743  0.76044976  0.11722770  1
  C  C68  1  0.60607261  0.76362850  0.60169465  1
  C  C69  1  0.38804308  0.19784440  0.36748485  1
  C  C70  1  0.39352566  0.18288543  0.85956887  1
  C  C71  1  0.39745338  0.70647033  0.38081457  1
  C  C72  1  0.40717027  0.73023642  0.89136182  1
  C  C73  1  0.90251468  0.24489405  0.41783097  1
  C  C74  1  0.93294526  0.24539451  0.93051982  1
  C  C75  1  0.89253970  0.73209653  0.40704248  1
  C  C76  1  0.90431616  0.73132078  0.89859725  1
  C  C77  1  0.15298921  0.25248981  0.31549560  1
  C  C78  1  0.17960147  0.25861376  0.78822207  1
  C  C79  1  0.16293203  0.74984640  0.33736099  1
  C  C80  1  0.15033203  0.73731165  0.84446329  1
  C  C81  1  0.64525960  0.21217523  0.34475253  1
  C  C82  1  0.66177630  0.23417538  0.85687528  1
  C  C83  1  0.65223384  0.72591684  0.35592378  1
  C  C84  1  0.64480989  0.73154747  0.85515199  1
  C  C85  1  0.35176777  0.75420633  0.63772647  1
  C  C86  1  0.84031905  0.26198945  0.16765156  1
  C  C87  1  0.87865350  0.26335056  0.66697561  1
  C  C88  1  0.87513415  0.77257498  0.14367053  1
  C  C89  1  0.85397188  0.77420596  0.64697567  1
  C  C90  1  0.36619580  0.51721565  0.15795394  1
  C  C91  1  0.35459531  0.49511339  0.63087277  1
  C  C92  1  0.37213662  0.04118860  0.09566378  1
  C  C93  1  0.36971617  0.04523068  0.60542147  1
  C  C94  1  0.86679900  0.49120407  0.14614766  1
  C  C95  1  0.85307393  0.47725188  0.64815071  1
  C  C96  1  0.86376936  0.97593756  0.15281917  1
  C  C97  1  0.86436971  0.98254911  0.65418546  1
  C  C98  1  0.17689007  0.01506597  0.35917575  1
  C  C99  1  0.21200494  0.99356312  0.85460344  1
  C  C100  1  0.15245273  0.49829685  0.35268496  1
  C  C101  1  0.15394097  0.52707550  0.85786827  1
  C  C102  1  0.62334059  0.02164056  0.33637794  1
  C  C103  1  0.62972385  0.03459776  0.83549011  1
  C  C104  1  0.62280682  0.52674370  0.36749544  1
  C  C105  1  0.64268247  0.51327929  0.86298990  1
  C  C106  1  0.39420006  0.51682754  0.89637498  1
  C  C107  1  0.89416422  0.01133128  0.39394256  1
  C  C108  1  0.90210702  0.00500621  0.90317355  1
  C  C109  1  0.88106900  0.51050074  0.39720334  1
  C  C110  1  0.89347050  0.51862075  0.89854863  1
  C  C111  1  0.11492502  0.48310545  0.09825009  1
  C  C112  1  0.09520534  0.47113198  0.61799338  1
  C  C113  1  0.11549684  0.98494548  0.11053857  1
  C  C114  1  0.11456666  0.98725277  0.61591832  1
  C  C115  1  0.62187822  0.48669844  0.11968271  1
  C  C116  1  0.60581303  0.48536981  0.61334285  1
  C  C117  1  0.60264859  0.98013684  0.07583913  1
  C  C118  1  0.60057970  0.97968347  0.57877600  1
  C  C119  1  0.99378662  0.37218420  0.27123220  1
  C  C120  1  0.01639656  0.37848741  0.80385023  1
  C  C121  1  0.01834957  0.87752804  0.29367021  1
  C  C122  1  0.01906268  0.87587582  0.78992413  1
  C  C123  1  0.46314300  0.37757141  0.30218657  1
  C  C124  1  0.48489996  0.37600549  0.76238600  1
  C  C125  1  0.44999917  0.87146850  0.27913199  1
  C  C126  1  0.49559302  0.87174209  0.76865111  1
  C  C127  1  0.49441289  0.62378886  0.71815963  1
  C  C128  1  0.99396001  0.12763313  0.23043787  1
  C  C129  1  0.01217573  0.12092123  0.75743293  1
  C  C130  1  0.00742461  0.62962426  0.22879422  1
  C  C131  1  0.98635740  0.62512517  0.71538364  1
  C  C132  1  0.17783677  0.16364512  0.01439670  1
  C  C133  1  0.19321561  0.16387494  0.54261230  1
  C  C134  1  0.21968695  0.64807269  0.06554774  1
  C  C135  1  0.21444956  0.61716660  0.51754928  1
  C  C136  1  0.75688229  0.12256599  0.03145046  1
  C  C137  1  0.74727713  0.12367367  0.54020052  1
  C  C138  1  0.74287286  0.62593555  0.04210087  1
  C  C139  1  0.75026736  0.62528861  0.54601247  1
  C  C140  1  0.27656180  0.35242740  0.50811535  1
  C  C141  1  0.29300166  0.33859479  0.01016464  1
  C  C142  1  0.28875129  0.88890576  0.48921810  1
  C  C143  1  0.29881811  0.86972506  0.03278659  1
  C  C144  1  0.73665138  0.37190337  0.47006776  1
  C  C145  1  0.75443754  0.37661638  0.97778230  1
  C  C146  1  0.75146746  0.87082525  0.45801392  1
  C  C147  1  0.74856868  0.87057625  0.95605206  1
