# generated using pymatgen
data_Cu5(NiC10)3
_symmetry_space_group_name_H-M   'P 1'
_cell_length_a   10.93346609
_cell_length_b   15.60233567
_cell_length_c   10.94742167
_cell_angle_alpha   89.73393220
_cell_angle_beta   91.40117398
_cell_angle_gamma   90.38316047
_symmetry_Int_Tables_number   1
_chemical_formula_structural   Cu5(NiC10)3
_chemical_formula_sum   'Cu20 Ni12 C120'
_cell_volume   1866.87558104
_cell_formula_units_Z   4
loop_
 _symmetry_equiv_pos_site_id
 _symmetry_equiv_pos_as_xyz
  1  'x, y, z'
loop_
 _atom_site_type_symbol
 _atom_site_label
 _atom_site_symmetry_multiplicity
 _atom_site_fract_x
 _atom_site_fract_y
 _atom_site_fract_z
 _atom_site_occupancy
  C  C0  1  0.97983529  0.11620612  0.51939877  1
  C  C1  1  0.98201357  0.11749425  0.01913901  1
  C  C2  1  0.01214269  0.62549601  0.50649293  1
  C  C3  1  0.00463250  0.62459184  0.99144469  1
  C  C4  1  0.54219125  0.11956671  0.48707859  1
  C  C5  1  0.54170226  0.12266914  0.98647430  1
  C  C6  1  0.52470632  0.62384699  0.50415174  1
  C  C7  1  0.52824150  0.62371256  0.00152513  1
  C  C8  1  0.49849567  0.39028684  0.00120010  1
  C  C9  1  0.49605824  0.39196560  0.50456772  1
  C  C10  1  0.50494761  0.85577917  0.99274733  1
  C  C11  1  0.50017487  0.85480633  0.49471434  1
  C  C12  1  0.96617791  0.38962149  0.99786934  1
  C  C13  1  0.96314106  0.38824090  0.50762530  1
  C  C14  1  0.96733564  0.86611924  0.00743524  1
  C  C15  1  0.96820568  0.86675914  0.50796835  1
  C  C16  1  0.23902311  0.39843325  0.26056214  1
  C  C17  1  0.23526389  0.39901375  0.75611347  1
  C  C18  1  0.23372451  0.85872541  0.26114700  1
  C  C19  1  0.23088317  0.85922184  0.75859152  1
  C  C20  1  0.72635692  0.38842651  0.25483146  1
  C  C21  1  0.72904890  0.38912675  0.75595107  1
  C  C22  1  0.72515906  0.86309036  0.24376747  1
  C  C23  1  0.72731314  0.86159883  0.74520984  1
  C  C24  1  0.22335823  0.11848323  0.21973369  1
  C  C25  1  0.22585104  0.11789375  0.72135697  1
  C  C26  1  0.27560887  0.62768680  0.27095005  1
  C  C27  1  0.26739136  0.62727770  0.75415566  1
  C  C28  1  0.77369407  0.12032840  0.25399375  1
  C  C29  1  0.77295241  0.12284791  0.75408156  1
  C  C30  1  0.75701945  0.62429270  0.25496516  1
  C  C31  1  0.76799299  0.62332200  0.75626833  1
  Ni  Ni32  1  0.99106038  0.98999519  0.26019116  1
  Ni  Ni33  1  0.98986786  0.99248536  0.75987384  1
  Ni  Ni34  1  0.99849215  0.50219536  0.25489435  1
  Ni  Ni35  1  0.23730556  0.98933904  0.00607538  1
  Ni  Ni36  1  0.23610351  0.99198055  0.50519383  1
  Ni  Ni37  1  0.24954082  0.50950642  0.01064675  1
  Ni  Ni38  1  0.26477504  0.24002504  0.93037349  1
  Ni  Ni39  1  0.26272764  0.23525710  0.43281080  1
  Ni  Ni40  1  0.25175903  0.74437422  0.00942549  1
  Ni  Ni41  1  0.98504473  0.25674377  0.27297727  1
  Ni  Ni42  1  0.98938074  0.25689936  0.77075473  1
  Ni  Ni43  1  0.00010650  0.74350394  0.25183563  1
  Cu  Cu44  1  0.00139494  0.50228432  0.74974194  1
  Cu  Cu45  1  0.50232359  0.99309832  0.22832431  1
  Cu  Cu46  1  0.50332578  0.99239612  0.72842968  1
  Cu  Cu47  1  0.49771620  0.50264409  0.25639866  1
  Cu  Cu48  1  0.49641293  0.50400937  0.75467493  1
  Cu  Cu49  1  0.25087859  0.50689918  0.50659735  1
  Cu  Cu50  1  0.74411212  0.99640474  0.99199497  1
  Cu  Cu51  1  0.74477870  0.99492037  0.49225700  1
  Cu  Cu52  1  0.74801155  0.50161002  0.00436705  1
  Cu  Cu53  1  0.74718778  0.50274870  0.50644105  1
  Cu  Cu54  1  0.25062897  0.74889591  0.50840084  1
  Cu  Cu55  1  0.74633187  0.25185149  0.00823733  1
  Cu  Cu56  1  0.74466126  0.25118246  0.50620321  1
  Cu  Cu57  1  0.75149450  0.74642552  0.99977023  1
  Cu  Cu58  1  0.75073712  0.74647016  0.50122400  1
  Cu  Cu59  1  0.00108091  0.74848373  0.75140223  1
  Cu  Cu60  1  0.51034153  0.25310330  0.25566013  1
  Cu  Cu61  1  0.51418427  0.25431017  0.75415715  1
  Cu  Cu62  1  0.49844298  0.74568484  0.25445469  1
  Cu  Cu63  1  0.49818144  0.74524412  0.75231803  1
  C  C64  1  0.10956717  0.77737004  0.10981903  1
  C  C65  1  0.10956346  0.77702239  0.60665179  1
  C  C66  1  0.56000062  0.25370750  0.08830773  1
  C  C67  1  0.58036186  0.25373988  0.58686895  1
  C  C68  1  0.60803211  0.76193511  0.11371963  1
  C  C69  1  0.61215465  0.76141371  0.61047284  1
  C  C70  1  0.39094826  0.17790656  0.35721793  1
  C  C71  1  0.39116413  0.18049877  0.85325255  1
  C  C72  1  0.39738219  0.72882368  0.40417233  1
  C  C73  1  0.39036027  0.72807672  0.90892178  1
  C  C74  1  0.91706732  0.24133346  0.42090020  1
  C  C75  1  0.92993858  0.24319245  0.92037733  1
  C  C76  1  0.89860239  0.72949451  0.39023285  1
  C  C77  1  0.89420181  0.73307199  0.89546560  1
  C  C78  1  0.17127512  0.25305374  0.29031458  1
  C  C79  1  0.17380907  0.25233224  0.78605350  1
  C  C80  1  0.14973922  0.73666535  0.35671846  1
  C  C81  1  0.14700206  0.73434695  0.86024938  1
  C  C82  1  0.65921784  0.22598533  0.35181628  1
  C  C83  1  0.66188008  0.22577755  0.85416361  1
  C  C84  1  0.64373374  0.72833467  0.35680297  1
  C  C85  1  0.64361031  0.72630557  0.86096808  1
  C  C86  1  0.35219133  0.76243308  0.15407832  1
  C  C87  1  0.35147319  0.76783898  0.65072341  1
  C  C88  1  0.85556520  0.27264568  0.16253920  1
  C  C89  1  0.85670873  0.27055552  0.66077330  1
  C  C90  1  0.86050913  0.77120980  0.14415578  1
  C  C91  1  0.86178480  0.77255044  0.64392775  1
  C  C92  1  0.35631247  0.48690045  0.14744633  1
  C  C93  1  0.35364028  0.48676363  0.64885537  1
  C  C94  1  0.36401054  0.03596654  0.10810250  1
  C  C95  1  0.36567796  0.03585601  0.60812770  1
  C  C96  1  0.86213063  0.47942945  0.14348369  1
  C  C97  1  0.85989535  0.47802601  0.64593877  1
  C  C98  1  0.86142990  0.97921928  0.14895440  1
  C  C99  1  0.86047187  0.97925700  0.64773348  1
  C  C100  1  0.16773317  0.01470055  0.35200820  1
  C  C101  1  0.17040714  0.01632287  0.85505528  1
  C  C102  1  0.15121436  0.51609365  0.35497525  1
  C  C103  1  0.14692030  0.51680647  0.85902048  1
  C  C104  1  0.63572835  0.02808990  0.34650973  1
  C  C105  1  0.63424074  0.03002905  0.84541957  1
  C  C106  1  0.64189883  0.51935781  0.36047699  1
  C  C107  1  0.64000233  0.52186111  0.86298216  1
  C  C108  1  0.39341011  0.51800478  0.40397811  1
  C  C109  1  0.38824534  0.51762825  0.90350840  1
  C  C110  1  0.89601224  0.01310468  0.39618102  1
  C  C111  1  0.89428633  0.01492079  0.89574840  1
  C  C112  1  0.90109423  0.51808835  0.38930695  1
  C  C113  1  0.89639541  0.51423704  0.88936192  1
  C  C114  1  0.11346896  0.46850435  0.10523942  1
  C  C115  1  0.10862821  0.47630109  0.60329470  1
  C  C116  1  0.10917939  0.98477749  0.10858578  1
  C  C117  1  0.10961838  0.98392462  0.60900505  1
  C  C118  1  0.60628676  0.48603116  0.12118591  1
  C  C119  1  0.60537233  0.48822185  0.62088464  1
  C  C120  1  0.60216424  0.98247961  0.08232513  1
  C  C121  1  0.60260179  0.98133063  0.58201590  1
  C  C122  1  0.01328345  0.37628618  0.29306465  1
  C  C123  1  0.01640970  0.37623322  0.78458897  1
  C  C124  1  0.01462199  0.87616496  0.29460247  1
  C  C125  1  0.01751491  0.87966893  0.79747356  1
  C  C126  1  0.49229954  0.37773256  0.28696655  1
  C  C127  1  0.49714999  0.37903364  0.78364481  1
  C  C128  1  0.49809727  0.87046420  0.28150594  1
  C  C129  1  0.50071176  0.86960915  0.78144854  1
  C  C130  1  0.48751085  0.62484897  0.21554889  1
  C  C131  1  0.48186793  0.62534762  0.71571438  1
  C  C132  1  0.99859033  0.13041989  0.23171938  1
  C  C133  1  0.99974771  0.12844357  0.73083270  1
  C  C134  1  0.99951308  0.62487235  0.21005897  1
  C  C135  1  0.99362585  0.62220309  0.71700537  1
  C  C136  1  0.18522189  0.16761345  0.02898906  1
  C  C137  1  0.18405258  0.15863705  0.52668422  1
  C  C138  1  0.22669785  0.62479779  0.04850717  1
  C  C139  1  0.22982826  0.63156880  0.54054514  1
  C  C140  1  0.75672335  0.12701430  0.04144439  1
  C  C141  1  0.75536961  0.12567087  0.53804641  1
  C  C142  1  0.75340273  0.62368739  0.04153008  1
  C  C143  1  0.75076073  0.62457112  0.54043880  1
  C  C144  1  0.29048782  0.34090468  0.49193210  1
  C  C145  1  0.28620271  0.35021951  0.97796402  1
  C  C146  1  0.28128956  0.88266040  0.47429587  1
  C  C147  1  0.28178966  0.87986794  0.97608389  1
  C  C148  1  0.74629952  0.37659233  0.47018044  1
  C  C149  1  0.74517573  0.37669738  0.97057619  1
  C  C150  1  0.75200274  0.86974466  0.45876301  1
  C  C151  1  0.74885416  0.87038010  0.96060013  1
