# generated using pymatgen
data_Cu12Ni2C5
_symmetry_space_group_name_H-M   'P 1'
_cell_length_a   10.00941300
_cell_length_b   10.00941300
_cell_length_c   10.00941300
_cell_angle_alpha   90.00000000
_cell_angle_beta   90.00000000
_cell_angle_gamma   90.00000000
_symmetry_Int_Tables_number   1
_chemical_formula_structural   Cu12Ni2C5
_chemical_formula_sum   'Cu48 Ni8 C20'
_cell_volume   1002.82655897
_cell_formula_units_Z   4
loop_
 _symmetry_equiv_pos_site_id
 _symmetry_equiv_pos_as_xyz
  1  'x, y, z'
loop_
 _atom_site_type_symbol
 _atom_site_label
 _atom_site_symmetry_multiplicity
 _atom_site_fract_x
 _atom_site_fract_y
 _atom_site_fract_z
 _atom_site_occupancy
  C  C0  1  0.33631900  0.33631900  0.33631900  1
  C  C1  1  0.16368100  0.66368100  0.83631900  1
  C  C2  1  0.66368100  0.83631900  0.16368100  1
  C  C3  1  0.83631900  0.16368100  0.66368100  1
  C  C4  1  0.59902300  0.59902300  0.59902300  1
  C  C5  1  0.90097700  0.40097700  0.09902300  1
  C  C6  1  0.40097700  0.09902300  0.90097700  1
  C  C7  1  0.09902300  0.90097700  0.40097700  1
  C  C8  1  0.01711400  0.21624400  0.37554100  1
  C  C9  1  0.48288600  0.78375600  0.87554100  1
  C  C10  1  0.98288600  0.71624400  0.12445900  1
  C  C11  1  0.37554100  0.01711400  0.21624400  1
  C  C12  1  0.51711400  0.28375600  0.62445900  1
  C  C13  1  0.87554100  0.48288600  0.78375600  1
  C  C14  1  0.12445900  0.98288600  0.71624400  1
  C  C15  1  0.62445900  0.51711400  0.28375600  1
  C  C16  1  0.21624400  0.37554100  0.01711400  1
  C  C17  1  0.71624400  0.12445900  0.98288600  1
  C  C18  1  0.28375600  0.62445900  0.51711400  1
  C  C19  1  0.78375600  0.87554100  0.48288600  1
  Ni  Ni20  1  0.04807000  0.04807000  0.04807000  1
  Ni  Ni21  1  0.45193000  0.95193000  0.54807000  1
  Ni  Ni22  1  0.95193000  0.54807000  0.45193000  1
  Ni  Ni23  1  0.54807000  0.45193000  0.95193000  1
  Ni  Ni24  1  0.81627500  0.81627500  0.81627500  1
  Ni  Ni25  1  0.68372500  0.18372500  0.31627500  1
  Ni  Ni26  1  0.18372500  0.31627500  0.68372500  1
  Ni  Ni27  1  0.31627500  0.68372500  0.18372500  1
  Cu  Cu28  1  0.01194900  0.07424300  0.33124200  1
  Cu  Cu29  1  0.48805100  0.92575700  0.83124200  1
  Cu  Cu30  1  0.98805100  0.57424300  0.16875800  1
  Cu  Cu31  1  0.33124200  0.01194900  0.07424300  1
  Cu  Cu32  1  0.51194900  0.42575700  0.66875800  1
  Cu  Cu33  1  0.83124200  0.48805100  0.92575700  1
  Cu  Cu34  1  0.16875800  0.98805100  0.57424300  1
  Cu  Cu35  1  0.66875800  0.51194900  0.42575700  1
  Cu  Cu36  1  0.07424300  0.33124200  0.01194900  1
  Cu  Cu37  1  0.57424300  0.16875800  0.98805100  1
  Cu  Cu38  1  0.42575700  0.66875800  0.51194900  1
  Cu  Cu39  1  0.92575700  0.83124200  0.48805100  1
  Cu  Cu40  1  0.26718100  0.49950400  0.44044700  1
  Cu  Cu41  1  0.23281900  0.50049600  0.94044700  1
  Cu  Cu42  1  0.73281900  0.99950400  0.05955300  1
  Cu  Cu43  1  0.44044700  0.26718100  0.49950400  1
  Cu  Cu44  1  0.76718100  0.00049600  0.55955300  1
  Cu  Cu45  1  0.94044700  0.23281900  0.50049600  1
  Cu  Cu46  1  0.05955300  0.73281900  0.99950400  1
  Cu  Cu47  1  0.55955300  0.76718100  0.00049600  1
  Cu  Cu48  1  0.49950400  0.44044700  0.26718100  1
  Cu  Cu49  1  0.99950400  0.05955300  0.73281900  1
  Cu  Cu50  1  0.00049600  0.55955300  0.76718100  1
  Cu  Cu51  1  0.50049600  0.94044700  0.23281900  1
  Cu  Cu52  1  0.04156600  0.80350000  0.22672300  1
  Cu  Cu53  1  0.45843400  0.19650000  0.72672300  1
  Cu  Cu54  1  0.95843400  0.30350000  0.27327700  1
  Cu  Cu55  1  0.22672300  0.04156600  0.80350000  1
  Cu  Cu56  1  0.54156600  0.69650000  0.77327700  1
  Cu  Cu57  1  0.72672300  0.45843400  0.19650000  1
  Cu  Cu58  1  0.27327700  0.95843400  0.30350000  1
  Cu  Cu59  1  0.77327700  0.54156600  0.69650000  1
  Cu  Cu60  1  0.80350000  0.22672300  0.04156600  1
  Cu  Cu61  1  0.30350000  0.27327700  0.95843400  1
  Cu  Cu62  1  0.69650000  0.77327700  0.54156600  1
  Cu  Cu63  1  0.19650000  0.72672300  0.45843400  1
  Cu  Cu64  1  0.15807500  0.25285700  0.40109400  1
  Cu  Cu65  1  0.34192500  0.74714300  0.90109400  1
  Cu  Cu66  1  0.84192500  0.75285700  0.09890600  1
  Cu  Cu67  1  0.40109400  0.15807500  0.25285700  1
  Cu  Cu68  1  0.65807500  0.24714300  0.59890600  1
  Cu  Cu69  1  0.90109400  0.34192500  0.74714300  1
  Cu  Cu70  1  0.09890600  0.84192500  0.75285700  1
  Cu  Cu71  1  0.59890600  0.65807500  0.24714300  1
  Cu  Cu72  1  0.25285700  0.40109400  0.15807500  1
  Cu  Cu73  1  0.75285700  0.09890600  0.84192500  1
  Cu  Cu74  1  0.24714300  0.59890600  0.65807500  1
  Cu  Cu75  1  0.74714300  0.90109400  0.34192500  1
