# generated using pymatgen
data_Cu13Ni3C7
_symmetry_space_group_name_H-M   'P 1'
_cell_length_a   6.16752700
_cell_length_b   6.19914308
_cell_length_c   10.59866803
_cell_angle_alpha   106.70736733
_cell_angle_beta   90.56336224
_cell_angle_gamma   118.57239847
_symmetry_Int_Tables_number   1
_chemical_formula_structural   Cu13Ni3C7
_chemical_formula_sum   'Cu13 Ni3 C7'
_cell_volume   335.58026720
_cell_formula_units_Z   1
loop_
 _symmetry_equiv_pos_site_id
 _symmetry_equiv_pos_as_xyz
  1  'x, y, z'
loop_
 _atom_site_type_symbol
 _atom_site_label
 _atom_site_symmetry_multiplicity
 _atom_site_fract_x
 _atom_site_fract_y
 _atom_site_fract_z
 _atom_site_occupancy
  C  C0  1  0.73400100  0.23415600  0.26347800  1
  C  C1  1  0.47008300  0.48921600  0.99459700  1
  C  C2  1  0.24335200  0.26059300  0.75133200  1
  C  C3  1  0.75441500  0.73421600  0.74793500  1
  C  C4  1  0.73399500  0.73660900  0.25927300  1
  C  C5  1  0.01770900  0.99751200  0.49476200  1
  C  C6  1  0.81774600  0.21015800  0.92778000  1
  Ni  Ni7  1  0.63535000  0.40815000  0.87063100  1
  Ni  Ni8  1  0.68534900  0.90773400  0.36523400  1
  Ni  Ni9  1  0.12153200  0.35070000  0.88507200  1
  Cu  Cu10  1  0.43505100  0.16073100  0.13130800  1
  Cu  Cu11  1  0.83927800  0.59154000  0.14820300  1
  Cu  Cu12  1  0.87436400  0.07954700  0.62283700  1
  Cu  Cu13  1  0.41310400  0.62372000  0.65473600  1
  Cu  Cu14  1  0.07452300  0.32744100  0.37310000  1
  Cu  Cu15  1  0.84545300  0.10878500  0.12672800  1
  Cu  Cu16  1  0.32262700  0.12915800  0.61557700  1
  Cu  Cu17  1  0.43767700  0.65523800  0.12483700  1
  Cu  Cu18  1  0.08680700  0.89109700  0.84917400  1
  Cu  Cu19  1  0.64541000  0.39478700  0.36182400  1
  Cu  Cu20  1  0.87985000  0.67142000  0.61886600  1
  Cu  Cu21  1  0.08012800  0.85956300  0.37090800  1
  Cu  Cu22  1  0.65312300  0.87528200  0.87593600  1
