# generated using pymatgen
data_Cu8(NiC4)3
_symmetry_space_group_name_H-M   'P 1'
_cell_length_a   9.49297550
_cell_length_b   15.19007984
_cell_length_c   15.53831985
_cell_angle_alpha   90.00000000
_cell_angle_beta   90.00000000
_cell_angle_gamma   90.00000000
_symmetry_Int_Tables_number   1
_chemical_formula_structural   Cu8(NiC4)3
_chemical_formula_sum   'Cu64 Ni24 C96'
_cell_volume   2240.61105053
_cell_formula_units_Z   8
loop_
 _symmetry_equiv_pos_site_id
 _symmetry_equiv_pos_as_xyz
  1  'x, y, z'
loop_
 _atom_site_type_symbol
 _atom_site_label
 _atom_site_symmetry_multiplicity
 _atom_site_fract_x
 _atom_site_fract_y
 _atom_site_fract_z
 _atom_site_occupancy
  C  C0  1  0.94408455  0.94081262  0.34880466  1
  C  C1  1  0.44408455  0.05918738  0.15119534  1
  C  C2  1  0.05591545  0.55918738  0.84880466  1
  C  C3  1  0.55591545  0.44081262  0.65119534  1
  C  C4  1  0.05591545  0.05918738  0.65119534  1
  C  C5  1  0.55591545  0.94081262  0.84880466  1
  C  C6  1  0.94408455  0.44081262  0.15119534  1
  C  C7  1  0.44408455  0.55918738  0.34880466  1
  C  C8  1  0.05298836  0.04555737  0.15739687  1
  C  C9  1  0.55298836  0.95444263  0.34260313  1
  C  C10  1  0.94701164  0.45444263  0.65739687  1
  C  C11  1  0.44701164  0.54555737  0.84260313  1
  C  C12  1  0.94701164  0.95444263  0.84260313  1
  C  C13  1  0.44701164  0.04555737  0.65739687  1
  C  C14  1  0.05298836  0.54555737  0.34260313  1
  C  C15  1  0.55298836  0.45444263  0.15739687  1
  Ni  Ni16  1  0.26468397  0.01177021  0.46670292  1
  Ni  Ni17  1  0.76468397  0.98822979  0.03329708  1
  Ni  Ni18  1  0.73531603  0.48822979  0.96670292  1
  Ni  Ni19  1  0.23531603  0.51177021  0.53329708  1
  Ni  Ni20  1  0.73531603  0.98822979  0.53329708  1
  Ni  Ni21  1  0.23531603  0.01177021  0.96670292  1
  Ni  Ni22  1  0.26468397  0.51177021  0.03329708  1
  Ni  Ni23  1  0.76468397  0.48822979  0.46670292  1
  Ni  Ni24  1  0.75933494  0.12152372  0.27304851  1
  Ni  Ni25  1  0.25933494  0.87847628  0.22695149  1
  Ni  Ni26  1  0.24066506  0.37847628  0.77304851  1
  Ni  Ni27  1  0.74066506  0.62152372  0.72695149  1
  Ni  Ni28  1  0.24066506  0.87847628  0.72695149  1
  Ni  Ni29  1  0.74066506  0.12152372  0.77304851  1
  Ni  Ni30  1  0.75933494  0.62152372  0.22695149  1
  Ni  Ni31  1  0.25933494  0.37847628  0.27304851  1
  Ni  Ni32  1  0.03348973  0.74386438  0.46666216  1
  Ni  Ni33  1  0.53348973  0.25613562  0.03333784  1
  Ni  Ni34  1  0.96651027  0.75613562  0.96666216  1
  Ni  Ni35  1  0.46651027  0.24386438  0.53333784  1
  Ni  Ni36  1  0.96651027  0.25613562  0.53333784  1
  Ni  Ni37  1  0.46651027  0.74386438  0.96666216  1
  Ni  Ni38  1  0.03348973  0.24386438  0.03333784  1
  Ni  Ni39  1  0.53348973  0.75613562  0.46666216  1
  Cu  Cu40  1  0.24688257  0.92215917  0.44669870  1
  Cu  Cu41  1  0.74688257  0.07784083  0.05330130  1
  Cu  Cu42  1  0.75311743  0.57784083  0.94669870  1
  Cu  Cu43  1  0.25311743  0.42215917  0.55330130  1
  Cu  Cu44  1  0.75311743  0.07784083  0.55330130  1
  Cu  Cu45  1  0.25311743  0.92215917  0.94669870  1
  Cu  Cu46  1  0.24688257  0.42215917  0.05330130  1
  Cu  Cu47  1  0.74688257  0.57784083  0.44669870  1
  Cu  Cu48  1  0.75875853  0.16250204  0.35425099  1
  Cu  Cu49  1  0.25875853  0.83749796  0.14574901  1
  Cu  Cu50  1  0.24124147  0.33749796  0.85425099  1
  Cu  Cu51  1  0.74124147  0.66250204  0.64574901  1
  Cu  Cu52  1  0.24124147  0.83749796  0.64574901  1
  Cu  Cu53  1  0.74124147  0.16250204  0.85425099  1
  Cu  Cu54  1  0.75875853  0.66250204  0.14574901  1
  Cu  Cu55  1  0.25875853  0.33749796  0.35425099  1
  Cu  Cu56  1  0.18160973  0.74243991  0.45973490  1
  Cu  Cu57  1  0.68160973  0.25756009  0.04026510  1
  Cu  Cu58  1  0.81839027  0.75756009  0.95973490  1
  Cu  Cu59  1  0.31839027  0.24243991  0.54026510  1
  Cu  Cu60  1  0.81839027  0.25756009  0.54026510  1
  Cu  Cu61  1  0.31839027  0.74243991  0.95973490  1
  Cu  Cu62  1  0.18160973  0.24243991  0.04026510  1
  Cu  Cu63  1  0.68160973  0.75756009  0.45973490  1
  Cu  Cu64  1  0.08064679  0.10174377  0.46706904  1
  Cu  Cu65  1  0.58064679  0.89825623  0.03293096  1
  Cu  Cu66  1  0.91935321  0.39825623  0.96706904  1
  Cu  Cu67  1  0.41935321  0.60174377  0.53293096  1
  Cu  Cu68  1  0.91935321  0.89825623  0.53293096  1
  Cu  Cu69  1  0.41935321  0.10174377  0.96706904  1
  Cu  Cu70  1  0.08064679  0.60174377  0.03293096  1
  Cu  Cu71  1  0.58064679  0.39825623  0.46706904  1
  Cu  Cu72  1  0.85008094  0.19891913  0.16550061  1
  Cu  Cu73  1  0.35008094  0.80108087  0.33449939  1
  Cu  Cu74  1  0.14991906  0.30108087  0.66550061  1
  Cu  Cu75  1  0.64991906  0.69891913  0.83449939  1
  Cu  Cu76  1  0.14991906  0.80108087  0.83449939  1
  Cu  Cu77  1  0.64991906  0.19891913  0.66550061  1
  Cu  Cu78  1  0.85008094  0.69891913  0.33449939  1
  Cu  Cu79  1  0.35008094  0.30108087  0.16550061  1
  Cu  Cu80  1  0.03835409  0.64571577  0.57040931  1
  Cu  Cu81  1  0.53835409  0.35428423  0.92959069  1
  Cu  Cu82  1  0.96164591  0.85428423  0.07040931  1
  Cu  Cu83  1  0.46164591  0.14571577  0.42959069  1
  Cu  Cu84  1  0.96164591  0.35428423  0.42959069  1
  Cu  Cu85  1  0.46164591  0.64571577  0.07040931  1
  Cu  Cu86  1  0.03835409  0.14571577  0.92959069  1
  Cu  Cu87  1  0.53835409  0.85428423  0.57040931  1
  Cu  Cu88  1  0.73455044  0.81527164  0.26575643  1
  Cu  Cu89  1  0.23455044  0.18472836  0.23424357  1
  Cu  Cu90  1  0.26544956  0.68472836  0.76575643  1
  Cu  Cu91  1  0.76544956  0.31527164  0.73424357  1
  Cu  Cu92  1  0.26544956  0.18472836  0.73424357  1
  Cu  Cu93  1  0.76544956  0.81527164  0.76575643  1
  Cu  Cu94  1  0.73455044  0.31527164  0.23424357  1
  Cu  Cu95  1  0.23455044  0.68472836  0.26575643  1
  Cu  Cu96  1  0.73650300  0.89851297  0.20405296  1
  Cu  Cu97  1  0.23650300  0.10148703  0.29594704  1
  Cu  Cu98  1  0.26349700  0.60148703  0.70405296  1
  Cu  Cu99  1  0.76349700  0.39851297  0.79594704  1
  Cu  Cu100  1  0.26349700  0.10148703  0.79594704  1
  Cu  Cu101  1  0.76349700  0.89851297  0.70405296  1
  Cu  Cu102  1  0.73650300  0.39851297  0.29594704  1
  Cu  Cu103  1  0.23650300  0.60148703  0.20405296  1
  C  C104  1  0.12613800  0.05527992  0.42709211  1
  C  C105  1  0.62613800  0.94472008  0.07290789  1
  C  C106  1  0.87386200  0.44472008  0.92709211  1
  C  C107  1  0.37386200  0.55527992  0.57290789  1
  C  C108  1  0.87386200  0.94472008  0.57290789  1
  C  C109  1  0.37386200  0.05527992  0.92709211  1
  C  C110  1  0.12613800  0.55527992  0.07290789  1
  C  C111  1  0.62613800  0.44472008  0.42709211  1
  C  C112  1  0.39471873  0.04458600  0.41767386  1
  C  C113  1  0.89471873  0.95541400  0.08232614  1
  C  C114  1  0.60528127  0.45541400  0.91767386  1
  C  C115  1  0.10528127  0.54458600  0.58232614  1
  C  C116  1  0.60528127  0.95541400  0.58232614  1
  C  C117  1  0.10528127  0.04458600  0.91767386  1
  C  C118  1  0.39471873  0.54458600  0.08232614  1
  C  C119  1  0.89471873  0.45541400  0.41767386  1
  C  C120  1  0.26608585  0.02459164  0.56370690  1
  C  C121  1  0.76608585  0.97540836  0.93629310  1
  C  C122  1  0.73391415  0.47540836  0.06370690  1
  C  C123  1  0.23391415  0.52459164  0.43629310  1
  C  C124  1  0.73391415  0.97540836  0.43629310  1
  C  C125  1  0.23391415  0.02459164  0.06370690  1
  C  C126  1  0.26608585  0.52459164  0.93629310  1
  C  C127  1  0.76608585  0.47540836  0.56370690  1
  C  C128  1  0.76654543  0.20308841  0.20747198  1
  C  C129  1  0.26654543  0.79691159  0.29252802  1
  C  C130  1  0.23345457  0.29691159  0.70747198  1
  C  C131  1  0.73345457  0.70308841  0.79252802  1
  C  C132  1  0.23345457  0.79691159  0.79252802  1
  C  C133  1  0.73345457  0.20308841  0.70747198  1
  C  C134  1  0.76654543  0.70308841  0.29252802  1
  C  C135  1  0.26654543  0.29691159  0.20747198  1
  C  C136  1  0.89204938  0.06621656  0.26441426  1
  C  C137  1  0.39204938  0.93378344  0.23558574  1
  C  C138  1  0.10795062  0.43378344  0.76441426  1
  C  C139  1  0.60795062  0.56621656  0.73558574  1
  C  C140  1  0.10795062  0.93378344  0.73558574  1
  C  C141  1  0.60795062  0.06621656  0.76441426  1
  C  C142  1  0.89204938  0.56621656  0.23558574  1
  C  C143  1  0.39204938  0.43378344  0.26441426  1
  C  C144  1  0.61953791  0.07431982  0.26037410  1
  C  C145  1  0.11953791  0.92568018  0.23962590  1
  C  C146  1  0.38046209  0.42568018  0.76037410  1
  C  C147  1  0.88046209  0.57431982  0.73962590  1
  C  C148  1  0.38046209  0.92568018  0.73962590  1
  C  C149  1  0.88046209  0.07431982  0.76037410  1
  C  C150  1  0.61953791  0.57431982  0.23962590  1
  C  C151  1  0.11953791  0.42568018  0.26037410  1
  C  C152  1  0.00084402  0.70711786  0.56032697  1
  C  C153  1  0.50084402  0.29288214  0.93967303  1
  C  C154  1  0.99915598  0.79288214  0.06032697  1
  C  C155  1  0.49915598  0.20711786  0.43967303  1
  C  C156  1  0.99915598  0.29288214  0.43967303  1
  C  C157  1  0.49915598  0.70711786  0.06032697  1
  C  C158  1  0.00084402  0.20711786  0.93967303  1
  C  C159  1  0.50084402  0.79288214  0.56032697  1
  C  C160  1  0.98013150  0.83777242  0.46186191  1
  C  C161  1  0.48013150  0.16222758  0.03813809  1
  C  C162  1  0.01986850  0.66222758  0.96186191  1
  C  C163  1  0.51986850  0.33777242  0.53813809  1
  C  C164  1  0.01986850  0.16222758  0.53813809  1
  C  C165  1  0.51986850  0.83777242  0.96186191  1
  C  C166  1  0.98013150  0.33777242  0.03813809  1
  C  C167  1  0.48013150  0.66222758  0.46186191  1
  C  C168  1  0.97657991  0.68198172  0.39647544  1
  C  C169  1  0.47657991  0.31801828  0.10352456  1
  C  C170  1  0.02342009  0.81801828  0.89647544  1
  C  C171  1  0.52342009  0.18198172  0.60352456  1
  C  C172  1  0.02342009  0.31801828  0.60352456  1
  C  C173  1  0.52342009  0.68198172  0.89647544  1
  C  C174  1  0.97657991  0.18198172  0.10352456  1
  C  C175  1  0.47657991  0.81801828  0.39647544  1
  C  C176  1  0.73827155  0.88048201  0.26449581  1
  C  C177  1  0.23827155  0.11951799  0.23550419  1
  C  C178  1  0.26172845  0.61951799  0.76449581  1
  C  C179  1  0.76172845  0.38048201  0.73550419  1
  C  C180  1  0.26172845  0.11951799  0.73550419  1
  C  C181  1  0.76172845  0.88048201  0.76449581  1
  C  C182  1  0.73827155  0.38048201  0.23550419  1
  C  C183  1  0.23827155  0.61951799  0.26449581  1
