# generated using pymatgen
data_Cu7Ni7C9
_symmetry_space_group_name_H-M   'P 1'
_cell_length_a   13.28760200
_cell_length_b   9.46421000
_cell_length_c   11.38418130
_cell_angle_alpha   73.37804707
_cell_angle_beta   90.00000000
_cell_angle_gamma   90.00000000
_symmetry_Int_Tables_number   1
_chemical_formula_structural   Cu7Ni7C9
_chemical_formula_sum   'Cu14 Ni14 C18'
_cell_volume   1371.81283203
_cell_formula_units_Z   2
loop_
 _symmetry_equiv_pos_site_id
 _symmetry_equiv_pos_as_xyz
  1  'x, y, z'
loop_
 _atom_site_type_symbol
 _atom_site_label
 _atom_site_symmetry_multiplicity
 _atom_site_fract_x
 _atom_site_fract_y
 _atom_site_fract_z
 _atom_site_occupancy
  C  C0  1  0.25937200  0.97568000  0.88573600  1
  C  C1  1  0.75937200  0.02432000  0.11426400  1
  C  C2  1  0.74050300  0.02616100  0.61311700  1
  C  C3  1  0.24050300  0.97383900  0.38688300  1
  C  C4  1  0.99891800  0.49970700  0.25031800  1
  C  C5  1  0.49891800  0.50029300  0.74968200  1
  C  C6  1  0.12240200  0.59932400  0.72533400  1
  C  C7  1  0.62240200  0.40067600  0.27466600  1
  C  C8  1  0.87990600  0.39803800  0.77491300  1
  C  C9  1  0.37990600  0.60196200  0.22508700  1
  C  C10  1  0.04313800  0.38496500  0.65201500  1
  C  C11  1  0.54313800  0.61503500  0.34798500  1
  C  C12  1  0.95991700  0.61401000  0.84894500  1
  C  C13  1  0.45991700  0.38599000  0.15105500  1
  C  C14  1  0.05305400  0.36253100  0.88651500  1
  C  C15  1  0.55305400  0.63746900  0.11348500  1
  C  C16  1  0.94986700  0.63670200  0.61226100  1
  C  C17  1  0.44986700  0.36329800  0.38773900  1
  Ni  Ni18  1  0.97477900  0.17745000  0.80758800  1
  Ni  Ni19  1  0.47477900  0.82255000  0.19241200  1
  Ni  Ni20  1  0.02459400  0.82386500  0.69197500  1
  Ni  Ni21  1  0.52459400  0.17613500  0.30802500  1
  Ni  Ni22  1  0.12104500  0.57121100  0.94275400  1
  Ni  Ni23  1  0.62104500  0.42878900  0.05724600  1
  Ni  Ni24  1  0.87810100  0.42954000  0.55665500  1
  Ni  Ni25  1  0.37810100  0.57046000  0.44334500  1
  Ni  Ni26  1  0.89676700  0.38753200  0.98875400  1
  Ni  Ni27  1  0.39676700  0.61246800  0.01124600  1
  Ni  Ni28  1  0.10253500  0.61299900  0.51140200  1
  Ni  Ni29  1  0.60253500  0.38700100  0.48859800  1
  Ni  Ni30  1  0.20128600  0.36041400  0.76224300  1
  Ni  Ni31  1  0.70128600  0.63958600  0.23775700  1
  Cu  Cu32  1  0.28105000  0.73844800  0.69026800  1
  Cu  Cu33  1  0.78105000  0.26155200  0.30973200  1
  Cu  Cu34  1  0.72014000  0.26318500  0.80903200  1
  Cu  Cu35  1  0.22014000  0.73681500  0.19096800  1
  Cu  Cu36  1  0.11486200  0.17946800  0.06894200  1
  Cu  Cu37  1  0.61486200  0.82053200  0.93105800  1
  Cu  Cu38  1  0.88604300  0.81867900  0.43359900  1
  Cu  Cu39  1  0.38604300  0.18132100  0.56640100  1
  Cu  Cu40  1  0.09409400  0.23356700  0.52225000  1
  Cu  Cu41  1  0.59409400  0.76643300  0.47775000  1
  Cu  Cu42  1  0.90667500  0.76517900  0.97561300  1
  Cu  Cu43  1  0.40667500  0.23482100  0.02438700  1
  Cu  Cu44  1  0.79095200  0.64322300  0.73755800  1
  Cu  Cu45  1  0.29095200  0.35677700  0.26244200  1
