# generated using pymatgen
data_Cu4NiC13
_symmetry_space_group_name_H-M   'P 1'
_cell_length_a   15.19213536
_cell_length_b   15.19213536
_cell_length_c   15.19213536
_cell_angle_alpha   90.00000000
_cell_angle_beta   90.00000000
_cell_angle_gamma   90.00000000
_symmetry_Int_Tables_number   1
_chemical_formula_structural   Cu4NiC13
_chemical_formula_sum   'Cu48 Ni12 C156'
_cell_volume   3506.35968071
_cell_formula_units_Z   12
loop_
 _symmetry_equiv_pos_site_id
 _symmetry_equiv_pos_as_xyz
  1  'x, y, z'
loop_
 _atom_site_type_symbol
 _atom_site_label
 _atom_site_symmetry_multiplicity
 _atom_site_fract_x
 _atom_site_fract_y
 _atom_site_fract_z
 _atom_site_occupancy
  C  C0  1  0.00496103  0.32387381  0.32080525  1
  C  C1  1  0.32080525  0.00496103  0.32387381  1
  C  C2  1  0.32387381  0.32080525  0.00496103  1
  C  C3  1  0.17612619  0.67919475  0.50496103  1
  C  C4  1  0.82080525  0.49503897  0.67612619  1
  C  C5  1  0.67612619  0.82080525  0.49503897  1
  C  C6  1  0.17919475  0.99503897  0.82387381  1
  C  C7  1  0.67919475  0.50496103  0.17612619  1
  C  C8  1  0.82387381  0.17919475  0.99503897  1
  C  C9  1  0.50496103  0.17612619  0.67919475  1
  C  C10  1  0.99503897  0.82387381  0.17919475  1
  C  C11  1  0.49503897  0.67612619  0.82080525  1
  C  C12  1  0.99503897  0.67612619  0.67919475  1
  C  C13  1  0.67919475  0.99503897  0.67612619  1
  C  C14  1  0.67612619  0.67919475  0.99503897  1
  C  C15  1  0.82387381  0.32080525  0.49503897  1
  C  C16  1  0.17919475  0.50496103  0.32387381  1
  C  C17  1  0.32387381  0.17919475  0.50496103  1
  C  C18  1  0.82080525  0.00496103  0.17612619  1
  C  C19  1  0.32080525  0.49503897  0.82387381  1
  C  C20  1  0.17612619  0.82080525  0.00496103  1
  C  C21  1  0.49503897  0.82387381  0.32080525  1
  C  C22  1  0.00496103  0.17612619  0.82080525  1
  C  C23  1  0.50496103  0.32387381  0.17919475  1
  C  C24  1  0.94314317  0.22212663  0.43875288  1
  C  C25  1  0.43875288  0.94314317  0.22212663  1
  C  C26  1  0.22212663  0.43875288  0.94314317  1
  C  C27  1  0.27787337  0.56124712  0.44314317  1
  C  C28  1  0.93875288  0.55685683  0.77787337  1
  C  C29  1  0.77787337  0.93875288  0.55685683  1
  C  C30  1  0.06124712  0.05685683  0.72212663  1
  C  C31  1  0.56124712  0.44314317  0.27787337  1
  C  C32  1  0.72212663  0.06124712  0.05685683  1
  C  C33  1  0.44314317  0.27787337  0.56124712  1
  C  C34  1  0.05685683  0.72212663  0.06124712  1
  C  C35  1  0.55685683  0.77787337  0.93875288  1
  C  C36  1  0.05685683  0.77787337  0.56124712  1
  C  C37  1  0.56124712  0.05685683  0.77787337  1
  C  C38  1  0.77787337  0.56124712  0.05685683  1
  C  C39  1  0.72212663  0.43875288  0.55685683  1
  C  C40  1  0.06124712  0.44314317  0.22212663  1
  C  C41  1  0.22212663  0.06124712  0.44314317  1
  C  C42  1  0.93875288  0.94314317  0.27787337  1
  C  C43  1  0.43875288  0.55685683  0.72212663  1
  C  C44  1  0.27787337  0.93875288  0.94314317  1
  C  C45  1  0.55685683  0.72212663  0.43875288  1
  C  C46  1  0.94314317  0.27787337  0.93875288  1
  C  C47  1  0.44314317  0.22212663  0.06124712  1
  C  C48  1  0.01158687  0.15700396  0.30352046  1
  C  C49  1  0.30352046  0.01158687  0.15700396  1
  C  C50  1  0.15700396  0.30352046  0.01158687  1
  C  C51  1  0.34299604  0.69647954  0.51158687  1
  C  C52  1  0.80352046  0.48841313  0.84299604  1
  C  C53  1  0.84299604  0.80352046  0.48841313  1
  C  C54  1  0.19647954  0.98841313  0.65700396  1
  C  C55  1  0.69647954  0.51158687  0.34299604  1
  C  C56  1  0.65700396  0.19647954  0.98841313  1
  C  C57  1  0.51158687  0.34299604  0.69647954  1
  C  C58  1  0.98841313  0.65700396  0.19647954  1
  C  C59  1  0.48841313  0.84299604  0.80352046  1
  C  C60  1  0.98841313  0.84299604  0.69647954  1
  C  C61  1  0.69647954  0.98841313  0.84299604  1
  C  C62  1  0.84299604  0.69647954  0.98841313  1
  C  C63  1  0.65700396  0.30352046  0.48841313  1
  C  C64  1  0.19647954  0.51158687  0.15700396  1
  C  C65  1  0.15700396  0.19647954  0.51158687  1
  C  C66  1  0.80352046  0.01158687  0.34299604  1
  C  C67  1  0.30352046  0.48841313  0.65700396  1
  C  C68  1  0.34299604  0.80352046  0.01158687  1
  C  C69  1  0.48841313  0.65700396  0.30352046  1
  C  C70  1  0.01158687  0.34299604  0.80352046  1
  C  C71  1  0.51158687  0.15700396  0.19647954  1
  C  C72  1  0.86109107  0.24049369  0.29621157  1
  C  C73  1  0.29621157  0.86109107  0.24049369  1
  C  C74  1  0.24049369  0.29621157  0.86109107  1
  C  C75  1  0.25950631  0.70378843  0.36109107  1
  C  C76  1  0.79621157  0.63890893  0.75950631  1
  C  C77  1  0.75950631  0.79621157  0.63890893  1
  C  C78  1  0.20378843  0.13890893  0.74049369  1
  C  C79  1  0.70378843  0.36109107  0.25950631  1
  C  C80  1  0.74049369  0.20378843  0.13890893  1
  C  C81  1  0.36109107  0.25950631  0.70378843  1
  C  C82  1  0.13890893  0.74049369  0.20378843  1
  C  C83  1  0.63890893  0.75950631  0.79621157  1
  C  C84  1  0.13890893  0.75950631  0.70378843  1
  C  C85  1  0.70378843  0.13890893  0.75950631  1
  C  C86  1  0.75950631  0.70378843  0.13890893  1
  C  C87  1  0.74049369  0.29621157  0.63890893  1
  C  C88  1  0.20378843  0.36109107  0.24049369  1
  C  C89  1  0.24049369  0.20378843  0.36109107  1
  C  C90  1  0.79621157  0.86109107  0.25950631  1
  C  C91  1  0.29621157  0.63890893  0.74049369  1
  C  C92  1  0.25950631  0.79621157  0.86109107  1
  C  C93  1  0.63890893  0.74049369  0.29621157  1
  C  C94  1  0.86109107  0.25950631  0.79621157  1
  C  C95  1  0.36109107  0.24049369  0.20378843  1
  C  C96  1  0.97823014  0.48439228  0.36135208  1
  C  C97  1  0.36135208  0.97823014  0.48439228  1
  C  C98  1  0.48439228  0.36135208  0.97823014  1
  C  C99  1  0.01560772  0.63864792  0.47823014  1
  C  C100  1  0.86135208  0.52176986  0.51560772  1
  C  C101  1  0.51560772  0.86135208  0.52176986  1
  C  C102  1  0.13864792  0.02176986  0.98439228  1
  C  C103  1  0.63864792  0.47823014  0.01560772  1
  C  C104  1  0.98439228  0.13864792  0.02176986  1
  C  C105  1  0.47823014  0.01560772  0.63864792  1
  C  C106  1  0.02176986  0.98439228  0.13864792  1
  C  C107  1  0.52176986  0.51560772  0.86135208  1
  C  C108  1  0.02176986  0.51560772  0.63864792  1
  C  C109  1  0.63864792  0.02176986  0.51560772  1
  C  C110  1  0.51560772  0.63864792  0.02176986  1
  C  C111  1  0.98439228  0.36135208  0.52176986  1
  C  C112  1  0.13864792  0.47823014  0.48439228  1
  C  C113  1  0.48439228  0.13864792  0.47823014  1
  C  C114  1  0.86135208  0.97823014  0.01560772  1
  C  C115  1  0.36135208  0.52176986  0.98439228  1
  C  C116  1  0.01560772  0.86135208  0.97823014  1
  C  C117  1  0.52176986  0.98439228  0.36135208  1
  C  C118  1  0.97823014  0.01560772  0.86135208  1
  C  C119  1  0.47823014  0.48439228  0.13864792  1
  C  C120  1  0.89990286  0.42067757  0.22812078  1
  C  C121  1  0.22812078  0.89990286  0.42067757  1
  C  C122  1  0.42067757  0.22812078  0.89990286  1
  C  C123  1  0.07932243  0.77187922  0.39990286  1
  C  C124  1  0.72812078  0.60009714  0.57932243  1
  C  C125  1  0.57932243  0.72812078  0.60009714  1
  C  C126  1  0.27187922  0.10009714  0.92067757  1
  C  C127  1  0.77187922  0.39990286  0.07932243  1
  C  C128  1  0.92067757  0.27187922  0.10009714  1
  C  C129  1  0.39990286  0.07932243  0.77187922  1
  C  C130  1  0.10009714  0.92067757  0.27187922  1
  C  C131  1  0.60009714  0.57932243  0.72812078  1
  C  C132  1  0.10009714  0.57932243  0.77187922  1
  C  C133  1  0.77187922  0.10009714  0.57932243  1
  C  C134  1  0.57932243  0.77187922  0.10009714  1
  C  C135  1  0.92067757  0.22812078  0.60009714  1
  C  C136  1  0.27187922  0.39990286  0.42067757  1
  C  C137  1  0.42067757  0.27187922  0.39990286  1
  C  C138  1  0.72812078  0.89990286  0.07932243  1
  C  C139  1  0.22812078  0.60009714  0.92067757  1
  C  C140  1  0.07932243  0.72812078  0.89990286  1
  C  C141  1  0.60009714  0.92067757  0.22812078  1
  C  C142  1  0.89990286  0.07932243  0.72812078  1
  C  C143  1  0.39990286  0.42067757  0.27187922  1
  Cu  Cu144  1  0.95384936  0.22948146  0.33224726  1
  Cu  Cu145  1  0.33224726  0.95384936  0.22948146  1
  Cu  Cu146  1  0.22948146  0.33224726  0.95384936  1
  Cu  Cu147  1  0.27051854  0.66775274  0.45384936  1
  Cu  Cu148  1  0.83224726  0.54615064  0.77051854  1
  Cu  Cu149  1  0.77051854  0.83224726  0.54615064  1
  Cu  Cu150  1  0.16775274  0.04615064  0.72948146  1
  Cu  Cu151  1  0.66775274  0.45384936  0.27051854  1
  Cu  Cu152  1  0.72948146  0.16775274  0.04615064  1
  Cu  Cu153  1  0.45384936  0.27051854  0.66775274  1
  Cu  Cu154  1  0.04615064  0.72948146  0.16775274  1
  Cu  Cu155  1  0.54615064  0.77051854  0.83224726  1
  Cu  Cu156  1  0.04615064  0.77051854  0.66775274  1
  Cu  Cu157  1  0.66775274  0.04615064  0.77051854  1
  Cu  Cu158  1  0.77051854  0.66775274  0.04615064  1
  Cu  Cu159  1  0.72948146  0.33224726  0.54615064  1
  Cu  Cu160  1  0.16775274  0.45384936  0.22948146  1
  Cu  Cu161  1  0.22948146  0.16775274  0.45384936  1
  Cu  Cu162  1  0.83224726  0.95384936  0.27051854  1
  Cu  Cu163  1  0.33224726  0.54615064  0.72948146  1
  Cu  Cu164  1  0.27051854  0.83224726  0.95384936  1
  Cu  Cu165  1  0.54615064  0.72948146  0.33224726  1
  Cu  Cu166  1  0.95384936  0.27051854  0.83224726  1
  Cu  Cu167  1  0.45384936  0.22948146  0.16775274  1
  Cu  Cu168  1  0.98070194  0.42047829  0.28571332  1
  Cu  Cu169  1  0.28571332  0.98070194  0.42047829  1
  Cu  Cu170  1  0.42047829  0.28571332  0.98070194  1
  Cu  Cu171  1  0.07952171  0.71428668  0.48070194  1
  Cu  Cu172  1  0.78571332  0.51929806  0.57952171  1
  Cu  Cu173  1  0.57952171  0.78571332  0.51929806  1
  Cu  Cu174  1  0.21428668  0.01929806  0.92047829  1
  Cu  Cu175  1  0.71428668  0.48070194  0.07952171  1
  Cu  Cu176  1  0.92047829  0.21428668  0.01929806  1
  Cu  Cu177  1  0.48070194  0.07952171  0.71428668  1
  Cu  Cu178  1  0.01929806  0.92047829  0.21428668  1
  Cu  Cu179  1  0.51929806  0.57952171  0.78571332  1
  Cu  Cu180  1  0.01929806  0.57952171  0.71428668  1
  Cu  Cu181  1  0.71428668  0.01929806  0.57952171  1
  Cu  Cu182  1  0.57952171  0.71428668  0.01929806  1
  Cu  Cu183  1  0.92047829  0.28571332  0.51929806  1
  Cu  Cu184  1  0.21428668  0.48070194  0.42047829  1
  Cu  Cu185  1  0.42047829  0.21428668  0.48070194  1
  Cu  Cu186  1  0.78571332  0.98070194  0.07952171  1
  Cu  Cu187  1  0.28571332  0.51929806  0.92047829  1
  Cu  Cu188  1  0.07952171  0.78571332  0.98070194  1
  Cu  Cu189  1  0.51929806  0.92047829  0.28571332  1
  Cu  Cu190  1  0.98070194  0.07952171  0.78571332  1
  Cu  Cu191  1  0.48070194  0.42047829  0.21428668  1
  Ni  Ni192  1  0.81457505  0.31457505  0.18542495  1
  Ni  Ni193  1  0.18542495  0.81457505  0.31457505  1
  Ni  Ni194  1  0.31457505  0.18542495  0.81457505  1
  Ni  Ni195  1  0.68542495  0.68542495  0.68542495  1
  Ni  Ni196  1  0.18542495  0.68542495  0.81457505  1
  Ni  Ni197  1  0.81457505  0.18542495  0.68542495  1
  Ni  Ni198  1  0.68542495  0.81457505  0.18542495  1
  Ni  Ni199  1  0.31457505  0.31457505  0.31457505  1
  Ni  Ni200  1  0.00000000  0.00000000  0.00000000  1
  Ni  Ni201  1  0.50000000  0.00000000  0.50000000  1
  Ni  Ni202  1  0.50000000  0.50000000  0.00000000  1
  Ni  Ni203  1  0.00000000  0.50000000  0.50000000  1
  C  C204  1  0.15908765  0.15908765  0.15908765  1
  C  C205  1  0.34091235  0.84091235  0.65908765  1
  C  C206  1  0.65908765  0.34091235  0.84091235  1
  C  C207  1  0.84091235  0.65908765  0.34091235  1
  C  C208  1  0.84091235  0.84091235  0.84091235  1
  C  C209  1  0.65908765  0.15908765  0.34091235  1
  C  C210  1  0.34091235  0.65908765  0.15908765  1
  C  C211  1  0.15908765  0.34091235  0.65908765  1
  C  C212  1  0.00000000  0.50000000  0.00000000  1
  C  C213  1  0.00000000  0.00000000  0.50000000  1
  C  C214  1  0.50000000  0.00000000  0.00000000  1
  C  C215  1  0.50000000  0.50000000  0.50000000  1
