# generated using pymatgen
data_CuNi3C
_symmetry_space_group_name_H-M   'P 1'
_cell_length_a   4.37594000
_cell_length_b   4.37594000
_cell_length_c   6.30350996
_cell_angle_alpha   110.31025066
_cell_angle_beta   110.31025066
_cell_angle_gamma   90.00000000
_symmetry_Int_Tables_number   1
_chemical_formula_structural   CuNi3C
_chemical_formula_sum   'Cu1 Ni3 C1'
_cell_volume   105.16156354
_cell_formula_units_Z   1
loop_
 _symmetry_equiv_pos_site_id
 _symmetry_equiv_pos_as_xyz
  1  'x, y, z'
loop_
 _atom_site_type_symbol
 _atom_site_label
 _atom_site_symmetry_multiplicity
 _atom_site_fract_x
 _atom_site_fract_y
 _atom_site_fract_z
 _atom_site_occupancy
  C  C0  1  0.98854400  0.98854400  0.97708800  1
  Ni  Ni1  1  0.39829200  0.39829200  0.79658400  1
  Ni  Ni2  1  0.75088100  0.25088100  0.50176200  1
  Ni  Ni3  1  0.25088100  0.75088100  0.50176200  1
  Cu  Cu4  1  0.62740100  0.62740100  0.25480200  1
