# generated using pymatgen
data_Cu8Ni4C7
_symmetry_space_group_name_H-M   'P 1'
_cell_length_a   7.69990860
_cell_length_b   7.46266055
_cell_length_c   9.63161200
_cell_angle_alpha   90.00000000
_cell_angle_beta   90.00000000
_cell_angle_gamma   114.40149596
_symmetry_Int_Tables_number   1
_chemical_formula_structural   Cu8Ni4C7
_chemical_formula_sum   'Cu16 Ni8 C14'
_cell_volume   504.01172211
_cell_formula_units_Z   2
loop_
 _symmetry_equiv_pos_site_id
 _symmetry_equiv_pos_as_xyz
  1  'x, y, z'
loop_
 _atom_site_type_symbol
 _atom_site_label
 _atom_site_symmetry_multiplicity
 _atom_site_fract_x
 _atom_site_fract_y
 _atom_site_fract_z
 _atom_site_occupancy
  C  C0  1  0.00000000  0.00000000  0.00000000  1
  C  C1  1  0.00000000  0.50000000  0.50000000  1
  C  C2  1  0.36494800  0.14345900  0.97779300  1
  C  C3  1  0.63505200  0.35654100  0.47779300  1
  C  C4  1  0.63505200  0.85654100  0.02220700  1
  C  C5  1  0.36494800  0.64345900  0.52220700  1
  C  C6  1  0.27749100  0.91398900  0.91985500  1
  C  C7  1  0.72250900  0.58601100  0.41985500  1
  C  C8  1  0.72250900  0.08601100  0.08014500  1
  C  C9  1  0.27749100  0.41398900  0.58014500  1
  C  C10  1  0.28173400  0.09287600  0.81589600  1
  C  C11  1  0.71826600  0.40712400  0.31589600  1
  C  C12  1  0.71826600  0.90712400  0.18410400  1
  C  C13  1  0.28173400  0.59287600  0.68410400  1
  Ni  Ni14  1  0.87694800  0.08185100  0.70962200  1
  Ni  Ni15  1  0.12305200  0.41814900  0.20962200  1
  Ni  Ni16  1  0.12305200  0.91814900  0.29037800  1
  Ni  Ni17  1  0.87694800  0.58185100  0.79037800  1
  Ni  Ni18  1  0.74312600  0.97376400  0.49491900  1
  Ni  Ni19  1  0.25687400  0.52623600  0.99491900  1
  Ni  Ni20  1  0.25687400  0.02623600  0.50508100  1
  Ni  Ni21  1  0.74312600  0.47376400  0.00508100  1
  Cu  Cu22  1  0.26009700  0.04346800  0.91679400  1
  Cu  Cu23  1  0.73990300  0.45653200  0.41679500  1
  Cu  Cu24  1  0.73990300  0.95653200  0.08320600  1
  Cu  Cu25  1  0.26009700  0.54346800  0.58320600  1
  Cu  Cu26  1  0.92000300  0.07788400  0.82671800  1
  Cu  Cu27  1  0.07999700  0.42211600  0.32671800  1
  Cu  Cu28  1  0.07999700  0.92211600  0.17328200  1
  Cu  Cu29  1  0.92000300  0.57788400  0.67328200  1
  Cu  Cu30  1  0.83918600  0.11061400  0.58349500  1
  Cu  Cu31  1  0.16081400  0.38938600  0.08349500  1
  Cu  Cu32  1  0.16081400  0.88938600  0.41650500  1
  Cu  Cu33  1  0.83918600  0.61061400  0.91650500  1
  Cu  Cu34  1  0.65879500  0.86157700  0.40658600  1
  Cu  Cu35  1  0.34120500  0.63842300  0.90658600  1
  Cu  Cu36  1  0.34120500  0.13842300  0.59341400  1
  Cu  Cu37  1  0.65879500  0.36157700  0.09341400  1
