# generated using pymatgen
data_Cu2NiC12
_symmetry_space_group_name_H-M   'P 1'
_cell_length_a   8.84298200
_cell_length_b   9.49391000
_cell_length_c   9.79616376
_cell_angle_alpha   75.53613881
_cell_angle_beta   90.00000000
_cell_angle_gamma   90.00000000
_symmetry_Int_Tables_number   1
_chemical_formula_structural   Cu2NiC12
_chemical_formula_sum   'Cu8 Ni4 C48'
_cell_volume   796.36511878
_cell_formula_units_Z   4
loop_
 _symmetry_equiv_pos_site_id
 _symmetry_equiv_pos_as_xyz
  1  'x, y, z'
loop_
 _atom_site_type_symbol
 _atom_site_label
 _atom_site_symmetry_multiplicity
 _atom_site_fract_x
 _atom_site_fract_y
 _atom_site_fract_z
 _atom_site_occupancy
  C  C0  1  0.61352500  0.69613400  0.44531000  1
  C  C1  1  0.11352500  0.30386600  0.05469000  1
  C  C2  1  0.38647500  0.30386600  0.55469000  1
  C  C3  1  0.88647500  0.69613400  0.94531000  1
  C  C4  1  0.15696300  0.69898600  0.57164900  1
  C  C5  1  0.65696300  0.30101400  0.92835100  1
  C  C6  1  0.84303700  0.30101400  0.42835100  1
  C  C7  1  0.34303700  0.69898600  0.07164900  1
  Ni  Ni8  1  0.46548900  0.15520100  0.19614400  1
  Ni  Ni9  1  0.96548900  0.84479900  0.30385600  1
  Ni  Ni10  1  0.53451100  0.84479900  0.80385600  1
  Ni  Ni11  1  0.03451100  0.15520100  0.69614400  1
  Cu  Cu12  1  0.07267700  0.57516300  0.29970300  1
  Cu  Cu13  1  0.57267700  0.42483700  0.20029700  1
  Cu  Cu14  1  0.92732300  0.42483700  0.70029700  1
  Cu  Cu15  1  0.42732300  0.57516300  0.79970300  1
  Cu  Cu16  1  0.27183400  0.91390700  0.28432600  1
  Cu  Cu17  1  0.77183400  0.08609300  0.21567400  1
  Cu  Cu18  1  0.72816600  0.08609300  0.71567400  1
  Cu  Cu19  1  0.22816600  0.91390700  0.78432600  1
  C  C20  1  0.93927500  0.89436400  0.49973600  1
  C  C21  1  0.43927500  0.10563600  0.00026400  1
  C  C22  1  0.06072500  0.10563600  0.50026400  1
  C  C23  1  0.56072500  0.89436400  0.99973600  1
  C  C24  1  0.10048500  0.92862300  0.23900900  1
  C  C25  1  0.60048500  0.07137700  0.26099100  1
  C  C26  1  0.89951500  0.07137700  0.76099100  1
  C  C27  1  0.39951500  0.92862300  0.73900900  1
  C  C28  1  0.16589300  0.58077200  0.43062300  1
  C  C29  1  0.66589300  0.41922800  0.06937700  1
  C  C30  1  0.83410700  0.41922800  0.56937700  1
  C  C31  1  0.33410700  0.58077200  0.93062300  1
  C  C32  1  0.95050500  0.70233800  0.27101300  1
  C  C33  1  0.45050500  0.29766200  0.22898700  1
  C  C34  1  0.04949500  0.29766200  0.72898700  1
  C  C35  1  0.54949500  0.70233800  0.77101300  1
  C  C36  1  0.32656700  0.07639000  0.24931200  1
  C  C37  1  0.82656700  0.92361000  0.25068800  1
  C  C38  1  0.67343300  0.92361000  0.75068800  1
  C  C39  1  0.17343300  0.07639000  0.74931200  1
  C  C40  1  0.28716400  0.84929100  0.44276100  1
  C  C41  1  0.78716400  0.15070900  0.05723900  1
  C  C42  1  0.71283600  0.15070900  0.55723900  1
  C  C43  1  0.21283600  0.84929100  0.94276100  1
  C  C44  1  0.17026000  0.59574200  0.16608600  1
  C  C45  1  0.67026000  0.40425800  0.33391400  1
  C  C46  1  0.82974000  0.40425800  0.83391400  1
  C  C47  1  0.32974000  0.59574200  0.66608600  1
  C  C48  1  0.98933400  0.43075100  0.31182400  1
  C  C49  1  0.48933400  0.56924900  0.18817600  1
  C  C50  1  0.01066600  0.56924900  0.68817600  1
  C  C51  1  0.51066600  0.43075100  0.81182400  1
  C  C52  1  0.36610100  0.83348100  0.19659900  1
  C  C53  1  0.86610100  0.16651900  0.30340100  1
  C  C54  1  0.63389900  0.16651900  0.80340100  1
  C  C55  1  0.13389900  0.83348100  0.69659900  1
  C  C56  1  0.97014000  0.81381700  0.46150400  1
  C  C57  1  0.47014000  0.18618300  0.03849600  1
  C  C58  1  0.02986000  0.18618300  0.53849600  1
  C  C59  1  0.52986000  0.81381700  0.96150400  1
