# generated using pymatgen
data_Cu7Ni2C
_symmetry_space_group_name_H-M   'P 1'
_cell_length_a   6.68354799
_cell_length_b   6.68354799
_cell_length_c   7.30179100
_cell_angle_alpha   90.00000000
_cell_angle_beta   90.00000000
_cell_angle_gamma   102.96403248
_symmetry_Int_Tables_number   1
_chemical_formula_structural   Cu7Ni2C
_chemical_formula_sum   'Cu14 Ni4 C2'
_cell_volume   317.85593366
_cell_formula_units_Z   2
loop_
 _symmetry_equiv_pos_site_id
 _symmetry_equiv_pos_as_xyz
  1  'x, y, z'
loop_
 _atom_site_type_symbol
 _atom_site_label
 _atom_site_symmetry_multiplicity
 _atom_site_fract_x
 _atom_site_fract_y
 _atom_site_fract_z
 _atom_site_occupancy
  C  C0  1  0.99208500  0.99208500  0.94038200  1
  C  C1  1  0.00791500  0.00791500  0.44038200  1
  Ni  Ni2  1  0.55711800  0.06216500  0.21022500  1
  Ni  Ni3  1  0.06216500  0.55711800  0.21022500  1
  Ni  Ni4  1  0.44288200  0.93783500  0.71022500  1
  Ni  Ni5  1  0.93783500  0.44288200  0.71022500  1
  Cu  Cu6  1  0.92741200  0.92741200  0.71116900  1
  Cu  Cu7  1  0.07258800  0.07258800  0.21116900  1
  Cu  Cu8  1  0.70071900  0.97128000  0.40292500  1
  Cu  Cu9  1  0.97128000  0.70071900  0.40292500  1
  Cu  Cu10  1  0.29928100  0.02872000  0.90292500  1
  Cu  Cu11  1  0.02872000  0.29928100  0.90292500  1
  Cu  Cu12  1  0.69588400  0.96923600  0.01541300  1
  Cu  Cu13  1  0.96923600  0.69588400  0.01541300  1
  Cu  Cu14  1  0.30411600  0.03076400  0.51541300  1
  Cu  Cu15  1  0.03076400  0.30411600  0.51541300  1
  Cu  Cu16  1  0.67336900  0.33235200  0.20945800  1
  Cu  Cu17  1  0.33235200  0.67336900  0.20945800  1
  Cu  Cu18  1  0.32663100  0.66764800  0.70945800  1
  Cu  Cu19  1  0.66764800  0.32663100  0.70945800  1
