# generated using pymatgen
data_Cu4Ni2C
_symmetry_space_group_name_H-M   'P 1'
_cell_length_a   12.81441717
_cell_length_b   8.82302833
_cell_length_c   37.19920772
_cell_angle_alpha   90.00000000
_cell_angle_beta   91.24584827
_cell_angle_gamma   90.00000000
_symmetry_Int_Tables_number   1
_chemical_formula_structural   Cu4Ni2C
_chemical_formula_sum   'Cu64 Ni32 C16'
_cell_volume   4204.82131480
_cell_formula_units_Z   16
loop_
 _symmetry_equiv_pos_site_id
 _symmetry_equiv_pos_as_xyz
  1  'x, y, z'
loop_
 _atom_site_type_symbol
 _atom_site_label
 _atom_site_symmetry_multiplicity
 _atom_site_fract_x
 _atom_site_fract_y
 _atom_site_fract_z
 _atom_site_occupancy
  C  C0  1  0.23670449  0.05989683  0.47955748  1
  C  C1  1  0.23670449  0.94010317  0.97955748  1
  C  C2  1  0.24763878  0.04242323  0.72101153  1
  C  C3  1  0.24763878  0.95757677  0.22101153  1
  C  C4  1  0.65011140  0.12512703  0.60013041  1
  C  C5  1  0.65011140  0.87487297  0.10013041  1
  C  C6  1  0.56471945  0.98361966  0.85419511  1
  C  C7  1  0.56471945  0.01638034  0.35419511  1
  C  C8  1  0.85325135  0.48682388  0.01100543  1
  C  C9  1  0.85325135  0.51317612  0.51100543  1
  C  C10  1  0.77331057  0.39212029  0.77914892  1
  C  C11  1  0.77331057  0.60787971  0.27914892  1
  C  C12  1  0.07929779  0.49548104  0.89803206  1
  C  C13  1  0.07929779  0.50451896  0.39803206  1
  C  C14  1  0.23399416  0.51282044  0.59807635  1
  C  C15  1  0.23399416  0.48717956  0.09807635  1
  Ni  Ni16  1  0.12685146  0.01301172  0.82043761  1
  Ni  Ni17  1  0.12685146  0.98698828  0.32043761  1
  Ni  Ni18  1  0.08928423  0.92909734  0.58207522  1
  Ni  Ni19  1  0.08928423  0.07090266  0.08207522  1
  Ni  Ni20  1  0.81386785  0.01527885  0.92741864  1
  Ni  Ni21  1  0.81386785  0.98472115  0.42741864  1
  Ni  Ni22  1  0.82594354  -0.00584288  0.70027782  1
  Ni  Ni23  1  0.82594354  0.00584288  0.20027782  1
  Ni  Ni24  1  0.29888613  0.96890624  0.66843450  1
  Ni  Ni25  1  0.29888613  0.03109376  0.16843450  1
  Ni  Ni26  1  0.33412140  0.07829527  0.94439467  1
  Ni  Ni27  1  0.33412140  0.92170473  0.44439467  1
  Ni  Ni28  1  0.62927081  0.06232952  0.54322284  1
  Ni  Ni29  1  0.62927081  0.93767048  0.04322284  1
  Ni  Ni30  1  0.52552846  0.95151047  0.78098305  1
  Ni  Ni31  1  0.52552846  0.04848853  0.28098305  1
  Ni  Ni32  1  0.62177402  0.50267213  0.67621916  1
  Ni  Ni33  1  0.62177402  0.49732787  0.17621916  1
  Ni  Ni34  1  0.59536155  0.49990855  0.94444445  1
  Ni  Ni35  1  0.59536155  0.50009145  0.44444445  1
  Ni  Ni36  1  0.34899329  0.53886034  0.55638142  1
  Ni  Ni37  1  0.34899329  0.46113966  0.05638142  1
  Ni  Ni38  1  0.30852109  0.53141934  0.82317915  1
  Ni  Ni39  1  0.30852109  0.46858066  0.32317915  1
  Ni  Ni40  1  0.81659305  0.57197286  0.81674760  1
  Ni  Ni41  1  0.81659305  0.42802714  0.31674760  1
  Ni  Ni42  1  0.68998280  0.54021122  0.58277454  1
  Ni  Ni43  1  0.68998280  0.45978878  0.08277454  1
  Ni  Ni44  1  0.11085797  0.50930002  0.95649567  1
  Ni  Ni45  1  0.11085797  0.49069998  0.45649567  1
  Ni  Ni46  1  0.09529779  0.42210616  0.70154807  1
  Ni  Ni47  1  0.09529779  0.57789384  0.20154807  1
  Cu  Cu48  1  0.22012398  0.96727019  0.58499946  1
  Cu  Cu49  1  0.22012398  0.03272981  0.08499946  1
  Cu  Cu50  1  0.11222773  0.91034594  0.48903362  1
  Cu  Cu51  1  0.11222773  0.08965406  0.98903362  1
  Cu  Cu52  1  0.32975885  0.25757258  0.48621483  1
  Cu  Cu53  1  0.32975885  0.74242742  0.98621483  1
  Cu  Cu54  1  0.40380391  0.77802801  0.45372070  1
  Cu  Cu55  1  0.40380391  0.22197199  0.95372070  1
  Cu  Cu56  1  0.24890099  0.00189679  0.83123539  1
  Cu  Cu57  1  0.24890099  -0.00189679  0.33123539  1
  Cu  Cu58  1  0.13523884  0.87296389  0.72932524  1
  Cu  Cu59  1  0.13523884  0.12703611  0.22932524  1
  Cu  Cu60  1  0.34739131  0.22838209  0.72969081  1
  Cu  Cu61  1  0.34739131  0.77161791  0.22969081  1
  Cu  Cu62  1  0.47358379  0.81541409  0.75859500  1
  Cu  Cu63  1  0.47358379  0.18458591  0.25859500  1
  Cu  Cu64  1  0.70175478  0.01974304  0.70301310  1
  Cu  Cu65  1  0.70175478  0.98025696  0.20301310  1
  Cu  Cu66  1  0.81336079  0.12110843  0.60440711  1
  Cu  Cu67  1  0.81336079  0.87889157  0.10440711  1
  Cu  Cu68  1  0.61167604  0.67655287  0.59105056  1
  Cu  Cu69  1  0.61167604  0.32344713  0.09105056  1
  Cu  Cu70  1  0.49129610  0.13374140  0.61344351  1
  Cu  Cu71  1  0.49129610  0.86625860  0.11344351  1
  Cu  Cu72  1  0.69161783  0.97483716  0.94150395  1
  Cu  Cu73  1  0.69161783  0.02516284  0.44150395  1
  Cu  Cu74  1  0.81402365  0.04866556  0.88206387  1
  Cu  Cu75  1  0.81402365  0.95133444  0.38206387  1
  Cu  Cu76  1  0.58837129  0.74886441  0.85440201  1
  Cu  Cu77  1  0.58837129  0.25113559  0.35440201  1
  Cu  Cu78  1  0.52908222  0.21153320  0.86320297  1
  Cu  Cu79  1  0.52908222  0.78846680  0.36320297  1
  Cu  Cu80  1  0.71356792  0.49328790  0.92530776  1
  Cu  Cu81  1  0.71356792  0.50671210  0.42530776  1
  Cu  Cu82  1  0.60559930  0.55343021  0.98875964  1
  Cu  Cu83  1  0.60559930  0.44656979  0.48875964  1
  Cu  Cu84  1  0.89073602  0.71432956  0.00372098  1
  Cu  Cu85  1  0.89073602  0.28567044  0.50372098  1
  Cu  Cu86  1  0.82582578  0.25481697  0.01581111  1
  Cu  Cu87  1  0.82582578  0.74518303  0.51581111  1
  Cu  Cu88  1  0.74622523  0.51583789  0.68279014  1
  Cu  Cu89  1  0.74622523  0.48416211  0.18279014  1
  Cu  Cu90  1  0.60997520  0.40901470  0.77242809  1
  Cu  Cu91  1  0.60997520  0.59098530  0.27242809  1
  Cu  Cu92  1  0.86113072  0.73318217  0.80662376  1
  Cu  Cu93  1  0.86113072  0.26681783  0.30662376  1
  Cu  Cu94  1  0.92079749  0.29788692  0.76762092  1
  Cu  Cu95  1  0.92079749  0.70211308  0.26762092  1
  Cu  Cu96  1  0.18863976  0.49751477  0.80523292  1
  Cu  Cu97  1  0.18863976  0.50248523  0.30523292  1
  Cu  Cu98  1  0.30546553  0.55260955  0.86922131  1
  Cu  Cu99  1  0.30546553  0.44739045  0.36922131  1
  Cu  Cu100  1  0.08858187  0.25868893  0.89188646  1
  Cu  Cu101  1  0.08858187  0.74131107  0.39188646  1
  Cu  Cu102  1  0.03219876  0.72280272  0.89015939  1
  Cu  Cu103  1  0.03219876  0.27719728  0.39015939  1
  Cu  Cu104  1  0.11423272  0.42004875  0.56502966  1
  Cu  Cu105  1  0.11423272  0.57995125  0.06502966  1
  Cu  Cu106  1  0.32177357  0.58529975  0.64346554  1
  Cu  Cu107  1  0.32177357  0.41470025  0.14346554  1
  Cu  Cu108  1  0.05723841  0.32512648  0.66679087  1
  Cu  Cu109  1  0.05723841  0.67487352  0.16679087  1
  Cu  Cu110  1  0.05353517  0.81455863  0.61659761  1
  Cu  Cu111  1  0.05353517  0.18544137  0.11659761  1
