# generated using pymatgen
data_Cu3NiC3
_symmetry_space_group_name_H-M   'P 1'
_cell_length_a   7.18853745
_cell_length_b   7.20079113
_cell_length_c   4.76790500
_cell_angle_alpha   90.00000000
_cell_angle_beta   90.00000000
_cell_angle_gamma   120.05564878
_symmetry_Int_Tables_number   1
_chemical_formula_structural   Cu3NiC3
_chemical_formula_sum   'Cu6 Ni2 C6'
_cell_volume   213.61668584
_cell_formula_units_Z   2
loop_
 _symmetry_equiv_pos_site_id
 _symmetry_equiv_pos_as_xyz
  1  'x, y, z'
loop_
 _atom_site_type_symbol
 _atom_site_label
 _atom_site_symmetry_multiplicity
 _atom_site_fract_x
 _atom_site_fract_y
 _atom_site_fract_z
 _atom_site_occupancy
  Ni  Ni0  1  0.66608800  0.33304300  0.75000000  1
  Ni  Ni1  1  0.33391200  0.66695700  0.25000000  1
  Cu  Cu2  1  0.81369800  0.62674100  0.25000000  1
  Cu  Cu3  1  0.81314200  0.18640100  0.25000000  1
  Cu  Cu4  1  0.37228300  0.18642400  0.25000000  1
  Cu  Cu5  1  0.18630200  0.37325900  0.75000000  1
  Cu  Cu6  1  0.18685800  0.81359900  0.75000000  1
  Cu  Cu7  1  0.62771700  0.81357600  0.75000000  1
  C  C8  1  0.81017300  0.62021300  0.75000000  1
  C  C9  1  0.80964500  0.18941300  0.75000000  1
  C  C10  1  0.37837200  0.18945300  0.75000000  1
  C  C11  1  0.18982700  0.37978700  0.25000000  1
  C  C12  1  0.19035500  0.81058700  0.25000000  1
  C  C13  1  0.62162800  0.81054700  0.25000000  1
