# generated using pymatgen
data_CuNi3C2
_symmetry_space_group_name_H-M   'P 1'
_cell_length_a   7.60038200
_cell_length_b   11.41955900
_cell_length_c   13.82796800
_cell_angle_alpha   90.00000000
_cell_angle_beta   90.00000000
_cell_angle_gamma   90.00000000
_symmetry_Int_Tables_number   1
_chemical_formula_structural   CuNi3C2
_chemical_formula_sum   'Cu8 Ni24 C16'
_cell_volume   1200.17097419
_cell_formula_units_Z   8
loop_
 _symmetry_equiv_pos_site_id
 _symmetry_equiv_pos_as_xyz
  1  'x, y, z'
loop_
 _atom_site_type_symbol
 _atom_site_label
 _atom_site_symmetry_multiplicity
 _atom_site_fract_x
 _atom_site_fract_y
 _atom_site_fract_z
 _atom_site_occupancy
  C  C0  1  0.03051200  0.42976500  0.31958100  1
  C  C1  1  0.53051200  0.57023500  0.68041900  1
  C  C2  1  0.53051200  0.92976500  0.18041900  1
  C  C3  1  0.03051200  0.07023500  0.81958100  1
  Ni  Ni4  1  0.55361900  0.32148300  0.40417100  1
  Ni  Ni5  1  0.05361900  0.67851700  0.59582900  1
  Ni  Ni6  1  0.05361900  0.82148300  0.09582900  1
  Ni  Ni7  1  0.55361900  0.17851700  0.90417100  1
  Ni  Ni8  1  0.01831000  0.54751200  0.14070200  1
  Ni  Ni9  1  0.51831000  0.45248800  0.85929800  1
  Ni  Ni10  1  0.51831000  0.04751200  0.35929800  1
  Ni  Ni11  1  0.01831000  0.95248800  0.64070200  1
  Ni  Ni12  1  0.46855900  0.38345400  0.12738500  1
  Ni  Ni13  1  0.96855900  0.61654600  0.87261500  1
  Ni  Ni14  1  0.96855900  0.88345400  0.37261500  1
  Ni  Ni15  1  0.46855900  0.11654600  0.62738500  1
  Ni  Ni16  1  0.01787300  0.31007200  0.41467200  1
  Ni  Ni17  1  0.51787300  0.68992800  0.58532800  1
  Ni  Ni18  1  0.51787300  0.81007200  0.08532800  1
  Ni  Ni19  1  0.01787300  0.18992800  0.91467200  1
  Ni  Ni20  1  0.38359900  0.32884700  0.17513400  1
  Ni  Ni21  1  0.88359900  0.67115300  0.82486600  1
  Ni  Ni22  1  0.88359900  0.82884700  0.32486600  1
  Ni  Ni23  1  0.38359900  0.17115300  0.67513400  1
  Ni  Ni24  1  0.73432900  0.97800600  0.17699000  1
  Ni  Ni25  1  0.23432900  0.02199400  0.82301000  1
  Ni  Ni26  1  0.23432900  0.47800600  0.32301000  1
  Ni  Ni27  1  0.73432900  0.52199400  0.67699000  1
  C  C28  1  0.93284200  0.31130500  0.19586500  1
  C  C29  1  0.43284200  0.68869500  0.80413500  1
  C  C30  1  0.43284200  0.81130500  0.30413500  1
  C  C31  1  0.93284200  0.18869500  0.69586500  1
  C  C32  1  0.33050200  0.05585500  0.11727300  1
  C  C33  1  0.83050200  0.94414500  0.88272700  1
  C  C34  1  0.83050200  0.55585500  0.38272700  1
  C  C35  1  0.33050200  0.44414500  0.61727300  1
  C  C36  1  0.17728200  0.21050200  0.41579600  1
  C  C37  1  0.67728200  0.78949800  0.58420400  1
  C  C38  1  0.67728200  0.71050200  0.08420400  1
  C  C39  1  0.17728200  0.28949800  0.91579600  1
  Cu  Cu40  1  0.63264900  0.30599300  0.47422200  1
  Cu  Cu41  1  0.13264900  0.69400700  0.52577800  1
  Cu  Cu42  1  0.13264900  0.80599300  0.02577800  1
  Cu  Cu43  1  0.63264900  0.19400700  0.97422200  1
  Cu  Cu44  1  0.63852400  0.04226900  0.41123100  1
  Cu  Cu45  1  0.13852400  0.95773100  0.58876900  1
  Cu  Cu46  1  0.13852400  0.54226900  0.08876900  1
  Cu  Cu47  1  0.63852400  0.45773100  0.91123100  1
