# generated using pymatgen
data_Cu28Ni4C19
_symmetry_space_group_name_H-M   'P 1'
_cell_length_a   12.02255415
_cell_length_b   12.02255415
_cell_length_c   12.02255428
_cell_angle_alpha   34.13638659
_cell_angle_beta   34.13638659
_cell_angle_gamma   34.13638531
_symmetry_Int_Tables_number   1
_chemical_formula_structural   Cu28Ni4C19
_chemical_formula_sum   'Cu28 Ni4 C19'
_cell_volume   487.89992382
_cell_formula_units_Z   1
loop_
 _symmetry_equiv_pos_site_id
 _symmetry_equiv_pos_as_xyz
  1  'x, y, z'
loop_
 _atom_site_type_symbol
 _atom_site_label
 _atom_site_symmetry_multiplicity
 _atom_site_fract_x
 _atom_site_fract_y
 _atom_site_fract_z
 _atom_site_occupancy
  C  C0  1  0.50000000  0.50000000  0.50000000  1
  C  C1  1  0.24925700  0.75363400  0.24925700  1
  C  C2  1  0.24925700  0.24925700  0.75363400  1
  C  C3  1  0.75363400  0.24925700  0.24925700  1
  C  C4  1  0.75074300  0.24636600  0.75074300  1
  C  C5  1  0.75074300  0.75074300  0.24636600  1
  C  C6  1  0.24636600  0.75074300  0.75074300  1
  C  C7  1  0.86596700  0.42427000  0.86596700  1
  C  C8  1  0.86596700  0.86596700  0.42427000  1
  C  C9  1  0.42427000  0.86596700  0.86596700  1
  C  C10  1  0.13403300  0.57573000  0.13403300  1
  C  C11  1  0.13403300  0.13403300  0.57573000  1
  C  C12  1  0.57573000  0.13403300  0.13403300  1
  C  C13  1  0.35803700  0.95275400  0.35803700  1
  C  C14  1  0.35803700  0.35803700  0.95275400  1
  C  C15  1  0.95275400  0.35803700  0.35803700  1
  C  C16  1  0.64196300  0.04724600  0.64196300  1
  C  C17  1  0.64196300  0.64196300  0.04724600  1
  C  C18  1  0.04724600  0.64196300  0.64196300  1
  Ni  Ni19  1  0.15514500  0.15514500  0.15514500  1
  Ni  Ni20  1  0.84485500  0.84485500  0.84485500  1
  Ni  Ni21  1  0.65032000  0.65032000  0.65032000  1
  Ni  Ni22  1  0.34968000  0.34968000  0.34968000  1
  Cu  Cu23  1  0.19835600  0.19835600  0.19835600  1
  Cu  Cu24  1  0.80164400  0.80164400  0.80164400  1
  Cu  Cu25  1  0.69342100  0.69342100  0.69342100  1
  Cu  Cu26  1  0.30657900  0.30657900  0.30657900  1
  Cu  Cu27  1  0.75064500  0.40507200  0.75064500  1
  Cu  Cu28  1  0.75064500  0.75064500  0.40507200  1
  Cu  Cu29  1  0.40507200  0.75064500  0.75064500  1
  Cu  Cu30  1  0.24935500  0.59492800  0.24935500  1
  Cu  Cu31  1  0.24935500  0.24935500  0.59492800  1
  Cu  Cu32  1  0.59492800  0.24935500  0.24935500  1
  Cu  Cu33  1  0.25532300  0.90998500  0.25532300  1
  Cu  Cu34  1  0.25532300  0.25532300  0.90998500  1
  Cu  Cu35  1  0.90998500  0.25532300  0.25532300  1
  Cu  Cu36  1  0.74467700  0.09001500  0.74467700  1
  Cu  Cu37  1  0.74467700  0.74467700  0.09001500  1
  Cu  Cu38  1  0.09001500  0.74467700  0.74467700  1
  Cu  Cu39  1  0.94314400  0.33197100  0.94314400  1
  Cu  Cu40  1  0.94314400  0.94314400  0.33197100  1
  Cu  Cu41  1  0.33197100  0.94314400  0.94314400  1
  Cu  Cu42  1  0.05685600  0.66802900  0.05685600  1
  Cu  Cu43  1  0.05685600  0.05685600  0.66802900  1
  Cu  Cu44  1  0.66802900  0.05685600  0.05685600  1
  Cu  Cu45  1  0.44343400  0.80700100  0.44343400  1
  Cu  Cu46  1  0.44343400  0.44343400  0.80700100  1
  Cu  Cu47  1  0.80700100  0.44343400  0.44343400  1
  Cu  Cu48  1  0.55656600  0.19299900  0.55656600  1
  Cu  Cu49  1  0.55656600  0.55656600  0.19299900  1
  Cu  Cu50  1  0.19299900  0.55656600  0.55656600  1
