# generated using pymatgen
data_Cu(NiC5)2
_symmetry_space_group_name_H-M   'P 1'
_cell_length_a   3.89058900
_cell_length_b   3.95663700
_cell_length_c   11.50725400
_cell_angle_alpha   90.00000000
_cell_angle_beta   90.00000000
_cell_angle_gamma   90.00000000
_symmetry_Int_Tables_number   1
_chemical_formula_structural   Cu(NiC5)2
_chemical_formula_sum   'Cu1 Ni2 C10'
_cell_volume   177.13862200
_cell_formula_units_Z   1
loop_
 _symmetry_equiv_pos_site_id
 _symmetry_equiv_pos_as_xyz
  1  'x, y, z'
loop_
 _atom_site_type_symbol
 _atom_site_label
 _atom_site_symmetry_multiplicity
 _atom_site_fract_x
 _atom_site_fract_y
 _atom_site_fract_z
 _atom_site_occupancy
  Ni  Ni0  1  0.50000000  0.50000000  0.18223800  1
  Ni  Ni1  1  0.50000000  0.50000000  0.81776200  1
  Cu  Cu2  1  0.50000000  0.50000000  0.50000000  1
  C  C3  1  0.00000000  0.00000000  0.00000000  1
  C  C4  1  0.00000000  0.00000000  0.34410100  1
  C  C5  1  0.00000000  0.00000000  0.65589900  1
  C  C6  1  0.50000000  0.00000000  0.37870200  1
  C  C7  1  0.50000000  0.00000000  0.62129800  1
  C  C8  1  0.00000000  0.50000000  0.37848100  1
  C  C9  1  0.00000000  0.50000000  0.62151900  1
  C  C10  1  0.00000000  0.00000000  0.16356200  1
  C  C11  1  0.00000000  0.00000000  0.83643800  1
  C  C12  1  0.00000000  0.50000000  0.00000000  1
