# generated using pymatgen
data_Cu2NiC
_symmetry_space_group_name_H-M   'P 1'
_cell_length_a   7.40071400
_cell_length_b   6.40493700
_cell_length_c   11.25834929
_cell_angle_alpha   90.00000000
_cell_angle_beta   98.09238044
_cell_angle_gamma   90.00000000
_symmetry_Int_Tables_number   1
_chemical_formula_structural   Cu2NiC
_chemical_formula_sum   'Cu16 Ni8 C8'
_cell_volume   528.34425626
_cell_formula_units_Z   8
loop_
 _symmetry_equiv_pos_site_id
 _symmetry_equiv_pos_as_xyz
  1  'x, y, z'
loop_
 _atom_site_type_symbol
 _atom_site_label
 _atom_site_symmetry_multiplicity
 _atom_site_fract_x
 _atom_site_fract_y
 _atom_site_fract_z
 _atom_site_occupancy
  C  C0  1  0.50000000  0.00000000  0.50000000  1
  C  C1  1  0.50000000  0.50000000  0.50000000  1
  C  C2  1  0.00000000  0.00000000  0.00000000  1
  C  C3  1  0.00000000  0.50000000  0.00000000  1
  Ni  Ni4  1  0.04496100  0.00000000  0.81668500  1
  Ni  Ni5  1  0.95503900  0.00000000  0.18331500  1
  Ni  Ni6  1  0.70721000  0.50000000  0.98936300  1
  Ni  Ni7  1  0.29279000  0.50000000  0.01063700  1
  Ni  Ni8  1  0.22735100  0.00000000  0.54546700  1
  Ni  Ni9  1  0.77264900  0.00000000  0.45453300  1
  Ni  Ni10  1  0.58063500  0.50000000  0.68687900  1
  Ni  Ni11  1  0.41936500  0.50000000  0.31312100  1
  C  C12  1  0.53604400  0.00000000  0.82374400  1
  C  C13  1  0.46395600  0.00000000  0.17625600  1
  C  C14  1  0.02893400  0.50000000  0.66970100  1
  C  C15  1  0.97106600  0.50000000  0.33029900  1
  Cu  Cu16  1  0.42794700  0.18713200  0.82712800  1
  Cu  Cu17  1  0.42794700  0.81286800  0.82712800  1
  Cu  Cu18  1  0.57205300  0.81286800  0.17287200  1
  Cu  Cu19  1  0.57205300  0.18713200  0.17287200  1
  Cu  Cu20  1  0.62820000  0.00000000  0.71339700  1
  Cu  Cu21  1  0.37180000  0.00000000  0.28660300  1
  Cu  Cu22  1  0.68373300  0.00000000  0.92828200  1
  Cu  Cu23  1  0.31626700  0.00000000  0.07171800  1
  Cu  Cu24  1  0.07569000  0.50000000  0.80383000  1
  Cu  Cu25  1  0.92431000  0.50000000  0.19617000  1
  Cu  Cu26  1  0.92460500  0.31293200  0.63260100  1
  Cu  Cu27  1  0.92460500  0.68706800  0.63260100  1
  Cu  Cu28  1  0.07539500  0.68706800  0.36739900  1
  Cu  Cu29  1  0.07539500  0.31293200  0.36739900  1
  Cu  Cu30  1  0.20250500  0.50000000  0.62285600  1
  Cu  Cu31  1  0.79749500  0.50000000  0.37714400  1
