# generated using pymatgen
data_Cu5(NiC3)13
_symmetry_space_group_name_H-M   'P 1'
_cell_length_a   9.88732139
_cell_length_b   9.88732139
_cell_length_c   9.88732139
_cell_angle_alpha   60.00000000
_cell_angle_beta   60.00000000
_cell_angle_gamma   60.00000000
_symmetry_Int_Tables_number   1
_chemical_formula_structural   Cu5(NiC3)13
_chemical_formula_sum   'Cu5 Ni13 C39'
_cell_volume   683.47235883
_cell_formula_units_Z   1
loop_
 _symmetry_equiv_pos_site_id
 _symmetry_equiv_pos_as_xyz
  1  'x, y, z'
loop_
 _atom_site_type_symbol
 _atom_site_label
 _atom_site_symmetry_multiplicity
 _atom_site_fract_x
 _atom_site_fract_y
 _atom_site_fract_z
 _atom_site_occupancy
  Ni  Ni0  1  0.76747700  0.40071500  0.06433000  1
  Ni  Ni1  1  0.76747700  0.76747700  0.06433000  1
  Ni  Ni2  1  0.40071500  0.76747700  0.06433000  1
  Ni  Ni3  1  0.76747700  0.06433000  0.40071500  1
  Ni  Ni4  1  0.40071500  0.06433000  0.76747700  1
  Ni  Ni5  1  0.76747700  0.06433000  0.76747700  1
  Ni  Ni6  1  0.06433000  0.76747700  0.76747700  1
  Ni  Ni7  1  0.06433000  0.40071500  0.76747700  1
  Ni  Ni8  1  0.06433000  0.76747700  0.40071500  1
  Ni  Ni9  1  0.40071500  0.76747700  0.76747700  1
  Ni  Ni10  1  0.76747700  0.76747700  0.40071500  1
  Ni  Ni11  1  0.76747700  0.40071500  0.76747700  1
  Ni  Ni12  1  0.75000000  0.75000000  0.75000000  1
  Cu  Cu13  1  0.11631300  0.11631300  0.65106000  1
  Cu  Cu14  1  0.11631300  0.65106000  0.11631300  1
  Cu  Cu15  1  0.65106000  0.11631300  0.11631300  1
  Cu  Cu16  1  0.11631300  0.11631300  0.11631300  1
  Cu  Cu17  1  0.25000000  0.25000000  0.25000000  1
  C  C18  1  0.50000000  0.50000000  0.50000000  1
  C  C19  1  0.82539100  0.82539100  0.52382700  1
  C  C20  1  0.82539100  0.52382700  0.82539100  1
  C  C21  1  0.52382700  0.82539100  0.82539100  1
  C  C22  1  0.82539100  0.82539100  0.82539100  1
  C  C23  1  0.18318400  0.18318400  0.45044800  1
  C  C24  1  0.18318400  0.45044800  0.18318400  1
  C  C25  1  0.45044800  0.18318400  0.18318400  1
  C  C26  1  0.18318400  0.18318400  0.18318400  1
  C  C27  1  0.28020800  0.28020800  0.71979200  1
  C  C28  1  0.71979200  0.28020800  0.71979200  1
  C  C29  1  0.28020800  0.71979200  0.71979200  1
  C  C30  1  0.71979200  0.71979200  0.28020800  1
  C  C31  1  0.28020800  0.71979200  0.28020800  1
  C  C32  1  0.71979200  0.28020800  0.28020800  1
  C  C33  1  0.55517400  0.79617400  0.09347800  1
  C  C34  1  0.55517400  0.55517400  0.09347800  1
  C  C35  1  0.79617400  0.55517400  0.09347800  1
  C  C36  1  0.55517400  0.09347800  0.79617400  1
  C  C37  1  0.79617400  0.09347800  0.55517400  1
  C  C38  1  0.55517400  0.09347800  0.55517400  1
  C  C39  1  0.09347800  0.55517400  0.55517400  1
  C  C40  1  0.09347800  0.79617400  0.55517400  1
  C  C41  1  0.09347800  0.55517400  0.79617400  1
  C  C42  1  0.79617400  0.55517400  0.55517400  1
  C  C43  1  0.55517400  0.55517400  0.79617400  1
  C  C44  1  0.55517400  0.79617400  0.55517400  1
  C  C45  1  0.00221800  0.27580400  0.71975900  1
  C  C46  1  0.00221800  0.00221800  0.71975900  1
  C  C47  1  0.27580400  0.00221800  0.71975900  1
  C  C48  1  0.00221800  0.71975900  0.27580400  1
  C  C49  1  0.27580400  0.71975900  0.00221800  1
  C  C50  1  0.00221800  0.71975900  0.00221800  1
  C  C51  1  0.71975900  0.00221800  0.00221800  1
  C  C52  1  0.71975900  0.27580400  0.00221800  1
  C  C53  1  0.71975900  0.00221800  0.27580400  1
  C  C54  1  0.27580400  0.00221800  0.00221800  1
  C  C55  1  0.00221800  0.00221800  0.27580400  1
  C  C56  1  0.00221800  0.27580400  0.00221800  1
