# generated using pymatgen
data_Cu(NiC8)2
_symmetry_space_group_name_H-M   'P 1'
_cell_length_a   5.84614212
_cell_length_b   5.84639900
_cell_length_c   10.11032340
_cell_angle_alpha   89.99835921
_cell_angle_beta   73.19248187
_cell_angle_gamma   119.99712050
_symmetry_Int_Tables_number   1
_chemical_formula_structural   Cu(NiC8)2
_chemical_formula_sum   'Cu1 Ni2 C16'
_cell_volume   282.09665295
_cell_formula_units_Z   1
loop_
 _symmetry_equiv_pos_site_id
 _symmetry_equiv_pos_as_xyz
  1  'x, y, z'
loop_
 _atom_site_type_symbol
 _atom_site_label
 _atom_site_symmetry_multiplicity
 _atom_site_fract_x
 _atom_site_fract_y
 _atom_site_fract_z
 _atom_site_occupancy
  C  C0  1  0.57051700  0.28526400  0.14428800  1
  C  C1  1  0.42489300  0.71243600  0.86263200  1
  C  C2  1  0.24815700  0.12407600  0.62781200  1
  C  C3  1  0.74287200  0.87147300  0.38574000  1
  Ni  Ni4  1  0.99742800  0.99870400  0.00377900  1
  Ni  Ni5  1  0.01237700  0.50619400  0.48146700  1
  Cu  Cu6  1  0.81885900  0.40942100  0.77170900  1
  C  C7  1  0.77257500  0.61193200  0.61552400  1
  C  C8  1  0.22381400  0.61190800  0.61553800  1
  C  C9  1  0.77260200  0.16068500  0.61553700  1
  C  C10  1  0.23424600  0.38103900  0.38482200  1
  C  C11  1  0.76200800  0.38099700  0.38482500  1
  C  C12  1  0.23423800  0.85320000  0.38481800  1
  C  C13  1  0.07876200  0.81116600  0.11005200  1
  C  C14  1  0.62230700  0.81116600  0.11007300  1
  C  C15  1  0.07872500  0.26754900  0.11005800  1
  C  C16  1  0.92329700  0.19648400  0.88011300  1
  C  C17  1  0.39303100  0.19651000  0.88009200  1
  C  C18  1  0.92329300  0.72679500  0.88012300  1
