# generated using pymatgen
data_Cu7NiC4
_symmetry_space_group_name_H-M   'P 1'
_cell_length_a   9.84938868
_cell_length_b   9.84938868
_cell_length_c   5.70385300
_cell_angle_alpha   90.00000000
_cell_angle_beta   90.00000000
_cell_angle_gamma   120.00000454
_symmetry_Int_Tables_number   1
_chemical_formula_structural   Cu7NiC4
_chemical_formula_sum   'Cu14 Ni2 C8'
_cell_volume   479.20074870
_cell_formula_units_Z   2
loop_
 _symmetry_equiv_pos_site_id
 _symmetry_equiv_pos_as_xyz
  1  'x, y, z'
loop_
 _atom_site_type_symbol
 _atom_site_label
 _atom_site_symmetry_multiplicity
 _atom_site_fract_x
 _atom_site_fract_y
 _atom_site_fract_z
 _atom_site_occupancy
  C  C0  1  0.86963700  0.64266200  0.24242300  1
  C  C1  1  0.22697600  0.86963700  0.74242300  1
  C  C2  1  0.64266200  0.77302400  0.74242300  1
  C  C3  1  0.35733800  0.22697600  0.24242300  1
  C  C4  1  0.77302400  0.13036300  0.24242300  1
  C  C5  1  0.13036300  0.35733800  0.74242300  1
  C  C6  1  0.00000000  0.00000000  0.19227700  1
  C  C7  1  0.00000000  0.00000000  0.69227700  1
  Ni  Ni8  1  0.33333300  0.66666700  0.33113700  1
  Ni  Ni9  1  0.66666700  0.33333300  0.83113700  1
  Cu  Cu10  1  0.10544500  0.58251600  0.48175100  1
  Cu  Cu11  1  0.89455500  0.41748400  0.98175100  1
  Cu  Cu12  1  0.58251600  0.47707100  0.98175100  1
  Cu  Cu13  1  0.47707100  0.89455500  0.48175100  1
  Cu  Cu14  1  0.16278100  0.90362300  0.21145100  1
  Cu  Cu15  1  0.25915800  0.16278100  0.71145100  1
  Cu  Cu16  1  0.52292900  0.10544500  0.98175100  1
  Cu  Cu17  1  0.41748400  0.52292900  0.48175100  1
  Cu  Cu18  1  0.33333300  0.66666700  0.96041300  1
  Cu  Cu19  1  0.66666700  0.33333300  0.46041300  1
  Cu  Cu20  1  0.83721900  0.09637700  0.71145100  1
  Cu  Cu21  1  0.74084200  0.83721900  0.21145100  1
  Cu  Cu22  1  0.09637700  0.25915800  0.21145100  1
  Cu  Cu23  1  0.90362300  0.74084200  0.71145100  1
