# generated using pymatgen
data_CuNiC10
_symmetry_space_group_name_H-M   'P 1'
_cell_length_a   8.46906200
_cell_length_b   8.50188984
_cell_length_c   10.32561622
_cell_angle_alpha   108.25111309
_cell_angle_beta   107.18316238
_cell_angle_gamma   103.00589922
_symmetry_Int_Tables_number   1
_chemical_formula_structural   CuNiC10
_chemical_formula_sum   'Cu4 Ni4 C40'
_cell_volume   631.88731556
_cell_formula_units_Z   4
loop_
 _symmetry_equiv_pos_site_id
 _symmetry_equiv_pos_as_xyz
  1  'x, y, z'
loop_
 _atom_site_type_symbol
 _atom_site_label
 _atom_site_symmetry_multiplicity
 _atom_site_fract_x
 _atom_site_fract_y
 _atom_site_fract_z
 _atom_site_occupancy
  C  C0  1  0.76710100  0.74666300  0.25692700  1
  C  C1  1  0.47804200  0.02257300  0.26182900  1
  C  C2  1  0.98559200  0.47683800  0.23043900  1
  C  C3  1  0.51551800  0.01425600  0.75541900  1
  C  C4  1  0.99597300  0.49111800  0.75476800  1
  C  C5  1  0.23646900  0.24497500  0.75172600  1
  C  C6  1  0.76636500  0.77316800  0.76068800  1
  C  C7  1  0.45084500  0.70563000  0.92346700  1
  C  C8  1  0.94418100  0.18660000  0.35297800  1
  C  C9  1  0.44226000  0.68619100  0.35190600  1
  C  C10  1  0.55682000  0.31187300  0.64272700  1
  C  C11  1  0.05954500  0.80519800  0.64762000  1
  Ni  Ni12  1  0.18681800  0.93569000  0.42322000  1
  Ni  Ni13  1  0.70053600  0.44529400  0.42569500  1
  Ni  Ni14  1  0.31134300  0.55952800  0.57604400  1
  Ni  Ni15  1  0.80585400  0.06106500  0.57478900  1
  Cu  Cu16  1  0.76228500  0.01623800  0.07367400  1
  Cu  Cu17  1  0.28122400  0.53197400  0.07426500  1
  Cu  Cu18  1  0.72020400  0.47546100  0.92208800  1
  Cu  Cu19  1  0.22628800  0.96807400  0.91941400  1
  C  C20  1  0.31188700  0.03325700  0.05462200  1
  C  C21  1  0.78641200  0.54030900  0.06122900  1
  C  C22  1  0.43156700  0.67143700  0.15309000  1
  C  C23  1  0.90756900  0.15612900  0.14562200  1
  C  C24  1  0.70065000  0.95464700  0.15591900  1
  C  C25  1  0.21478600  0.47292000  0.15320600  1
  C  C26  1  0.27673700  0.83825600  0.33129100  1
  C  C27  1  0.06238000  0.00335000  0.32989900  1
  C  C28  1  0.78063500  0.33459100  0.33177600  1
  C  C29  1  0.60531900  0.53748700  0.33890600  1
  C  C30  1  0.16311800  0.42114000  0.43062500  1
  C  C31  1  0.56937600  0.31674500  0.45969900  1
  C  C32  1  0.06454500  0.79620700  0.45723500  1
  C  C33  1  0.66428500  0.92058100  0.42361200  1
  C  C34  1  0.32570500  0.08567700  0.57171200  1
  C  C35  1  0.44415600  0.69166100  0.54378200  1
  C  C36  1  0.94239700  0.19574100  0.54691000  1
  C  C37  1  0.84639300  0.58560700  0.57832400  1
  C  C38  1  0.24529900  0.67134600  0.68401100  1
  C  C39  1  0.42014300  0.47951800  0.67088400  1
  C  C40  1  0.72202400  0.16966000  0.66740400  1
  C  C41  1  0.90875900  0.97876900  0.66726500  1
  C  C42  1  0.77964100  0.53751300  0.83882700  1
  C  C43  1  0.27072300  0.02151800  0.82370800  1
  C  C44  1  0.57355500  0.33170100  0.84424200  1
  C  C45  1  0.07805200  0.82665400  0.84913000  1
  C  C46  1  0.68756700  0.94509000  0.93226500  1
  C  C47  1  0.22121300  0.47434900  0.93356100  1
