# generated using pymatgen
data_Cu2Ni6C
_symmetry_space_group_name_H-M   'P 1'
_cell_length_a   7.07279300
_cell_length_b   4.38452100
_cell_length_c   8.31934349
_cell_angle_alpha   58.34642895
_cell_angle_beta   90.00000000
_cell_angle_gamma   90.00000000
_symmetry_Int_Tables_number   1
_chemical_formula_structural   Cu2Ni6C
_chemical_formula_sum   'Cu4 Ni12 C2'
_cell_volume   219.61017952
_cell_formula_units_Z   2
loop_
 _symmetry_equiv_pos_site_id
 _symmetry_equiv_pos_as_xyz
  1  'x, y, z'
loop_
 _atom_site_type_symbol
 _atom_site_label
 _atom_site_symmetry_multiplicity
 _atom_site_fract_x
 _atom_site_fract_y
 _atom_site_fract_z
 _atom_site_occupancy
  C  C0  1  0.50000000  0.00000000  0.50000000  1
  C  C1  1  0.00000000  0.00000000  0.00000000  1
  Ni  Ni2  1  0.35284800  0.38700200  0.17392200  1
  Ni  Ni3  1  0.14715200  0.38700200  0.67392200  1
  Ni  Ni4  1  0.64715200  0.61299800  0.82607800  1
  Ni  Ni5  1  0.85284800  0.61299800  0.32607800  1
  Ni  Ni6  1  0.27721500  0.93317300  0.28088800  1
  Ni  Ni7  1  0.22278500  0.93317300  0.78088800  1
  Ni  Ni8  1  0.72278500  0.06682700  0.71911200  1
  Ni  Ni9  1  0.77721500  0.06682700  0.21911200  1
  Ni  Ni10  1  0.17382000  0.21447600  0.35275800  1
  Ni  Ni11  1  0.32618000  0.21447600  0.85275800  1
  Ni  Ni12  1  0.82618000  0.78552400  0.64724200  1
  Ni  Ni13  1  0.67382000  0.78552400  0.14724200  1
  Cu  Cu14  1  0.30616900  0.14977300  0.30735100  1
  Cu  Cu15  1  0.19383100  0.14977300  0.80735100  1
  Cu  Cu16  1  0.69383100  0.85022700  0.69264900  1
  Cu  Cu17  1  0.80616900  0.85022700  0.19264900  1
