# generated using pymatgen
data_CuNi4C
_symmetry_space_group_name_H-M   'P 1'
_cell_length_a   7.84754997
_cell_length_b   7.84754997
_cell_length_c   6.59365500
_cell_angle_alpha   90.00000000
_cell_angle_beta   90.00000000
_cell_angle_gamma   149.66215107
_symmetry_Int_Tables_number   1
_chemical_formula_structural   CuNi4C
_chemical_formula_sum   'Cu2 Ni8 C2'
_cell_volume   205.10201664
_cell_formula_units_Z   2
loop_
 _symmetry_equiv_pos_site_id
 _symmetry_equiv_pos_as_xyz
  1  'x, y, z'
loop_
 _atom_site_type_symbol
 _atom_site_label
 _atom_site_symmetry_multiplicity
 _atom_site_fract_x
 _atom_site_fract_y
 _atom_site_fract_z
 _atom_site_occupancy
  C  C0  1  0.88020600  0.11979400  0.75000000  1
  C  C1  1  0.11979400  0.88020600  0.25000000  1
  Ni  Ni2  1  0.50000000  0.50000000  0.00000000  1
  Ni  Ni3  1  0.50000000  0.50000000  0.50000000  1
  Ni  Ni4  1  0.07067500  0.92932500  0.75000000  1
  Ni  Ni5  1  0.92932500  0.07067500  0.25000000  1
  Ni  Ni6  1  0.68478000  0.31522000  0.94895300  1
  Ni  Ni7  1  0.31522000  0.68478000  0.05104700  1
  Ni  Ni8  1  0.68478000  0.31522000  0.55104700  1
  Ni  Ni9  1  0.31522000  0.68478000  0.44895300  1
  Cu  Cu10  1  0.22559000  0.77441000  0.75000000  1
  Cu  Cu11  1  0.77441000  0.22559000  0.25000000  1
