# generated using pymatgen
data_Cu40Ni13C6
_symmetry_space_group_name_H-M   'P 1'
_cell_length_a   13.79900671
_cell_length_b   13.79900671
_cell_length_c   13.79900696
_cell_angle_alpha   108.95071808
_cell_angle_beta   108.95071808
_cell_angle_gamma   108.95071394
_symmetry_Int_Tables_number   1
_chemical_formula_structural   Cu40Ni13C6
_chemical_formula_sum   'Cu80 Ni26 C12'
_cell_volume   2060.71107194
_cell_formula_units_Z   2
loop_
 _symmetry_equiv_pos_site_id
 _symmetry_equiv_pos_as_xyz
  1  'x, y, z'
loop_
 _atom_site_type_symbol
 _atom_site_label
 _atom_site_symmetry_multiplicity
 _atom_site_fract_x
 _atom_site_fract_y
 _atom_site_fract_z
 _atom_site_occupancy
  C  C0  1  0.60192200  0.47493200  0.24037000  1
  C  C1  1  0.24037000  0.60192200  0.47493200  1
  C  C2  1  0.47493200  0.24037000  0.60192200  1
  C  C3  1  0.74037000  0.97493200  0.10192200  1
  C  C4  1  0.10192200  0.74037000  0.97493200  1
  C  C5  1  0.97493200  0.10192200  0.74037000  1
  C  C6  1  0.81049300  0.67721800  0.61721100  1
  C  C7  1  0.61721100  0.81049300  0.67721800  1
  C  C8  1  0.67721800  0.61721100  0.81049300  1
  C  C9  1  0.11721100  0.17721800  0.31049300  1
  C  C10  1  0.31049300  0.11721100  0.17721800  1
  C  C11  1  0.17721800  0.31049300  0.11721100  1
  Ni  Ni12  1  0.70213400  0.35899400  0.46537100  1
  Ni  Ni13  1  0.46537100  0.70213400  0.35899400  1
  Ni  Ni14  1  0.35899400  0.46537100  0.70213400  1
  Ni  Ni15  1  0.96537100  0.85899400  0.20213400  1
  Ni  Ni16  1  0.20213400  0.96537100  0.85899400  1
  Ni  Ni17  1  0.85899400  0.20213400  0.96537100  1
  Ni  Ni18  1  0.58820700  0.64129500  0.05010000  1
  Ni  Ni19  1  0.05010000  0.58820700  0.64129500  1
  Ni  Ni20  1  0.64129500  0.05010000  0.58820700  1
  Ni  Ni21  1  0.55010000  0.14129500  0.08820700  1
  Ni  Ni22  1  0.08820700  0.55010000  0.14129500  1
  Ni  Ni23  1  0.14129500  0.08820700  0.55010000  1
  Ni  Ni24  1  0.91836400  0.91836400  0.91836400  1
  Ni  Ni25  1  0.41836400  0.41836400  0.41836400  1
  Ni  Ni26  1  0.94839600  0.63816300  0.34433600  1
  Ni  Ni27  1  0.34433600  0.94839600  0.63816300  1
  Ni  Ni28  1  0.63816300  0.34433600  0.94839600  1
  Ni  Ni29  1  0.84433600  0.13816300  0.44839600  1
  Ni  Ni30  1  0.44839600  0.84433600  0.13816300  1
  Ni  Ni31  1  0.13816300  0.44839600  0.84433600  1
  Ni  Ni32  1  0.80174000  0.82607300  0.42769200  1
  Ni  Ni33  1  0.42769200  0.80174000  0.82607300  1
  Ni  Ni34  1  0.82607300  0.42769200  0.80174000  1
  Ni  Ni35  1  0.92769200  0.32607300  0.30174000  1
  Ni  Ni36  1  0.30174000  0.92769200  0.32607300  1
  Ni  Ni37  1  0.32607300  0.30174000  0.92769200  1
  Cu  Cu38  1  0.65055200  0.65055200  0.65055200  1
  Cu  Cu39  1  0.15055200  0.15055200  0.15055200  1
  Cu  Cu40  1  0.80133000  0.51319800  0.24838100  1
  Cu  Cu41  1  0.24838100  0.80133000  0.51319800  1
  Cu  Cu42  1  0.51319800  0.24838100  0.80133000  1
  Cu  Cu43  1  0.74838100  0.01319800  0.30133000  1
  Cu  Cu44  1  0.30133000  0.74838100  0.01319800  1
  Cu  Cu45  1  0.01319800  0.30133000  0.74838100  1
  Cu  Cu46  1  0.82330900  0.46326700  0.61493500  1
  Cu  Cu47  1  0.61493500  0.82330900  0.46326700  1
  Cu  Cu48  1  0.46326700  0.61493500  0.82330900  1
  Cu  Cu49  1  0.11493500  0.96326700  0.32330900  1
  Cu  Cu50  1  0.32330900  0.11493500  0.96326700  1
  Cu  Cu51  1  0.96326700  0.32330900  0.11493500  1
  Cu  Cu52  1  0.92282900  0.85099300  0.39399800  1
  Cu  Cu53  1  0.39399800  0.92282900  0.85099300  1
  Cu  Cu54  1  0.85099300  0.39399800  0.92282900  1
  Cu  Cu55  1  0.89399800  0.35099300  0.42282900  1
  Cu  Cu56  1  0.42282900  0.89399800  0.35099300  1
  Cu  Cu57  1  0.35099300  0.42282900  0.89399800  1
  Cu  Cu58  1  0.92944700  0.78635300  0.85136800  1
  Cu  Cu59  1  0.85136800  0.92944700  0.78635300  1
  Cu  Cu60  1  0.78635300  0.85136800  0.92944700  1
  Cu  Cu61  1  0.35136800  0.28635300  0.42944700  1
  Cu  Cu62  1  0.42944700  0.35136800  0.28635300  1
  Cu  Cu63  1  0.28635300  0.42944700  0.35136800  1
  Cu  Cu64  1  0.02846100  0.55423000  0.35390200  1
  Cu  Cu65  1  0.35390200  0.02846100  0.55423000  1
  Cu  Cu66  1  0.55423000  0.35390200  0.02846100  1
  Cu  Cu67  1  0.85390200  0.05423000  0.52846100  1
  Cu  Cu68  1  0.52846100  0.85390200  0.05423000  1
  Cu  Cu69  1  0.05423000  0.52846100  0.85390200  1
  Cu  Cu70  1  0.62930000  0.54676500  0.96555400  1
  Cu  Cu71  1  0.96555400  0.62930000  0.54676500  1
  Cu  Cu72  1  0.54676500  0.96555400  0.62930000  1
  Cu  Cu73  1  0.46555400  0.04676500  0.12930000  1
  Cu  Cu74  1  0.12930000  0.46555400  0.04676500  1
  Cu  Cu75  1  0.04676500  0.12930000  0.46555400  1
  Cu  Cu76  1  0.71061500  0.78112500  0.09445400  1
  Cu  Cu77  1  0.09445400  0.71061500  0.78112500  1
  Cu  Cu78  1  0.78112500  0.09445400  0.71061500  1
  Cu  Cu79  1  0.59445400  0.28112500  0.21061500  1
  Cu  Cu80  1  0.21061500  0.59445400  0.28112500  1
  Cu  Cu81  1  0.28112500  0.21061500  0.59445400  1
  Cu  Cu82  1  0.68648200  0.47486500  0.43205100  1
  Cu  Cu83  1  0.43205100  0.68648200  0.47486500  1
  Cu  Cu84  1  0.47486500  0.43205100  0.68648200  1
  Cu  Cu85  1  0.93205100  0.97486500  0.18648200  1
  Cu  Cu86  1  0.18648200  0.93205100  0.97486500  1
  Cu  Cu87  1  0.97486500  0.18648200  0.93205100  1
  Cu  Cu88  1  0.58239700  0.31947400  0.49823600  1
  Cu  Cu89  1  0.49823600  0.58239700  0.31947400  1
  Cu  Cu90  1  0.31947400  0.49823600  0.58239700  1
  Cu  Cu91  1  0.99823600  0.81947400  0.08239700  1
  Cu  Cu92  1  0.08239700  0.99823600  0.81947400  1
  Cu  Cu93  1  0.81947400  0.08239700  0.99823600  1
  Cu  Cu94  1  0.97996900  0.67729900  0.23918500  1
  Cu  Cu95  1  0.23918500  0.97996900  0.67729900  1
  Cu  Cu96  1  0.67729900  0.23918500  0.97996900  1
  Cu  Cu97  1  0.73918500  0.17729900  0.47996900  1
  Cu  Cu98  1  0.47996900  0.73918500  0.17729900  1
  Cu  Cu99  1  0.17729900  0.47996900  0.73918500  1
  Cu  Cu100  1  0.64466700  0.63337500  0.18596800  1
  Cu  Cu101  1  0.18596800  0.64466700  0.63337500  1
  Cu  Cu102  1  0.63337500  0.18596800  0.64466700  1
  Cu  Cu103  1  0.68596800  0.13337500  0.14466700  1
  Cu  Cu104  1  0.14466700  0.68596800  0.13337500  1
  Cu  Cu105  1  0.13337500  0.14466700  0.68596800  1
  Cu  Cu106  1  0.76292000  0.67830800  0.41340300  1
  Cu  Cu107  1  0.41340300  0.76292000  0.67830800  1
  Cu  Cu108  1  0.67830800  0.41340300  0.76292000  1
  Cu  Cu109  1  0.91340300  0.17830800  0.26292000  1
  Cu  Cu110  1  0.26292000  0.91340300  0.17830800  1
  Cu  Cu111  1  0.17830800  0.26292000  0.91340300  1
  Cu  Cu112  1  0.88405900  0.89520100  0.58721600  1
  Cu  Cu113  1  0.58721600  0.88405900  0.89520100  1
  Cu  Cu114  1  0.89520100  0.58721600  0.88405900  1
  Cu  Cu115  1  0.08721600  0.39520100  0.38405900  1
  Cu  Cu116  1  0.38405900  0.08721600  0.39520100  1
  Cu  Cu117  1  0.39520100  0.38405900  0.08721600  1
