# generated using pymatgen
data_Cu9NiC12
_symmetry_space_group_name_H-M   'P 1'
_cell_length_a   8.29164200
_cell_length_b   9.34652637
_cell_length_c   12.68655327
_cell_angle_alpha   87.89891263
_cell_angle_beta   108.29570454
_cell_angle_gamma   111.12911333
_symmetry_Int_Tables_number   1
_chemical_formula_structural   Cu9NiC12
_chemical_formula_sum   'Cu18 Ni2 C24'
_cell_volume   867.47042390
_cell_formula_units_Z   2
loop_
 _symmetry_equiv_pos_site_id
 _symmetry_equiv_pos_as_xyz
  1  'x, y, z'
loop_
 _atom_site_type_symbol
 _atom_site_label
 _atom_site_symmetry_multiplicity
 _atom_site_fract_x
 _atom_site_fract_y
 _atom_site_fract_z
 _atom_site_occupancy
  Ni  Ni0  1  0.00787800  0.78589700  0.90304400  1
  Ni  Ni1  1  0.99212200  0.21410300  0.09695600  1
  C  C2  1  0.00972300  0.45479700  0.23251200  1
  C  C3  1  0.99027700  0.54520300  0.76748800  1
  C  C4  1  0.20116700  0.88130900  0.75176400  1
  C  C5  1  0.79883300  0.11869100  0.24823600  1
  C  C6  1  0.78947200  0.75917000  0.67956900  1
  C  C7  1  0.21052800  0.24083000  0.32043100  1
  Cu  Cu8  1  0.23269200  0.08530300  0.78526500  1
  Cu  Cu9  1  0.76730800  0.91469700  0.21473500  1
  Cu  Cu10  1  0.28471100  0.90591900  0.62385700  1
  Cu  Cu11  1  0.71528900  0.09408100  0.37614300  1
  Cu  Cu12  1  0.41710400  0.88693500  0.85986800  1
  Cu  Cu13  1  0.58289600  0.11306500  0.14013200  1
  Cu  Cu14  1  0.19996300  0.60058900  0.19215700  1
  Cu  Cu15  1  0.80003700  0.39941100  0.80784300  1
  Cu  Cu16  1  0.58609000  0.64170300  0.72103400  1
  Cu  Cu17  1  0.41391000  0.35829700  0.27896600  1
  Cu  Cu18  1  0.17854900  0.51736800  0.88395200  1
  Cu  Cu19  1  0.82145100  0.48263200  0.11604800  1
  Cu  Cu20  1  0.77694900  0.94946400  0.70690100  1
  Cu  Cu21  1  0.22305100  0.05053600  0.29309900  1
  Cu  Cu22  1  0.00471600  0.57776800  0.34992000  1
  Cu  Cu23  1  0.99528400  0.42223200  0.65008000  1
  Cu  Cu24  1  0.67343300  0.72728800  0.51951500  1
  Cu  Cu25  1  0.32656700  0.27271200  0.48048500  1
  C  C26  1  0.45755400  0.57111900  0.74569900  1
  C  C27  1  0.54244600  0.42888100  0.25430100  1
  C  C28  1  0.23683400  0.93451000  0.27637600  1
  C  C29  1  0.76316600  0.06549000  0.72362400  1
  C  C30  1  0.31406100  0.69201600  0.16431700  1
  C  C31  1  0.68593900  0.30798400  0.83568300  1
  C  C32  1  0.55480000  0.89392000  0.92622300  1
  C  C33  1  0.44520000  0.10608000  0.07377700  1
  C  C34  1  0.00435200  0.34588600  0.58353400  1
  C  C35  1  0.99564800  0.65411400  0.41646600  1
  C  C36  1  0.34671600  0.92405500  0.55180300  1
  C  C37  1  0.65328400  0.07594500  0.44819700  1
  C  C38  1  0.25486400  0.21228700  0.80695400  1
  C  C39  1  0.74513600  0.78771300  0.19304600  1
  C  C40  1  0.59224500  0.70989100  0.42472700  1
  C  C41  1  0.40775500  0.29010900  0.57527300  1
  C  C42  1  0.29255200  0.49651600  0.95671500  1
  C  C43  1  0.70744800  0.50348400  0.04328500  1
