# generated using pymatgen
data_Cu2Ni3C31
_symmetry_space_group_name_H-M   'P 1'
_cell_length_a   8.61796503
_cell_length_b   8.61796503
_cell_length_c   8.61796499
_cell_angle_alpha   60.11835305
_cell_angle_beta   60.11835305
_cell_angle_gamma   60.11835949
_symmetry_Int_Tables_number   1
_chemical_formula_structural   Cu2Ni3C31
_chemical_formula_sum   'Cu2 Ni3 C31'
_cell_volume   453.79754399
_cell_formula_units_Z   1
loop_
 _symmetry_equiv_pos_site_id
 _symmetry_equiv_pos_as_xyz
  1  'x, y, z'
loop_
 _atom_site_type_symbol
 _atom_site_label
 _atom_site_symmetry_multiplicity
 _atom_site_fract_x
 _atom_site_fract_y
 _atom_site_fract_z
 _atom_site_occupancy
  Ni  Ni0  1  0.14442500  0.14442500  0.14442500  1
  Ni  Ni1  1  0.35462600  0.35462600  0.35462600  1
  Ni  Ni2  1  0.64634000  0.64634000  0.64634000  1
  Cu  Cu3  1  0.99734700  0.99734700  0.99734700  1
  Cu  Cu4  1  0.49899300  0.49899300  0.49899300  1
  C  C5  1  0.85616600  0.85616600  0.85616600  1
  C  C6  1  0.45739700  0.75216800  0.04405300  1
  C  C7  1  0.75216800  0.04405300  0.45739700  1
  C  C8  1  0.95635000  0.54424400  0.25031000  1
  C  C9  1  0.25031000  0.95635000  0.54424400  1
  C  C10  1  0.54424400  0.25031000  0.95635000  1
  C  C11  1  0.04405300  0.45739700  0.75216800  1
  C  C12  1  0.49081700  0.31897000  0.11678000  1
  C  C13  1  0.11678000  0.49081700  0.31897000  1
  C  C14  1  0.25822400  0.91381200  0.05769700  1
  C  C15  1  0.31897000  0.11678000  0.49081700  1
  C  C16  1  0.60944500  0.80989200  0.01402800  1
  C  C17  1  0.43097800  0.58588300  0.23758000  1
  C  C18  1  0.91381200  0.05769700  0.25822400  1
  C  C19  1  0.58588300  0.23758000  0.43097800  1
  C  C20  1  0.00148700  0.38007800  0.18942800  1
  C  C21  1  0.23758000  0.43097800  0.58588300  1
  C  C22  1  0.94695300  0.73624600  0.09173700  1
  C  C23  1  0.18942800  0.00148700  0.38007800  1
  C  C24  1  0.80989200  0.01402800  0.60944500  1
  C  C25  1  0.05769700  0.25822400  0.91381200  1
  C  C26  1  0.76396300  0.55480800  0.41655100  1
  C  C27  1  0.01402800  0.60944500  0.80989200  1
  C  C28  1  0.41655100  0.76396300  0.55480800  1
  C  C29  1  0.09173700  0.94695300  0.73624600  1
  C  C30  1  0.55480800  0.41655100  0.76396300  1
  C  C31  1  0.38007800  0.18942800  0.00148700  1
  C  C32  1  0.69155600  0.87884400  0.50182200  1
  C  C33  1  0.73624600  0.09173700  0.94695300  1
  C  C34  1  0.87884400  0.50182200  0.69155600  1
  C  C35  1  0.50182200  0.69155600  0.87884400  1
