# generated using pymatgen
data_Cu2NiC11
_symmetry_space_group_name_H-M   'P 1'
_cell_length_a   3.83980300
_cell_length_b   3.99979600
_cell_length_c   14.23845900
_cell_angle_alpha   90.00000000
_cell_angle_beta   90.00000000
_cell_angle_gamma   90.00000000
_symmetry_Int_Tables_number   1
_chemical_formula_structural   Cu2NiC11
_chemical_formula_sum   'Cu2 Ni1 C11'
_cell_volume   218.68035707
_cell_formula_units_Z   1
loop_
 _symmetry_equiv_pos_site_id
 _symmetry_equiv_pos_as_xyz
  1  'x, y, z'
loop_
 _atom_site_type_symbol
 _atom_site_label
 _atom_site_symmetry_multiplicity
 _atom_site_fract_x
 _atom_site_fract_y
 _atom_site_fract_z
 _atom_site_occupancy
  C  C0  1  0.50000000  0.50000000  0.09376400  1
  C  C1  1  0.50000000  0.50000000  0.80643100  1
  C  C2  1  0.50000000  0.50000000  0.36264200  1
  C  C3  1  0.50000000  0.50000000  0.54657200  1
  Ni  Ni4  1  0.00000000  0.00000000  0.96000800  1
  Cu  Cu5  1  0.00000000  0.00000000  0.41483400  1
  Cu  Cu6  1  0.00000000  0.00000000  0.65425700  1
  C  C7  1  0.50000000  0.00000000  0.41765900  1
  C  C8  1  0.50000000  0.00000000  0.63669300  1
  C  C9  1  0.00000000  0.00000000  0.09134900  1
  C  C10  1  0.00000000  0.00000000  0.83257600  1
  C  C11  1  0.00000000  0.50000000  0.42271900  1
  C  C12  1  0.00000000  0.50000000  0.64339700  1
  C  C13  1  0.00000000  0.50000000  0.96154200  1
