# generated using pymatgen
data_Cu3Ni5C8
_symmetry_space_group_name_H-M   'P 1'
_cell_length_a   7.01101900
_cell_length_b   8.28662600
_cell_length_c   8.28662600
_cell_angle_alpha   90.00000000
_cell_angle_beta   90.00000000
_cell_angle_gamma   90.00000000
_symmetry_Int_Tables_number   1
_chemical_formula_structural   Cu3Ni5C8
_chemical_formula_sum   'Cu3 Ni5 C8'
_cell_volume   481.43384782
_cell_formula_units_Z   1
loop_
 _symmetry_equiv_pos_site_id
 _symmetry_equiv_pos_as_xyz
  1  'x, y, z'
loop_
 _atom_site_type_symbol
 _atom_site_label
 _atom_site_symmetry_multiplicity
 _atom_site_fract_x
 _atom_site_fract_y
 _atom_site_fract_z
 _atom_site_occupancy
  Ni  Ni0  1  0.25000000  0.00000000  0.00000000  1
  Ni  Ni1  1  0.75000000  0.50000000  0.50000000  1
  Ni  Ni2  1  0.25000000  0.50000000  0.50000000  1
  Ni  Ni3  1  0.75000000  0.00000000  0.00000000  1
  Ni  Ni4  1  0.75000000  0.00000000  0.50000000  1
  Cu  Cu5  1  0.25000000  0.50000000  0.00000000  1
  Cu  Cu6  1  0.75000000  0.50000000  0.00000000  1
  Cu  Cu7  1  0.25000000  0.00000000  0.50000000  1
  C  C8  1  0.50024400  0.32964200  0.82964200  1
  C  C9  1  0.00841100  0.82624800  0.32624800  1
  C  C10  1  0.00841100  0.17375200  0.67375200  1
  C  C11  1  0.50024400  0.67035800  0.17035800  1
  C  C12  1  0.49158900  0.17375200  0.32624800  1
  C  C13  1  0.99975600  0.67035800  0.82964200  1
  C  C14  1  0.99975600  0.32964200  0.17035800  1
  C  C15  1  0.49158900  0.82624800  0.67375200  1
