# generated using pymatgen
data_CuNi11C
_symmetry_space_group_name_H-M   'P 1'
_cell_length_a   4.69543500
_cell_length_b   6.46278681
_cell_length_c   6.46278681
_cell_angle_alpha   97.94801307
_cell_angle_beta   111.30097760
_cell_angle_gamma   68.69902240
_symmetry_Int_Tables_number   1
_chemical_formula_structural   CuNi11C
_chemical_formula_sum   'Cu1 Ni11 C1'
_cell_volume   170.23240985
_cell_formula_units_Z   1
loop_
 _symmetry_equiv_pos_site_id
 _symmetry_equiv_pos_as_xyz
  1  'x, y, z'
loop_
 _atom_site_type_symbol
 _atom_site_label
 _atom_site_symmetry_multiplicity
 _atom_site_fract_x
 _atom_site_fract_y
 _atom_site_fract_z
 _atom_site_occupancy
  C  C0  1  0.00617900  0.99382100  0.00617900  1
  Ni  Ni1  1  0.73059300  0.76940700  0.23059300  1
  Ni  Ni2  1  0.27299600  0.22700400  0.77299600  1
  Ni  Ni3  1  0.49846900  0.77779300  0.77473100  1
  Ni  Ni4  1  0.49846900  0.22526900  0.22220700  1
  Ni  Ni5  1  0.50108400  0.99867200  0.50083300  1
  Ni  Ni6  1  0.00107800  0.99867200  0.50083300  1
  Ni  Ni7  1  0.50108400  0.49916700  0.00132800  1
  Ni  Ni8  1  0.00107800  0.49916700  0.00132800  1
  Ni  Ni9  1  0.35596800  0.64403200  0.35596800  1
  Ni  Ni10  1  0.00019100  0.35838900  0.35877100  1
  Ni  Ni11  1  0.00019100  0.64122900  0.64161100  1
  Cu  Cu12  1  0.63262200  0.36737800  0.63262200  1
