# generated using pymatgen
data_CuNiC8
_symmetry_space_group_name_H-M   'P 1'
_cell_length_a   7.69375700
_cell_length_b   5.47685800
_cell_length_c   5.70409008
_cell_angle_alpha   85.50252648
_cell_angle_beta   90.00000000
_cell_angle_gamma   90.00000000
_symmetry_Int_Tables_number   1
_chemical_formula_structural   CuNiC8
_chemical_formula_sum   'Cu2 Ni2 C16'
_cell_volume   239.61664086
_cell_formula_units_Z   2
loop_
 _symmetry_equiv_pos_site_id
 _symmetry_equiv_pos_as_xyz
  1  'x, y, z'
loop_
 _atom_site_type_symbol
 _atom_site_label
 _atom_site_symmetry_multiplicity
 _atom_site_fract_x
 _atom_site_fract_y
 _atom_site_fract_z
 _atom_site_occupancy
  C  C0  1  0.75000000  0.97812000  0.04672800  1
  C  C1  1  0.75000000  0.50495000  0.57124600  1
  C  C2  1  0.25000000  0.49505000  0.42875400  1
  C  C3  1  0.25000000  0.02188000  0.95327200  1
  Ni  Ni4  1  0.00000000  0.00000000  0.50000000  1
  Ni  Ni5  1  0.50000000  0.00000000  0.50000000  1
  Cu  Cu6  1  0.00000000  0.50000000  0.00000000  1
  Cu  Cu7  1  0.50000000  0.50000000  0.00000000  1
  C  C8  1  0.45288700  0.20399600  0.20065100  1
  C  C9  1  0.54711900  0.71943100  0.31438300  1
  C  C10  1  0.54711300  0.79600400  0.79934900  1
  C  C11  1  0.04711900  0.28056900  0.68561700  1
  C  C12  1  0.25000000  0.90340400  0.52769200  1
  C  C13  1  0.45288100  0.28056900  0.68561700  1
  C  C14  1  0.95288100  0.71943100  0.31438300  1
  C  C15  1  0.04711300  0.20399600  0.20065100  1
  C  C16  1  0.75000000  0.40465600  0.97256500  1
  C  C17  1  0.95288700  0.79600400  0.79934900  1
  C  C18  1  0.25000000  0.59534400  0.02743500  1
  C  C19  1  0.75000000  0.09659600  0.47230800  1
