# generated using pymatgen
data_Cu6Ni2C
_symmetry_space_group_name_H-M   'P 1'
_cell_length_a   7.77987400
_cell_length_b   7.97689085
_cell_length_c   8.81460468
_cell_angle_alpha   92.17178982
_cell_angle_beta   93.77056033
_cell_angle_gamma   92.90075256
_symmetry_Int_Tables_number   1
_chemical_formula_structural   Cu6Ni2C
_chemical_formula_sum   'Cu24 Ni8 C4'
_cell_volume   544.67725725
_cell_formula_units_Z   4
loop_
 _symmetry_equiv_pos_site_id
 _symmetry_equiv_pos_as_xyz
  1  'x, y, z'
loop_
 _atom_site_type_symbol
 _atom_site_label
 _atom_site_symmetry_multiplicity
 _atom_site_fract_x
 _atom_site_fract_y
 _atom_site_fract_z
 _atom_site_occupancy
  C  C0  1  0.34996900  0.12971600  0.01743000  1
  C  C1  1  0.84342400  0.81397800  0.87244700  1
  C  C2  1  0.81978400  0.32552100  0.13889000  1
  C  C3  1  0.67486700  0.28147100  0.64261800  1
  Ni  Ni4  1  0.08893900  0.96343700  0.00602700  1
  Ni  Ni5  1  0.05586500  0.17757100  0.05190000  1
  Ni  Ni6  1  0.47272800  0.13087800  0.77117500  1
  Ni  Ni7  1  0.66494400  0.01989500  0.77652800  1
  Ni  Ni8  1  0.68296100  0.28999400  0.37334900  1
  Ni  Ni9  1  0.55539500  0.19834600  0.21545200  1
  Ni  Ni10  1  0.79954200  0.52986500  0.78105800  1
  Ni  Ni11  1  0.77271100  0.55601000  0.97872800  1
  Cu  Cu12  1  0.92972400  0.21191600  0.97035600  1
  Cu  Cu13  1  0.22876100  0.90080100  0.04002500  1
  Cu  Cu14  1  0.64190800  0.88263200  0.70831800  1
  Cu  Cu15  1  0.48216800  0.25540600  0.86198600  1
  Cu  Cu16  1  0.63371300  0.13488700  0.10977900  1
  Cu  Cu17  1  0.80399000  0.39495500  0.35557300  1
  Cu  Cu18  1  0.90884900  0.54274900  0.05899000  1
  Cu  Cu19  1  0.65501700  0.52123100  0.71150200  1
  Cu  Cu20  1  0.07124800  0.93474900  0.86511400  1
  Cu  Cu21  1  0.16250800  0.29219500  0.02570400  1
  Cu  Cu22  1  0.42063300  0.19064000  0.65036700  1
  Cu  Cu23  1  0.80017500  0.08400100  0.73006100  1
  Cu  Cu24  1  0.98790200  0.87644300  0.07373100  1
  Cu  Cu25  1  0.03402900  0.19808800  0.18986900  1
  Cu  Cu26  1  0.70165900  0.00334100  0.91366700  1
  Cu  Cu27  1  0.35271500  0.03386400  0.79676700  1
  Cu  Cu28  1  0.75253800  0.18045700  0.44824300  1
  Cu  Cu29  1  0.46860700  0.30913900  0.15851400  1
  Cu  Cu30  1  0.88093000  0.63602300  0.71021000  1
  Cu  Cu31  1  0.71517500  0.68706900  0.02995300  1
  Cu  Cu32  1  0.58538200  0.37349200  0.44620000  1
  Cu  Cu33  1  0.46127200  0.08317000  0.25406900  1
  Cu  Cu34  1  0.65898000  0.45268700  0.00733500  1
  Cu  Cu35  1  0.88098600  0.40337800  0.75806400  1
