# generated using pymatgen
data_Cu(NiC8)3
_symmetry_space_group_name_H-M   'P 1'
_cell_length_a   12.26538991
_cell_length_b   12.26538991
_cell_length_c   12.26538971
_cell_angle_alpha   33.58023814
_cell_angle_beta   33.58023814
_cell_angle_gamma   33.58024120
_symmetry_Int_Tables_number   1
_chemical_formula_structural   Cu(NiC8)3
_chemical_formula_sum   'Cu1 Ni3 C24'
_cell_volume   502.82558837
_cell_formula_units_Z   1
loop_
 _symmetry_equiv_pos_site_id
 _symmetry_equiv_pos_as_xyz
  1  'x, y, z'
loop_
 _atom_site_type_symbol
 _atom_site_label
 _atom_site_symmetry_multiplicity
 _atom_site_fract_x
 _atom_site_fract_y
 _atom_site_fract_z
 _atom_site_occupancy
  Ni  Ni0  1  0.18748000  0.18748000  0.18748000  1
  Ni  Ni1  1  0.81247000  0.81247000  0.81247000  1
  Ni  Ni2  1  0.31255100  0.31255100  0.31255100  1
  C  C3  1  0.00059300  0.00059300  0.00059400  1
  C  C4  1  0.49992300  0.49992300  0.49992300  1
  C  C5  1  0.75135400  0.24887900  0.24887900  1
  C  C6  1  0.25118800  0.74959000  0.74959000  1
  C  C7  1  0.24887900  0.75135400  0.24887900  1
  C  C8  1  0.74959000  0.25118800  0.74959000  1
  C  C9  1  0.24887900  0.24887900  0.75135400  1
  C  C10  1  0.74959000  0.74959000  0.25118800  1
  Cu  Cu11  1  0.68750500  0.68750500  0.68750500  1
  C  C12  1  0.11977200  0.11977200  0.11977200  1
  C  C13  1  0.62090800  0.62090800  0.62090800  1
  C  C14  1  0.35487000  0.88709300  0.88709300  1
  C  C15  1  0.84894400  0.39063400  0.39063400  1
  C  C16  1  0.88709300  0.35487000  0.88709300  1
  C  C17  1  0.39063400  0.84894400  0.39063400  1
  C  C18  1  0.88709300  0.88709300  0.35487000  1
  C  C19  1  0.39063400  0.39063400  0.84894400  1
  C  C20  1  0.38032400  0.38032400  0.38032400  1
  C  C21  1  0.88028300  0.88028300  0.88028300  1
  C  C22  1  0.15141500  0.60910000  0.60910000  1
  C  C23  1  0.65172200  0.10905300  0.10905300  1
  C  C24  1  0.60910000  0.15141500  0.60910000  1
  C  C25  1  0.10905300  0.65172200  0.10905300  1
  C  C26  1  0.60910000  0.60910000  0.15141500  1
  C  C27  1  0.10905300  0.10905300  0.65172200  1
