# generated using pymatgen
data_CuNi3C14
_symmetry_space_group_name_H-M   'P 1'
_cell_length_a   7.39227307
_cell_length_b   7.47117459
_cell_length_c   8.02157771
_cell_angle_alpha   91.03073894
_cell_angle_beta   90.00000210
_cell_angle_gamma   60.34873945
_symmetry_Int_Tables_number   1
_chemical_formula_structural   CuNi3C14
_chemical_formula_sum   'Cu2 Ni6 C28'
_cell_volume   384.92819212
_cell_formula_units_Z   2
loop_
 _symmetry_equiv_pos_site_id
 _symmetry_equiv_pos_as_xyz
  1  'x, y, z'
loop_
 _atom_site_type_symbol
 _atom_site_label
 _atom_site_symmetry_multiplicity
 _atom_site_fract_x
 _atom_site_fract_y
 _atom_site_fract_z
 _atom_site_occupancy
  C  C0  1  0.66771700  0.66618300  0.25050800  1
  C  C1  1  0.33390000  0.33381700  0.74949200  1
  C  C2  1  0.58853700  0.41031800  0.49822400  1
  C  C3  1  0.41009900  0.00000000  0.50000000  1
  C  C4  1  0.99885500  0.58968200  0.50177600  1
  C  C5  1  0.40897600  0.59020600  0.99933400  1
  C  C6  1  0.58661700  0.00000000  0.00000000  1
  C  C7  1  0.99918200  0.40979400  0.00066600  1
  C  C8  1  0.98179500  0.91274100  0.34557600  1
  C  C9  1  0.93443100  0.14896800  0.28761600  1
  C  C10  1  0.89453500  0.08725900  0.65442400  1
  C  C11  1  0.08339900  0.85103200  0.71238400  1
  C  C12  1  0.89085200  0.02072900  0.84528800  1
  C  C13  1  0.08495000  0.06537800  0.78792300  1
  C  C14  1  0.91158100  0.97927100  0.15471200  1
  C  C15  1  0.15032800  0.93462200  0.21207700  1
  Ni  Ni16  1  0.44206200  0.55942300  0.50139400  1
  Ni  Ni17  1  0.55955900  0.00000000  0.50000000  1
  Ni  Ni18  1  0.00148400  0.44057700  0.49860600  1
  Ni  Ni19  1  0.55723500  0.44299300  0.99997300  1
  Ni  Ni20  1  0.43715300  0.00000000  0.00000000  1
  Ni  Ni21  1  0.00022800  0.55700700  0.00002700  1
  Cu  Cu22  1  0.99570300  0.99524700  0.25010900  1
  Cu  Cu23  1  0.99095000  0.00475300  0.74989100  1
  C  C24  1  0.42221300  0.69503600  0.39901900  1
  C  C25  1  0.70104500  0.88002700  0.39807700  1
  C  C26  1  0.88740500  0.41641700  0.39193400  1
  C  C27  1  0.11724800  0.30496400  0.60098100  1
  C  C28  1  0.58107300  0.11997300  0.60192300  1
  C  C29  1  0.30382200  0.58358300  0.60806600  1
  C  C30  1  0.57935700  0.30165000  0.89697300  1
  C  C31  1  0.30197000  0.11134700  0.89393200  1
  C  C32  1  0.11875500  0.57680400  0.89729300  1
  C  C33  1  0.88100700  0.69835000  0.10302700  1
  C  C34  1  0.41331700  0.88865300  0.10606800  1
  C  C35  1  0.69555900  0.42319600  0.10270700  1
