# generated using pymatgen
data_Cu4NiC8
_symmetry_space_group_name_H-M   'P 1'
_cell_length_a   7.05904804
_cell_length_b   7.05904804
_cell_length_c   7.05904747
_cell_angle_alpha   57.11275692
_cell_angle_beta   57.11275692
_cell_angle_gamma   57.11275193
_symmetry_Int_Tables_number   1
_chemical_formula_structural   Cu4NiC8
_chemical_formula_sum   'Cu4 Ni1 C8'
_cell_volume   232.17796008
_cell_formula_units_Z   1
loop_
 _symmetry_equiv_pos_site_id
 _symmetry_equiv_pos_as_xyz
  1  'x, y, z'
loop_
 _atom_site_type_symbol
 _atom_site_label
 _atom_site_symmetry_multiplicity
 _atom_site_fract_x
 _atom_site_fract_y
 _atom_site_fract_z
 _atom_site_occupancy
  Ni  Ni0  1  0.50000000  0.50000000  0.50000000  1
  Cu  Cu1  1  0.00000000  0.50000000  0.50000000  1
  Cu  Cu2  1  0.50000000  0.00000000  0.50000000  1
  Cu  Cu3  1  0.50000000  0.50000000  0.00000000  1
  Cu  Cu4  1  0.00000000  0.00000000  0.00000000  1
  C  C5  1  0.27417500  0.76051400  0.76051400  1
  C  C6  1  0.23948600  0.23948600  0.72582500  1
  C  C7  1  0.72582500  0.23948600  0.23948600  1
  C  C8  1  0.23948600  0.72582500  0.23948600  1
  C  C9  1  0.26677600  0.26677600  0.26677600  1
  C  C10  1  0.73322400  0.73322400  0.73322400  1
  C  C11  1  0.76051400  0.27417500  0.76051400  1
  C  C12  1  0.76051400  0.76051400  0.27417500  1
