# generated using pymatgen
data_Cu3Ni5C28
_symmetry_space_group_name_H-M   'P 1'
_cell_length_a   11.12485943
_cell_length_b   11.16540639
_cell_length_c   17.95578383
_cell_angle_alpha   108.09159489
_cell_angle_beta   107.83188660
_cell_angle_gamma   90.31697666
_symmetry_Int_Tables_number   1
_chemical_formula_structural   Cu3Ni5C28
_chemical_formula_sum   'Cu12 Ni20 C112'
_cell_volume   2005.71806362
_cell_formula_units_Z   4
loop_
 _symmetry_equiv_pos_site_id
 _symmetry_equiv_pos_as_xyz
  1  'x, y, z'
loop_
 _atom_site_type_symbol
 _atom_site_label
 _atom_site_symmetry_multiplicity
 _atom_site_fract_x
 _atom_site_fract_y
 _atom_site_fract_z
 _atom_site_occupancy
  C  C0  1  0.30856461  0.06129823  0.11737565  1
  C  C1  1  0.31049734  0.56081887  0.11795704  1
  C  C2  1  0.80768467  0.05582191  0.11915506  1
  C  C3  1  0.80720678  0.55792737  0.11558688  1
  C  C4  1  0.18773294  0.94048462  0.87525289  1
  C  C5  1  0.05197026  0.80113519  0.11385231  1
  C  C6  1  0.55748793  0.30912691  0.11567179  1
  C  C7  1  0.93165664  0.68361530  0.87481890  1
  C  C8  1  0.30423042  0.05824576  0.61469501  1
  C  C9  1  0.30931853  0.56045601  0.61170877  1
  C  C10  1  0.80459334  0.05783800  0.61043269  1
  C  C11  1  0.80386402  0.55714388  0.60978749  1
  C  C12  1  0.19653773  0.44159341  0.39192724  1
  C  C13  1  0.19305257  0.44046014  0.88457802  1
  C  C14  1  0.19875794  0.93883741  0.39319695  1
  C  C15  1  0.69555689  0.44206139  0.39052691  1
  C  C16  1  0.69509290  0.43646066  0.88451324  1
  C  C17  1  0.69074610  0.94310734  0.39009026  1
  C  C18  1  0.68837076  0.93932774  0.88468160  1
  C  C19  1  0.06159831  0.30154406  0.11087856  1
  C  C20  1  0.05261702  0.30441251  0.61333911  1
  C  C21  1  0.05492723  0.80344373  0.61043087  1
  C  C22  1  0.56221154  0.30532269  0.61319055  1
  C  C23  1  0.55857689  0.81031588  0.11275951  1
  C  C24  1  0.55740291  0.80294637  0.61113977  1
  C  C25  1  0.44597148  0.20021177  0.39184605  1
  C  C26  1  0.44402599  0.19619650  0.88459138  1
  C  C27  1  0.44927252  0.70169351  0.39300819  1
  C  C28  1  0.44296078  0.69842519  0.88406387  1
  C  C29  1  0.94698808  0.19617427  0.39185961  1
  C  C30  1  0.94520338  0.19159693  0.88423621  1
  C  C31  1  0.94182983  0.70214037  0.39449866  1
  Ni  Ni32  1  0.99152882  0.99461091  0.98385910  1
  Ni  Ni33  1  0.99610736  0.00096328  0.49950370  1
  Ni  Ni34  1  0.99441316  0.48786829  0.98492542  1
  Ni  Ni35  1  0.00309356  0.50426420  0.50648714  1
  Ni  Ni36  1  0.49402213  0.99635024  0.98970315  1
  Ni  Ni37  1  0.50315116  0.00052534  0.50256484  1
  Ni  Ni38  1  0.49542271  0.49266132  0.98216532  1
  Ni  Ni39  1  0.50344472  0.49779561  0.49733460  1
  Ni  Ni40  1  0.24467838  0.24598926  0.99172462  1
  Ni  Ni41  1  0.25723297  0.25469710  0.50897210  1
  Ni  Ni42  1  0.24739503  0.74684595  0.99302827  1
  Ni  Ni43  1  0.25591922  0.75328624  0.50442727  1
  Ni  Ni44  1  0.74710669  0.24212638  0.98887750  1
  Ni  Ni45  1  0.75084000  0.24925296  0.49845499  1
  Ni  Ni46  1  0.73881473  0.74282460  0.98775022  1
  Ni  Ni47  1  0.75533595  0.75433531  0.50836756  1
  Ni  Ni48  1  0.11950324  0.09369200  0.25850511  1
  Ni  Ni49  1  0.11546352  0.59344247  0.25672685  1
  Ni  Ni50  1  0.62028597  0.60429035  0.25998449  1
  Ni  Ni51  1  0.87177260  0.40738213  0.25600661  1
  Cu  Cu52  1  0.11284506  0.10397174  0.74482270  1
  Cu  Cu53  1  0.11776431  0.59453827  0.74711071  1
  Cu  Cu54  1  0.61925961  0.10070195  0.25654264  1
  Cu  Cu55  1  0.61484783  0.09884514  0.74764696  1
  Cu  Cu56  1  0.60957003  0.59749462  0.74758645  1
  Cu  Cu57  1  0.36093014  0.40514698  0.25509384  1
  Cu  Cu58  1  0.36399402  0.40128299  0.74747486  1
  Cu  Cu59  1  0.36787056  0.90265060  0.25405595  1
  Cu  Cu60  1  0.36772999  0.89964639  0.74590789  1
  Cu  Cu61  1  0.86361961  0.39149917  0.74550099  1
  Cu  Cu62  1  0.86167470  0.89353001  0.25759338  1
  Cu  Cu63  1  0.85694956  0.90485289  0.74474641  1
  C  C64  1  0.11718222  0.11546371  0.49722680  1
  C  C65  1  0.11664981  0.12064199  0.99167704  1
  C  C66  1  0.11648574  0.61417858  0.49622184  1
  C  C67  1  0.11284018  0.61195247  0.99195268  1
  C  C68  1  0.61497076  0.11881362  0.49683594  1
  C  C69  1  0.61526601  0.11367737  0.99215445  1
  C  C70  1  0.62125298  0.62194383  0.49841764  1
  C  C71  1  0.61555972  0.62377336  0.99260032  1
  C  C72  1  0.13173758  0.36747664  0.99728777  1
  C  C73  1  0.13883865  0.36856661  0.50788059  1
  C  C74  1  0.11732987  0.87244833  0.99733563  1
  C  C75  1  0.13613393  0.86554571  0.50539453  1
  C  C76  1  0.62896126  0.37080464  0.99555765  1
  C  C77  1  0.63622890  0.37172045  0.50521849  1
  C  C78  1  0.62185453  0.86892778  0.99927864  1
  C  C79  1  0.63396657  0.87134706  0.50587486  1
  C  C80  1  0.36396171  0.13272064  0.49643951  1
  C  C81  1  0.36728373  0.13222459  0.99056896  1
  C  C82  1  0.36594710  0.63220870  0.49620071  1
  C  C83  1  0.36645105  0.63502939  0.99301934  1
  C  C84  1  0.86603250  0.12776643  0.49652574  1
  C  C85  1  0.87439789  0.11113015  0.99367267  1
  C  C86  1  0.86633489  0.62532125  0.49478799  1
  C  C87  1  0.86102272  0.61626908  0.98990059  1
  C  C88  1  0.38256095  0.39075798  0.99731481  1
  C  C89  1  0.38853083  0.38915568  0.50903253  1
  C  C90  1  0.37893320  0.88518697  0.99727041  1
  C  C91  1  0.38489284  0.89003061  0.50881159  1
  C  C92  1  0.88767847  0.37399676  0.99763178  1
  C  C93  1  0.88854285  0.38467760  0.50630990  1
  C  C94  1  0.86128697  0.86436127  0.99680535  1
  C  C95  1  0.88286839  0.88272933  0.50907054  1
  C  C96  1  0.08605383  0.10667590  0.15762373  1
  C  C97  1  0.06977639  0.08782028  0.63355936  1
  C  C98  1  0.07961374  0.58578668  0.15050017  1
  C  C99  1  0.07927838  0.58956905  0.63740395  1
  C  C100  1  0.57352853  0.08004032  0.14413914  1
  C  C101  1  0.57511979  0.08697962  0.63691350  1
  C  C102  1  0.58165620  0.60581703  0.15664805  1
  C  C103  1  0.57906509  0.58655915  0.63831743  1
  C  C104  1  0.44075985  0.41713039  0.36905026  1
  C  C105  1  0.44083911  0.41824124  0.85954108  1
  C  C106  1  0.43673704  0.91355530  0.36595323  1
  C  C107  1  0.43781030  0.91500442  0.85783268  1
  C  C108  1  0.94451761  0.39767003  0.35851799  1
  C  C109  1  0.93910234  0.40763220  0.85821057  1
  C  C110  1  0.93824063  0.91465090  0.36970795  1
  C  C111  1  0.92365671  0.91947821  0.85857505  1
  C  C112  1  0.31928237  0.31157251  0.13974714  1
  C  C113  1  0.32769018  0.29953608  0.63764006  1
  C  C114  1  0.32752250  0.81387016  0.13884325  1
  C  C115  1  0.32908173  0.79872983  0.63546345  1
  C  C116  1  0.84010683  0.31298281  0.14840665  1
  C  C117  1  0.81829404  0.29619656  0.63412869  1
  C  C118  1  0.81811500  0.81172206  0.14502867  1
  C  C119  1  0.82235381  0.79862027  0.63281546  1
  C  C120  1  0.19781671  0.20865277  0.35817988  1
  C  C121  1  0.18684097  0.19765397  0.85782550  1
  C  C122  1  0.19782581  0.70229032  0.36021897  1
  C  C123  1  0.18727330  0.68796466  0.86021747  1
  C  C124  1  0.69570087  0.20097822  0.36765039  1
  C  C125  1  0.69000450  0.19261859  0.85941929  1
  C  C126  1  0.69206655  0.70644045  0.36547915  1
  C  C127  1  0.67103600  0.69434011  0.86046282  1
  C  C128  1  0.46325915  0.05216288  0.26262597  1
  C  C129  1  0.45402528  0.05569744  0.74892239  1
  C  C130  1  0.46278639  0.55248050  0.26255966  1
  C  C131  1  0.44624218  0.55457203  0.74661886  1
  C  C132  1  0.96804628  0.04731628  0.26264729  1
  C  C133  1  0.95296961  0.05109192  0.74696365  1
  C  C134  1  0.95193791  0.56545560  0.26333174  1
  C  C135  1  0.95672080  0.52710204  0.73572791  1
  C  C136  1  0.19238284  0.44185205  0.25412619  1
  C  C137  1  0.20242261  0.44147298  0.74767763  1
  C  C138  1  0.20434730  0.95482737  0.25916001  1
  C  C139  1  0.20828004  0.96035668  0.73531018  1
  C  C140  1  0.70631635  0.45446255  0.25973019  1
  C  C141  1  0.70652675  0.45416735  0.75010561  1
  C  C142  1  0.70240883  0.94723381  0.25401930  1
  C  C143  1  0.69548051  0.94457125  0.74707245  1
