# generated using pymatgen
data_Cu4Ni8C35
_symmetry_space_group_name_H-M   'P 1'
_cell_length_a   11.58280027
_cell_length_b   11.19798011
_cell_length_c   11.51981062
_cell_angle_alpha   92.79586328
_cell_angle_beta   89.35335017
_cell_angle_gamma   81.50386429
_symmetry_Int_Tables_number   1
_chemical_formula_structural   Cu4Ni8C35
_chemical_formula_sum   'Cu8 Ni16 C70'
_cell_volume   1475.75022547
_cell_formula_units_Z   2
loop_
 _symmetry_equiv_pos_site_id
 _symmetry_equiv_pos_as_xyz
  1  'x, y, z'
loop_
 _atom_site_type_symbol
 _atom_site_label
 _atom_site_symmetry_multiplicity
 _atom_site_fract_x
 _atom_site_fract_y
 _atom_site_fract_z
 _atom_site_occupancy
  C  C0  1  0.20481774  0.78186620  0.80896794  1
  C  C1  1  0.34727411  0.48384515  0.65221987  1
  C  C2  1  0.72605926  0.57877876  0.19704517  1
  C  C3  1  0.67874329  0.00509779  0.19742756  1
  C  C4  1  0.20667880  0.60508837  0.14284793  1
  C  C5  1  0.90977687  0.29330177  0.13571026  1
  C  C6  1  0.14279990  0.51512626  0.34486442  1
  C  C7  1  0.07322880  0.63668605  0.06440540  1
  C  C8  1  0.02978423  0.32964306  0.47034979  1
  C  C9  1  0.17247639  0.95730517  0.64250123  1
  C  C10  1  0.25173285  0.46077327  0.66077516  1
  C  C11  1  0.46444726  0.05480711  0.00579233  1
  C  C12  1  0.37901210  0.73577593  0.97542437  1
  C  C13  1  0.28172134  0.08719451  0.67682445  1
  C  C14  1  0.55709453  0.52638688  0.83092474  1
  C  C15  1  0.36403486  0.87526489  0.06421345  1
  C  C16  1  0.51511340  0.10859120  0.51876222  1
  C  C17  1  0.40215004  0.27408606  0.03641997  1
  C  C18  1  0.55543003  0.20110108  0.88045940  1
  C  C19  1  0.37607251  0.20677089  0.27022399  1
  C  C20  1  0.21045834  0.58778769  0.98626198  1
  C  C21  1  0.39785707  0.95709661  0.40507464  1
  C  C22  1  0.57447573  0.12133431  0.53646219  1
  C  C23  1  0.79565585  0.61056414  0.13492241  1
  C  C24  1  0.67537415  0.90504290  0.70063740  1
  C  C25  1  0.37212306  0.73224505  0.13088212  1
  C  C26  1  0.61191323  0.77127057  0.91347055  1
  C  C27  1  0.42005851  0.89380801  0.42286955  1
  C  C28  1  0.55801050  0.14984471  0.72401501  1
  C  C29  1  0.54820625  0.40533101  0.28621534  1
  C  C30  1  0.70072861  0.00763306  0.42090212  1
  C  C31  1  0.44931267  0.24575469  0.07484547  1
  C  C32  1  0.48690327  0.99303949  0.97938242  1
  C  C33  1  0.58032379  0.65492934  0.27616461  1
  C  C34  1  0.95106717  0.06596394  0.33043378  1
  C  C35  1  0.95267303  0.80327076  0.64885603  1
  C  C36  1  0.94679151  0.20527754  0.04785846  1
  C  C37  1  0.06037663  0.30863438  0.70625942  1
  C  C38  1  0.03624980  0.69706773  0.85083236  1
  C  C39  1  0.62897253  0.75254253  0.97320109  1
  C  C40  1  0.94080657  0.28804602  0.81944545  1
  C  C41  1  0.75028560  0.46284403  0.47146967  1
  C  C42  1  0.76061558  0.02602660  0.41883307  1
  C  C43  1  0.28503870  0.70184440  0.81307708  1
  C  C44  1  0.67409809  0.35963749  0.91932021  1
  C  C45  1  0.37241408  0.98588202  0.78791641  1
  C  C46  1  0.52344594  0.46419469  0.02067304  1
  C  C47  1  0.79554446  0.35443148  0.32942102  1
  C  C48  1  0.78075211  0.98030205  0.17592647  1
  C  C49  1  0.17247948  0.81280353  0.71405841  1
  C  C50  1  0.97684846  0.89505717  0.25205884  1
  C  C51  1  0.00961882  0.26877282  0.46471942  1
  C  C52  1  0.96656342  0.05579479  0.03761195  1
  C  C53  1  0.47418728  0.52333366  0.48820682  1
  Ni  Ni54  1  0.16752673  0.63905580  0.06236539  1
  Ni  Ni55  1  0.01096341  0.04265758  0.19195793  1
  Ni  Ni56  1  0.45561012  0.51535817  0.67570701  1
  Ni  Ni57  1  0.33890417  0.44992361  0.39978716  1
  Ni  Ni58  1  0.34199377  0.78352516  0.05544393  1
  Ni  Ni59  1  0.13447590  0.83557496  0.91529787  1
  Ni  Ni60  1  0.35017072  0.18461707  0.35816560  1
  Ni  Ni61  1  0.54932422  0.54410662  0.73876607  1
  Ni  Ni62  1  0.58983119  0.47054761  0.33885558  1
  Ni  Ni63  1  0.76997340  0.89253753  0.71277201  1
  Ni  Ni64  1  0.95583307  0.95984949  0.83484292  1
  Ni  Ni65  1  0.59164253  0.20512679  0.79288211  1
  Ni  Ni66  1  0.63081234  0.60379165  0.68556900  1
  Ni  Ni67  1  0.63429821  0.56419802  0.27123993  1
  Ni  Ni68  1  0.02633735  0.91140188  0.92254386  1
  Ni  Ni69  1  0.01298790  0.33075600  0.78836884  1
  Cu  Cu70  1  0.18551364  0.79570539  0.05800061  1
  Cu  Cu71  1  0.32087260  0.29647701  0.45048863  1
  Cu  Cu72  1  0.21055446  0.56046383  0.42683537  1
  Cu  Cu73  1  0.68733084  0.29272436  0.76602976  1
  Cu  Cu74  1  0.62186784  0.64333775  0.54580261  1
  Cu  Cu75  1  0.70525667  0.37278520  0.41037486  1
  Cu  Cu76  1  0.80674130  0.95707666  0.83848879  1
  Cu  Cu77  1  0.84734900  0.82064492  0.59812506  1
  C  C78  1  0.20108230  0.01928793  0.60123931  1
  C  C79  1  0.07271194  0.38193021  0.87313052  1
  C  C80  1  0.98729192  0.64847255  0.80978442  1
  C  C81  1  0.11976866  0.06438361  0.21240016  1
  C  C82  1  0.35786525  0.43535466  0.27817340  1
  C  C83  1  0.33542761  0.11212065  0.73473398  1
  C  C84  1  0.38902233  0.90276577  0.80932164  1
  C  C85  1  0.44573828  0.50959513  0.02075087  1
  C  C86  1  0.65193142  0.39032112  0.00222847  1
  C  C87  1  0.62689721  0.11989689  0.20301166  1
  C  C88  1  0.61217876  0.91921012  0.21063441  1
  C  C89  1  0.72028667  0.63551339  0.74985179  1
  C  C90  1  0.99916770  0.97941517  0.72374865  1
  C  C91  1  0.88912423  0.36351555  0.19069691  1
  C  C92  1  0.97498697  0.81107805  0.26624975  1
  C  C93  1  0.92727481  0.09453850  0.41108969  1
