# generated using pymatgen
data_Cu6NiC14
_symmetry_space_group_name_H-M   'P 1'
_cell_length_a   12.77919900
_cell_length_b   12.77919900
_cell_length_c   12.77919900
_cell_angle_alpha   90.00000000
_cell_angle_beta   90.00000000
_cell_angle_gamma   90.00000000
_symmetry_Int_Tables_number   1
_chemical_formula_structural   Cu6NiC14
_chemical_formula_sum   'Cu24 Ni4 C56'
_cell_volume   2086.94449845
_cell_formula_units_Z   4
loop_
 _symmetry_equiv_pos_site_id
 _symmetry_equiv_pos_as_xyz
  1  'x, y, z'
loop_
 _atom_site_type_symbol
 _atom_site_label
 _atom_site_symmetry_multiplicity
 _atom_site_fract_x
 _atom_site_fract_y
 _atom_site_fract_z
 _atom_site_occupancy
  Ni  Ni0  1  0.75000000  0.25000000  0.25000000  1
  Ni  Ni1  1  0.25000000  0.25000000  0.75000000  1
  Ni  Ni2  1  0.25000000  0.75000000  0.25000000  1
  Ni  Ni3  1  0.75000000  0.75000000  0.75000000  1
  Cu  Cu4  1  0.10865900  0.22280800  0.27271800  1
  Cu  Cu5  1  0.89134100  0.22280800  0.72728200  1
  Cu  Cu6  1  0.89134100  0.77719200  0.27271800  1
  Cu  Cu7  1  0.10865900  0.77719200  0.72728200  1
  Cu  Cu8  1  0.27271800  0.10865900  0.22280800  1
  Cu  Cu9  1  0.72728200  0.89134100  0.22280800  1
  Cu  Cu10  1  0.27271800  0.89134100  0.77719200  1
  Cu  Cu11  1  0.72728200  0.10865900  0.77719200  1
  Cu  Cu12  1  0.22280800  0.27271800  0.10865900  1
  Cu  Cu13  1  0.22280800  0.72728200  0.89134100  1
  Cu  Cu14  1  0.77719200  0.27271800  0.89134100  1
  Cu  Cu15  1  0.77719200  0.72728200  0.10865900  1
  Cu  Cu16  1  0.39134100  0.27719200  0.22728200  1
  Cu  Cu17  1  0.60865900  0.27719200  0.77271800  1
  Cu  Cu18  1  0.60865900  0.72280800  0.22728200  1
  Cu  Cu19  1  0.39134100  0.72280800  0.77271800  1
  Cu  Cu20  1  0.22728200  0.39134100  0.27719200  1
  Cu  Cu21  1  0.77271800  0.60865900  0.27719200  1
  Cu  Cu22  1  0.22728200  0.60865900  0.72280800  1
  Cu  Cu23  1  0.77271800  0.39134100  0.72280800  1
  Cu  Cu24  1  0.27719200  0.22728200  0.39134100  1
  Cu  Cu25  1  0.27719200  0.77271800  0.60865900  1
  Cu  Cu26  1  0.72280800  0.22728200  0.60865900  1
  Cu  Cu27  1  0.72280800  0.77271800  0.39134100  1
  C  C28  1  0.92199000  0.18089900  0.30965000  1
  C  C29  1  0.07801000  0.18089900  0.69035000  1
  C  C30  1  0.07801000  0.81910100  0.30965000  1
  C  C31  1  0.92199000  0.81910100  0.69035000  1
  C  C32  1  0.30965000  0.92199000  0.18089900  1
  C  C33  1  0.69035000  0.07801000  0.18089900  1
  C  C34  1  0.30965000  0.07801000  0.81910100  1
  C  C35  1  0.69035000  0.92199000  0.81910100  1
  C  C36  1  0.18089900  0.30965000  0.92199000  1
  C  C37  1  0.18089900  0.69035000  0.07801000  1
  C  C38  1  0.81910100  0.30965000  0.07801000  1
  C  C39  1  0.81910100  0.69035000  0.92199000  1
  C  C40  1  0.57801000  0.31910100  0.19035000  1
  C  C41  1  0.42199000  0.31910100  0.80965000  1
  C  C42  1  0.42199000  0.68089900  0.19035000  1
  C  C43  1  0.57801000  0.68089900  0.80965000  1
  C  C44  1  0.19035000  0.57801000  0.31910100  1
  C  C45  1  0.80965000  0.42199000  0.31910100  1
  C  C46  1  0.19035000  0.42199000  0.68089900  1
  C  C47  1  0.80965000  0.57801000  0.68089900  1
  C  C48  1  0.31910100  0.19035000  0.57801000  1
  C  C49  1  0.31910100  0.80965000  0.42199000  1
  C  C50  1  0.68089900  0.19035000  0.42199000  1
  C  C51  1  0.68089900  0.80965000  0.57801000  1
  C  C52  1  0.38916400  0.61083600  0.61083600  1
  C  C53  1  0.61083600  0.61083600  0.38916400  1
  C  C54  1  0.61083600  0.38916400  0.61083600  1
  C  C55  1  0.38916400  0.38916400  0.38916400  1
  C  C56  1  0.11083600  0.88916400  0.88916400  1
  C  C57  1  0.88916400  0.88916400  0.11083600  1
  C  C58  1  0.88916400  0.11083600  0.88916400  1
  C  C59  1  0.11083600  0.11083600  0.11083600  1
  C  C60  1  0.06811000  0.37982400  0.16390400  1
  C  C61  1  0.93189000  0.37982400  0.83609600  1
  C  C62  1  0.93189000  0.62017600  0.16390400  1
  C  C63  1  0.06811000  0.62017600  0.83609600  1
  C  C64  1  0.16390400  0.06811000  0.37982400  1
  C  C65  1  0.83609600  0.93189000  0.37982400  1
  C  C66  1  0.16390400  0.93189000  0.62017600  1
  C  C67  1  0.83609600  0.06811000  0.62017600  1
  C  C68  1  0.37982400  0.16390400  0.06811000  1
  C  C69  1  0.37982400  0.83609600  0.93189000  1
  C  C70  1  0.62017600  0.16390400  0.93189000  1
  C  C71  1  0.62017600  0.83609600  0.06811000  1
  C  C72  1  0.43189000  0.12017600  0.33609600  1
  C  C73  1  0.56811000  0.12017600  0.66390400  1
  C  C74  1  0.56811000  0.87982400  0.33609600  1
  C  C75  1  0.43189000  0.87982400  0.66390400  1
  C  C76  1  0.33609600  0.43189000  0.12017600  1
  C  C77  1  0.66390400  0.56811000  0.12017600  1
  C  C78  1  0.33609600  0.56811000  0.87982400  1
  C  C79  1  0.66390400  0.43189000  0.87982400  1
  C  C80  1  0.12017600  0.33609600  0.43189000  1
  C  C81  1  0.12017600  0.66390400  0.56811000  1
  C  C82  1  0.87982400  0.33609600  0.56811000  1
  C  C83  1  0.87982400  0.66390400  0.43189000  1
