# generated using pymatgen
data_Cu6NiC25
_symmetry_space_group_name_H-M   'P 1'
_cell_length_a   7.35551000
_cell_length_b   13.07217100
_cell_length_c   13.69177200
_cell_angle_alpha   90.00000000
_cell_angle_beta   90.00000000
_cell_angle_gamma   90.00000000
_symmetry_Int_Tables_number   1
_chemical_formula_structural   Cu6NiC25
_chemical_formula_sum   'Cu24 Ni4 C100'
_cell_volume   1316.49789517
_cell_formula_units_Z   4
loop_
 _symmetry_equiv_pos_site_id
 _symmetry_equiv_pos_as_xyz
  1  'x, y, z'
loop_
 _atom_site_type_symbol
 _atom_site_label
 _atom_site_symmetry_multiplicity
 _atom_site_fract_x
 _atom_site_fract_y
 _atom_site_fract_z
 _atom_site_occupancy
  C  C0  1  0.00000000  0.50000000  0.00000000  1
  C  C1  1  0.00000000  0.00000000  0.50000000  1
  C  C2  1  0.50000000  0.00000000  0.00000000  1
  C  C3  1  0.50000000  0.50000000  0.50000000  1
  C  C4  1  0.30935800  0.55374600  0.06411600  1
  C  C5  1  0.30935800  0.44625400  0.93588400  1
  C  C6  1  0.69064200  0.05374600  0.43588400  1
  C  C7  1  0.69064200  0.94625400  0.56411600  1
  C  C8  1  0.69064200  0.44625400  0.93588400  1
  C  C9  1  0.69064200  0.55374600  0.06411600  1
  C  C10  1  0.30935800  0.94625400  0.56411600  1
  C  C11  1  0.30935800  0.05374600  0.43588400  1
  C  C12  1  0.15198900  0.59425900  0.14075000  1
  C  C13  1  0.15198900  0.40574100  0.85925000  1
  C  C14  1  0.84801100  0.09425900  0.35925000  1
  C  C15  1  0.84801100  0.90574100  0.64075000  1
  C  C16  1  0.84801100  0.40574100  0.85925000  1
  C  C17  1  0.84801100  0.59425900  0.14075000  1
  C  C18  1  0.15198900  0.90574100  0.64075000  1
  C  C19  1  0.15198900  0.09425900  0.35925000  1
  C  C20  1  0.21677700  0.47371500  0.14537500  1
  C  C21  1  0.21677700  0.52628500  0.85462500  1
  C  C22  1  0.78322300  0.97371500  0.35462500  1
  C  C23  1  0.78322300  0.02628500  0.64537500  1
  C  C24  1  0.78322300  0.52628500  0.85462500  1
  C  C25  1  0.78322300  0.47371500  0.14537500  1
  C  C26  1  0.21677700  0.02628500  0.64537500  1
  C  C27  1  0.21677700  0.97371500  0.35462500  1
  C  C28  1  0.25040200  0.96556900  0.87511100  1
  C  C29  1  0.25040200  0.03443100  0.12488900  1
  C  C30  1  0.74959800  0.46556900  0.62488900  1
  C  C31  1  0.74959800  0.53443100  0.37511100  1
  C  C32  1  0.74959800  0.03443100  0.12488900  1
  C  C33  1  0.74959800  0.96556900  0.87511100  1
  C  C34  1  0.25040200  0.53443100  0.37511100  1
  C  C35  1  0.25040200  0.46556900  0.62488900  1
  C  C36  1  0.35541100  0.85658400  0.90029600  1
  C  C37  1  0.35541100  0.14341600  0.09970400  1
  C  C38  1  0.64458900  0.35658400  0.59970400  1
  C  C39  1  0.64458900  0.64341600  0.40029600  1
  C  C40  1  0.64458900  0.14341600  0.09970400  1
  C  C41  1  0.64458900  0.85658400  0.90029600  1
  C  C42  1  0.35541100  0.64341600  0.40029600  1
  C  C43  1  0.35541100  0.35658400  0.59970400  1
  C  C44  1  0.20325300  0.90290700  0.97811700  1
  C  C45  1  0.20325300  0.09709300  0.02188300  1
  C  C46  1  0.79674700  0.40290700  0.52188300  1
  C  C47  1  0.79674700  0.59709300  0.47811700  1
  C  C48  1  0.79674700  0.09709300  0.02188300  1
  C  C49  1  0.79674700  0.90290700  0.97811700  1
  C  C50  1  0.20325300  0.59709300  0.47811700  1
  C  C51  1  0.20325300  0.40290700  0.52188300  1
  C  C52  1  0.38731500  0.89248900  0.14479900  1
  C  C53  1  0.38731500  0.10751100  0.85520100  1
  C  C54  1  0.61268500  0.39248900  0.35520100  1
  C  C55  1  0.61268500  0.60751100  0.64479900  1
  C  C56  1  0.61268500  0.10751100  0.85520100  1
  C  C57  1  0.61268500  0.89248900  0.14479900  1
  C  C58  1  0.38731500  0.60751100  0.64479900  1
  C  C59  1  0.38731500  0.39248900  0.35520100  1
  C  C60  1  0.50000000  0.81895500  0.06730200  1
  C  C61  1  0.50000000  0.18104500  0.93269800  1
  C  C62  1  0.50000000  0.31895500  0.43269800  1
  C  C63  1  0.50000000  0.68104500  0.56730200  1
  C  C64  1  0.00000000  0.69636400  0.01960600  1
  C  C65  1  0.00000000  0.30363600  0.98039400  1
  C  C66  1  0.00000000  0.19636400  0.48039400  1
  C  C67  1  0.00000000  0.80363600  0.51960600  1
  C  C68  1  0.11300300  0.66510100  0.92099000  1
  C  C69  1  0.11300300  0.33489900  0.07901000  1
  C  C70  1  0.88699700  0.16510100  0.57901000  1
  C  C71  1  0.88699700  0.83489900  0.42099000  1
  C  C72  1  0.88699700  0.33489900  0.07901000  1
  C  C73  1  0.88699700  0.66510100  0.92099000  1
  C  C74  1  0.11300300  0.83489900  0.42099000  1
  C  C75  1  0.11300300  0.16510100  0.57901000  1
  C  C76  1  0.00000000  0.86426300  0.17832500  1
  C  C77  1  0.00000000  0.13573700  0.82167500  1
  C  C78  1  0.00000000  0.36426300  0.32167500  1
  C  C79  1  0.00000000  0.63573700  0.67832500  1
  C  C80  1  0.00000000  0.72224900  0.23931600  1
  C  C81  1  0.00000000  0.27775100  0.76068400  1
  C  C82  1  0.00000000  0.22224900  0.26068400  1
  C  C83  1  0.00000000  0.77775100  0.73931600  1
  Ni  Ni84  1  0.50000000  0.82779800  0.44503400  1
  Ni  Ni85  1  0.50000000  0.17220200  0.55496600  1
  Ni  Ni86  1  0.50000000  0.32779800  0.05496600  1
  Ni  Ni87  1  0.50000000  0.67220200  0.94503400  1
  Cu  Cu88  1  0.18968400  0.53274600  0.09771000  1
  Cu  Cu89  1  0.18968400  0.46725400  0.90229000  1
  Cu  Cu90  1  0.81031600  0.03274600  0.40229000  1
  Cu  Cu91  1  0.81031600  0.96725400  0.59771000  1
  Cu  Cu92  1  0.81031600  0.46725400  0.90229000  1
  Cu  Cu93  1  0.81031600  0.53274600  0.09771000  1
  Cu  Cu94  1  0.18968400  0.96725400  0.59771000  1
  Cu  Cu95  1  0.18968400  0.03274600  0.40229000  1
  Cu  Cu96  1  0.00000000  0.64611700  0.96162800  1
  Cu  Cu97  1  0.00000000  0.35388300  0.03837200  1
  Cu  Cu98  1  0.00000000  0.14611700  0.53837200  1
  Cu  Cu99  1  0.00000000  0.85388300  0.46162800  1
  Cu  Cu100  1  0.50000000  0.89028600  0.09982100  1
  Cu  Cu101  1  0.50000000  0.10971400  0.90017900  1
  Cu  Cu102  1  0.50000000  0.39028600  0.40017900  1
  Cu  Cu103  1  0.50000000  0.60971400  0.59982100  1
  Cu  Cu104  1  0.30651600  0.92314500  0.93088900  1
  Cu  Cu105  1  0.30651600  0.07685500  0.06911100  1
  Cu  Cu106  1  0.69348400  0.42314500  0.56911100  1
  Cu  Cu107  1  0.69348400  0.57685500  0.43088900  1
  Cu  Cu108  1  0.69348400  0.07685500  0.06911100  1
  Cu  Cu109  1  0.69348400  0.92314500  0.93088900  1
  Cu  Cu110  1  0.30651600  0.57685500  0.43088900  1
  Cu  Cu111  1  0.30651600  0.42314500  0.56911100  1
  C  C112  1  0.00000000  0.85525700  0.06969400  1
  C  C113  1  0.00000000  0.14474300  0.93030600  1
  C  C114  1  0.00000000  0.35525700  0.43030600  1
  C  C115  1  0.00000000  0.64474300  0.56969400  1
  C  C116  1  0.16580200  0.91850300  0.21283300  1
  C  C117  1  0.16580200  0.08149700  0.78716700  1
  C  C118  1  0.83419800  0.41850300  0.28716700  1
  C  C119  1  0.83419800  0.58149700  0.71283300  1
  C  C120  1  0.83419800  0.08149700  0.78716700  1
  C  C121  1  0.83419800  0.91850300  0.21283300  1
  C  C122  1  0.16580200  0.58149700  0.71283300  1
  C  C123  1  0.16580200  0.41850300  0.28716700  1
  C  C124  1  0.50000000  0.68002800  0.24708700  1
  C  C125  1  0.50000000  0.31997200  0.75291300  1
  C  C126  1  0.50000000  0.18002800  0.25291300  1
  C  C127  1  0.50000000  0.81997200  0.74708700  1
