# generated using pymatgen
data_CuNiC6
_symmetry_space_group_name_H-M   'P 1'
_cell_length_a   6.70558239
_cell_length_b   6.70558239
_cell_length_c   7.74290413
_cell_angle_alpha   54.81021686
_cell_angle_beta   54.81021686
_cell_angle_gamma   70.63095252
_symmetry_Int_Tables_number   1
_chemical_formula_structural   CuNiC6
_chemical_formula_sum   'Cu2 Ni2 C12'
_cell_volume   232.53277406
_cell_formula_units_Z   2
loop_
 _symmetry_equiv_pos_site_id
 _symmetry_equiv_pos_as_xyz
  1  'x, y, z'
loop_
 _atom_site_type_symbol
 _atom_site_label
 _atom_site_symmetry_multiplicity
 _atom_site_fract_x
 _atom_site_fract_y
 _atom_site_fract_z
 _atom_site_occupancy
  Ni  Ni0  1  0.00000000  0.50000000  0.00000000  1
  Ni  Ni1  1  0.50000000  0.00000000  0.00000000  1
  Cu  Cu2  1  0.50000000  0.00000000  0.50000000  1
  Cu  Cu3  1  0.00000000  0.50000000  0.50000000  1
  C  C4  1  0.65416100  0.65416100  0.19806800  1
  C  C5  1  0.34583900  0.34583900  0.80193200  1
  C  C6  1  0.64754000  0.64754000  0.49631400  1
  C  C7  1  0.35246000  0.35246000  0.50368600  1
  C  C8  1  0.86023600  0.15162200  0.34341100  1
  C  C9  1  0.13976400  0.84837800  0.65658900  1
  C  C10  1  0.15162200  0.86023600  0.34341100  1
  C  C11  1  0.84837800  0.13976400  0.65658900  1
  C  C12  1  0.49474800  0.79618400  0.85994000  1
  C  C13  1  0.50525200  0.20381600  0.14006000  1
  C  C14  1  0.20381600  0.50525200  0.14006000  1
  C  C15  1  0.79618400  0.49474800  0.85994000  1
