# generated using pymatgen
data_Cu4Ni3C
_symmetry_space_group_name_H-M   'P 1'
_cell_length_a   7.94869500
_cell_length_b   7.94869500
_cell_length_c   7.36717200
_cell_angle_alpha   90.00000000
_cell_angle_beta   90.00000000
_cell_angle_gamma   90.00000000
_symmetry_Int_Tables_number   1
_chemical_formula_structural   Cu4Ni3C
_chemical_formula_sum   'Cu16 Ni12 C4'
_cell_volume   465.47083574
_cell_formula_units_Z   4
loop_
 _symmetry_equiv_pos_site_id
 _symmetry_equiv_pos_as_xyz
  1  'x, y, z'
loop_
 _atom_site_type_symbol
 _atom_site_label
 _atom_site_symmetry_multiplicity
 _atom_site_fract_x
 _atom_site_fract_y
 _atom_site_fract_z
 _atom_site_occupancy
  C  C0  1  0.00000000  0.00000000  0.50000000  1
  C  C1  1  0.50000000  0.50000000  0.00000000  1
  C  C2  1  0.50000000  0.50000000  0.50000000  1
  C  C3  1  0.00000000  0.00000000  0.00000000  1
  Ni  Ni4  1  0.72223800  0.72223800  0.50000000  1
  Ni  Ni5  1  0.27776200  0.27776200  0.50000000  1
  Ni  Ni6  1  0.22223800  0.22223800  0.00000000  1
  Ni  Ni7  1  0.77776200  0.77776200  0.00000000  1
  Ni  Ni8  1  0.27776200  0.72223800  0.50000000  1
  Ni  Ni9  1  0.72223800  0.27776200  0.50000000  1
  Ni  Ni10  1  0.77776200  0.22223800  0.00000000  1
  Ni  Ni11  1  0.22223800  0.77776200  0.00000000  1
  Ni  Ni12  1  0.50000000  0.50000000  0.77347900  1
  Ni  Ni13  1  0.00000000  0.00000000  0.72652100  1
  Ni  Ni14  1  0.50000000  0.50000000  0.22652100  1
  Ni  Ni15  1  0.00000000  0.00000000  0.27347900  1
  Cu  Cu16  1  0.84768500  0.69576500  0.59227600  1
  Cu  Cu17  1  0.15231500  0.30423500  0.59227600  1
  Cu  Cu18  1  0.34768500  0.19576500  0.90772400  1
  Cu  Cu19  1  0.65231500  0.80423500  0.90772400  1
  Cu  Cu20  1  0.15231500  0.69576500  0.40772400  1
  Cu  Cu21  1  0.84768500  0.30423500  0.40772400  1
  Cu  Cu22  1  0.65231500  0.19576500  0.09227600  1
  Cu  Cu23  1  0.34768500  0.80423500  0.09227600  1
  Cu  Cu24  1  0.30423500  0.84768500  0.59227600  1
  Cu  Cu25  1  0.69576500  0.15231500  0.59227600  1
  Cu  Cu26  1  0.80423500  0.34768500  0.90772400  1
  Cu  Cu27  1  0.19576500  0.65231500  0.90772400  1
  Cu  Cu28  1  0.30423500  0.15231500  0.40772400  1
  Cu  Cu29  1  0.69576500  0.84768500  0.40772400  1
  Cu  Cu30  1  0.80423500  0.65231500  0.09227600  1
  Cu  Cu31  1  0.19576500  0.34768500  0.09227600  1
