# generated using pymatgen
data_Cu5Ni3C20
_symmetry_space_group_name_H-M   'P 1'
_cell_length_a   9.30114089
_cell_length_b   9.30114089
_cell_length_c   17.00470059
_cell_angle_alpha   66.12363157
_cell_angle_beta   66.12363157
_cell_angle_gamma   32.23739826
_symmetry_Int_Tables_number   1
_chemical_formula_structural   Cu5Ni3C20
_chemical_formula_sum   'Cu10 Ni6 C40'
_cell_volume   711.67409625
_cell_formula_units_Z   2
loop_
 _symmetry_equiv_pos_site_id
 _symmetry_equiv_pos_as_xyz
  1  'x, y, z'
loop_
 _atom_site_type_symbol
 _atom_site_label
 _atom_site_symmetry_multiplicity
 _atom_site_fract_x
 _atom_site_fract_y
 _atom_site_fract_z
 _atom_site_occupancy
  Ni  Ni0  1  0.50000000  0.00000000  0.50000000  1
  Ni  Ni1  1  0.00000000  0.50000000  0.00000000  1
  Ni  Ni2  1  0.82516700  0.37823500  0.52454100  1
  Ni  Ni3  1  0.62176500  0.17483300  0.97545900  1
  Ni  Ni4  1  0.17483300  0.62176500  0.47545900  1
  Ni  Ni5  1  0.37823500  0.82516700  0.02454100  1
  Cu  Cu6  1  0.72729100  0.27270900  0.75000000  1
  Cu  Cu7  1  0.27270900  0.72729100  0.25000000  1
  Cu  Cu8  1  0.58541200  0.14470900  0.62212400  1
  Cu  Cu9  1  0.85529100  0.41458800  0.87787600  1
  Cu  Cu10  1  0.41458800  0.85529100  0.37787600  1
  Cu  Cu11  1  0.14470900  0.58541200  0.12212400  1
  Cu  Cu12  1  0.43122100  0.92149900  0.75044200  1
  Cu  Cu13  1  0.07850100  0.56877900  0.74955800  1
  Cu  Cu14  1  0.56877900  0.07850100  0.24955800  1
  Cu  Cu15  1  0.92149900  0.43122100  0.25044200  1
  C  C16  1  0.51637500  0.04917700  0.87913700  1
  C  C17  1  0.95082300  0.48362500  0.62086300  1
  C  C18  1  0.48362500  0.95082300  0.12086300  1
  C  C19  1  0.04917700  0.51637500  0.37913700  1
  C  C20  1  0.19628300  0.81945800  0.89774100  1
  C  C21  1  0.18054200  0.80371700  0.60225900  1
  C  C22  1  0.80371700  0.18054200  0.10225900  1
  C  C23  1  0.81945800  0.19628300  0.39774100  1
  C  C24  1  0.63857800  0.79982400  0.95004100  1
  C  C25  1  0.20017600  0.36142200  0.54995900  1
  C  C26  1  0.36142200  0.20017600  0.04995900  1
  C  C27  1  0.79982400  0.63857800  0.45004100  1
  C  C28  1  0.64021300  0.09943200  0.87695400  1
  C  C29  1  0.90056800  0.35978700  0.62304600  1
  C  C30  1  0.35978700  0.90056800  0.12304600  1
  C  C31  1  0.09943200  0.64021300  0.37695400  1
  C  C32  1  0.19948600  0.30226600  0.90192600  1
  C  C33  1  0.69773400  0.80051400  0.59807400  1
  C  C34  1  0.80051400  0.69773400  0.09807400  1
  C  C35  1  0.30226600  0.19948600  0.40192600  1
  C  C36  1  0.58691100  0.98830600  0.78827500  1
  C  C37  1  0.01169400  0.41308900  0.71172500  1
  C  C38  1  0.41308900  0.01169400  0.21172500  1
  C  C39  1  0.98830600  0.58691100  0.28827500  1
  C  C40  1  0.88568800  0.12298600  0.90495800  1
  C  C41  1  0.87701400  0.11431200  0.59504200  1
  C  C42  1  0.11431200  0.87701400  0.09504200  1
  C  C43  1  0.12298600  0.88568800  0.40495800  1
  C  C44  1  0.35950400  0.80083700  0.92280900  1
  C  C45  1  0.19916300  0.64049600  0.57719100  1
  C  C46  1  0.64049600  0.19916300  0.07719100  1
  C  C47  1  0.80083700  0.35950400  0.42280900  1
  C  C48  1  0.21933300  0.62663500  0.95602100  1
  C  C49  1  0.37336500  0.78066700  0.54397900  1
  C  C50  1  0.78066700  0.37336500  0.04397900  1
  C  C51  1  0.62663500  0.21933300  0.45602100  1
  C  C52  1  0.30678100  0.77183800  0.80165700  1
  C  C53  1  0.22816200  0.69321900  0.69834300  1
  C  C54  1  0.69321900  0.22816200  0.19834300  1
  C  C55  1  0.77183800  0.30678100  0.30165700  1
