# generated using pymatgen
data_Cu(NiC2)2
_symmetry_space_group_name_H-M   'P 1'
_cell_length_a   3.22149800
_cell_length_b   5.77488490
_cell_length_c   6.18154323
_cell_angle_alpha   115.03581370
_cell_angle_beta   105.10411972
_cell_angle_gamma   90.00000000
_symmetry_Int_Tables_number   1
_chemical_formula_structural   Cu(NiC2)2
_chemical_formula_sum   'Cu1 Ni2 C4'
_cell_volume   99.79302733
_cell_formula_units_Z   1
loop_
 _symmetry_equiv_pos_site_id
 _symmetry_equiv_pos_as_xyz
  1  'x, y, z'
loop_
 _atom_site_type_symbol
 _atom_site_label
 _atom_site_symmetry_multiplicity
 _atom_site_fract_x
 _atom_site_fract_y
 _atom_site_fract_z
 _atom_site_occupancy
  Ni  Ni0  1  0.74054500  0.68865000  0.48109000  1
  Ni  Ni1  1  0.25945500  0.31135000  0.51891000  1
  Cu  Cu2  1  0.00000000  0.00000000  0.00000000  1
  C  C3  1  0.63517200  0.97737100  0.27034400  1
  C  C4  1  0.36482800  0.02262900  0.72965600  1
  C  C5  1  0.89621000  0.55905700  0.79242000  1
  C  C6  1  0.10379000  0.44094300  0.20758000  1
