# generated using pymatgen
data_CuNi2C11
_symmetry_space_group_name_H-M   'P 1'
_cell_length_a   7.41842571
_cell_length_b   7.38627448
_cell_length_c   7.41769100
_cell_angle_alpha   59.85836506
_cell_angle_beta   60.00097151
_cell_angle_gamma   59.85067270
_symmetry_Int_Tables_number   1
_chemical_formula_structural   CuNi2C11
_chemical_formula_sum   'Cu1 Ni2 C11'
_cell_volume   286.77124809
_cell_formula_units_Z   1
loop_
 _symmetry_equiv_pos_site_id
 _symmetry_equiv_pos_as_xyz
  1  'x, y, z'
loop_
 _atom_site_type_symbol
 _atom_site_label
 _atom_site_symmetry_multiplicity
 _atom_site_fract_x
 _atom_site_fract_y
 _atom_site_fract_z
 _atom_site_occupancy
  Ni  Ni0  1  0.87576100  0.87279500  0.87572200  1
  Ni  Ni1  1  0.12425000  0.12721600  0.12427500  1
  Cu  Cu2  1  0.49983500  0.99994300  0.50005000  1
  C  C3  1  0.50008400  0.49996500  0.49995000  1
  C  C4  1  0.50008500  0.49997400  0.00000800  1
  C  C5  1  0.00000300  0.50006900  0.49999000  1
  C  C6  1  0.73451600  0.74550200  0.73454300  1
  C  C7  1  0.26541500  0.25463800  0.71458600  1
  C  C8  1  0.26076100  0.71788100  0.26070600  1
  C  C9  1  0.71453000  0.25448200  0.26547900  1
  C  C10  1  0.73934400  0.28213000  0.73924700  1
  C  C11  1  0.28540200  0.74535600  0.73464500  1
  C  C12  1  0.26542000  0.25462000  0.26536400  1
  C  C13  1  0.73459700  0.74542200  0.28543600  1
