# generated using pymatgen
data_Cu5NiC36
_symmetry_space_group_name_H-M   'P 1'
_cell_length_a   7.47686758
_cell_length_b   7.88967372
_cell_length_c   10.21744932
_cell_angle_alpha   108.81740769
_cell_angle_beta   89.00221428
_cell_angle_gamma   93.61488255
_symmetry_Int_Tables_number   1
_chemical_formula_structural   Cu5NiC36
_chemical_formula_sum   'Cu5 Ni1 C36'
_cell_volume   569.37496123
_cell_formula_units_Z   1
loop_
 _symmetry_equiv_pos_site_id
 _symmetry_equiv_pos_as_xyz
  1  'x, y, z'
loop_
 _atom_site_type_symbol
 _atom_site_label
 _atom_site_symmetry_multiplicity
 _atom_site_fract_x
 _atom_site_fract_y
 _atom_site_fract_z
 _atom_site_occupancy
  Ni  Ni0  1  0.50000000  0.50000000  0.50000000  1
  Cu  Cu1  1  0.24017579  0.87100243  0.60302746  1
  Cu  Cu2  1  0.25058655  0.84265447  0.06032724  1
  Cu  Cu3  1  0.50000000  0.50000000  0.00000000  1
  Cu  Cu4  1  0.74941345  0.15734553  0.93967276  1
  Cu  Cu5  1  0.75982421  0.12899757  0.39697254  1
  C  C6  1  0.16207880  0.21193132  0.01953401  1
  C  C7  1  0.18135316  0.19260627  0.30465368  1
  C  C8  1  0.28310340  0.54825639  0.74580391  1
  C  C9  1  0.47559505  0.76879614  0.30715223  1
  C  C10  1  0.52440495  0.23120386  0.69284777  1
  C  C11  1  0.71689560  0.45174361  0.25419609  1
  C  C12  1  0.81864684  0.80739373  0.69534632  1
  C  C13  1  0.83792120  0.78806868  0.98046599  1
  C  C14  1  0.01291051  0.76819745  0.05083921  1
  C  C15  1  0.00779881  0.13389005  0.36286737  1
  C  C16  1  0.10927749  0.44719790  0.73637558  1
  C  C17  1  0.11791368  0.26287206  0.17971293  1
  C  C18  1  0.29759848  0.35372351  0.99966489  1
  C  C19  1  0.29179036  0.34022653  0.40554093  1
  C  C20  1  0.31956101  0.66682524  0.65067930  1
  C  C21  1  0.33446438  0.81610125  0.41853396  1
  C  C22  1  0.35650922  0.64966779  0.89658026  1
  C  C23  1  0.36645876  0.09733317  0.68117092  1
  C  C24  1  0.23196648  0.02295139  0.96479023  1
  C  C25  1  0.39463314  0.70294797  0.15815781  1
  C  C26  1  0.29200439  0.02911128  0.23148215  1
  C  C27  1  0.44980825  0.41324605  0.67736072  1
  C  C28  1  0.55019175  0.58675395  0.32263928  1
  C  C29  1  0.70799561  0.97088872  0.76851785  1
  C  C30  1  0.60536686  0.29705203  0.84184219  1
  C  C31  1  0.76803352  0.97704861  0.03520977  1
  C  C32  1  0.63354124  0.90266683  0.31882908  1
  C  C33  1  0.64349078  0.35033221  0.10341974  1
  C  C34  1  0.66553562  0.18389875  0.58146604  1
  C  C35  1  0.68043899  0.33317476  0.34932070  1
  C  C36  1  0.70820964  0.65977347  0.59445907  1
  C  C37  1  0.70240152  0.64627649  0.00033511  1
  C  C38  1  0.88208632  0.73712794  0.82028707  1
  C  C39  1  0.89072251  0.55280210  0.26362442  1
  C  C40  1  0.99220119  0.86610995  0.63713263  1
  C  C41  1  0.98708949  0.23180255  0.94916079  1
