# generated using pymatgen
data_Cu3NiC9
_symmetry_space_group_name_H-M   'P 1'
_cell_length_a   4.16145500
_cell_length_b   4.35970600
_cell_length_c   11.58002500
_cell_angle_alpha   90.00000000
_cell_angle_beta   90.00000000
_cell_angle_gamma   90.00000000
_symmetry_Int_Tables_number   1
_chemical_formula_structural   Cu3NiC9
_chemical_formula_sum   'Cu3 Ni1 C9'
_cell_volume   210.09315502
_cell_formula_units_Z   1
loop_
 _symmetry_equiv_pos_site_id
 _symmetry_equiv_pos_as_xyz
  1  'x, y, z'
loop_
 _atom_site_type_symbol
 _atom_site_label
 _atom_site_symmetry_multiplicity
 _atom_site_fract_x
 _atom_site_fract_y
 _atom_site_fract_z
 _atom_site_occupancy
  C  C0  1  0.50000000  0.00000000  0.81077900  1
  C  C1  1  0.50000000  0.00000000  0.18922100  1
  Ni  Ni2  1  0.50000000  0.00000000  0.50000000  1
  Cu  Cu3  1  0.00000000  0.50000000  0.62165000  1
  Cu  Cu4  1  0.00000000  0.50000000  0.37835000  1
  Cu  Cu5  1  0.00000000  0.50000000  0.00000000  1
  C  C6  1  0.00000000  0.00000000  0.00000000  1
  C  C7  1  0.50000000  0.50000000  0.62455400  1
  C  C8  1  0.50000000  0.50000000  0.37544600  1
  C  C9  1  0.00000000  0.00000000  0.61935500  1
  C  C10  1  0.00000000  0.00000000  0.38064500  1
  C  C11  1  0.00000000  0.50000000  0.80096700  1
  C  C12  1  0.00000000  0.50000000  0.19903300  1
