# generated using pymatgen
data_Cu5(Ni2C)8
_symmetry_space_group_name_H-M   'P 1'
_cell_length_a   8.88728000
_cell_length_b   13.22376400
_cell_length_c   18.23655120
_cell_angle_alpha   50.64021786
_cell_angle_beta   90.00000000
_cell_angle_gamma   90.00000000
_symmetry_Int_Tables_number   1
_chemical_formula_structural   Cu5(Ni2C)8
_chemical_formula_sum   'Cu10 Ni32 C16'
_cell_volume   1657.09218606
_cell_formula_units_Z   2
loop_
 _symmetry_equiv_pos_site_id
 _symmetry_equiv_pos_as_xyz
  1  'x, y, z'
loop_
 _atom_site_type_symbol
 _atom_site_label
 _atom_site_symmetry_multiplicity
 _atom_site_fract_x
 _atom_site_fract_y
 _atom_site_fract_z
 _atom_site_occupancy
  C  C0  1  0.99693200  0.38886900  0.72450600  1
  C  C1  1  0.00253900  0.61024300  0.27533300  1
  C  C2  1  0.99746100  0.61024300  0.77533300  1
  C  C3  1  0.00306800  0.38886900  0.22450600  1
  C  C4  1  0.86477800  0.92307300  0.76709400  1
  C  C5  1  0.13522200  0.92307300  0.26709400  1
  C  C6  1  0.76964600  0.98416100  0.75358900  1
  C  C7  1  0.23035400  0.98416100  0.25358900  1
  C  C8  1  0.16742400  0.33097900  0.58867700  1
  C  C9  1  0.83221400  0.66877400  0.41157500  1
  C  C10  1  0.16778600  0.66877400  0.91157500  1
  C  C11  1  0.83257600  0.33097900  0.08867700  1
  C  C12  1  0.26568400  0.25060200  0.88824000  1
  C  C13  1  0.73407000  0.74948500  0.11161200  1
  C  C14  1  0.26593000  0.74948500  0.61161200  1
  C  C15  1  0.73431600  0.25060200  0.38824000  1
  Ni  Ni16  1  0.67683400  0.06413100  0.64906200  1
  Ni  Ni17  1  0.32204700  0.95373600  0.34735000  1
  Ni  Ni18  1  0.67795300  0.95373600  0.84735000  1
  Ni  Ni19  1  0.32316600  0.06413100  0.14906200  1
  Ni  Ni20  1  0.48794300  0.32367600  0.88836800  1
  Ni  Ni21  1  0.51215700  0.67568300  0.11224400  1
  Ni  Ni22  1  0.48784300  0.67568300  0.61224400  1
  Ni  Ni23  1  0.51205700  0.32367600  0.38836800  1
  Ni  Ni24  1  0.76996200  0.41189000  0.66006700  1
  Ni  Ni25  1  0.22967500  0.58857500  0.33976000  1
  Ni  Ni26  1  0.77032500  0.58857500  0.83976000  1
  Ni  Ni27  1  0.23003800  0.41189000  0.16006700  1
  Ni  Ni28  1  0.94841400  0.19532400  0.87469800  1
  Ni  Ni29  1  0.05164600  0.80503100  0.12548500  1
  Ni  Ni30  1  0.94835400  0.80503100  0.62548500  1
  Ni  Ni31  1  0.05158600  0.19532400  0.37469800  1
  Ni  Ni32  1  0.17001000  0.15139300  0.60417800  1
  Ni  Ni33  1  0.83021700  0.84827100  0.39641700  1
  Ni  Ni34  1  0.16978300  0.84827100  0.89641700  1
  Ni  Ni35  1  0.82999000  0.15139300  0.10417800  1
  Ni  Ni36  1  0.40734100  0.32846800  0.62121100  1
  Ni  Ni37  1  0.59247100  0.67196000  0.37830700  1
  Ni  Ni38  1  0.40752900  0.67196000  0.87830700  1
  Ni  Ni39  1  0.59265900  0.32846800  0.12121100  1
  Ni  Ni40  1  0.11140200  0.56483700  0.57094200  1
  Ni  Ni41  1  0.88800800  0.43595200  0.42876400  1
  Ni  Ni42  1  0.11199200  0.43595200  0.92876400  1
  Ni  Ni43  1  0.88859800  0.56483700  0.07094200  1
  Ni  Ni44  1  0.34907900  0.08117700  0.90220400  1
  Ni  Ni45  1  0.64942700  0.91869300  0.09789200  1
  Ni  Ni46  1  0.35057300  0.91869300  0.59789200  1
  Ni  Ni47  1  0.65092100  0.08117700  0.40220400  1
  Cu  Cu48  1  0.22398100  0.36284800  0.77281500  1
  Cu  Cu49  1  0.77641100  0.63759900  0.22709800  1
  Cu  Cu50  1  0.22358900  0.63759900  0.72709800  1
  Cu  Cu51  1  0.77601900  0.36284800  0.27281500  1
  Cu  Cu52  1  0.07572000  0.27161300  0.68923500  1
  Cu  Cu53  1  0.92530000  0.72910600  0.31118100  1
  Cu  Cu54  1  0.07470000  0.72910600  0.81118100  1
  Cu  Cu55  1  0.92428000  0.27161300  0.18923500  1
  Cu  Cu56  1  0.96652600  0.49995000  0.74989600  1
  Cu  Cu57  1  0.03347400  0.49995000  0.24989600  1
