# generated using pymatgen
data_Cu14NiC17
_symmetry_space_group_name_H-M   'P 1'
_cell_length_a   4.39294300
_cell_length_b   8.77116400
_cell_length_c   8.79525700
_cell_angle_alpha   90.00000000
_cell_angle_beta   90.00000000
_cell_angle_gamma   90.00000000
_symmetry_Int_Tables_number   1
_chemical_formula_structural   Cu14NiC17
_chemical_formula_sum   'Cu14 Ni1 C17'
_cell_volume   338.89201317
_cell_formula_units_Z   1
loop_
 _symmetry_equiv_pos_site_id
 _symmetry_equiv_pos_as_xyz
  1  'x, y, z'
loop_
 _atom_site_type_symbol
 _atom_site_label
 _atom_site_symmetry_multiplicity
 _atom_site_fract_x
 _atom_site_fract_y
 _atom_site_fract_z
 _atom_site_occupancy
  C  C0  1  0.00000000  0.00000000  0.00000000  1
  Ni  Ni1  1  0.00000000  0.00000000  0.50000000  1
  Cu  Cu2  1  0.00000000  0.50000000  0.00000000  1
  Cu  Cu3  1  0.00000000  0.50000000  0.50000000  1
  Cu  Cu4  1  0.50000000  0.00000000  0.25515700  1
  Cu  Cu5  1  0.50000000  0.00000000  0.74484300  1
  Cu  Cu6  1  0.50000000  0.50000000  0.25151100  1
  Cu  Cu7  1  0.50000000  0.50000000  0.74848900  1
  Cu  Cu8  1  0.50000000  0.26351000  0.00000000  1
  Cu  Cu9  1  0.50000000  0.25860100  0.50000000  1
  Cu  Cu10  1  0.50000000  0.73649000  0.00000000  1
  Cu  Cu11  1  0.50000000  0.74139900  0.50000000  1
  Cu  Cu12  1  0.00000000  0.26062000  0.25321500  1
  Cu  Cu13  1  0.00000000  0.26062000  0.74678500  1
  Cu  Cu14  1  0.00000000  0.73938000  0.25321500  1
  Cu  Cu15  1  0.00000000  0.73938000  0.74678500  1
  C  C16  1  0.00000000  0.26227100  0.00000000  1
  C  C17  1  0.00000000  0.26035000  0.50000000  1
  C  C18  1  0.00000000  0.73772900  0.00000000  1
  C  C19  1  0.00000000  0.73965000  0.50000000  1
  C  C20  1  0.50000000  0.25157300  0.24859400  1
  C  C21  1  0.50000000  0.25157300  0.75140600  1
  C  C22  1  0.50000000  0.74842700  0.24859400  1
  C  C23  1  0.50000000  0.74842700  0.75140600  1
  C  C24  1  0.50000000  0.00000000  0.00000000  1
  C  C25  1  0.50000000  0.00000000  0.50000000  1
  C  C26  1  0.50000000  0.50000000  0.00000000  1
  C  C27  1  0.50000000  0.50000000  0.50000000  1
  C  C28  1  0.00000000  0.00000000  0.25392600  1
  C  C29  1  0.00000000  0.00000000  0.74607400  1
  C  C30  1  0.00000000  0.50000000  0.25024200  1
  C  C31  1  0.00000000  0.50000000  0.74975800  1
