# generated using pymatgen
data_CuNi2C15
_symmetry_space_group_name_H-M   'P 1'
_cell_length_a   5.73673200
_cell_length_b   6.30107981
_cell_length_c   7.43424720
_cell_angle_alpha   110.08162104
_cell_angle_beta   90.00000000
_cell_angle_gamma   117.07897236
_symmetry_Int_Tables_number   1
_chemical_formula_structural   CuNi2C15
_chemical_formula_sum   'Cu1 Ni2 C15'
_cell_volume   220.76502446
_cell_formula_units_Z   1
loop_
 _symmetry_equiv_pos_site_id
 _symmetry_equiv_pos_as_xyz
  1  'x, y, z'
loop_
 _atom_site_type_symbol
 _atom_site_label
 _atom_site_symmetry_multiplicity
 _atom_site_fract_x
 _atom_site_fract_y
 _atom_site_fract_z
 _atom_site_occupancy
  C  C0  1  0.00000000  0.00000000  0.50000000  1
  Ni  Ni1  1  0.61169900  0.22339900  0.31566100  1
  Ni  Ni2  1  0.38830100  0.77660100  0.68433900  1
  Cu  Cu3  1  0.00000000  0.00000000  0.00000000  1
  C  C4  1  0.27222800  0.54445500  0.20235000  1
  C  C5  1  0.72777200  0.45554500  0.79765000  1
  C  C6  1  0.24303200  0.48606300  0.96481800  1
  C  C7  1  0.75696800  0.51393700  0.03518200  1
  C  C8  1  0.20633800  0.41267500  0.06643600  1
  C  C9  1  0.79366200  0.58732500  0.93356400  1
  C  C10  1  0.74233200  0.48466500  0.26732400  1
  C  C11  1  0.25766800  0.51533500  0.73267600  1
  C  C12  1  0.65105300  0.30210600  0.55097700  1
  C  C13  1  0.34894700  0.69789400  0.44902300  1
  C  C14  1  0.76747600  0.04545800  0.22325100  1
  C  C15  1  0.27798200  0.04545800  0.22325100  1
  C  C16  1  0.23252400  0.95454200  0.77674900  1
  C  C17  1  0.72201800  0.95454200  0.77674900  1
