# generated using pymatgen
data_Cu7Ni8
_symmetry_space_group_name_H-M   'P 1'
_cell_length_a   4.50162782
_cell_length_b   4.50162782
_cell_length_c   92.55333600
_cell_angle_alpha   90.00000000
_cell_angle_beta   90.00000000
_cell_angle_gamma   119.99999737
_symmetry_Int_Tables_number   1
_chemical_formula_structural   Cu7Ni8
_chemical_formula_sum   'Cu21 Ni24'
_cell_volume   1624.28372478
_cell_formula_units_Z   3
loop_
 _symmetry_equiv_pos_site_id
 _symmetry_equiv_pos_as_xyz
  1  'x, y, z'
loop_
 _atom_site_type_symbol
 _atom_site_label
 _atom_site_symmetry_multiplicity
 _atom_site_fract_x
 _atom_site_fract_y
 _atom_site_fract_z
 _atom_site_occupancy
  Ni  Ni0  1  0.33333300  0.66666700  0.35192700  1
  Ni  Ni1  1  0.66666700  0.33333300  0.64807300  1
  Ni  Ni2  1  0.00000000  0.00000000  0.06781100  1
  Ni  Ni3  1  0.00000000  0.00000000  0.93218900  1
  Ni  Ni4  1  0.33333300  0.66666700  0.82225700  1
  Ni  Ni5  1  0.66666700  0.33333300  0.17774300  1
  Ni  Ni6  1  0.33333300  0.66666700  0.02154500  1
  Ni  Ni7  1  0.66666700  0.33333300  0.97845500  1
  Ni  Ni8  1  0.00000000  0.00000000  0.39961100  1
  Ni  Ni9  1  0.00000000  0.00000000  0.60038900  1
  Ni  Ni10  1  0.00000000  0.00000000  0.33384500  1
  Ni  Ni11  1  0.00000000  0.00000000  0.66615500  1
  Ni  Ni12  1  0.33333300  0.66666700  0.75644700  1
  Ni  Ni13  1  0.66666700  0.33333300  0.24355300  1
  Ni  Ni14  1  0.00000000  0.00000000  0.13411300  1
  Ni  Ni15  1  0.00000000  0.00000000  0.86588700  1
  Ni  Ni16  1  0.33333300  0.66666700  0.08588100  1
  Ni  Ni17  1  0.66666700  0.33333300  0.91411900  1
  Ni  Ni18  1  0.33333300  0.66666700  0.28685100  1
  Ni  Ni19  1  0.66666700  0.33333300  0.71314900  1
  Ni  Ni20  1  0.33333300  0.66666700  0.49089900  1
  Ni  Ni21  1  0.66666700  0.33333300  0.50910100  1
  Ni  Ni22  1  0.33333300  0.66666700  0.55627000  1
  Ni  Ni23  1  0.66666700  0.33333300  0.44373000  1
  Cu  Cu24  1  0.33333300  0.66666700  0.42167700  1
  Cu  Cu25  1  0.66666700  0.33333300  0.57832300  1
  Cu  Cu26  1  0.33333300  0.66666700  0.15587100  1
  Cu  Cu27  1  0.66666700  0.33333300  0.84412900  1
  Cu  Cu28  1  0.00000000  0.00000000  0.19602500  1
  Cu  Cu29  1  0.00000000  0.00000000  0.80397500  1
  Cu  Cu30  1  0.33333300  0.66666700  0.22513900  1
  Cu  Cu31  1  0.66666700  0.33333300  0.77486100  1
  Cu  Cu32  1  0.33333300  0.66666700  0.69454800  1
  Cu  Cu33  1  0.66666700  0.33333300  0.30545200  1
  Cu  Cu34  1  0.33333300  0.66666700  0.96004900  1
  Cu  Cu35  1  0.66666700  0.33333300  0.03995100  1
  Cu  Cu36  1  0.33333300  0.66666700  0.88444500  1
  Cu  Cu37  1  0.66666700  0.33333300  0.11555500  1
  Cu  Cu38  1  0.00000000  0.00000000  0.46227600  1
  Cu  Cu39  1  0.00000000  0.00000000  0.53772400  1
  Cu  Cu40  1  0.00000000  0.00000000  0.26527700  1
  Cu  Cu41  1  0.00000000  0.00000000  0.73472300  1
  Cu  Cu42  1  0.00000000  0.00000000  0.00000000  1
  Cu  Cu43  1  0.33333300  0.66666700  0.61896400  1
  Cu  Cu44  1  0.66666700  0.33333300  0.38103600  1
