# generated using pymatgen
data_Cu3(Ni3C26)2
_symmetry_space_group_name_H-M   'P 1'
_cell_length_a   3.92026292
_cell_length_b   11.76925780
_cell_length_c   20.84772853
_cell_angle_alpha   106.24083429
_cell_angle_beta   106.25774302
_cell_angle_gamma   90.02912490
_symmetry_Int_Tables_number   1
_chemical_formula_structural   Cu3(Ni3C26)2
_chemical_formula_sum   'Cu3 Ni6 C52'
_cell_volume   883.32490116
_cell_formula_units_Z   1
loop_
 _symmetry_equiv_pos_site_id
 _symmetry_equiv_pos_as_xyz
  1  'x, y, z'
loop_
 _atom_site_type_symbol
 _atom_site_label
 _atom_site_symmetry_multiplicity
 _atom_site_fract_x
 _atom_site_fract_y
 _atom_site_fract_z
 _atom_site_occupancy
  C  C0  1  0.35245200  0.10850200  0.90108300  1
  C  C1  1  0.35499000  0.45746800  0.90256500  1
  C  C2  1  0.34920100  0.78147100  0.89706600  1
  C  C3  1  0.35831800  0.12973100  0.57189900  1
  C  C4  1  0.36214400  0.45224300  0.57351200  1
  C  C5  1  0.35863700  0.77703400  0.57003400  1
  C  C6  1  0.64136300  0.22296600  0.76330000  1
  C  C7  1  0.64168200  0.87026900  0.76143500  1
  C  C8  1  0.63785600  0.54775700  0.75982200  1
  C  C9  1  0.34933100  0.11485500  0.23121200  1
  C  C10  1  0.35628900  0.44318000  0.23652400  1
  C  C11  1  0.35685200  0.79308700  0.23783500  1
  C  C12  1  0.65079900  0.21852900  0.43626700  1
  C  C13  1  0.64754800  0.89149800  0.43225000  1
  C  C14  1  0.64501000  0.54253200  0.43076800  1
  C  C15  1  0.64314800  0.20691300  0.09549800  1
  C  C16  1  0.64371100  0.55682000  0.09680900  1
  C  C17  1  0.65066900  0.88514500  0.10212100  1
  Ni  Ni18  1  0.00086600  0.33563500  0.66777700  1
  Ni  Ni19  1  0.99886000  0.00135900  0.99881800  1
  Ni  Ni20  1  0.99913400  0.66436500  0.66555700  1
  Ni  Ni21  1  0.00028400  0.33551200  0.33355600  1
  Ni  Ni22  1  0.00114000  0.99864100  0.33451500  1
  Ni  Ni23  1  0.99971600  0.66448800  0.99977700  1
  Cu  Cu24  1  0.00000000  0.00000000  0.66666700  1
  Cu  Cu25  1  0.99895200  0.66668300  0.33266300  1
  Cu  Cu26  1  0.00104800  0.33331700  0.00067000  1
  C  C27  1  0.15770000  0.05122000  0.77374800  1
  C  C28  1  0.16571200  0.38441700  0.77861900  1
  C  C29  1  0.15929900  0.72437700  0.77331900  1
  C  C30  1  0.99614200  0.49734600  0.33103300  1
  C  C31  1  0.00003900  0.83516700  0.33346000  1
  C  C32  1  0.15611300  0.06290200  0.43885900  1
  C  C33  1  0.15503600  0.37198700  0.43718800  1
  C  C34  1  0.15536900  0.71809600  0.43741100  1
  C  C35  1  0.50167800  0.33249300  0.66823600  1
  C  C36  1  0.49832200  0.66750700  0.66509800  1
  C  C37  1  0.50000000  0.00000000  0.66666700  1
  C  C38  1  0.15534100  0.03627100  0.10326100  1
  C  C39  1  0.16005300  0.38315700  0.10747400  1
  C  C40  1  0.15965200  0.73260900  0.10781000  1
  C  C41  1  0.84463100  0.28190400  0.89592200  1
  C  C42  1  0.84496400  0.62801300  0.89614500  1
  C  C43  1  0.84388700  0.93709800  0.89447400  1
  C  C44  1  0.49713300  0.30640900  0.33130700  1
  C  C45  1  0.49781300  0.66631500  0.33191300  1
  C  C46  1  0.49957800  0.02523200  0.33361400  1
  C  C47  1  0.84070100  0.27562300  0.56001400  1
  C  C48  1  0.83428800  0.61558300  0.55471400  1
  C  C49  1  0.84230000  0.94878000  0.55958500  1
  C  C50  1  0.00198900  0.16564800  0.66821700  1
  C  C51  1  0.00000000  0.50000000  0.66666700  1
  C  C52  1  0.99801100  0.83435200  0.66511700  1
  C  C53  1  0.50042200  0.97476800  0.99971900  1
  C  C54  1  0.50218700  0.33368500  0.00142000  1
  C  C55  1  0.50286700  0.69359100  0.00202600  1
  C  C56  1  0.84034800  0.26739100  0.22552400  1
  C  C57  1  0.83994700  0.61684200  0.22586000  1
  C  C58  1  0.84465900  0.96372900  0.23007300  1
  C  C59  1  0.99996100  0.16483300  0.99987300  1
  C  C60  1  0.00385800  0.50265400  0.00230000  1
