# generated using pymatgen
data_Cu4Ni2C17
_symmetry_space_group_name_H-M   'P 1'
_cell_length_a   9.77669120
_cell_length_b   9.77669120
_cell_length_c   13.58906500
_cell_angle_alpha   90.00000000
_cell_angle_beta   90.00000000
_cell_angle_gamma   136.36276597
_symmetry_Int_Tables_number   1
_chemical_formula_structural   Cu4Ni2C17
_chemical_formula_sum   'Cu8 Ni4 C34'
_cell_volume   896.35306915
_cell_formula_units_Z   2
loop_
 _symmetry_equiv_pos_site_id
 _symmetry_equiv_pos_as_xyz
  1  'x, y, z'
loop_
 _atom_site_type_symbol
 _atom_site_label
 _atom_site_symmetry_multiplicity
 _atom_site_fract_x
 _atom_site_fract_y
 _atom_site_fract_z
 _atom_site_occupancy
  C  C0  1  0.31645200  0.68354800  0.53491300  1
  C  C1  1  0.68354800  0.31645200  0.46508700  1
  C  C2  1  0.18354800  0.81645200  0.03491300  1
  C  C3  1  0.81645200  0.18354800  0.96508700  1
  C  C4  1  0.00000000  0.00000000  0.50000000  1
  C  C5  1  0.50000000  0.50000000  0.00000000  1
  Ni  Ni6  1  0.42086700  0.07913300  0.75000000  1
  Ni  Ni7  1  0.07913300  0.42086700  0.25000000  1
  Ni  Ni8  1  0.57913300  0.92086700  0.25000000  1
  Ni  Ni9  1  0.92086700  0.57913300  0.75000000  1
  Cu  Cu10  1  0.80534000  0.19466000  0.67021300  1
  Cu  Cu11  1  0.19466000  0.80534000  0.32978700  1
  Cu  Cu12  1  0.69466000  0.30534000  0.17021300  1
  Cu  Cu13  1  0.30534000  0.69466000  0.82978700  1
  Cu  Cu14  1  0.53758700  0.46241300  0.67792100  1
  Cu  Cu15  1  0.46241300  0.53758700  0.32207900  1
  Cu  Cu16  1  0.96241300  0.03758700  0.17792100  1
  Cu  Cu17  1  0.03758700  0.96241300  0.82207900  1
  C  C18  1  0.55978800  0.06370400  0.64667400  1
  C  C19  1  0.06370400  0.55978800  0.35332600  1
  C  C20  1  0.56370400  0.05978800  0.14667400  1
  C  C21  1  0.05978800  0.56370400  0.85332600  1
  C  C22  1  0.44021200  0.93629600  0.35332600  1
  C  C23  1  0.93629600  0.44021200  0.64667400  1
  C  C24  1  0.43629600  0.94021200  0.85332600  1
  C  C25  1  0.94021200  0.43629600  0.14667400  1
  C  C26  1  0.17484200  0.82515800  0.70240400  1
  C  C27  1  0.82515800  0.17484200  0.29759600  1
  C  C28  1  0.32515800  0.67484200  0.20240400  1
  C  C29  1  0.67484200  0.32515800  0.79759600  1
  C  C30  1  0.40066400  0.21917900  0.64662100  1
  C  C31  1  0.21917900  0.40066400  0.35337900  1
  C  C32  1  0.71917900  0.90066400  0.14662100  1
  C  C33  1  0.90066400  0.71917900  0.85337900  1
  C  C34  1  0.59933600  0.78082100  0.35337900  1
  C  C35  1  0.78082100  0.59933600  0.64662100  1
  C  C36  1  0.28082100  0.09933600  0.85337900  1
  C  C37  1  0.09933600  0.28082100  0.14662100  1
  C  C38  1  0.46802600  0.53197400  0.59661000  1
  C  C39  1  0.53197400  0.46802600  0.40339000  1
  C  C40  1  0.03197400  0.96802600  0.09661000  1
  C  C41  1  0.96802600  0.03197400  0.90339000  1
  C  C42  1  0.85856200  0.14143800  0.56986600  1
  C  C43  1  0.14143800  0.85856200  0.43013400  1
  C  C44  1  0.64143800  0.35856200  0.06986600  1
  C  C45  1  0.35856200  0.64143800  0.93013400  1
