# generated using pymatgen
data_Cu2Ni2C3
_symmetry_space_group_name_H-M   'P 1'
_cell_length_a   7.35774446
_cell_length_b   7.35774446
_cell_length_c   7.35774446
_cell_angle_alpha   60.00000000
_cell_angle_beta   60.00000000
_cell_angle_gamma   60.00000000
_symmetry_Int_Tables_number   1
_chemical_formula_structural   Cu2Ni2C3
_chemical_formula_sum   'Cu4 Ni4 C6'
_cell_volume   281.65606198
_cell_formula_units_Z   2
loop_
 _symmetry_equiv_pos_site_id
 _symmetry_equiv_pos_as_xyz
  1  'x, y, z'
loop_
 _atom_site_type_symbol
 _atom_site_label
 _atom_site_symmetry_multiplicity
 _atom_site_fract_x
 _atom_site_fract_y
 _atom_site_fract_z
 _atom_site_occupancy
  C  C0  1  0.75000000  0.75000000  0.75000000  1
  C  C1  1  0.50000000  0.50000000  0.50000000  1
  C  C2  1  0.63855500  0.12048200  0.12048200  1
  C  C3  1  0.12048200  0.63855500  0.12048200  1
  C  C4  1  0.12048200  0.12048200  0.63855500  1
  C  C5  1  0.12048200  0.12048200  0.12048200  1
  Ni  Ni6  1  0.90561700  0.36479400  0.36479400  1
  Ni  Ni7  1  0.36479400  0.90561700  0.36479400  1
  Ni  Ni8  1  0.36479400  0.36479400  0.90561700  1
  Ni  Ni9  1  0.36479400  0.36479400  0.36479400  1
  Cu  Cu10  1  0.34152400  0.88615900  0.88615900  1
  Cu  Cu11  1  0.88615900  0.34152400  0.88615900  1
  Cu  Cu12  1  0.88615900  0.88615900  0.34152400  1
  Cu  Cu13  1  0.88615900  0.88615900  0.88615900  1
