# generated using pymatgen
data_Cu18NiC15
_symmetry_space_group_name_H-M   'P 1'
_cell_length_a   7.03252624
_cell_length_b   12.12286382
_cell_length_c   14.94121470
_cell_angle_alpha   91.51432710
_cell_angle_beta   103.96343883
_cell_angle_gamma   106.50319663
_symmetry_Int_Tables_number   1
_chemical_formula_structural   Cu18NiC15
_chemical_formula_sum   'Cu72 Ni4 C60'
_cell_volume   1179.04727181
_cell_formula_units_Z   4
loop_
 _symmetry_equiv_pos_site_id
 _symmetry_equiv_pos_as_xyz
  1  'x, y, z'
loop_
 _atom_site_type_symbol
 _atom_site_label
 _atom_site_symmetry_multiplicity
 _atom_site_fract_x
 _atom_site_fract_y
 _atom_site_fract_z
 _atom_site_occupancy
  C  C0  1  0.25656900  0.99692700  0.00277300  1
  C  C1  1  0.74343100  0.00307300  0.99722700  1
  C  C2  1  0.01322100  0.59999500  0.41890300  1
  C  C3  1  0.98677900  0.40000500  0.58109700  1
  C  C4  1  0.14866000  0.88418700  0.39620500  1
  C  C5  1  0.85134000  0.11581300  0.60379500  1
  C  C6  1  0.79773900  0.42001800  0.21002400  1
  C  C7  1  0.20226100  0.57998200  0.78997600  1
  Ni  Ni8  1  0.29018900  0.26655700  0.33532900  1
  Ni  Ni9  1  0.70981100  0.73344300  0.66467100  1
  Ni  Ni10  1  0.50821300  0.76265200  0.23566300  1
  Ni  Ni11  1  0.49178700  0.23734800  0.76433700  1
  Cu  Cu12  1  0.89046900  0.75831800  0.23369100  1
  Cu  Cu13  1  0.10953100  0.24168200  0.76630900  1
  Cu  Cu14  1  0.12026700  0.75499500  0.23286300  1
  Cu  Cu15  1  0.87973300  0.24500500  0.76713700  1
  Cu  Cu16  1  0.39476100  0.00533000  0.55977800  1
  Cu  Cu17  1  0.60523900  0.99467000  0.44022200  1
  Cu  Cu18  1  0.16961500  0.00276200  0.55837600  1
  Cu  Cu19  1  0.83038500  0.99723800  0.44162400  1
  Cu  Cu20  1  0.41767200  0.07573400  0.35125100  1
  Cu  Cu21  1  0.58232800  0.92426600  0.64874900  1
  Cu  Cu22  1  0.44944600  0.95937600  0.30231900  1
  Cu  Cu23  1  0.55055400  0.04062400  0.69768100  1
  Cu  Cu24  1  0.00989500  0.07441900  0.35418700  1
  Cu  Cu25  1  0.99010500  0.92558100  0.64581300  1
  Cu  Cu26  1  0.81678200  0.95950600  0.30260700  1
  Cu  Cu27  1  0.18321800  0.04049400  0.69739300  1
  Cu  Cu28  1  0.90140800  0.77975900  0.50943500  1
  Cu  Cu29  1  0.09859200  0.22024100  0.49056500  1
  Cu  Cu30  1  0.76924400  0.75587300  0.40316000  1
  Cu  Cu31  1  0.23075600  0.24412700  0.59684000  1
  Cu  Cu32  1  0.41250000  0.77852900  0.51157300  1
  Cu  Cu33  1  0.58750000  0.22147100  0.48842700  1
  Cu  Cu34  1  0.41039200  0.75169300  0.40511100  1
  Cu  Cu35  1  0.58960800  0.24830700  0.59488900  1
  Cu  Cu36  1  0.68087900  0.26531800  0.33239700  1
  Cu  Cu37  1  0.31912100  0.73468200  0.66760300  1
  Cu  Cu38  1  0.91538500  0.26686300  0.33731100  1
  Cu  Cu39  1  0.08461500  0.73313700  0.66268900  1
  Cu  Cu40  1  0.70075400  0.59250200  0.12190700  1
  Cu  Cu41  1  0.29924600  0.40749800  0.87809300  1
  Cu  Cu42  1  0.77222000  0.52407000  0.04831100  1
  Cu  Cu43  1  0.22778000  0.47593000  0.95168900  1
  Cu  Cu44  1  0.95786400  0.69935900  0.82888100  1
  Cu  Cu45  1  0.04213600  0.30064100  0.17111900  1
  Cu  Cu46  1  0.14373300  0.71554800  0.92138300  1
  Cu  Cu47  1  0.85626700  0.28445200  0.07861700  1
  Cu  Cu48  1  0.64716300  0.58571100  0.27304300  1
  Cu  Cu49  1  0.35283700  0.41428900  0.72695700  1
  Cu  Cu50  1  0.56344900  0.47179800  0.31773100  1
  Cu  Cu51  1  0.43655100  0.52820200  0.68226900  1
  Cu  Cu52  1  0.40115400  0.28740900  0.17315000  1
  Cu  Cu53  1  0.59884600  0.71259100  0.82685000  1
  Cu  Cu54  1  0.44553000  0.28232400  0.07411600  1
  Cu  Cu55  1  0.55447000  0.71767600  0.92588400  1
  Cu  Cu56  1  0.17511200  0.58360200  0.24821000  1
  Cu  Cu57  1  0.82488800  0.41639800  0.75179000  1
  Cu  Cu58  1  0.20881500  0.48093700  0.30910200  1
  Cu  Cu59  1  0.79118500  0.51906300  0.69089800  1
  Cu  Cu60  1  0.16743900  0.18459800  0.95459200  1
  Cu  Cu61  1  0.83256100  0.81540200  0.04540800  1
  Cu  Cu62  1  0.35171400  0.22846000  0.91169900  1
  Cu  Cu63  1  0.64828600  0.77154000  0.08830100  1
  Cu  Cu64  1  0.21033100  0.76615200  0.08968900  1
  Cu  Cu65  1  0.78966900  0.23384800  0.91031100  1
  Cu  Cu66  1  0.01203200  0.74403000  0.00796700  1
  Cu  Cu67  1  0.98796800  0.25597000  0.99203300  1
  Cu  Cu68  1  0.36585200  0.88105200  0.85007600  1
  Cu  Cu69  1  0.63414800  0.11894800  0.14992400  1
  Cu  Cu70  1  0.42303500  0.01494600  0.84072900  1
  Cu  Cu71  1  0.57696500  0.98505400  0.15927100  1
  Cu  Cu72  1  0.13340400  0.11558700  0.16402400  1
  Cu  Cu73  1  0.86659600  0.88441300  0.83597600  1
  Cu  Cu74  1  0.06977900  0.98201200  0.16443800  1
  Cu  Cu75  1  0.93022100  0.01798800  0.83556200  1
  Cu  Cu76  1  0.36646600  0.54255900  0.54069700  1
  Cu  Cu77  1  0.63353400  0.45744100  0.45930300  1
  Cu  Cu78  1  0.28107200  0.45394700  0.45250600  1
  Cu  Cu79  1  0.71892800  0.54605300  0.54749400  1
  Cu  Cu80  1  0.73260500  0.41816200  0.90203300  1
  Cu  Cu81  1  0.26739500  0.58183800  0.09796700  1
  Cu  Cu82  1  0.86413300  0.54714700  0.91379900  1
  Cu  Cu83  1  0.13586700  0.45285300  0.08620100  1
  C  C84  1  0.46663600  0.21218300  0.36980800  1
  C  C85  1  0.53336400  0.78781700  0.63019200  1
  C  C86  1  0.10665500  0.21198900  0.37729600  1
  C  C87  1  0.89334500  0.78801100  0.62270400  1
  C  C88  1  0.37373400  0.40027100  0.36431400  1
  C  C89  1  0.62626600  0.59972900  0.63568600  1
  C  C90  1  0.21164900  0.24512500  0.22682000  1
  C  C91  1  0.78835100  0.75487500  0.77318000  1
  C  C92  1  0.56742000  0.89740300  0.23996800  1
  C  C93  1  0.43258000  0.10259700  0.76003200  1
  C  C94  1  0.64246200  0.71800800  0.18233500  1
  C  C95  1  0.35753800  0.28199200  0.81766500  1
  C  C96  1  0.54015500  0.72205100  0.33340300  1
  C  C97  1  0.45984500  0.27794900  0.66659700  1
  C  C98  1  0.27698500  0.70848200  0.18085900  1
  C  C99  1  0.72301500  0.29151800  0.81914100  1
  C  C100  1  0.03944700  0.78586300  0.26839600  1
  C  C101  1  0.96055300  0.21413700  0.73160400  1
  C  C102  1  0.25551900  0.99150300  0.51725400  1
  C  C103  1  0.74448100  0.00849700  0.48274600  1
  C  C104  1  0.39337700  0.98868200  0.35078700  1
  C  C105  1  0.60662300  0.01131800  0.64921300  1
  C  C106  1  0.95137400  0.98701200  0.35075500  1
  C  C107  1  0.04862600  0.01298800  0.64924500  1
  C  C108  1  0.91351000  0.77255300  0.44422800  1
  C  C109  1  0.08649000  0.22744700  0.55577200  1
  C  C110  1  0.32741600  0.77125600  0.44621000  1
  C  C111  1  0.67258400  0.22874400  0.55379000  1
  C  C112  1  0.80519200  0.30325300  0.31036000  1
  C  C113  1  0.19480800  0.69674700  0.68964000  1
  C  C114  1  0.79013200  0.54497300  0.11591100  1
  C  C115  1  0.20986800  0.45502700  0.88408900  1
  C  C116  1  0.05653100  0.66019000  0.86753500  1
  C  C117  1  0.94346900  0.33981000  0.13246500  1
  C  C118  1  0.67993700  0.51474900  0.29160200  1
  C  C119  1  0.32006300  0.48525100  0.70839800  1
  C  C120  1  0.51353900  0.30847600  0.14048700  1
  C  C121  1  0.48646100  0.69152400  0.85951300  1
  C  C122  1  0.10526300  0.52024400  0.28040400  1
  C  C123  1  0.89473700  0.47975600  0.71959600  1
  C  C124  1  0.31460300  0.19608200  0.96993700  1
  C  C125  1  0.68539700  0.80391800  0.03006300  1
  C  C126  1  0.14981400  0.79777200  0.02992300  1
  C  C127  1  0.85018600  0.20222800  0.97007700  1
  C  C128  1  0.41383400  0.95567800  0.88688000  1
  C  C129  1  0.58616600  0.04432200  0.11312000  1
  C  C130  1  0.08305300  0.04128700  0.12168200  1
  C  C131  1  0.91694700  0.95871300  0.87831800  1
  C  C132  1  0.23655200  0.49683700  0.49697900  1
  C  C133  1  0.76344800  0.50316300  0.50302100  1
  C  C134  1  0.75707700  0.49353600  0.93690900  1
  C  C135  1  0.24292300  0.50646400  0.06309100  1
