# generated using pymatgen
data_CuNi2C7
_symmetry_space_group_name_H-M   'P 1'
_cell_length_a   7.25593700
_cell_length_b   8.02912693
_cell_length_c   8.88507479
_cell_angle_alpha   102.85775703
_cell_angle_beta   103.26493553
_cell_angle_gamma   91.65761515
_symmetry_Int_Tables_number   1
_chemical_formula_structural   CuNi2C7
_chemical_formula_sum   'Cu2 Ni4 C14'
_cell_volume   489.44211546
_cell_formula_units_Z   2
loop_
 _symmetry_equiv_pos_site_id
 _symmetry_equiv_pos_as_xyz
  1  'x, y, z'
loop_
 _atom_site_type_symbol
 _atom_site_label
 _atom_site_symmetry_multiplicity
 _atom_site_fract_x
 _atom_site_fract_y
 _atom_site_fract_z
 _atom_site_occupancy
  C  C0  1  0.33122600  0.20809100  0.36720100  1
  C  C1  1  0.66877400  0.79190900  0.63279900  1
  C  C2  1  0.29736300  0.35719700  0.91479100  1
  C  C3  1  0.70263700  0.64280300  0.08520900  1
  C  C4  1  0.24584000  0.83850400  0.90997200  1
  C  C5  1  0.75416000  0.16149600  0.09002800  1
  C  C6  1  0.10645600  0.40832300  0.17583300  1
  C  C7  1  0.89354400  0.59167700  0.82416700  1
  C  C8  1  0.69170500  0.48752500  0.36620000  1
  C  C9  1  0.30829500  0.51247500  0.63380000  1
  C  C10  1  0.09208900  0.91295600  0.18585900  1
  C  C11  1  0.90791100  0.08704400  0.81414100  1
  C  C12  1  0.68302000  0.93865400  0.35644200  1
  C  C13  1  0.31698000  0.06134600  0.64355800  1
  Ni  Ni14  1  0.60686000  0.36762000  0.97142200  1
  Ni  Ni15  1  0.39314000  0.63238000  0.02857800  1
  Ni  Ni16  1  0.90535800  0.74920000  0.48609300  1
  Ni  Ni17  1  0.09464200  0.25080000  0.51390700  1
  Cu  Cu18  1  0.60666700  0.86679700  0.93395800  1
  Cu  Cu19  1  0.39333300  0.13320300  0.06604200  1
