# generated using pymatgen
data_Cu3Ni2C13
_symmetry_space_group_name_H-M   'P 1'
_cell_length_a   9.47765793
_cell_length_b   9.47765793
_cell_length_c   9.47765766
_cell_angle_alpha   52.99191484
_cell_angle_beta   52.99191484
_cell_angle_gamma   52.99191777
_symmetry_Int_Tables_number   1
_chemical_formula_structural   Cu3Ni2C13
_chemical_formula_sum   'Cu6 Ni4 C26'
_cell_volume   503.10262476
_cell_formula_units_Z   2
loop_
 _symmetry_equiv_pos_site_id
 _symmetry_equiv_pos_as_xyz
  1  'x, y, z'
loop_
 _atom_site_type_symbol
 _atom_site_label
 _atom_site_symmetry_multiplicity
 _atom_site_fract_x
 _atom_site_fract_y
 _atom_site_fract_z
 _atom_site_occupancy
  C  C0  1  0.50000000  0.50000000  0.50000000  1
  C  C1  1  0.00000000  0.00000000  0.00000000  1
  Ni  Ni2  1  0.35022700  0.35022700  0.35022700  1
  Ni  Ni3  1  0.64977300  0.64977300  0.64977300  1
  Ni  Ni4  1  0.84456600  0.84456600  0.84456600  1
  Ni  Ni5  1  0.15543400  0.15543400  0.15543400  1
  Cu  Cu6  1  0.24820200  0.96211400  0.53818800  1
  Cu  Cu7  1  0.53818800  0.24820200  0.96211400  1
  Cu  Cu8  1  0.96211400  0.53818800  0.24820200  1
  Cu  Cu9  1  0.75179800  0.03788600  0.46181200  1
  Cu  Cu10  1  0.46181200  0.75179800  0.03788600  1
  Cu  Cu11  1  0.03788600  0.46181200  0.75179800  1
  C  C12  1  0.04352800  0.96835000  0.67922500  1
  C  C13  1  0.67922500  0.04352800  0.96835000  1
  C  C14  1  0.96835000  0.67922500  0.04352800  1
  C  C15  1  0.95647200  0.03165000  0.32077500  1
  C  C16  1  0.32077500  0.95647200  0.03165000  1
  C  C17  1  0.03165000  0.32077500  0.95647200  1
  C  C18  1  0.26201700  0.12635500  0.52119800  1
  C  C19  1  0.52119800  0.26201700  0.12635500  1
  C  C20  1  0.12635500  0.52119800  0.26201700  1
  C  C21  1  0.73798300  0.87364500  0.47880200  1
  C  C22  1  0.47880200  0.73798300  0.87364500  1
  C  C23  1  0.87364500  0.47880200  0.73798300  1
  C  C24  1  0.39448800  0.77150100  0.62113300  1
  C  C25  1  0.62113300  0.39448800  0.77150100  1
  C  C26  1  0.77150100  0.62113300  0.39448800  1
  C  C27  1  0.60551200  0.22849900  0.37886700  1
  C  C28  1  0.37886700  0.60551200  0.22849900  1
  C  C29  1  0.22849900  0.37886700  0.60551200  1
  C  C30  1  0.29190400  0.97313500  0.34610600  1
  C  C31  1  0.34610600  0.29190400  0.97313500  1
  C  C32  1  0.97313500  0.34610600  0.29190400  1
  C  C33  1  0.70809600  0.02686500  0.65389400  1
  C  C34  1  0.65389400  0.70809600  0.02686500  1
  C  C35  1  0.02686500  0.65389400  0.70809600  1
