# generated using pymatgen
data_Cu3NiC21
_symmetry_space_group_name_H-M   'P 1'
_cell_length_a   11.47317024
_cell_length_b   11.44914843
_cell_length_c   7.45233700
_cell_angle_alpha   90.00000000
_cell_angle_beta   90.00000000
_cell_angle_gamma   121.19765297
_symmetry_Int_Tables_number   1
_chemical_formula_structural   Cu3NiC21
_chemical_formula_sum   'Cu6 Ni2 C42'
_cell_volume   837.35763208
_cell_formula_units_Z   2
loop_
 _symmetry_equiv_pos_site_id
 _symmetry_equiv_pos_as_xyz
  1  'x, y, z'
loop_
 _atom_site_type_symbol
 _atom_site_label
 _atom_site_symmetry_multiplicity
 _atom_site_fract_x
 _atom_site_fract_y
 _atom_site_fract_z
 _atom_site_occupancy
  C  C0  1  0.13174300  0.85722800  0.18837500  1
  C  C1  1  0.04714300  0.53187200  0.85410400  1
  C  C2  1  0.46417500  0.95210500  0.85369800  1
  C  C3  1  0.13434800  0.26193100  0.17425700  1
  C  C4  1  0.33720700  0.66458400  0.49254100  1
  C  C5  1  0.47960000  0.52501600  0.85452500  1
  C  C6  1  0.26047000  0.12236300  0.67604900  1
  C  C7  1  0.73953000  0.87763700  0.17604900  1
  C  C8  1  0.52040000  0.47498400  0.35452500  1
  C  C9  1  0.86565200  0.73806900  0.67425700  1
  C  C10  1  0.53582500  0.04789500  0.35369800  1
  C  C11  1  0.66279300  0.33541600  0.99254100  1
  C  C12  1  0.95285700  0.46812800  0.35410400  1
  C  C13  1  0.86825700  0.14277200  0.68837500  1
  Ni  Ni14  1  0.33532000  0.66440300  0.08306900  1
  Ni  Ni15  1  0.66468000  0.33559700  0.58306900  1
  Cu  Cu16  1  0.18091000  0.81096600  0.63295500  1
  Cu  Cu17  1  0.18403700  0.35719600  0.64455200  1
  Cu  Cu18  1  0.64082100  0.82437500  0.64561900  1
  Cu  Cu19  1  0.35917900  0.17562500  0.14561900  1
  Cu  Cu20  1  0.81596300  0.64280400  0.14455200  1
  Cu  Cu21  1  0.81909000  0.18903400  0.13295500  1
  C  C22  1  0.00060300  0.00052400  0.49698900  1
  C  C23  1  0.99939700  0.99947600  0.99698900  1
  C  C24  1  0.16835500  0.85133300  0.80385200  1
  C  C25  1  0.07700100  0.68789500  0.56126900  1
  C  C26  1  0.29858400  0.89078000  0.53163800  1
  C  C27  1  0.19206900  0.64611500  0.16227900  1
  C  C28  1  0.10468700  0.40158500  0.56021800  1
  C  C29  1  0.13821900  0.27591300  0.79695200  1
  C  C30  1  0.33358200  0.66289400  0.86042400  1
  C  C31  1  0.46421500  0.81016600  0.15904600  1
  C  C32  1  0.35115600  0.53797100  0.16114500  1
  C  C33  1  0.31128400  0.39518000  0.57240500  1
  C  C34  1  0.60275200  0.91532300  0.58518400  1
  C  C35  1  0.27939600  0.14727400  0.29807900  1
  C  C36  1  0.40289300  0.29657000  0.04930200  1
  C  C37  1  0.59710700  0.70343000  0.54930200  1
  C  C38  1  0.72060400  0.85272600  0.79807900  1
  C  C39  1  0.39724800  0.08467700  0.08518400  1
  C  C40  1  0.68871600  0.60482000  0.07240500  1
  C  C41  1  0.64884400  0.46202900  0.66114600  1
  C  C42  1  0.53578500  0.18983400  0.65904700  1
  C  C43  1  0.86178100  0.72408700  0.29695200  1
  C  C44  1  0.66641800  0.33710600  0.36042400  1
  C  C45  1  0.89531300  0.59841500  0.06021800  1
  C  C46  1  0.80793100  0.35388500  0.66228000  1
  C  C47  1  0.70141600  0.10922000  0.03163800  1
  C  C48  1  0.92299900  0.31210500  0.06126900  1
  C  C49  1  0.83164500  0.14866700  0.30385200  1
