# generated using pymatgen
data_Cu3Ni3C19
_symmetry_space_group_name_H-M   'P 1'
_cell_length_a   9.23249610
_cell_length_b   9.23249610
_cell_length_c   9.23249612
_cell_angle_alpha   90.91825659
_cell_angle_beta   90.91825659
_cell_angle_gamma   90.91825387
_symmetry_Int_Tables_number   1
_chemical_formula_structural   Cu3Ni3C19
_chemical_formula_sum   'Cu6 Ni6 C38'
_cell_volume   786.66211719
_cell_formula_units_Z   2
loop_
 _symmetry_equiv_pos_site_id
 _symmetry_equiv_pos_as_xyz
  1  'x, y, z'
loop_
 _atom_site_type_symbol
 _atom_site_label
 _atom_site_symmetry_multiplicity
 _atom_site_fract_x
 _atom_site_fract_y
 _atom_site_fract_z
 _atom_site_occupancy
  C  C0  1  0.32821100  0.67124500  0.32952300  1
  C  C1  1  0.67124500  0.32952300  0.32821100  1
  C  C2  1  0.32952300  0.32821100  0.67124500  1
  C  C3  1  0.17124500  0.82821100  0.82952300  1
  C  C4  1  0.82952300  0.17124500  0.82821100  1
  C  C5  1  0.82821100  0.82952300  0.17124500  1
  Ni  Ni6  1  0.99500300  0.75156300  0.50368100  1
  Ni  Ni7  1  0.50368100  0.99500300  0.75156300  1
  Ni  Ni8  1  0.75156300  0.50368100  0.99500300  1
  Ni  Ni9  1  0.49500300  0.00368100  0.25156300  1
  Ni  Ni10  1  0.25156300  0.49500300  0.00368100  1
  Ni  Ni11  1  0.00368100  0.25156300  0.49500300  1
  Cu  Cu12  1  0.50302900  0.75071100  0.99860300  1
  Cu  Cu13  1  0.99860300  0.50302900  0.75071100  1
  Cu  Cu14  1  0.75071100  0.99860300  0.50302900  1
  Cu  Cu15  1  0.00302900  0.49860300  0.25071100  1
  Cu  Cu16  1  0.25071100  0.00302900  0.49860300  1
  Cu  Cu17  1  0.49860300  0.25071100  0.00302900  1
  C  C18  1  0.92129300  0.64532400  0.65326500  1
  C  C19  1  0.65326500  0.92129300  0.64532400  1
  C  C20  1  0.64532400  0.65326500  0.92129300  1
  C  C21  1  0.08299100  0.63700800  0.36389200  1
  C  C22  1  0.35370000  0.91573900  0.36290700  1
  C  C23  1  0.36959100  0.64280500  0.08417400  1
  C  C24  1  0.91573900  0.36290700  0.35370000  1
  C  C25  1  0.64280500  0.08417400  0.36959100  1
  C  C26  1  0.63700800  0.36389200  0.08299100  1
  C  C27  1  0.08417400  0.36959100  0.64280500  1
  C  C28  1  0.36389200  0.08299100  0.63700800  1
  C  C29  1  0.36290700  0.35370000  0.91573900  1
  C  C30  1  0.41573900  0.85370000  0.86290700  1
  C  C31  1  0.14280500  0.86959100  0.58417400  1
  C  C32  1  0.13700800  0.58299100  0.86389200  1
  C  C33  1  0.58417400  0.14280500  0.86959100  1
  C  C34  1  0.86389200  0.13700800  0.58299100  1
  C  C35  1  0.86290700  0.41573900  0.85370000  1
  C  C36  1  0.42129300  0.15326500  0.14532400  1
  C  C37  1  0.15326500  0.14532400  0.42129300  1
  C  C38  1  0.14532400  0.42129300  0.15326500  1
  C  C39  1  0.58299100  0.86389200  0.13700800  1
  C  C40  1  0.85370000  0.86290700  0.41573900  1
  C  C41  1  0.86959100  0.58417400  0.14280500  1
  C  C42  1  0.93721200  0.93721200  0.93721200  1
  C  C43  1  0.07026800  0.91456500  0.07119600  1
  C  C44  1  0.91456500  0.07119600  0.07026800  1
  C  C45  1  0.07119600  0.07026800  0.91456500  1
  C  C46  1  0.41456500  0.57026800  0.57119600  1
  C  C47  1  0.57119600  0.41456500  0.57026800  1
  C  C48  1  0.43721200  0.43721200  0.43721200  1
  C  C49  1  0.57026800  0.57119600  0.41456500  1
