# generated using pymatgen
data_CuNi6C
_symmetry_space_group_name_H-M   'P 1'
_cell_length_a   5.27744600
_cell_length_b   6.71977000
_cell_length_c   11.51872300
_cell_angle_alpha   90.00000000
_cell_angle_beta   90.00000000
_cell_angle_gamma   90.00000000
_symmetry_Int_Tables_number   1
_chemical_formula_structural   CuNi6C
_chemical_formula_sum   'Cu2 Ni12 C2'
_cell_volume   408.49104597
_cell_formula_units_Z   2
loop_
 _symmetry_equiv_pos_site_id
 _symmetry_equiv_pos_as_xyz
  1  'x, y, z'
loop_
 _atom_site_type_symbol
 _atom_site_label
 _atom_site_symmetry_multiplicity
 _atom_site_fract_x
 _atom_site_fract_y
 _atom_site_fract_z
 _atom_site_occupancy
  C  C0  1  0.00000000  0.50000000  0.34041400  1
  C  C1  1  0.00000000  0.00000000  0.84041400  1
  Ni  Ni2  1  0.00000000  0.27568200  0.08840500  1
  Ni  Ni3  1  0.00000000  0.72431800  0.08840500  1
  Ni  Ni4  1  0.00000000  0.50000000  0.83000500  1
  Ni  Ni5  1  0.50000000  0.27262800  0.92207600  1
  Ni  Ni6  1  0.50000000  0.72737200  0.92207600  1
  Ni  Ni7  1  0.50000000  0.50000000  0.66099600  1
  Ni  Ni8  1  0.00000000  0.77568200  0.58840500  1
  Ni  Ni9  1  0.00000000  0.22431800  0.58840500  1
  Ni  Ni10  1  0.00000000  0.00000000  0.33000500  1
  Ni  Ni11  1  0.50000000  0.77262800  0.42207600  1
  Ni  Ni12  1  0.50000000  0.22737200  0.42207600  1
  Ni  Ni13  1  0.50000000  0.00000000  0.16099600  1
  Cu  Cu14  1  0.50000000  0.50000000  0.14762300  1
  Cu  Cu15  1  0.50000000  0.00000000  0.64762300  1
