# generated using pymatgen
data_CuNiC9
_symmetry_space_group_name_H-M   'P 1'
_cell_length_a   8.45316100
_cell_length_b   7.10595400
_cell_length_c   9.34694775
_cell_angle_alpha   70.01176372
_cell_angle_beta   90.00000000
_cell_angle_gamma   90.00000000
_symmetry_Int_Tables_number   1
_chemical_formula_structural   CuNiC9
_chemical_formula_sum   'Cu4 Ni4 C36'
_cell_volume   527.63015414
_cell_formula_units_Z   4
loop_
 _symmetry_equiv_pos_site_id
 _symmetry_equiv_pos_as_xyz
  1  'x, y, z'
loop_
 _atom_site_type_symbol
 _atom_site_label
 _atom_site_symmetry_multiplicity
 _atom_site_fract_x
 _atom_site_fract_y
 _atom_site_fract_z
 _atom_site_occupancy
  Ni  Ni0  1  0.93793400  0.30805000  0.81351600  1
  Ni  Ni1  1  0.43793400  0.69195000  0.68648400  1
  Ni  Ni2  1  0.56206600  0.30805000  0.31351600  1
  Ni  Ni3  1  0.06206600  0.69195000  0.18648400  1
  Cu  Cu4  1  0.06648600  0.76016600  0.61216100  1
  Cu  Cu5  1  0.93351400  0.23983400  0.38783900  1
  Cu  Cu6  1  0.56648600  0.23983400  0.88783900  1
  Cu  Cu7  1  0.43351400  0.76016600  0.11216100  1
  C  C8  1  0.73827800  0.93078600  0.24870800  1
  C  C9  1  0.22843100  0.46151700  0.97252400  1
  C  C10  1  0.76172200  0.93078600  0.74870800  1
  C  C11  1  0.27156900  0.46151700  0.47252400  1
  C  C12  1  0.23827800  0.06921400  0.25129200  1
  C  C13  1  0.72843100  0.53848300  0.52747600  1
  C  C14  1  0.77156900  0.53848300  0.02747600  1
  C  C15  1  0.26172200  0.06921400  0.75129200  1
  C  C16  1  0.18924300  0.24904000  0.09637400  1
  C  C17  1  0.60399200  0.88339200  0.69297300  1
  C  C18  1  0.89600800  0.88339200  0.19297300  1
  C  C19  1  0.38977800  0.45285400  0.89566100  1
  C  C20  1  0.81075700  0.75096000  0.90362600  1
  C  C21  1  0.10225500  0.04795600  0.36342500  1
  C  C22  1  0.61022200  0.54714600  0.10433900  1
  C  C23  1  0.09084200  0.50260900  0.86087600  1
  C  C24  1  0.26084100  0.61740000  0.55429200  1
  C  C25  1  0.89774500  0.95204400  0.63657500  1
  C  C26  1  0.39774500  0.04795600  0.86342500  1
  C  C27  1  0.75508400  0.11633600  0.79987200  1
  C  C28  1  0.25508400  0.88366400  0.70012800  1
  C  C29  1  0.31075700  0.24904000  0.59637400  1
  C  C30  1  0.60225500  0.95204400  0.13657500  1
  C  C31  1  0.10399200  0.11660800  0.80702700  1
  C  C32  1  0.24491600  0.88366400  0.20012800  1
  C  C33  1  0.90915800  0.49739100  0.13912400  1
  C  C34  1  0.23915900  0.61740000  0.05429200  1
  C  C35  1  0.76084100  0.38260000  0.94570800  1
  C  C36  1  0.88977800  0.54714600  0.60433900  1
  C  C37  1  0.40915800  0.50260900  0.36087600  1
  C  C38  1  0.59084200  0.49739100  0.63912400  1
  C  C39  1  0.39600800  0.11660800  0.30702700  1
  C  C40  1  0.74491600  0.11633600  0.29987200  1
  C  C41  1  0.11022200  0.45285400  0.39566100  1
  C  C42  1  0.73915900  0.38260000  0.44570800  1
  C  C43  1  0.68924300  0.75096000  0.40362600  1
