# generated using pymatgen
data_CuNi2C13
_symmetry_space_group_name_H-M   'P 1'
_cell_length_a   2.88876085
_cell_length_b   19.96541540
_cell_length_c   5.08016834
_cell_angle_alpha   92.19609317
_cell_angle_beta   73.95362776
_cell_angle_gamma   86.22413123
_symmetry_Int_Tables_number   1
_chemical_formula_structural   CuNi2C13
_chemical_formula_sum   'Cu2 Ni4 C26'
_cell_volume   280.48475885
_cell_formula_units_Z   2
loop_
 _symmetry_equiv_pos_site_id
 _symmetry_equiv_pos_as_xyz
  1  'x, y, z'
loop_
 _atom_site_type_symbol
 _atom_site_label
 _atom_site_symmetry_multiplicity
 _atom_site_fract_x
 _atom_site_fract_y
 _atom_site_fract_z
 _atom_site_occupancy
  C  C0  1  0.11499300  0.37749600  0.37710100  1
  C  C1  1  0.63506100  0.87248600  0.87285700  1
  C  C2  1  0.69207200  0.05968700  0.57202800  1
  C  C3  1  0.18132000  0.56404100  0.06896300  1
  C  C4  1  0.05791000  0.19040200  0.67823100  1
  C  C5  1  0.56863900  0.68590500  0.18088900  1
  C  C6  1  0.42049200  0.32217400  0.81141600  1
  C  C7  1  0.93731800  0.81844400  0.30922000  1
  C  C8  1  0.81262700  0.43156100  0.94076900  1
  C  C9  1  0.32956800  0.92782500  0.43877300  1
  Ni  Ni10  1  0.00824100  0.99360000  0.01167900  1
  Ni  Ni11  1  0.74155600  0.25652900  0.23890900  1
  Ni  Ni12  1  0.49092500  0.49847000  0.50923600  1
  Ni  Ni13  1  0.25932500  0.75139400  0.74010800  1
  Cu  Cu14  1  0.87502000  0.62492100  0.62483300  1
  Cu  Cu15  1  0.37497900  0.12507400  0.12512200  1
  C  C16  1  0.37214700  0.02896000  0.25897900  1
  C  C17  1  0.85383800  0.53503100  0.75486200  1
  C  C18  1  0.37771900  0.22118400  0.99141000  1
  C  C19  1  0.89628800  0.71482100  0.49468000  1
  C  C20  1  0.70662300  0.15907800  0.38052200  1
  C  C21  1  0.24119900  0.65538100  0.86989600  1
  C  C22  1  0.04334200  0.09106000  0.86979100  1
  C  C23  1  0.50882000  0.59448600  0.37972600  1
  C  C24  1  0.10787100  0.27856700  0.48917900  1
  C  C25  1  0.62744600  0.77381900  0.99011600  1
  C  C26  1  0.12270200  0.47604300  0.25936900  1
  C  C27  1  0.64198300  0.97153500  0.76128500  1
  C  C28  1  0.45612100  0.41709200  0.65877200  1
  C  C29  1  0.97563000  0.91192400  0.15641100  1
  C  C30  1  0.77432300  0.33814700  0.09388200  1
  C  C31  1  0.29390200  0.83286300  0.59098400  1
