# generated using pymatgen
data_CuNiC5
_symmetry_space_group_name_H-M   'P 1'
_cell_length_a   8.85114004
_cell_length_b   8.85114004
_cell_length_c   8.85114004
_cell_angle_alpha   95.32607641
_cell_angle_beta   95.32607641
_cell_angle_gamma   144.52338854
_symmetry_Int_Tables_number   1
_chemical_formula_structural   CuNiC5
_chemical_formula_sum   'Cu4 Ni4 C20'
_cell_volume   383.30886321
_cell_formula_units_Z   4
loop_
 _symmetry_equiv_pos_site_id
 _symmetry_equiv_pos_as_xyz
  1  'x, y, z'
loop_
 _atom_site_type_symbol
 _atom_site_label
 _atom_site_symmetry_multiplicity
 _atom_site_fract_x
 _atom_site_fract_y
 _atom_site_fract_z
 _atom_site_occupancy
  Ni  Ni0  1  0.39299500  0.08689600  0.47989100  1
  Ni  Ni1  1  0.91310400  0.39299500  0.30609900  1
  Ni  Ni2  1  0.08689600  0.60700500  0.69390100  1
  Ni  Ni3  1  0.60700500  0.91310400  0.52010900  1
  Cu  Cu4  1  0.87841600  0.80878700  0.68720300  1
  Cu  Cu5  1  0.19121300  0.87841600  0.06963000  1
  Cu  Cu6  1  0.12158400  0.19121300  0.31279700  1
  Cu  Cu7  1  0.80878700  0.12158400  0.93037000  1
  C  C8  1  0.40223200  0.73842500  0.14065700  1
  C  C9  1  0.59776800  0.26157500  0.85934300  1
  C  C10  1  0.73842500  0.59776800  0.33619400  1
  C  C11  1  0.26157500  0.40223200  0.66380600  1
  C  C12  1  0.69477600  0.73026500  0.42504200  1
  C  C13  1  0.73026500  0.30522400  0.03548900  1
  C  C14  1  0.26973500  0.69477600  0.96451100  1
  C  C15  1  0.30522400  0.26973500  0.57495800  1
  C  C16  1  0.12178200  0.39671800  0.51850000  1
  C  C17  1  0.39671800  0.87821800  0.27493600  1
  C  C18  1  0.60328200  0.12178200  0.72506400  1
  C  C19  1  0.87821800  0.60328200  0.48150000  1
  C  C20  1  0.04952700  0.20324700  0.76591100  1
  C  C21  1  0.20324700  0.43733700  0.15372100  1
  C  C22  1  0.28361600  0.04952700  0.84627900  1
  C  C23  1  0.43733700  0.28361600  0.23408900  1
  C  C24  1  0.56266300  0.71638400  0.76591100  1
  C  C25  1  0.71638400  0.95047300  0.15372100  1
  C  C26  1  0.79675300  0.56266300  0.84627900  1
  C  C27  1  0.95047300  0.79675300  0.23408900  1
