# generated using pymatgen
data_Cu(NiC3)2
_symmetry_space_group_name_H-M   'P 1'
_cell_length_a   6.52079200
_cell_length_b   7.28999300
_cell_length_c   9.45916000
_cell_angle_alpha   90.00000000
_cell_angle_beta   90.00000000
_cell_angle_gamma   90.00000000
_symmetry_Int_Tables_number   1
_chemical_formula_structural   Cu(NiC3)2
_chemical_formula_sum   'Cu4 Ni8 C24'
_cell_volume   449.65562452
_cell_formula_units_Z   4
loop_
 _symmetry_equiv_pos_site_id
 _symmetry_equiv_pos_as_xyz
  1  'x, y, z'
loop_
 _atom_site_type_symbol
 _atom_site_label
 _atom_site_symmetry_multiplicity
 _atom_site_fract_x
 _atom_site_fract_y
 _atom_site_fract_z
 _atom_site_occupancy
  Ni  Ni0  1  0.57895000  0.52890400  0.82684600  1
  Ni  Ni1  1  0.42105000  0.47109600  0.17315400  1
  Ni  Ni2  1  0.07895000  0.47109600  0.67315400  1
  Ni  Ni3  1  0.42105000  0.02890400  0.17315400  1
  Ni  Ni4  1  0.92105000  0.52890400  0.32684600  1
  Ni  Ni5  1  0.57895000  0.97109600  0.82684600  1
  Ni  Ni6  1  0.92105000  0.97109600  0.32684600  1
  Ni  Ni7  1  0.07895000  0.02890400  0.67315400  1
  Cu  Cu8  1  0.10011100  0.75000000  0.97271700  1
  Cu  Cu9  1  0.89988900  0.25000000  0.02728300  1
  Cu  Cu10  1  0.60011100  0.25000000  0.52728300  1
  Cu  Cu11  1  0.39988900  0.75000000  0.47271700  1
  C  C12  1  0.81161300  0.75000000  0.60681100  1
  C  C13  1  0.18838700  0.25000000  0.39318900  1
  C  C14  1  0.31161300  0.25000000  0.89318900  1
  C  C15  1  0.68838700  0.75000000  0.10681100  1
  C  C16  1  0.86050300  0.75000000  0.77722000  1
  C  C17  1  0.13949700  0.25000000  0.22278000  1
  C  C18  1  0.36050300  0.25000000  0.72278000  1
  C  C19  1  0.63949700  0.75000000  0.27722000  1
  C  C20  1  0.33242800  0.75000000  0.73017000  1
  C  C21  1  0.66757200  0.25000000  0.26983000  1
  C  C22  1  0.83242800  0.25000000  0.76983000  1
  C  C23  1  0.16757200  0.75000000  0.23017000  1
  C  C24  1  0.68856400  0.56167600  0.57312200  1
  C  C25  1  0.31143600  0.43832400  0.42687800  1
  C  C26  1  0.18856400  0.43832400  0.92687800  1
  C  C27  1  0.31143600  0.06167600  0.42687800  1
  C  C28  1  0.81143600  0.56167600  0.07312200  1
  C  C29  1  0.68856400  0.93832400  0.57312200  1
  C  C30  1  0.81143600  0.93832400  0.07312200  1
  C  C31  1  0.18856400  0.06167600  0.92687800  1
  C  C32  1  0.02283800  0.75000000  0.51306400  1
  C  C33  1  0.97716200  0.25000000  0.48693600  1
  C  C34  1  0.52283800  0.25000000  0.98693600  1
  C  C35  1  0.47716200  0.75000000  0.01306400  1
