# generated using pymatgen
data_Cu2Ni5C
_symmetry_space_group_name_H-M   'P 1'
_cell_length_a   5.73243400
_cell_length_b   7.04868600
_cell_length_c   10.28279800
_cell_angle_alpha   90.00000000
_cell_angle_beta   90.00000000
_cell_angle_gamma   90.00000000
_symmetry_Int_Tables_number   1
_chemical_formula_structural   Cu2Ni5C
_chemical_formula_sum   'Cu8 Ni20 C4'
_cell_volume   415.48804480
_cell_formula_units_Z   4
loop_
 _symmetry_equiv_pos_site_id
 _symmetry_equiv_pos_as_xyz
  1  'x, y, z'
loop_
 _atom_site_type_symbol
 _atom_site_label
 _atom_site_symmetry_multiplicity
 _atom_site_fract_x
 _atom_site_fract_y
 _atom_site_fract_z
 _atom_site_occupancy
  C  C0  1  0.25000000  0.29529700  0.91618300  1
  C  C1  1  0.25000000  0.79529700  0.58381700  1
  C  C2  1  0.75000000  0.70470300  0.08381700  1
  C  C3  1  0.75000000  0.20470300  0.41618300  1
  Ni  Ni4  1  0.25000000  0.23424400  0.63570500  1
  Ni  Ni5  1  0.25000000  0.73424400  0.86429500  1
  Ni  Ni6  1  0.75000000  0.76575600  0.36429500  1
  Ni  Ni7  1  0.75000000  0.26575600  0.13570500  1
  Ni  Ni8  1  0.25000000  0.38768600  0.52107500  1
  Ni  Ni9  1  0.25000000  0.88768600  0.97892500  1
  Ni  Ni10  1  0.75000000  0.61231400  0.47892500  1
  Ni  Ni11  1  0.75000000  0.11231400  0.02107500  1
  Ni  Ni12  1  0.25000000  0.76689700  0.24703300  1
  Ni  Ni13  1  0.25000000  0.26689700  0.25296700  1
  Ni  Ni14  1  0.75000000  0.23310300  0.75296700  1
  Ni  Ni15  1  0.75000000  0.73310300  0.74703300  1
  Ni  Ni16  1  0.39963800  0.59471400  0.31160200  1
  Ni  Ni17  1  0.10036200  0.09471400  0.18839800  1
  Ni  Ni18  1  0.89963800  0.40528600  0.68839800  1
  Ni  Ni19  1  0.60036200  0.90528600  0.81160200  1
  Ni  Ni20  1  0.60036200  0.40528600  0.68839800  1
  Ni  Ni21  1  0.89963800  0.90528600  0.81160200  1
  Ni  Ni22  1  0.10036200  0.59471400  0.31160200  1
  Ni  Ni23  1  0.39963800  0.09471400  0.18839800  1
  Cu  Cu24  1  0.25000000  0.37933900  0.62115900  1
  Cu  Cu25  1  0.25000000  0.87933900  0.87884100  1
  Cu  Cu26  1  0.75000000  0.62066100  0.37884100  1
  Cu  Cu27  1  0.75000000  0.12066100  0.12115900  1
  Cu  Cu28  1  0.25000000  0.62151300  0.25634500  1
  Cu  Cu29  1  0.25000000  0.12151300  0.24365500  1
  Cu  Cu30  1  0.75000000  0.37848700  0.74365500  1
  Cu  Cu31  1  0.75000000  0.87848700  0.75634500  1
