# generated using pymatgen
data_Cu2Ni2C5
_symmetry_space_group_name_H-M   'P 1'
_cell_length_a   12.52613226
_cell_length_b   6.65753102
_cell_length_c   11.61793658
_cell_angle_alpha   89.98921576
_cell_angle_beta   90.11840293
_cell_angle_gamma   89.99911108
_symmetry_Int_Tables_number   1
_chemical_formula_structural   Cu2Ni2C5
_chemical_formula_sum   'Cu8 Ni8 C20'
_cell_volume   968.85382464
_cell_formula_units_Z   4
loop_
 _symmetry_equiv_pos_site_id
 _symmetry_equiv_pos_as_xyz
  1  'x, y, z'
loop_
 _atom_site_type_symbol
 _atom_site_label
 _atom_site_symmetry_multiplicity
 _atom_site_fract_x
 _atom_site_fract_y
 _atom_site_fract_z
 _atom_site_occupancy
  C  C0  1  0.20204400  0.33828200  0.64445200  1
  C  C1  1  0.79793100  0.33827400  0.35558200  1
  C  C2  1  0.70130100  0.66236900  0.85524700  1
  C  C3  1  0.29869400  0.66229400  0.14469500  1
  C  C4  1  0.50000200  0.03534400  0.49998700  1
  C  C5  1  0.00000100  0.96451900  0.00001700  1
  Ni  Ni6  1  0.37086900  0.95062900  0.67669800  1
  Ni  Ni7  1  0.62912700  0.95061200  0.32327800  1
  Ni  Ni8  1  0.87082300  0.04895000  0.82302100  1
  Ni  Ni9  1  0.12916700  0.04896600  0.17700500  1
  Ni  Ni10  1  0.19248900  0.52706500  0.90089900  1
  Ni  Ni11  1  0.80752100  0.52704200  0.09910900  1
  Ni  Ni12  1  0.69247400  0.47314000  0.59923300  1
  Ni  Ni13  1  0.30751800  0.47318400  0.40075900  1
  Cu  Cu14  1  0.37836200  0.80393100  0.78458600  1
  Cu  Cu15  1  0.62161200  0.80394900  0.21541200  1
  Cu  Cu16  1  0.87859200  0.19549500  0.71512600  1
  Cu  Cu17  1  0.12138500  0.19550100  0.28487300  1
  Cu  Cu18  1  0.28289300  0.35340400  0.91460800  1
  Cu  Cu19  1  0.71709500  0.35343100  0.08540400  1
  Cu  Cu20  1  0.78283300  0.64683700  0.58555900  1
  Cu  Cu21  1  0.21712900  0.64683700  0.41443000  1
  C  C22  1  0.36464400  0.05813900  0.59301600  1
  C  C23  1  0.63536300  0.05810100  0.40694900  1
  C  C24  1  0.86443400  0.94161600  0.90671500  1
  C  C25  1  0.13556800  0.94163300  0.09333900  1
  C  C26  1  0.13393200  0.66449600  0.88717200  1
  C  C27  1  0.86608800  0.66443400  0.11285100  1
  C  C28  1  0.63409200  0.33567400  0.61305300  1
  C  C29  1  0.36589900  0.33574400  0.38692400  1
  C  C30  1  0.05666100  0.78639100  0.87385500  1
  C  C31  1  0.94338500  0.78627800  0.12615000  1
  C  C32  1  0.55682400  0.21371500  0.62621100  1
  C  C33  1  0.44321600  0.21386000  0.37380600  1
  C  C34  1  0.50001100  0.78889900  0.50003100  1
  C  C35  1  0.00002100  0.21096600  0.99994800  1
