# generated using pymatgen
data_CuNiC2
_symmetry_space_group_name_H-M   'P 1'
_cell_length_a   9.46905557
_cell_length_b   9.46905557
_cell_length_c   9.46905557
_cell_angle_alpha   122.58609226
_cell_angle_beta   119.73557555
_cell_angle_gamma   88.01922320
_symmetry_Int_Tables_number   1
_chemical_formula_structural   CuNiC2
_chemical_formula_sum   'Cu1 Ni1 C2'
_cell_volume   588.95830045
_cell_formula_units_Z   1
loop_
 _symmetry_equiv_pos_site_id
 _symmetry_equiv_pos_as_xyz
  1  'x, y, z'
loop_
 _atom_site_type_symbol
 _atom_site_label
 _atom_site_symmetry_multiplicity
 _atom_site_fract_x
 _atom_site_fract_y
 _atom_site_fract_z
 _atom_site_occupancy
  Ni  Ni0  1  0.00000000  0.00000000  0.00000000  1
  C  C1  1  0.00000000  0.24831400  0.24831400  1
  C  C2  1  0.00000000  0.75168600  0.75168600  1
  Cu  Cu3  1  0.00000000  0.50000000  0.50000000  1
