# generated using pymatgen
data_Cu7Ni2C
_symmetry_space_group_name_H-M   'P 1'
_cell_length_a   4.96783500
_cell_length_b   7.04535926
_cell_length_c   8.36136969
_cell_angle_alpha   92.50212199
_cell_angle_beta   94.62419307
_cell_angle_gamma   106.17934962
_symmetry_Int_Tables_number   1
_chemical_formula_structural   Cu7Ni2C
_chemical_formula_sum   'Cu14 Ni4 C2'
_cell_volume   279.47489326
_cell_formula_units_Z   2
loop_
 _symmetry_equiv_pos_site_id
 _symmetry_equiv_pos_as_xyz
  1  'x, y, z'
loop_
 _atom_site_type_symbol
 _atom_site_label
 _atom_site_symmetry_multiplicity
 _atom_site_fract_x
 _atom_site_fract_y
 _atom_site_fract_z
 _atom_site_occupancy
  C  C0  1  0.00000000  0.50000000  0.00000000  1
  C  C1  1  0.50000000  0.00000000  0.50000000  1
  Ni  Ni2  1  0.50546200  0.64612300  0.76837000  1
  Ni  Ni3  1  0.49453800  0.35387700  0.23163000  1
  Ni  Ni4  1  0.13088400  0.25087200  0.68851300  1
  Ni  Ni5  1  0.86911600  0.74912800  0.31148700  1
  Cu  Cu6  1  0.73304000  0.56252500  0.81713700  1
  Cu  Cu7  1  0.26696000  0.43747500  0.18286300  1
  Cu  Cu8  1  0.34208600  0.68064000  0.89802900  1
  Cu  Cu9  1  0.65791400  0.31936000  0.10197100  1
  Cu  Cu10  1  0.58883100  0.81040700  0.66754800  1
  Cu  Cu11  1  0.41116900  0.18959300  0.33245200  1
  Cu  Cu12  1  0.28504900  0.47833600  0.63881300  1
  Cu  Cu13  1  0.71495100  0.52166400  0.36118700  1
  Cu  Cu14  1  0.89815400  0.19213500  0.56340300  1
  Cu  Cu15  1  0.10184600  0.80786500  0.43659700  1
  Cu  Cu16  1  0.33887200  0.14207600  0.67850200  1
  Cu  Cu17  1  0.66112800  0.85792400  0.32149800  1
  Cu  Cu18  1  0.05226100  0.27100000  0.85119500  1
  Cu  Cu19  1  0.94773900  0.72900000  0.14880500  1
