# generated using pymatgen
data_Cu21Ni2C7
_symmetry_space_group_name_H-M   'P 1'
_cell_length_a   7.49563400
_cell_length_b   7.93938790
_cell_length_c   7.93938776
_cell_angle_alpha   119.99999857
_cell_angle_beta   90.00000000
_cell_angle_gamma   90.00000000
_symmetry_Int_Tables_number   1
_chemical_formula_structural   Cu21Ni2C7
_chemical_formula_sum   'Cu21 Ni2 C7'
_cell_volume   409.17872499
_cell_formula_units_Z   1
loop_
 _symmetry_equiv_pos_site_id
 _symmetry_equiv_pos_as_xyz
  1  'x, y, z'
loop_
 _atom_site_type_symbol
 _atom_site_label
 _atom_site_symmetry_multiplicity
 _atom_site_fract_x
 _atom_site_fract_y
 _atom_site_fract_z
 _atom_site_occupancy
  C  C0  1  0.98788800  0.86858500  0.29350500  1
  C  C1  1  0.01211200  0.13141500  0.70649500  1
  C  C2  1  0.98788800  0.42491900  0.13141500  1
  C  C3  1  0.01211200  0.57508100  0.86858500  1
  C  C4  1  0.98788800  0.70649500  0.57508100  1
  C  C5  1  0.01211200  0.29350500  0.42491900  1
  C  C6  1  0.00000000  0.00000000  0.00000000  1
  Ni  Ni7  1  0.58128600  0.66666700  0.33333300  1
  Ni  Ni8  1  0.41871400  0.33333300  0.66666700  1
  Cu  Cu9  1  0.52037600  0.82103500  0.29626600  1
  Cu  Cu10  1  0.47962400  0.17896500  0.70373400  1
  Cu  Cu11  1  0.52037600  0.47523100  0.17896500  1
  Cu  Cu12  1  0.47962400  0.52476900  0.82103500  1
  Cu  Cu13  1  0.52037600  0.70373400  0.52476900  1
  Cu  Cu14  1  0.47962400  0.29626600  0.47523100  1
  Cu  Cu15  1  0.90374300  0.51346700  0.63127300  1
  Cu  Cu16  1  0.09625700  0.48653300  0.36872700  1
  Cu  Cu17  1  0.90374300  0.11780700  0.48653300  1
  Cu  Cu18  1  0.09625700  0.88219300  0.51346700  1
  Cu  Cu19  1  0.90374300  0.36872700  0.88219300  1
  Cu  Cu20  1  0.09625700  0.63127300  0.11780700  1
  Cu  Cu21  1  0.78653300  0.66666700  0.33333300  1
  Cu  Cu22  1  0.21346700  0.33333300  0.66666700  1
  Cu  Cu23  1  0.50000000  0.00000000  0.00000000  1
  Cu  Cu24  1  0.86758100  0.85495800  0.08452900  1
  Cu  Cu25  1  0.13241900  0.14504200  0.91547100  1
  Cu  Cu26  1  0.86758100  0.22957100  0.14504200  1
  Cu  Cu27  1  0.13241900  0.77042900  0.85495800  1
  Cu  Cu28  1  0.86758100  0.91547100  0.77042900  1
  Cu  Cu29  1  0.13241900  0.08452900  0.22957100  1
