# generated using pymatgen
data_Cu6Ni6C
_symmetry_space_group_name_H-M   'P 1'
_cell_length_a   8.80691773
_cell_length_b   8.80691773
_cell_length_c   19.95569068
_cell_angle_alpha   88.94909935
_cell_angle_beta   88.94909935
_cell_angle_gamma   116.05957245
_symmetry_Int_Tables_number   1
_chemical_formula_structural   Cu6Ni6C
_chemical_formula_sum   'Cu12 Ni12 C2'
_cell_volume   1389.61213387
_cell_formula_units_Z   2
loop_
 _symmetry_equiv_pos_site_id
 _symmetry_equiv_pos_as_xyz
  1  'x, y, z'
loop_
 _atom_site_type_symbol
 _atom_site_label
 _atom_site_symmetry_multiplicity
 _atom_site_fract_x
 _atom_site_fract_y
 _atom_site_fract_z
 _atom_site_occupancy
  C  C0  1  0.50000000  0.00000000  0.50000000  1
  C  C1  1  0.00000000  0.50000000  0.00000000  1
  Ni  Ni2  1  0.48397200  0.10843500  0.74457300  1
  Ni  Ni3  1  0.51602800  0.89156500  0.25542700  1
  Ni  Ni4  1  0.72896100  0.02781300  0.49943900  1
  Ni  Ni5  1  0.89156500  0.51602800  0.75542700  1
  Ni  Ni6  1  0.27103900  0.97218700  0.50056100  1
  Ni  Ni7  1  0.10843500  0.48397200  0.24457300  1
  Ni  Ni8  1  0.10673300  0.89387900  0.50036400  1
  Ni  Ni9  1  0.97218700  0.27103900  0.00056100  1
  Ni  Ni10  1  0.89326700  0.10612100  0.49963600  1
  Ni  Ni11  1  0.02781300  0.72896100  0.99943900  1
  Ni  Ni12  1  0.10612100  0.89326700  0.99963600  1
  Ni  Ni13  1  0.89387900  0.10673300  0.00036400  1
  Cu  Cu14  1  0.47024500  0.66186300  0.74805100  1
  Cu  Cu15  1  0.52975500  0.33813700  0.25194900  1
  Cu  Cu16  1  0.95671900  0.81536200  0.50015400  1
  Cu  Cu17  1  0.33813700  0.52975500  0.75194900  1
  Cu  Cu18  1  0.04328100  0.18463800  0.49984600  1
  Cu  Cu19  1  0.66186300  0.47024500  0.24805100  1
  Cu  Cu20  1  0.37479000  0.04153400  0.78259100  1
  Cu  Cu21  1  0.18463800  0.04328100  0.99984600  1
  Cu  Cu22  1  0.62521000  0.95846600  0.21740900  1
  Cu  Cu23  1  0.81536200  0.95671900  0.00015400  1
  Cu  Cu24  1  0.95846600  0.62521000  0.71740900  1
  Cu  Cu25  1  0.04153400  0.37479000  0.28259100  1
