# generated using pymatgen
data_CuNiC7
_symmetry_space_group_name_H-M   'P 1'
_cell_length_a   5.58513125
_cell_length_b   6.01593868
_cell_length_c   6.50156500
_cell_angle_alpha   90.00000000
_cell_angle_beta   90.00000000
_cell_angle_gamma   91.62049757
_symmetry_Int_Tables_number   1
_chemical_formula_structural   CuNiC7
_chemical_formula_sum   'Cu2 Ni2 C14'
_cell_volume   218.36396315
_cell_formula_units_Z   2
loop_
 _symmetry_equiv_pos_site_id
 _symmetry_equiv_pos_as_xyz
  1  'x, y, z'
loop_
 _atom_site_type_symbol
 _atom_site_label
 _atom_site_symmetry_multiplicity
 _atom_site_fract_x
 _atom_site_fract_y
 _atom_site_fract_z
 _atom_site_occupancy
  Ni  Ni0  1  0.00747600  0.47433500  0.25000000  1
  Ni  Ni1  1  0.99252400  0.52566500  0.75000000  1
  Cu  Cu2  1  0.50000000  0.50000000  0.50000000  1
  Cu  Cu3  1  0.50000000  0.50000000  0.00000000  1
  C  C4  1  0.39179100  0.80170700  0.25000000  1
  C  C5  1  0.60820900  0.19829300  0.75000000  1
  C  C6  1  0.81056300  0.80492100  0.46318600  1
  C  C7  1  0.18943700  0.19507900  0.96318600  1
  C  C8  1  0.18943700  0.19507900  0.53681400  1
  C  C9  1  0.81056300  0.80492100  0.03681400  1
  C  C10  1  0.70892700  0.15610500  0.25000000  1
  C  C11  1  0.29107300  0.84389500  0.75000000  1
  C  C12  1  0.36396400  0.64049600  0.25000000  1
  C  C13  1  0.63603600  0.35950400  0.75000000  1
  C  C14  1  0.82023200  0.64427900  0.48344800  1
  C  C15  1  0.17976800  0.35572100  0.98344800  1
  C  C16  1  0.17976800  0.35572100  0.51655200  1
  C  C17  1  0.82023200  0.64427900  0.01655200  1
