# generated using pymatgen
data_Cu2NiC10
_symmetry_space_group_name_H-M   'P 1'
_cell_length_a   5.23934288
_cell_length_b   5.14913644
_cell_length_c   8.19491254
_cell_angle_alpha   113.03304132
_cell_angle_beta   114.45358054
_cell_angle_gamma   93.52855582
_symmetry_Int_Tables_number   1
_chemical_formula_structural   Cu2NiC10
_chemical_formula_sum   'Cu2 Ni1 C10'
_cell_volume   178.49364543
_cell_formula_units_Z   1
loop_
 _symmetry_equiv_pos_site_id
 _symmetry_equiv_pos_as_xyz
  1  'x, y, z'
loop_
 _atom_site_type_symbol
 _atom_site_label
 _atom_site_symmetry_multiplicity
 _atom_site_fract_x
 _atom_site_fract_y
 _atom_site_fract_z
 _atom_site_occupancy
  Ni  Ni0  1  0.50000000  0.50000000  0.50000000  1
  Cu  Cu1  1  0.00000000  0.00000000  0.00000000  1
  Cu  Cu2  1  0.00000000  0.00000000  0.50000000  1
  C  C3  1  0.50284100  0.31003300  0.95768300  1
  C  C4  1  0.49715900  0.68996700  0.04231700  1
  C  C5  1  0.76469200  0.85774200  0.15087600  1
  C  C6  1  0.23530800  0.14225800  0.84912400  1
  C  C7  1  0.60553000  0.87536900  0.63674400  1
  C  C8  1  0.39447000  0.12463100  0.36325600  1
  C  C9  1  0.70548100  0.51860500  0.38614600  1
  C  C10  1  0.29451900  0.48139500  0.61385400  1
  C  C11  1  0.79398600  0.47899100  0.68930700  1
  C  C12  1  0.20601400  0.52100900  0.31069300  1
