# generated using pymatgen
data_CuNiC7
_symmetry_space_group_name_H-M   'P 1'
_cell_length_a   5.84386240
_cell_length_b   5.84522593
_cell_length_c   7.73354176
_cell_angle_alpha   68.23061848
_cell_angle_beta   68.22215495
_cell_angle_gamma   68.84027923
_symmetry_Int_Tables_number   1
_chemical_formula_structural   CuNiC7
_chemical_formula_sum   'Cu2 Ni2 C14'
_cell_volume   220.04461183
_cell_formula_units_Z   2
loop_
 _symmetry_equiv_pos_site_id
 _symmetry_equiv_pos_as_xyz
  1  'x, y, z'
loop_
 _atom_site_type_symbol
 _atom_site_label
 _atom_site_symmetry_multiplicity
 _atom_site_fract_x
 _atom_site_fract_y
 _atom_site_fract_z
 _atom_site_occupancy
  C  C0  1  0.50026700  0.50030700  0.50041700  1
  Ni  Ni1  1  0.99100400  0.50125500  0.99717500  1
  Ni  Ni2  1  0.50121300  0.99104200  0.99716900  1
  Cu  Cu3  1  0.08195300  0.08185800  0.71104300  1
  Cu  Cu4  1  0.91666000  0.91680600  0.28851300  1
  C  C5  1  0.67618800  0.67600300  0.78363100  1
  C  C6  1  0.31355400  0.31363000  0.22540600  1
  C  C7  1  0.47590000  0.47581000  0.01642500  1
  C  C8  1  0.17144800  0.17127000  0.87738600  1
  C  C9  1  0.83136600  0.83153300  0.11800600  1
  C  C10  1  0.64304300  0.64266000  0.92448100  1
  C  C11  1  0.35047000  0.35077300  0.08247100  1
  C  C12  1  0.23698400  0.23709100  0.47505500  1
  C  C13  1  0.75920400  0.75923800  0.52173500  1
  C  C14  1  0.25657700  0.81334600  0.25933000  1
  C  C15  1  0.81310300  0.25655800  0.25951500  1
  C  C16  1  0.74188000  0.18586900  0.74221600  1
  C  C17  1  0.18618700  0.74195300  0.74202700  1
