# generated using pymatgen
data_CuNiC
_symmetry_space_group_name_H-M   'P 1'
_cell_length_a   4.14219600
_cell_length_b   4.14219600
_cell_length_c   7.71949205
_cell_angle_alpha   105.56281054
_cell_angle_beta   105.56281054
_cell_angle_gamma   90.00000000
_symmetry_Int_Tables_number   1
_chemical_formula_structural   CuNiC
_chemical_formula_sum   'Cu2 Ni2 C2'
_cell_volume   122.54512343
_cell_formula_units_Z   2
loop_
 _symmetry_equiv_pos_site_id
 _symmetry_equiv_pos_as_xyz
  1  'x, y, z'
loop_
 _atom_site_type_symbol
 _atom_site_label
 _atom_site_symmetry_multiplicity
 _atom_site_fract_x
 _atom_site_fract_y
 _atom_site_fract_z
 _atom_site_occupancy
  C  C0  1  0.75106400  0.75106400  0.50212800  1
  C  C1  1  0.00106400  0.50106400  0.00212800  1
  Ni  Ni2  1  0.32966800  0.32966800  0.65933600  1
  Ni  Ni3  1  0.57966800  0.07966800  0.15933600  1
  Cu  Cu4  1  0.41228800  0.91228800  0.82457600  1
  Cu  Cu5  1  0.16228800  0.16228800  0.32457600  1
