# generated using pymatgen
data_CuNiC16
_symmetry_space_group_name_H-M   'P 1'
_cell_length_a   9.35691658
_cell_length_b   12.05864828
_cell_length_c   12.63494543
_cell_angle_alpha   90.00000000
_cell_angle_beta   90.00000000
_cell_angle_gamma   102.79639157
_symmetry_Int_Tables_number   1
_chemical_formula_structural   CuNiC16
_chemical_formula_sum   'Cu4 Ni4 C64'
_cell_volume   1390.21543787
_cell_formula_units_Z   4
loop_
 _symmetry_equiv_pos_site_id
 _symmetry_equiv_pos_as_xyz
  1  'x, y, z'
loop_
 _atom_site_type_symbol
 _atom_site_label
 _atom_site_symmetry_multiplicity
 _atom_site_fract_x
 _atom_site_fract_y
 _atom_site_fract_z
 _atom_site_occupancy
  C  C0  1  0.31216062  0.27031144  0.53171778  1
  C  C1  1  0.18783938  0.22968856  0.03171778  1
  C  C2  1  0.68783938  0.72968856  0.46828222  1
  C  C3  1  0.81216062  0.77031144  0.96828222  1
  Ni  Ni4  1  0.50000000  0.00000000  0.50000000  1
  Ni  Ni5  1  0.00000000  0.50000000  -0.00000000  1
  Ni  Ni6  1  0.00000000  0.50000000  0.50000000  1
  Ni  Ni7  1  0.50000000  0.00000000  0.00000000  1
  Cu  Cu8  1  0.42947013  0.58202168  0.74254062  1
  Cu  Cu9  1  0.07052987  0.91797832  0.24254062  1
  Cu  Cu10  1  0.57052987  0.41797832  0.25745938  1
  Cu  Cu11  1  0.92947013  0.08202168  0.75745938  1
  C  C12  1  0.24329661  0.45905002  0.76786113  1
  C  C13  1  0.25670339  0.04094998  0.26786113  1
  C  C14  1  0.75670339  0.54094998  0.23213887  1
  C  C15  1  0.74329661  0.95905002  0.73213887  1
  C  C16  1  0.36383236  0.41144864  0.73534036  1
  C  C17  1  0.13616764  0.08855136  0.23534036  1
  C  C18  1  0.63616764  0.58855136  0.26465964  1
  C  C19  1  0.86383236  0.91144864  0.76465964  1
  C  C20  1  0.64992602  0.57689005  0.71581470  1
  C  C21  1  0.85007398  0.92310995  0.21581470  1
  C  C22  1  0.35007398  0.42310995  0.28418530  1
  C  C23  1  0.14992602  0.07689005  0.78418530  1
  C  C24  1  0.64854124  0.68265021  0.75375342  1
  C  C25  1  0.85145876  0.81734979  0.25375342  1
  C  C26  1  0.35145876  0.31734979  0.24624658  1
  C  C27  1  0.14854124  0.18265021  0.74624658  1
  C  C28  1  0.46734313  0.59938825  0.91042545  1
  C  C29  1  0.03265687  0.90061175  0.41042545  1
  C  C30  1  0.53265687  0.40061175  0.08957455  1
  C  C31  1  0.96734313  0.09938825  0.58957455  1
  C  C32  1  0.37361937  0.66396907  0.87868611  1
  C  C33  1  0.12638063  0.83603093  0.37868611  1
  C  C34  1  0.62638063  0.33603093  0.12131389  1
  C  C35  1  0.87361937  0.16396907  0.62131389  1
  C  C36  1  0.42986639  0.61363633  0.58575199  1
  C  C37  1  0.07013361  0.88636367  0.08575199  1
  C  C38  1  0.57013361  0.38636367  0.41424801  1
  C  C39  1  0.92986639  0.11363633  0.91424801  1
  C  C40  1  0.34786029  0.68298375  0.64431030  1
  C  C41  1  0.15213971  0.81701625  0.14431030  1
  C  C42  1  0.65213971  0.31701625  0.35568970  1
  C  C43  1  0.84786029  0.18298375  0.85568970  1
  C  C44  1  0.34303116  0.02866061  0.63656237  1
  C  C45  1  0.15696884  0.47133939  0.13656237  1
  C  C46  1  0.65696884  0.97133939  0.36343763  1
  C  C47  1  0.84303116  0.52866061  0.86343763  1
  C  C48  1  0.80683350  0.54501174  0.49855161  1
  C  C49  1  0.69316650  0.95498826  0.99855161  1
  C  C50  1  0.19316650  0.45498826  0.50144839  1
  C  C51  1  0.30683350  0.04501174  0.00144839  1
  C  C52  1  0.63623553  0.91496899  0.55302152  1
  C  C53  1  0.86376447  0.58503101  0.05302152  1
  C  C54  1  0.36376447  0.08503101  0.44697848  1
  C  C55  1  0.13623553  0.41496899  0.94697848  1
  C  C56  1  0.09923962  0.39011317  0.57324173  1
  C  C57  1  0.40076038  0.10988683  0.07324173  1
  C  C58  1  0.90076038  0.60988683  0.42675827  1
  C  C59  1  0.59923962  0.89011317  0.92675827  1
  C  C60  1  0.47518307  0.08543351  0.65127863  1
  C  C61  1  0.02481693  0.41456649  0.15127863  1
  C  C62  1  0.52481693  0.91456649  0.34872137  1
  C  C63  1  0.97518307  0.58543351  0.84872137  1
  C  C64  1  0.05810174  0.64374507  0.62381262  1
  C  C65  1  0.44189826  0.85625493  0.12381262  1
  C  C66  1  0.94189826  0.35625493  0.37618738  1
  C  C67  1  0.55810174  0.14374507  0.87618738  1
  C  C68  1  0.52167743  0.23648981  0.87787451  1
  C  C69  1  0.97832257  0.26351019  0.37787451  1
  C  C70  1  0.47832257  0.76351019  0.12212549  1
  C  C71  1  0.02167743  0.73648981  0.62212549  1
