# generated using pymatgen
data_CuNiC5
_symmetry_space_group_name_H-M   'P 1'
_cell_length_a   11.31416000
_cell_length_b   3.54936100
_cell_length_c   12.72772100
_cell_angle_alpha   90.00000000
_cell_angle_beta   90.00000000
_cell_angle_gamma   90.00000000
_symmetry_Int_Tables_number   1
_chemical_formula_structural   CuNiC5
_chemical_formula_sum   'Cu4 Ni4 C20'
_cell_volume   511.12030678
_cell_formula_units_Z   4
loop_
 _symmetry_equiv_pos_site_id
 _symmetry_equiv_pos_as_xyz
  1  'x, y, z'
loop_
 _atom_site_type_symbol
 _atom_site_label
 _atom_site_symmetry_multiplicity
 _atom_site_fract_x
 _atom_site_fract_y
 _atom_site_fract_z
 _atom_site_occupancy
  C  C0  1  0.93697200  0.75000000  0.88624400  1
  C  C1  1  0.56302800  0.25000000  0.38624400  1
  C  C2  1  0.10983200  0.25000000  0.57813400  1
  C  C3  1  0.39016800  0.75000000  0.07813400  1
  Ni  Ni4  1  0.04249900  0.25000000  0.11790800  1
  Ni  Ni5  1  0.45750100  0.75000000  0.61790800  1
  Ni  Ni6  1  0.93192300  0.75000000  0.40837000  1
  Ni  Ni7  1  0.56807700  0.25000000  0.90837000  1
  Cu  Cu8  1  0.27740500  0.25000000  0.35731300  1
  Cu  Cu9  1  0.69625000  0.75000000  0.67626300  1
  Cu  Cu10  1  0.22259500  0.75000000  0.85731300  1
  Cu  Cu11  1  0.80375000  0.25000000  0.17626300  1
  C  C12  1  0.07975000  0.75000000  0.71837900  1
  C  C13  1  0.95711000  0.25000000  0.29016400  1
  C  C14  1  0.42025000  0.25000000  0.21837900  1
  C  C15  1  0.54289000  0.75000000  0.79016400  1
  C  C16  1  0.08754300  0.25000000  0.93712800  1
  C  C17  1  0.89034300  0.75000000  0.07667100  1
  C  C18  1  0.41245700  0.75000000  0.43712800  1
  C  C19  1  0.60965700  0.25000000  0.57667100  1
  C  C20  1  0.14009600  0.75000000  0.43495700  1
  C  C21  1  0.89698700  0.25000000  0.53426900  1
  C  C22  1  0.35990400  0.25000000  0.93495700  1
  C  C23  1  0.60301300  0.75000000  0.03426900  1
  C  C24  1  0.17513100  0.75000000  0.15027700  1
  C  C25  1  0.79126700  0.25000000  0.83392200  1
  C  C26  1  0.32486900  0.25000000  0.65027700  1
  C  C27  1  0.70873300  0.75000000  0.33392200  1
