# generated using pymatgen
data_Cu4Ni4C19
_symmetry_space_group_name_H-M   'P 1'
_cell_length_a   10.65119978
_cell_length_b   10.65119978
_cell_length_c   9.95962938
_cell_angle_alpha   78.50265869
_cell_angle_beta   78.50265869
_cell_angle_gamma   43.00820087
_symmetry_Int_Tables_number   1
_chemical_formula_structural   Cu4Ni4C19
_chemical_formula_sum   'Cu8 Ni8 C38'
_cell_volume   752.81441344
_cell_formula_units_Z   2
loop_
 _symmetry_equiv_pos_site_id
 _symmetry_equiv_pos_as_xyz
  1  'x, y, z'
loop_
 _atom_site_type_symbol
 _atom_site_label
 _atom_site_symmetry_multiplicity
 _atom_site_fract_x
 _atom_site_fract_y
 _atom_site_fract_z
 _atom_site_occupancy
  C  C0  1  0.15873400  0.63778800  0.40600800  1
  C  C1  1  0.36221200  0.84126600  0.09399200  1
  C  C2  1  0.84126600  0.36221200  0.59399200  1
  C  C3  1  0.63778800  0.15873400  0.90600800  1
  Ni  Ni4  1  0.99833000  0.18932100  0.29754200  1
  Ni  Ni5  1  0.81067900  0.00167000  0.20245800  1
  Ni  Ni6  1  0.00167000  0.81067900  0.70245800  1
  Ni  Ni7  1  0.18932100  0.99833000  0.79754200  1
  Ni  Ni8  1  0.78650000  0.63920400  0.01188100  1
  Ni  Ni9  1  0.36079600  0.21350000  0.48811900  1
  Ni  Ni10  1  0.21350000  0.36079600  0.98811900  1
  Ni  Ni11  1  0.63920400  0.78650000  0.51188100  1
  Cu  Cu12  1  0.00158700  0.50382600  0.29590100  1
  Cu  Cu13  1  0.49617400  0.99841300  0.20409900  1
  Cu  Cu14  1  0.99841300  0.49617400  0.70409900  1
  Cu  Cu15  1  0.50382600  0.00158700  0.79590100  1
  Cu  Cu16  1  0.83322900  0.28802100  0.01654200  1
  Cu  Cu17  1  0.71197900  0.16677100  0.48345800  1
  Cu  Cu18  1  0.16677100  0.71197900  0.98345800  1
  Cu  Cu19  1  0.28802100  0.83322900  0.51654200  1
  C  C20  1  0.21126600  0.40692000  0.33109300  1
  C  C21  1  0.59308000  0.78873400  0.16890700  1
  C  C22  1  0.78873400  0.59308000  0.66890700  1
  C  C23  1  0.40692000  0.21126600  0.83109300  1
  C  C24  1  0.02676300  0.14244300  0.10840100  1
  C  C25  1  0.85755700  0.97323700  0.39159900  1
  C  C26  1  0.97323700  0.85755700  0.89159900  1
  C  C27  1  0.14244300  0.02676300  0.60840100  1
  C  C28  1  0.98974900  0.54497900  0.12029900  1
  C  C29  1  0.45502100  0.01025100  0.37970100  1
  C  C30  1  0.01025100  0.45502100  0.87970100  1
  C  C31  1  0.54497900  0.98974900  0.62029900  1
  C  C32  1  0.69533300  0.51448100  0.03755400  1
  C  C33  1  0.48551900  0.30466700  0.46244600  1
  C  C34  1  0.30466700  0.48551900  0.96244600  1
  C  C35  1  0.51448100  0.69533300  0.53755400  1
  C  C36  1  0.84561400  0.70920700  0.36986300  1
  C  C37  1  0.29079300  0.15438600  0.13013700  1
  C  C38  1  0.15438600  0.29079300  0.63013700  1
  C  C39  1  0.70920700  0.84561400  0.86986300  1
  C  C40  1  0.08164800  0.76683600  0.15521500  1
  C  C41  1  0.23316400  0.91835200  0.34478500  1
  C  C42  1  0.91835200  0.23316400  0.84478500  1
  C  C43  1  0.76683600  0.08164800  0.65521500  1
  C  C44  1  0.95812900  0.37596200  0.36821400  1
  C  C45  1  0.62403800  0.04187100  0.13178600  1
  C  C46  1  0.04187100  0.62403800  0.63178600  1
  C  C47  1  0.37596200  0.95812900  0.86821400  1
  C  C48  1  0.77803700  0.27705200  0.43001000  1
  C  C49  1  0.72294800  0.22196300  0.06999000  1
  C  C50  1  0.22196300  0.72294800  0.56999000  1
  C  C51  1  0.27705200  0.77803700  0.93001000  1
  C  C52  1  0.33444800  0.66555200  0.25000000  1
  C  C53  1  0.66555200  0.33444800  0.75000000  1
