# generated using pymatgen
data_Cu(NiC11)3
_symmetry_space_group_name_H-M   'P 1'
_cell_length_a   9.73720710
_cell_length_b   8.50326614
_cell_length_c   8.46540728
_cell_angle_alpha   60.30382020
_cell_angle_beta   64.04105894
_cell_angle_gamma   64.17007962
_symmetry_Int_Tables_number   1
_chemical_formula_structural   Cu(NiC11)3
_chemical_formula_sum   'Cu1 Ni3 C33'
_cell_volume   525.50326130
_cell_formula_units_Z   1
loop_
 _symmetry_equiv_pos_site_id
 _symmetry_equiv_pos_as_xyz
  1  'x, y, z'
loop_
 _atom_site_type_symbol
 _atom_site_label
 _atom_site_symmetry_multiplicity
 _atom_site_fract_x
 _atom_site_fract_y
 _atom_site_fract_z
 _atom_site_occupancy
  C  C0  1  0.67703700  0.44334500  0.44917100  1
  Ni  Ni1  1  0.01729600  0.66125600  0.66502500  1
  Ni  Ni2  1  0.46270500  0.84613400  0.84351200  1
  Ni  Ni3  1  0.99847500  0.33061800  0.33620900  1
  Cu  Cu4  1  0.52086700  0.16038200  0.15181700  1
  C  C5  1  0.91249500  0.03204000  0.02924200  1
  C  C6  1  0.36515500  0.54250300  0.53894400  1
  C  C7  1  0.26276000  0.24252600  0.53082500  1
  C  C8  1  0.26103300  0.96037200  0.24356300  1
  C  C9  1  0.26320900  0.53263600  0.95838400  1
  C  C10  1  0.75409700  0.46646600  0.03519700  1
  C  C11  1  0.75641000  0.03066900  0.75039700  1
  C  C12  1  0.75874300  0.74808500  0.46423300  1
  C  C13  1  0.10739700  0.12646100  0.24619000  1
  C  C14  1  0.11610500  0.51295900  0.13141400  1
  C  C15  1  0.11113500  0.23554300  0.51947700  1
  C  C16  1  0.31869800  0.07044100  0.69298200  1
  C  C17  1  0.39455000  0.28985700  0.34510000  1
  C  C18  1  0.19671300  0.42498400  0.58973300  1
  C  C19  1  0.31396300  0.92252800  0.06576500  1
  C  C20  1  0.19925400  0.78223400  0.42313000  1
  C  C21  1  0.60953300  0.63594600  0.01527000  1
  C  C22  1  0.19818700  0.59046800  0.78156000  1
  C  C23  1  0.72528200  0.29148200  0.05389200  1
  C  C24  1  0.61575400  0.00683300  0.74009400  1
  C  C25  1  0.39322300  0.96793600  0.28863300  1
  C  C26  1  0.31891000  0.69443800  0.91436600  1
  C  C27  1  0.80606300  0.42012200  0.20643200  1
  C  C28  1  0.39897900  0.35147600  0.95700900  1
  C  C29  1  0.80741600  0.20240500  0.57552500  1
  C  C30  1  0.72192500  0.05337600  0.93667100  1
  C  C31  1  0.81628200  0.56961300  0.41790700  1
  C  C32  1  0.61171800  0.73835100  0.63327500  1
  C  C33  1  0.72748900  0.93040300  0.28922900  1
  C  C34  1  0.90850800  0.74631700  0.49391200  1
  C  C35  1  0.90977200  0.49215300  0.86227400  1
  C  C36  1  0.91286500  0.86070800  0.74551900  1
