# generated using pymatgen
data_CuNi9C4
_symmetry_space_group_name_H-M   'P 1'
_cell_length_a   8.69210188
_cell_length_b   8.69210188
_cell_length_c   8.47162300
_cell_angle_alpha   90.00000000
_cell_angle_beta   90.00000000
_cell_angle_gamma   119.99999905
_symmetry_Int_Tables_number   1
_chemical_formula_structural   CuNi9C4
_chemical_formula_sum   'Cu2 Ni18 C8'
_cell_volume   554.30254450
_cell_formula_units_Z   2
loop_
 _symmetry_equiv_pos_site_id
 _symmetry_equiv_pos_as_xyz
  1  'x, y, z'
loop_
 _atom_site_type_symbol
 _atom_site_label
 _atom_site_symmetry_multiplicity
 _atom_site_fract_x
 _atom_site_fract_y
 _atom_site_fract_z
 _atom_site_occupancy
  Ni  Ni0  1  0.20125300  0.79874700  0.44062900  1
  Ni  Ni1  1  0.20125300  0.40250600  0.44062900  1
  Ni  Ni2  1  0.59749400  0.79874700  0.44062900  1
  Ni  Ni3  1  0.79874700  0.20125300  0.55937100  1
  Ni  Ni4  1  0.79874700  0.59749400  0.55937100  1
  Ni  Ni5  1  0.40250600  0.20125300  0.55937100  1
  Ni  Ni6  1  0.79874700  0.20125300  0.94062900  1
  Ni  Ni7  1  0.79874700  0.59749400  0.94062900  1
  Ni  Ni8  1  0.40250600  0.20125300  0.94062900  1
  Ni  Ni9  1  0.20125300  0.79874700  0.05937100  1
  Ni  Ni10  1  0.20125300  0.40250600  0.05937100  1
  Ni  Ni11  1  0.59749400  0.79874700  0.05937100  1
  Ni  Ni12  1  0.54189600  0.45810400  0.25000000  1
  Ni  Ni13  1  0.54189600  0.08379100  0.25000000  1
  Ni  Ni14  1  0.91620900  0.45810400  0.25000000  1
  Ni  Ni15  1  0.45810400  0.54189600  0.75000000  1
  Ni  Ni16  1  0.45810400  0.91620900  0.75000000  1
  Ni  Ni17  1  0.08379100  0.54189600  0.75000000  1
  Cu  Cu18  1  0.33333300  0.66666700  0.25000000  1
  Cu  Cu19  1  0.66666700  0.33333300  0.75000000  1
  C  C20  1  0.88765800  0.11234200  0.25000000  1
  C  C21  1  0.88765800  0.77531700  0.25000000  1
  C  C22  1  0.22468300  0.11234200  0.25000000  1
  C  C23  1  0.11234200  0.88765800  0.75000000  1
  C  C24  1  0.11234200  0.22468300  0.75000000  1
  C  C25  1  0.77531700  0.88765800  0.75000000  1
  C  C26  1  0.00000000  0.00000000  0.50000000  1
  C  C27  1  0.00000000  0.00000000  0.00000000  1
