# generated using pymatgen
data_CuNiC4
_symmetry_space_group_name_H-M   'P 1'
_cell_length_a   7.64178200
_cell_length_b   7.64178200
_cell_length_c   7.64178200
_cell_angle_alpha   90.00000000
_cell_angle_beta   90.00000000
_cell_angle_gamma   90.00000000
_symmetry_Int_Tables_number   1
_chemical_formula_structural   CuNiC4
_chemical_formula_sum   'Cu4 Ni4 C16'
_cell_volume   446.25586067
_cell_formula_units_Z   4
loop_
 _symmetry_equiv_pos_site_id
 _symmetry_equiv_pos_as_xyz
  1  'x, y, z'
loop_
 _atom_site_type_symbol
 _atom_site_label
 _atom_site_symmetry_multiplicity
 _atom_site_fract_x
 _atom_site_fract_y
 _atom_site_fract_z
 _atom_site_occupancy
  C  C0  1  0.63924000  0.13924000  0.36076000  1
  C  C1  1  0.13924000  0.36076000  0.63924000  1
  C  C2  1  0.36076000  0.63924000  0.13924000  1
  C  C3  1  0.86076000  0.86076000  0.86076000  1
  Ni  Ni4  1  0.64529400  0.35470600  0.85470600  1
  Ni  Ni5  1  0.14529400  0.14529400  0.14529400  1
  Ni  Ni6  1  0.85470600  0.64529400  0.35470600  1
  Ni  Ni7  1  0.35470600  0.85470600  0.64529400  1
  Cu  Cu8  1  0.59879300  0.59879300  0.59879300  1
  Cu  Cu9  1  0.40120700  0.09879300  0.90120700  1
  Cu  Cu10  1  0.09879300  0.90120700  0.40120700  1
  Cu  Cu11  1  0.90120700  0.40120700  0.09879300  1
  C  C12  1  0.52304400  0.08882100  0.76579800  1
  C  C13  1  0.23420200  0.02304400  0.41117900  1
  C  C14  1  0.58882100  0.73420200  0.47695600  1
  C  C15  1  0.02304400  0.41117900  0.23420200  1
  C  C16  1  0.73420200  0.47695600  0.58882100  1
  C  C17  1  0.08882100  0.76579800  0.52304400  1
  C  C18  1  0.47695600  0.58882100  0.73420200  1
  C  C19  1  0.76579800  0.52304400  0.08882100  1
  C  C20  1  0.41117900  0.23420200  0.02304400  1
  C  C21  1  0.97695600  0.91117900  0.26579800  1
  C  C22  1  0.26579800  0.97695600  0.91117900  1
  C  C23  1  0.91117900  0.26579800  0.97695600  1
