# generated using pymatgen
data_Cu(Ni2C13)3
_symmetry_space_group_name_H-M   'P 1'
_cell_length_a   5.38595348
_cell_length_b   6.44366010
_cell_length_c   16.48516332
_cell_angle_alpha   80.71000981
_cell_angle_beta   81.56717458
_cell_angle_gamma   72.77908439
_symmetry_Int_Tables_number   1
_chemical_formula_structural   Cu(Ni2C13)3
_chemical_formula_sum   'Cu1 Ni6 C39'
_cell_volume   536.33228035
_cell_formula_units_Z   1
loop_
 _symmetry_equiv_pos_site_id
 _symmetry_equiv_pos_as_xyz
  1  'x, y, z'
loop_
 _atom_site_type_symbol
 _atom_site_label
 _atom_site_symmetry_multiplicity
 _atom_site_fract_x
 _atom_site_fract_y
 _atom_site_fract_z
 _atom_site_occupancy
  C  C0  1  0.38621848  0.72563575  0.13865489  1
  C  C1  1  0.90737789  0.74677164  0.01910208  1
  C  C2  1  0.09433318  0.25332355  0.98000204  1
  Ni  Ni3  1  0.20448357  0.27922123  0.58928397  1
  Ni  Ni4  1  0.79580567  0.72062078  0.41066204  1
  Ni  Ni5  1  0.03680982  0.63552503  0.80416835  1
  Ni  Ni6  1  0.96147582  0.36460991  0.19593472  1
  Ni  Ni7  1  0.76937007  0.03833375  0.65877863  1
  Ni  Ni8  1  0.23056358  0.96071798  0.34153901  1
  Cu  Cu9  1  0.60983649  0.27213614  0.86169791  1
  C  C10  1  0.43378232  0.75009753  0.91824716  1
  C  C11  1  0.56631882  0.25139764  0.08268946  1
  C  C12  1  0.29528740  0.78140781  0.54203279  1
  C  C13  1  0.70492411  0.21869907  0.45784907  1
  C  C14  1  0.64291617  0.57252107  0.67664118  1
  C  C15  1  0.35728981  0.42719111  0.32329844  1
  C  C16  1  0.18962666  0.09805482  0.78226418  1
  C  C17  1  0.81130691  0.90185646  0.21734709  1
  C  C18  1  0.40466561  0.95129869  0.84199655  1
  C  C19  1  0.59465626  0.04708608  0.15776192  1
  C  C20  1  0.11960219  0.98611551  0.58062274  1
  C  C21  1  0.88081315  0.01392621  0.41950188  1
  C  C22  1  0.41116486  0.84171710  0.45301476  1
  C  C23  1  0.58902531  0.15812123  0.54705697  1
  C  C24  1  0.72999824  0.64570649  0.90989180  1
  C  C25  1  0.27086424  0.35629433  0.09040961  1
  C  C26  1  0.82646897  0.34729842  0.65763036  1
  C  C27  1  0.17317907  0.65290021  0.34224805  1
  C  C28  1  0.32307782  0.85321856  0.99748670  1
  C  C29  1  0.68016801  0.14268000  0.00417176  1
  C  C30  1  0.55828947  0.70075043  0.58831726  1
  C  C31  1  0.44189265  0.29923915  0.41177037  1
  C  C32  1  0.35639296  0.13783002  0.70070647  1
  C  C33  1  0.64435165  0.86234223  0.29887073  1
  C  C34  1  0.26836975  0.60380179  0.90242057  1
  C  C35  1  0.72740726  0.39992240  0.09809478  1
  C  C36  1  0.05723353  0.30268837  0.82591686  1
  C  C37  1  0.94450114  0.69794081  0.17363699  1
  C  C38  1  0.40384109  0.55247858  0.73435245  1
  C  C39  1  0.59324068  0.44962369  0.26481534  1
  C  C40  1  0.79687214  0.71235102  0.70453365  1
  C  C41  1  0.20347933  0.28741823  0.29567573  1
  C  C42  1  0.16405460  0.60005768  0.55048782  1
  C  C43  1  0.83575186  0.39992928  0.44953595  1
  C  C44  1  0.99062373  0.97261110  0.77635788  1
  C  C45  1  0.01228768  0.02653112  0.22252105  1
