# generated using pymatgen
data_CuNi8C25
_symmetry_space_group_name_H-M   'P 1'
_cell_length_a   15.03707900
_cell_length_b   11.74409100
_cell_length_c   11.87386179
_cell_angle_alpha   75.70265981
_cell_angle_beta   90.00000000
_cell_angle_gamma   90.00000000
_symmetry_Int_Tables_number   1
_chemical_formula_structural   CuNi8C25
_chemical_formula_sum   'Cu4 Ni32 C100'
_cell_volume   2031.93983537
_cell_formula_units_Z   4
loop_
 _symmetry_equiv_pos_site_id
 _symmetry_equiv_pos_as_xyz
  1  'x, y, z'
loop_
 _atom_site_type_symbol
 _atom_site_label
 _atom_site_symmetry_multiplicity
 _atom_site_fract_x
 _atom_site_fract_y
 _atom_site_fract_z
 _atom_site_occupancy
  C  C0  1  0.32777700  0.00283500  0.25071600  1
  C  C1  1  0.82777700  0.99716500  0.24928400  1
  C  C2  1  0.67222300  0.99716500  0.74928400  1
  C  C3  1  0.17222300  0.00283500  0.75071600  1
  C  C4  1  0.45915600  0.77732800  0.58680600  1
  C  C5  1  0.95915600  0.22267200  0.91319400  1
  C  C6  1  0.54084400  0.22267200  0.41319400  1
  C  C7  1  0.04084400  0.77732800  0.08680600  1
  C  C8  1  0.23937000  0.72306600  0.55170300  1
  C  C9  1  0.73937000  0.27693400  0.94829700  1
  C  C10  1  0.76063000  0.27693400  0.44829700  1
  C  C11  1  0.26063000  0.72306600  0.05170300  1
  C  C12  1  0.29455800  0.64113800  0.30110400  1
  C  C13  1  0.79455800  0.35886200  0.19889600  1
  C  C14  1  0.70544200  0.35886200  0.69889600  1
  C  C15  1  0.20544200  0.64113800  0.80110400  1
  C  C16  1  0.52340600  0.71643600  0.32430800  1
  C  C17  1  0.02340600  0.28356400  0.17569200  1
  C  C18  1  0.47659400  0.28356400  0.67569200  1
  C  C19  1  0.97659400  0.71643600  0.82430800  1
  C  C20  1  0.43266900  0.81643000  0.93634300  1
  C  C21  1  0.93266900  0.18357000  0.56365700  1
  C  C22  1  0.56733100  0.18357000  0.06365700  1
  C  C23  1  0.06733100  0.81643000  0.43634300  1
  C  C24  1  0.25014300  0.27736200  0.94637100  1
  C  C25  1  0.75014300  0.72263800  0.55362900  1
  C  C26  1  0.74985700  0.72263800  0.05362900  1
  C  C27  1  0.24985700  0.27736200  0.44637100  1
  C  C28  1  0.29889300  0.36813600  0.18833800  1
  C  C29  1  0.79889300  0.63186400  0.31166200  1
  C  C30  1  0.70110700  0.63186400  0.81166200  1
  C  C31  1  0.20110700  0.36813600  0.68833800  1
  C  C32  1  0.50333100  0.31237600  0.16542900  1
  C  C33  1  0.00333100  0.68762400  0.33457100  1
  C  C34  1  0.49666900  0.68762400  0.83457100  1
  C  C35  1  0.99666900  0.31237600  0.66542900  1
  C  C36  1  0.37355400  0.52546500  0.03421000  1
  C  C37  1  0.87355400  0.47453500  0.46579000  1
  C  C38  1  0.62644600  0.47453500  0.96579000  1
  C  C39  1  0.12644600  0.52546500  0.53421000  1
  C  C40  1  0.27371600  0.53115400  0.05996800  1
  C  C41  1  0.77371600  0.46884600  0.44003200  1
  C  C42  1  0.72628400  0.46884600  0.94003200  1
  C  C43  1  0.22628400  0.53115400  0.55996800  1
  C  C44  1  0.49787400  0.88140900  0.39816600  1
  C  C45  1  0.99787400  0.11859100  0.10183400  1
  C  C46  1  0.50212600  0.11859100  0.60183400  1
  C  C47  1  0.00212600  0.88140900  0.89816600  1
  C  C48  1  0.33133400  0.88861500  0.53173800  1
  C  C49  1  0.83133400  0.11138500  0.96826200  1
  C  C50  1  0.66866600  0.11138500  0.46826200  1
  C  C51  1  0.16866600  0.88861500  0.03173800  1
  C  C52  1  0.23129600  0.80320500  0.35188200  1
  C  C53  1  0.73129600  0.19679500  0.14811800  1
  C  C54  1  0.76870400  0.19679500  0.64811800  1
  C  C55  1  0.26870400  0.80320500  0.85188200  1
  C  C56  1  0.39708400  0.79306300  0.22201500  1
  C  C57  1  0.89708400  0.20693700  0.27798500  1
  C  C58  1  0.60291600  0.20693700  0.77798500  1
  C  C59  1  0.10291600  0.79306300  0.72201500  1
  C  C60  1  0.48668800  0.13529400  0.10188500  1
  C  C61  1  0.98668800  0.86470600  0.39811500  1
  C  C62  1  0.51331200  0.86470600  0.89811500  1
  C  C63  1  0.01331200  0.13529400  0.60188500  1
  C  C64  1  0.33511600  0.10573600  0.98418300  1
  C  C65  1  0.83511600  0.89426400  0.51581700  1
  C  C66  1  0.66488400  0.89426400  0.01581700  1
  C  C67  1  0.16488400  0.10573600  0.48418300  1
  C  C68  1  0.22467800  0.20640900  0.14457700  1
  C  C69  1  0.72467800  0.79359100  0.35542300  1
  C  C70  1  0.77532200  0.79359100  0.85542300  1
  C  C71  1  0.27532200  0.20640900  0.64457700  1
  C  C72  1  0.38848100  0.21363200  0.28214400  1
  C  C73  1  0.88848100  0.78636800  0.21785600  1
  C  C74  1  0.61151900  0.78636800  0.71785600  1
  C  C75  1  0.11151900  0.21363200  0.78214400  1
  Ni  Ni76  1  0.43641000  0.84392800  0.52033000  1
  Ni  Ni77  1  0.93641000  0.15607200  0.97967000  1
  Ni  Ni78  1  0.56359000  0.15607200  0.47967000  1
  Ni  Ni79  1  0.06359000  0.84392800  0.02033000  1
  Ni  Ni80  1  0.25832700  0.79731800  0.49084200  1
  Ni  Ni81  1  0.75832700  0.20268200  0.00915800  1
  Ni  Ni82  1  0.74167300  0.20268200  0.50915800  1
  Ni  Ni83  1  0.24167300  0.79731800  0.99084200  1
  Ni  Ni84  1  0.30529800  0.72936800  0.29143800  1
  Ni  Ni85  1  0.80529800  0.27063200  0.20856200  1
  Ni  Ni86  1  0.69470200  0.27063200  0.70856200  1
  Ni  Ni87  1  0.19470200  0.72936800  0.79143800  1
  Ni  Ni88  1  0.48056800  0.78564300  0.31647700  1
  Ni  Ni89  1  0.98056800  0.21435700  0.18352300  1
  Ni  Ni90  1  0.51943200  0.21435700  0.68352300  1
  Ni  Ni91  1  0.01943200  0.78564300  0.81647700  1
  Ni  Ni92  1  0.43692400  0.16876500  0.97708000  1
  Ni  Ni93  1  0.93692400  0.83123500  0.52292000  1
  Ni  Ni94  1  0.56307600  0.83123500  0.02292000  1
  Ni  Ni95  1  0.06307600  0.16876500  0.47708000  1
  Ni  Ni96  1  0.25870100  0.20240600  0.01137900  1
  Ni  Ni97  1  0.75870100  0.79759400  0.48862100  1
  Ni  Ni98  1  0.74129900  0.79759400  0.98862100  1
  Ni  Ni99  1  0.24129900  0.20240600  0.51137900  1
  Ni  Ni100  1  0.29763400  0.27746900  0.21129900  1
  Ni  Ni101  1  0.79763400  0.72253100  0.28870100  1
  Ni  Ni102  1  0.70236600  0.72253100  0.78870100  1
  Ni  Ni103  1  0.20236600  0.27746900  0.71129900  1
  Ni  Ni104  1  0.47684000  0.22881800  0.19297100  1
  Ni  Ni105  1  0.97684000  0.77118200  0.30702900  1
  Ni  Ni106  1  0.52316000  0.77118200  0.80702900  1
  Ni  Ni107  1  0.02316000  0.22881800  0.69297100  1
  Cu  Cu108  1  0.12158600  0.49922200  0.29858400  1
  Cu  Cu109  1  0.62158600  0.50077800  0.20141600  1
  Cu  Cu110  1  0.87841400  0.50077800  0.70141600  1
  Cu  Cu111  1  0.37841400  0.49922200  0.79858400  1
  C  C112  1  0.09340500  0.39347500  0.26691500  1
  C  C113  1  0.59340500  0.60652500  0.23308500  1
  C  C114  1  0.90659500  0.60652500  0.73308500  1
  C  C115  1  0.40659500  0.39347500  0.76691500  1
  C  C116  1  0.12170300  0.59914900  0.19690800  1
  C  C117  1  0.62170300  0.40085100  0.30309200  1
  C  C118  1  0.87829700  0.40085100  0.80309200  1
  C  C119  1  0.37829700  0.59914900  0.69690800  1
  C  C120  1  0.21186100  0.48199500  0.34864400  1
  C  C121  1  0.71186100  0.51800500  0.15135600  1
  C  C122  1  0.78813900  0.51800500  0.65135600  1
  C  C123  1  0.28813900  0.48199500  0.84864400  1
  C  C124  1  0.06063100  0.52504900  0.38718900  1
  C  C125  1  0.56063100  0.47495100  0.11281100  1
  C  C126  1  0.93936900  0.47495100  0.61281100  1
  C  C127  1  0.43936900  0.52504900  0.88718900  1
  C  C128  1  0.33169300  0.53231700  0.09611200  1
  C  C129  1  0.83169300  0.46768300  0.40388800  1
  C  C130  1  0.66830700  0.46768300  0.90388800  1
  C  C131  1  0.16830700  0.53231700  0.59611200  1
  C  C132  1  0.96566000  0.51400700  0.02163800  1
  C  C133  1  0.46566000  0.48599300  0.47836200  1
  C  C134  1  0.03434000  0.48599300  0.97836200  1
  C  C135  1  0.53434000  0.51400700  0.52163800  1
