# generated using pymatgen
data_CuNiC8
_symmetry_space_group_name_H-M   'P 1'
_cell_length_a   5.50144700
_cell_length_b   5.58657000
_cell_length_c   7.83052000
_cell_angle_alpha   90.00000000
_cell_angle_beta   90.00000000
_cell_angle_gamma   90.00000000
_symmetry_Int_Tables_number   1
_chemical_formula_structural   CuNiC8
_chemical_formula_sum   'Cu2 Ni2 C16'
_cell_volume   240.66491474
_cell_formula_units_Z   2
loop_
 _symmetry_equiv_pos_site_id
 _symmetry_equiv_pos_as_xyz
  1  'x, y, z'
loop_
 _atom_site_type_symbol
 _atom_site_label
 _atom_site_symmetry_multiplicity
 _atom_site_fract_x
 _atom_site_fract_y
 _atom_site_fract_z
 _atom_site_occupancy
  Ni  Ni0  1  0.24168400  0.46218800  0.50000000  1
  Ni  Ni1  1  0.75831600  0.96218800  0.50000000  1
  Cu  Cu2  1  0.26070300  0.55105900  0.00000000  1
  Cu  Cu3  1  0.73929700  0.05105900  0.00000000  1
  C  C4  1  0.75105400  0.50080300  0.75405400  1
  C  C5  1  0.24894600  0.00080300  0.24594600  1
  C  C6  1  0.75105400  0.50080300  0.24594600  1
  C  C7  1  0.24894600  0.00080300  0.75405400  1
  C  C8  1  0.54285000  0.79265900  0.80330600  1
  C  C9  1  0.45715000  0.29265900  0.19669400  1
  C  C10  1  0.95458500  0.20547600  0.29018100  1
  C  C11  1  0.04541500  0.70547600  0.70981900  1
  C  C12  1  0.95458500  0.20547600  0.70981900  1
  C  C13  1  0.04541500  0.70547600  0.29018100  1
  C  C14  1  0.54285000  0.79265900  0.19669400  1
  C  C15  1  0.45715000  0.29265900  0.80330600  1
  C  C16  1  0.15504500  0.97115300  0.00000000  1
  C  C17  1  0.84495500  0.47115300  0.00000000  1
  C  C18  1  0.32923000  0.01772600  0.50000000  1
  C  C19  1  0.67077000  0.51772600  0.50000000  1
