# generated using pymatgen
data_Cu2Ni2C9
_symmetry_space_group_name_H-M   'P 1'
_cell_length_a   9.35422000
_cell_length_b   9.38852601
_cell_length_c   10.70157778
_cell_angle_alpha   106.92935890
_cell_angle_beta   101.71213816
_cell_angle_gamma   115.37064521
_symmetry_Int_Tables_number   1
_chemical_formula_structural   Cu2Ni2C9
_chemical_formula_sum   'Cu8 Ni8 C36'
_cell_volume   751.72741275
_cell_formula_units_Z   4
loop_
 _symmetry_equiv_pos_site_id
 _symmetry_equiv_pos_as_xyz
  1  'x, y, z'
loop_
 _atom_site_type_symbol
 _atom_site_label
 _atom_site_symmetry_multiplicity
 _atom_site_fract_x
 _atom_site_fract_y
 _atom_site_fract_z
 _atom_site_occupancy
  C  C0  1  0.75677500  0.75385300  0.00250900  1
  C  C1  1  0.24322500  0.24614700  0.99749100  1
  C  C2  1  0.22236000  0.23755400  0.51362500  1
  C  C3  1  0.77764000  0.76244600  0.48637500  1
  Ni  Ni4  1  0.80632300  0.47036300  0.29288100  1
  Ni  Ni5  1  0.22868900  0.88594100  0.80108100  1
  Ni  Ni6  1  0.67429600  0.01989700  0.68888300  1
  Ni  Ni7  1  0.28833300  0.63634100  0.19592200  1
  Ni  Ni8  1  0.19367700  0.52963700  0.70711900  1
  Ni  Ni9  1  0.77131100  0.11405900  0.19891900  1
  Ni  Ni10  1  0.71166700  0.36365900  0.80407800  1
  Ni  Ni11  1  0.32570400  0.98010300  0.31111700  1
  Cu  Cu12  1  0.07832700  0.80907200  0.13468400  1
  Cu  Cu13  1  0.42147400  0.70279500  0.86725200  1
  Cu  Cu14  1  0.56679700  0.29137400  0.62840200  1
  Cu  Cu15  1  0.93755400  0.21718700  0.35951300  1
  Cu  Cu16  1  0.43320300  0.70862600  0.37159800  1
  Cu  Cu17  1  0.06244600  0.78281300  0.64048700  1
  Cu  Cu18  1  0.57852600  0.29720500  0.13274800  1
  Cu  Cu19  1  0.92167300  0.19092800  0.86531600  1
  C  C20  1  0.52963100  0.36620200  0.74328900  1
  C  C21  1  0.81969400  0.05417500  0.81812700  1
  C  C22  1  0.20722800  0.74812000  0.65799000  1
  C  C23  1  0.11271100  0.65932300  0.14929700  1
  C  C24  1  0.58538100  0.12762300  0.16165300  1
  C  C25  1  0.29910400  0.75589900  0.34293800  1
  C  C26  1  0.70089600  0.24410100  0.65706200  1
  C  C27  1  0.12595600  0.28475800  0.77066400  1
  C  C28  1  0.87404400  0.71524200  0.22933600  1
  C  C29  1  0.88728900  0.34067700  0.85070300  1
  C  C30  1  0.88976800  0.09990200  0.01888100  1
  C  C31  1  0.03666000  0.87074400  0.74764300  1
  C  C32  1  0.79277200  0.25188000  0.34201000  1
  C  C33  1  0.40228000  0.13985800  0.64149200  1
  C  C34  1  0.11023200  0.90009800  0.98111900  1
  C  C35  1  0.34509300  0.56119000  0.51715100  1
  C  C36  1  0.13295700  0.91900100  0.49103800  1
  C  C37  1  0.96334000  0.12925600  0.25235700  1
  C  C38  1  0.89188300  0.62782900  0.66782700  1
  C  C39  1  0.10811700  0.37217100  0.33217300  1
  C  C40  1  0.59772000  0.86014200  0.35850800  1
  C  C41  1  0.65490700  0.43881000  0.48284900  1
  C  C42  1  0.60481100  0.77176900  0.74528500  1
  C  C43  1  0.86704300  0.08099900  0.50896200  1
  C  C44  1  0.41461900  0.87237700  0.83834700  1
  C  C45  1  0.73227800  0.44670300  0.13464400  1
  C  C46  1  0.39518900  0.22823100  0.25471500  1
  C  C47  1  0.26772200  0.55329700  0.86535600  1
  C  C48  1  0.57240600  0.35774400  0.98998800  1
  C  C49  1  0.47036900  0.63379800  0.25671100  1
  C  C50  1  0.42759400  0.64225600  0.01001200  1
  C  C51  1  0.18030600  0.94582500  0.18187300  1
