# generated using pymatgen
data_Cu6Ni2C3
_symmetry_space_group_name_H-M   'P 1'
_cell_length_a   7.03081131
_cell_length_b   7.03081131
_cell_length_c   16.26701800
_cell_angle_alpha   90.00000000
_cell_angle_beta   90.00000000
_cell_angle_gamma   119.99999347
_symmetry_Int_Tables_number   1
_chemical_formula_structural   Cu6Ni2C3
_chemical_formula_sum   'Cu12 Ni4 C6'
_cell_volume   696.38513541
_cell_formula_units_Z   2
loop_
 _symmetry_equiv_pos_site_id
 _symmetry_equiv_pos_as_xyz
  1  'x, y, z'
loop_
 _atom_site_type_symbol
 _atom_site_label
 _atom_site_symmetry_multiplicity
 _atom_site_fract_x
 _atom_site_fract_y
 _atom_site_fract_z
 _atom_site_occupancy
  C  C0  1  0.66666700  0.33333300  0.79759900  1
  C  C1  1  0.66666700  0.33333300  0.29759900  1
  C  C2  1  0.33333300  0.66666700  0.20240100  1
  C  C3  1  0.33333300  0.66666700  0.70240100  1
  C  C4  1  0.00000000  0.00000000  0.00000000  1
  C  C5  1  0.00000000  0.00000000  0.50000000  1
  Ni  Ni6  1  0.33333300  0.66666700  0.96023700  1
  Ni  Ni7  1  0.33333300  0.66666700  0.46023700  1
  Ni  Ni8  1  0.66666700  0.33333300  0.03976300  1
  Ni  Ni9  1  0.66666700  0.33333300  0.53976300  1
  Cu  Cu10  1  0.11484100  0.79447900  0.89497800  1
  Cu  Cu11  1  0.67963700  0.88515900  0.89497800  1
  Cu  Cu12  1  0.20552100  0.32036300  0.89497800  1
  Cu  Cu13  1  0.11484100  0.32036300  0.39497800  1
  Cu  Cu14  1  0.20552100  0.88515900  0.39497800  1
  Cu  Cu15  1  0.67963700  0.79447900  0.39497800  1
  Cu  Cu16  1  0.88515900  0.20552100  0.10502200  1
  Cu  Cu17  1  0.32036300  0.11484100  0.10502200  1
  Cu  Cu18  1  0.79447900  0.67963700  0.10502200  1
  Cu  Cu19  1  0.88515900  0.67963700  0.60502200  1
  Cu  Cu20  1  0.79447900  0.11484100  0.60502200  1
  Cu  Cu21  1  0.32036300  0.20552100  0.60502200  1
