# generated using pymatgen
data_CuNi6C
_symmetry_space_group_name_H-M   'P 1'
_cell_length_a   5.20409100
_cell_length_b   6.52333500
_cell_length_c   11.30426900
_cell_angle_alpha   90.00000000
_cell_angle_beta   90.00000000
_cell_angle_gamma   90.00000000
_symmetry_Int_Tables_number   1
_chemical_formula_structural   CuNi6C
_chemical_formula_sum   'Cu2 Ni12 C2'
_cell_volume   383.75765142
_cell_formula_units_Z   2
loop_
 _symmetry_equiv_pos_site_id
 _symmetry_equiv_pos_as_xyz
  1  'x, y, z'
loop_
 _atom_site_type_symbol
 _atom_site_label
 _atom_site_symmetry_multiplicity
 _atom_site_fract_x
 _atom_site_fract_y
 _atom_site_fract_z
 _atom_site_occupancy
  C  C0  1  0.00000000  0.50000000  0.33283700  1
  C  C1  1  0.00000000  0.00000000  0.83283700  1
  Ni  Ni2  1  0.00000000  0.26257000  0.08580800  1
  Ni  Ni3  1  0.00000000  0.73743000  0.08580800  1
  Ni  Ni4  1  0.00000000  0.00000000  0.33460000  1
  Ni  Ni5  1  0.50000000  0.75504700  0.41871800  1
  Ni  Ni6  1  0.50000000  0.24495300  0.41871800  1
  Ni  Ni7  1  0.50000000  0.00000000  0.16474500  1
  Ni  Ni8  1  0.00000000  0.76257000  0.58580800  1
  Ni  Ni9  1  0.00000000  0.23743000  0.58580800  1
  Ni  Ni10  1  0.00000000  0.50000000  0.83460000  1
  Ni  Ni11  1  0.50000000  0.25504700  0.91871800  1
  Ni  Ni12  1  0.50000000  0.74495300  0.91871800  1
  Ni  Ni13  1  0.50000000  0.50000000  0.66474500  1
  Cu  Cu14  1  0.50000000  0.50000000  0.15876800  1
  Cu  Cu15  1  0.50000000  0.00000000  0.65876800  1
