# generated using pymatgen
data_Cu12NiC8
_symmetry_space_group_name_H-M   'P 1'
_cell_length_a   9.95782712
_cell_length_b   9.95782712
_cell_length_c   7.16791600
_cell_angle_alpha   90.00000000
_cell_angle_beta   90.00000000
_cell_angle_gamma   119.99999416
_symmetry_Int_Tables_number   1
_chemical_formula_structural   Cu12NiC8
_chemical_formula_sum   'Cu24 Ni2 C16'
_cell_volume   615.53496657
_cell_formula_units_Z   2
loop_
 _symmetry_equiv_pos_site_id
 _symmetry_equiv_pos_as_xyz
  1  'x, y, z'
loop_
 _atom_site_type_symbol
 _atom_site_label
 _atom_site_symmetry_multiplicity
 _atom_site_fract_x
 _atom_site_fract_y
 _atom_site_fract_z
 _atom_site_occupancy
  C  C0  1  0.33333300  0.66666700  0.49535500  1
  C  C1  1  0.66666700  0.33333300  0.50464500  1
  C  C2  1  0.66666700  0.33333300  0.99535500  1
  C  C3  1  0.33333300  0.66666700  0.00464500  1
  C  C4  1  0.03335100  0.41997100  0.75000000  1
  C  C5  1  0.96664900  0.58002900  0.25000000  1
  C  C6  1  0.58002900  0.61338100  0.75000000  1
  C  C7  1  0.41997100  0.38661900  0.25000000  1
  C  C8  1  0.38661900  0.96664900  0.75000000  1
  C  C9  1  0.61338100  0.03335100  0.25000000  1
  C  C10  1  0.24679200  0.25707400  0.75000000  1
  C  C11  1  0.75320800  0.74292600  0.25000000  1
  C  C12  1  0.74292600  0.98971800  0.75000000  1
  C  C13  1  0.25707400  0.01028200  0.25000000  1
  C  C14  1  0.01028200  0.75320800  0.75000000  1
  C  C15  1  0.98971800  0.24679200  0.25000000  1
  Ni  Ni16  1  0.00000000  0.00000000  0.50000000  1
  Ni  Ni17  1  0.00000000  0.00000000  0.00000000  1
  Cu  Cu18  1  0.13673700  0.60261500  0.75000000  1
  Cu  Cu19  1  0.86326300  0.39738500  0.25000000  1
  Cu  Cu20  1  0.39738500  0.53412300  0.75000000  1
  Cu  Cu21  1  0.60261500  0.46587700  0.25000000  1
  Cu  Cu22  1  0.46587700  0.86326300  0.75000000  1
  Cu  Cu23  1  0.53412300  0.13673700  0.25000000  1
  Cu  Cu24  1  0.50989400  0.14177700  0.75000000  1
  Cu  Cu25  1  0.49010600  0.85822300  0.25000000  1
  Cu  Cu26  1  0.85822300  0.36811700  0.75000000  1
  Cu  Cu27  1  0.14177700  0.63188300  0.25000000  1
  Cu  Cu28  1  0.63188300  0.49010600  0.75000000  1
  Cu  Cu29  1  0.36811700  0.50989400  0.25000000  1
  Cu  Cu30  1  0.08409900  0.36401600  0.57497000  1
  Cu  Cu31  1  0.91590100  0.63598400  0.42503000  1
  Cu  Cu32  1  0.63598400  0.72008300  0.57497000  1
  Cu  Cu33  1  0.91590100  0.63598400  0.07497000  1
  Cu  Cu34  1  0.36401600  0.27991700  0.42503000  1
  Cu  Cu35  1  0.08409900  0.36401600  0.92503000  1
  Cu  Cu36  1  0.27991700  0.91590100  0.57497000  1
  Cu  Cu37  1  0.36401600  0.27991700  0.07497000  1
  Cu  Cu38  1  0.72008300  0.08409900  0.42503000  1
  Cu  Cu39  1  0.63598400  0.72008300  0.92503000  1
  Cu  Cu40  1  0.72008300  0.08409900  0.07497000  1
  Cu  Cu41  1  0.27991700  0.91590100  0.92503000  1
