# generated using pymatgen
data_Cu5(NiC15)2
_symmetry_space_group_name_H-M   'P 1'
_cell_length_a   6.38504900
_cell_length_b   7.98186508
_cell_length_c   9.43702430
_cell_angle_alpha   105.41379897
_cell_angle_beta   108.09124929
_cell_angle_gamma   101.32707348
_symmetry_Int_Tables_number   1
_chemical_formula_structural   Cu5(NiC15)2
_chemical_formula_sum   'Cu5 Ni2 C30'
_cell_volume   419.81780691
_cell_formula_units_Z   1
loop_
 _symmetry_equiv_pos_site_id
 _symmetry_equiv_pos_as_xyz
  1  'x, y, z'
loop_
 _atom_site_type_symbol
 _atom_site_label
 _atom_site_symmetry_multiplicity
 _atom_site_fract_x
 _atom_site_fract_y
 _atom_site_fract_z
 _atom_site_occupancy
  Ni  Ni0  1  0.29166500  0.31531300  0.79524000  1
  Ni  Ni1  1  0.70833500  0.68468700  0.20476000  1
  Cu  Cu2  1  0.04905900  0.21667300  0.02362100  1
  Cu  Cu3  1  0.95094100  0.78332700  0.97637900  1
  Cu  Cu4  1  0.00000000  0.50000000  0.50000000  1
  Cu  Cu5  1  0.61940500  0.04290700  0.39067900  1
  Cu  Cu6  1  0.38059500  0.95709300  0.60932100  1
  C  C7  1  0.22538500  0.64787100  0.26516700  1
  C  C8  1  0.77461500  0.35212900  0.73483300  1
  C  C9  1  0.60480500  0.26535100  0.13086300  1
  C  C10  1  0.39519500  0.73464900  0.86913700  1
  C  C11  1  0.09376300  0.09456200  0.33320100  1
  C  C12  1  0.90623700  0.90543800  0.66679900  1
  C  C13  1  0.11958200  0.03453800  0.65968400  1
  C  C14  1  0.88041800  0.96546200  0.34031600  1
  C  C15  1  0.07097100  0.04832800  0.15556700  1
  C  C16  1  0.92902900  0.95167200  0.84443300  1
  C  C17  1  0.31452300  0.04287900  0.41873600  1
  C  C18  1  0.68547700  0.95712100  0.58126400  1
  C  C19  1  0.20817600  0.44798300  0.20339100  1
  C  C20  1  0.79182400  0.55201700  0.79660900  1
  C  C21  1  0.11902700  0.29036300  0.41596900  1
  C  C22  1  0.88097300  0.70963700  0.58403100  1
  C  C23  1  0.45542600  0.76646400  0.26868900  1
  C  C24  1  0.54457400  0.23353600  0.73131100  1
  C  C25  1  0.22456400  0.70137600  0.43782300  1
  C  C26  1  0.77543600  0.29862400  0.56217700  1
  C  C27  1  0.55316900  0.13314700  0.21560000  1
  C  C28  1  0.44683100  0.86685300  0.78440000  1
  C  C29  1  0.01407300  0.68760600  0.15636200  1
  C  C30  1  0.98592700  0.31239400  0.84363800  1
  C  C31  1  0.75063100  0.21389500  0.03517900  1
  C  C32  1  0.24936900  0.78610500  0.96482100  1
  C  C33  1  0.36771300  0.25795000  0.00556300  1
  C  C34  1  0.63228700  0.74205000  0.99443700  1
  C  C35  1  0.72211600  0.46294100  0.25678300  1
  C  C36  1  0.27788400  0.53705900  0.74321700  1
