# generated using pymatgen
data_Cu2Ni2C15
_symmetry_space_group_name_H-M   'P 1'
_cell_length_a   7.76813500
_cell_length_b   5.32129300
_cell_length_c   5.51328397
_cell_angle_alpha   89.76099686
_cell_angle_beta   90.00000000
_cell_angle_gamma   90.00000000
_symmetry_Int_Tables_number   1
_chemical_formula_structural   Cu2Ni2C15
_chemical_formula_sum   'Cu2 Ni2 C15'
_cell_volume   227.89800340
_cell_formula_units_Z   1
loop_
 _symmetry_equiv_pos_site_id
 _symmetry_equiv_pos_as_xyz
  1  'x, y, z'
loop_
 _atom_site_type_symbol
 _atom_site_label
 _atom_site_symmetry_multiplicity
 _atom_site_fract_x
 _atom_site_fract_y
 _atom_site_fract_z
 _atom_site_occupancy
  C  C0  1  0.50000000  0.98500700  0.96342500  1
  C  C1  1  0.00000000  0.48598200  0.55803000  1
  C  C2  1  0.00000000  0.01267100  0.03666500  1
  Ni  Ni3  1  0.25749500  0.99529800  0.49780600  1
  Ni  Ni4  1  0.74250500  0.99529800  0.49780600  1
  Cu  Cu5  1  0.25572600  0.49771200  0.00576800  1
  Cu  Cu6  1  0.74427400  0.49771200  0.00576800  1
  C  C7  1  0.78958800  0.21507200  0.79096900  1
  C  C8  1  0.71815700  0.71586500  0.72481500  1
  C  C9  1  0.71832300  0.79491000  0.20195000  1
  C  C10  1  0.20076800  0.28678900  0.28106100  1
  C  C11  1  0.00000000  0.92568400  0.48673200  1
  C  C12  1  0.79923200  0.28678900  0.28106100  1
  C  C13  1  0.28184300  0.71586500  0.72481500  1
  C  C14  1  0.21041200  0.21507200  0.79096900  1
  C  C15  1  0.50000000  0.41585100  0.02031900  1
  C  C16  1  0.28167700  0.79491000  0.20195000  1
  C  C17  1  0.00000000  0.57792800  0.97820300  1
  C  C18  1  0.50000000  0.07961000  0.51819800  1
