# generated using pymatgen
data_Cu5Ni3C32
_symmetry_space_group_name_H-M   'P 1'
_cell_length_a   7.68856868
_cell_length_b   7.68856868
_cell_length_c   7.68494814
_cell_angle_alpha   89.99227243
_cell_angle_beta   89.99227243
_cell_angle_gamma   90.01521806
_symmetry_Int_Tables_number   1
_chemical_formula_structural   Cu5Ni3C32
_chemical_formula_sum   'Cu5 Ni3 C32'
_cell_volume   454.28867844
_cell_formula_units_Z   1
loop_
 _symmetry_equiv_pos_site_id
 _symmetry_equiv_pos_as_xyz
  1  'x, y, z'
loop_
 _atom_site_type_symbol
 _atom_site_label
 _atom_site_symmetry_multiplicity
 _atom_site_fract_x
 _atom_site_fract_y
 _atom_site_fract_z
 _atom_site_occupancy
  Ni  Ni0  1  0.24830700  0.75190300  0.75189700  1
  Ni  Ni1  1  0.75170300  0.75170300  0.75194400  1
  Ni  Ni2  1  0.75190300  0.24830700  0.75189700  1
  Cu  Cu3  1  0.24709500  0.75273000  0.24734700  1
  Cu  Cu4  1  0.75280900  0.75280900  0.24732600  1
  Cu  Cu5  1  0.24744100  0.24744100  0.75285500  1
  Cu  Cu6  1  0.24721000  0.24721000  0.24698700  1
  Cu  Cu7  1  0.75273000  0.24709500  0.24734700  1
  C  C8  1  0.49847200  0.49847200  0.49536200  1
  C  C9  1  0.00063900  0.49931700  0.00167400  1
  C  C10  1  0.49919300  0.49919300  0.00099400  1
  C  C11  1  0.00037800  0.49912400  0.49757500  1
  C  C12  1  0.00057400  0.00057400  0.00183600  1
  C  C13  1  0.49931700  0.00063900  0.00167400  1
  C  C14  1  0.00055100  0.00055100  0.49803700  1
  C  C15  1  0.49912400  0.00037800  0.49757500  1
  C  C16  1  0.00064500  0.75005900  0.00806600  1
  C  C17  1  0.49942300  0.74999100  0.00830600  1
  C  C18  1  0.00053600  0.75003000  0.49195000  1
  C  C19  1  0.49913700  0.75325800  0.49439900  1
  C  C20  1  0.00365900  0.24991100  0.00492500  1
  C  C21  1  0.49626700  0.25001200  0.00493500  1
  C  C22  1  0.00391900  0.25004200  0.49514400  1
  C  C23  1  0.49775300  0.24673300  0.49598400  1
  C  C24  1  0.00394900  0.49619700  0.75012500  1
  C  C25  1  0.49750300  0.49750300  0.75334100  1
  C  C26  1  0.00052900  0.49944600  0.25005800  1
  C  C27  1  0.49910800  0.49910800  0.24657700  1
  C  C28  1  0.00380800  0.00380800  0.75008200  1
  C  C29  1  0.49619700  0.00394900  0.75012500  1
  C  C30  1  0.00064400  0.00064400  0.24989200  1
  C  C31  1  0.49944600  0.00052900  0.25005800  1
  C  C32  1  0.25001200  0.49626700  0.00493500  1
  C  C33  1  0.74999100  0.49942300  0.00830600  1
  C  C34  1  0.24673300  0.49775300  0.49598400  1
  C  C35  1  0.75325800  0.49913700  0.49439900  1
  C  C36  1  0.24991100  0.00365900  0.00492500  1
  C  C37  1  0.75005900  0.00064500  0.00806600  1
  C  C38  1  0.25004200  0.00391900  0.49514400  1
  C  C39  1  0.75003000  0.00053600  0.49195000  1
