# generated using pymatgen
data_Cu(NiC9)3
_symmetry_space_group_name_H-M   'P 1'
_cell_length_a   7.32404746
_cell_length_b   7.32404746
_cell_length_c   17.78722400
_cell_angle_alpha   90.00000000
_cell_angle_beta   90.00000000
_cell_angle_gamma   119.99999510
_symmetry_Int_Tables_number   1
_chemical_formula_structural   Cu(NiC9)3
_chemical_formula_sum   'Cu2 Ni6 C54'
_cell_volume   826.30641975
_cell_formula_units_Z   2
loop_
 _symmetry_equiv_pos_site_id
 _symmetry_equiv_pos_as_xyz
  1  'x, y, z'
loop_
 _atom_site_type_symbol
 _atom_site_label
 _atom_site_symmetry_multiplicity
 _atom_site_fract_x
 _atom_site_fract_y
 _atom_site_fract_z
 _atom_site_occupancy
  Ni  Ni0  1  0.66666700  0.33333300  0.86478900  1
  Ni  Ni1  1  0.33333300  0.66666700  0.13521100  1
  Ni  Ni2  1  0.33333300  0.66666700  0.36478900  1
  Ni  Ni3  1  0.66666700  0.33333300  0.63521100  1
  Ni  Ni4  1  0.00000000  0.00000000  0.75000000  1
  Ni  Ni5  1  0.00000000  0.00000000  0.25000000  1
  Cu  Cu6  1  0.00000000  0.00000000  0.00000000  1
  Cu  Cu7  1  0.00000000  0.00000000  0.50000000  1
  C  C8  1  0.54732900  0.83629700  0.91709900  1
  C  C9  1  0.45267100  0.16370300  0.08290100  1
  C  C10  1  0.28896700  0.45267100  0.91709900  1
  C  C11  1  0.45267100  0.16370300  0.41709900  1
  C  C12  1  0.71103300  0.54732900  0.08290100  1
  C  C13  1  0.54732900  0.83629700  0.58290100  1
  C  C14  1  0.16370300  0.71103300  0.91709900  1
  C  C15  1  0.71103300  0.54732900  0.41709900  1
  C  C16  1  0.83629700  0.28896700  0.08290100  1
  C  C17  1  0.28896700  0.45267100  0.58290100  1
  C  C18  1  0.83629700  0.28896700  0.41709900  1
  C  C19  1  0.16370300  0.71103300  0.58290100  1
  C  C20  1  0.50378200  0.62221900  0.75000000  1
  C  C21  1  0.49621800  0.37778100  0.25000000  1
  C  C22  1  0.11843800  0.49621800  0.75000000  1
  C  C23  1  0.88156200  0.50378200  0.25000000  1
  C  C24  1  0.37778100  0.88156200  0.75000000  1
  C  C25  1  0.62221900  0.11843800  0.25000000  1
  C  C26  1  0.54049500  0.83162300  0.75000000  1
  C  C27  1  0.45950500  0.16837700  0.25000000  1
  C  C28  1  0.29112900  0.45950500  0.75000000  1
  C  C29  1  0.70887100  0.54049500  0.25000000  1
  C  C30  1  0.16837700  0.70887100  0.75000000  1
  C  C31  1  0.83162300  0.29112900  0.25000000  1
  C  C32  1  0.92188800  0.33469300  0.75000000  1
  C  C33  1  0.07811200  0.66530700  0.25000000  1
  C  C34  1  0.41280400  0.07811200  0.75000000  1
  C  C35  1  0.58719600  0.92188800  0.25000000  1
  C  C36  1  0.66530700  0.58719600  0.75000000  1
  C  C37  1  0.33469300  0.41280400  0.25000000  1
  C  C38  1  0.74444600  0.99782800  0.91607200  1
  C  C39  1  0.25555400  0.00217200  0.08392800  1
  C  C40  1  0.25338100  0.25555400  0.91607200  1
  C  C41  1  0.25555400  0.00217200  0.41607200  1
  C  C42  1  0.74661900  0.74444600  0.08392800  1
  C  C43  1  0.74444600  0.99782800  0.58392800  1
  C  C44  1  0.00217200  0.74661900  0.91607200  1
  C  C45  1  0.74661900  0.74444600  0.41607200  1
  C  C46  1  0.99782800  0.25338100  0.08392800  1
  C  C47  1  0.25338100  0.25555400  0.58392800  1
  C  C48  1  0.99782800  0.25338100  0.41607200  1
  C  C49  1  0.00217200  0.74661900  0.58392800  1
  C  C50  1  0.49798400  0.62389800  0.91791200  1
  C  C51  1  0.50201600  0.37610200  0.08208800  1
  C  C52  1  0.12591400  0.50201600  0.91791200  1
  C  C53  1  0.50201600  0.37610200  0.41791200  1
  C  C54  1  0.87408600  0.49798400  0.08208800  1
  C  C55  1  0.49798400  0.62389800  0.58208800  1
  C  C56  1  0.37610200  0.87408600  0.91791200  1
  C  C57  1  0.87408600  0.49798400  0.41791200  1
  C  C58  1  0.62389800  0.12591400  0.08208800  1
  C  C59  1  0.12591400  0.50201600  0.58208800  1
  C  C60  1  0.62389800  0.12591400  0.41791200  1
  C  C61  1  0.37610200  0.87408600  0.58208800  1
