# generated using pymatgen
data_Cu2Ni6C19
_symmetry_space_group_name_H-M   'P 1'
_cell_length_a   6.03635900
_cell_length_b   8.04726200
_cell_length_c   18.64033603
_cell_angle_alpha   88.69241054
_cell_angle_beta   90.00000000
_cell_angle_gamma   90.00000000
_symmetry_Int_Tables_number   1
_chemical_formula_structural   Cu2Ni6C19
_chemical_formula_sum   'Cu4 Ni12 C38'
_cell_volume   905.24020002
_cell_formula_units_Z   2
loop_
 _symmetry_equiv_pos_site_id
 _symmetry_equiv_pos_as_xyz
  1  'x, y, z'
loop_
 _atom_site_type_symbol
 _atom_site_label
 _atom_site_symmetry_multiplicity
 _atom_site_fract_x
 _atom_site_fract_y
 _atom_site_fract_z
 _atom_site_occupancy
  Ni  Ni0  1  0.75606300  0.49884300  0.07861700  1
  Ni  Ni1  1  0.24393700  0.50115700  0.92138300  1
  Ni  Ni2  1  0.75606300  0.50115700  0.42138300  1
  Ni  Ni3  1  0.24393700  0.49884300  0.57861700  1
  Ni  Ni4  1  0.74608600  0.97248500  0.09006800  1
  Ni  Ni5  1  0.25391400  0.02751500  0.90993200  1
  Ni  Ni6  1  0.74608600  0.02751500  0.40993200  1
  Ni  Ni7  1  0.25391400  0.97248500  0.59006800  1
  Ni  Ni8  1  0.72443800  0.00000000  0.75000000  1
  Ni  Ni9  1  0.27556200  0.00000000  0.25000000  1
  Ni  Ni10  1  0.66687600  0.50000000  0.75000000  1
  Ni  Ni11  1  0.33312400  0.50000000  0.25000000  1
  Cu  Cu12  1  0.74705600  0.75254900  0.91011700  1
  Cu  Cu13  1  0.25294400  0.24745100  0.08988300  1
  Cu  Cu14  1  0.74705600  0.24745100  0.58988300  1
  Cu  Cu15  1  0.25294400  0.75254900  0.41011700  1
  C  C16  1  0.74824000  0.75452200  0.55856100  1
  C  C17  1  0.25176000  0.24547800  0.44143900  1
  C  C18  1  0.74824000  0.24547800  0.94143900  1
  C  C19  1  0.25176000  0.75452200  0.05856100  1
  C  C20  1  0.77406700  0.77002400  0.26627000  1
  C  C21  1  0.22593300  0.22997600  0.73373000  1
  C  C22  1  0.77406700  0.22997600  0.23373000  1
  C  C23  1  0.22593300  0.77002400  0.76627000  1
  C  C24  1  0.20235600  0.00000000  0.75000000  1
  C  C25  1  0.79764400  0.00000000  0.25000000  1
  C  C26  1  0.50836900  0.76654900  0.00126600  1
  C  C27  1  0.49163100  0.23345100  0.99873400  1
  C  C28  1  0.50836900  0.23345100  0.49873400  1
  C  C29  1  0.49163100  0.76654900  0.50126600  1
  C  C30  1  0.76362300  0.95360200  0.60858300  1
  C  C31  1  0.23637700  0.04639800  0.39141700  1
  C  C32  1  0.76362300  0.04639800  0.89141700  1
  C  C33  1  0.23637700  0.95360200  0.10858300  1
  C  C34  1  0.00984100  0.76551000  0.99345000  1
  C  C35  1  0.99015900  0.23449000  0.00655000  1
  C  C36  1  0.00984100  0.23449000  0.50655000  1
  C  C37  1  0.99015900  0.76551000  0.49345000  1
  C  C38  1  0.32900700  0.68889300  0.68212500  1
  C  C39  1  0.67099300  0.31110700  0.31787500  1
  C  C40  1  0.32900700  0.31110700  0.81787500  1
  C  C41  1  0.67099300  0.68889300  0.18212500  1
  C  C42  1  0.45058500  0.74954100  0.83639600  1
  C  C43  1  0.54941500  0.25045900  0.16360400  1
  C  C44  1  0.45058500  0.25045900  0.66360400  1
  C  C45  1  0.54941500  0.74954100  0.33639600  1
  C  C46  1  0.95623900  0.72378400  0.80966700  1
  C  C47  1  0.04376100  0.27621600  0.19033300  1
  C  C48  1  0.95623900  0.27621600  0.69033300  1
  C  C49  1  0.04376100  0.72378400  0.30966700  1
  C  C50  1  0.75606600  0.53257100  0.59108800  1
  C  C51  1  0.24393400  0.46742900  0.40891200  1
  C  C52  1  0.75606600  0.46742900  0.90891200  1
  C  C53  1  0.24393400  0.53257100  0.09108800  1
