# generated using pymatgen
data_Cu2Ni8C3
_symmetry_space_group_name_H-M   'P 1'
_cell_length_a   13.04109700
_cell_length_b   7.17838000
_cell_length_c   17.56307235
_cell_angle_alpha   66.58659882
_cell_angle_beta   90.00000000
_cell_angle_gamma   90.00000000
_symmetry_Int_Tables_number   1
_chemical_formula_structural   Cu2Ni8C3
_chemical_formula_sum   'Cu8 Ni32 C12'
_cell_volume   1508.77219209
_cell_formula_units_Z   4
loop_
 _symmetry_equiv_pos_site_id
 _symmetry_equiv_pos_as_xyz
  1  'x, y, z'
loop_
 _atom_site_type_symbol
 _atom_site_label
 _atom_site_symmetry_multiplicity
 _atom_site_fract_x
 _atom_site_fract_y
 _atom_site_fract_z
 _atom_site_occupancy
  C  C0  1  0.25571800  0.18121700  0.53324900  1
  C  C1  1  0.24428200  0.18121700  0.03324900  1
  C  C2  1  0.74428200  0.81878300  0.46675100  1
  C  C3  1  0.75571800  0.81878300  0.96675100  1
  C  C4  1  0.09020800  0.94115400  0.66287700  1
  C  C5  1  0.40979200  0.94115400  0.16287700  1
  C  C6  1  0.90979200  0.05884600  0.33712300  1
  C  C7  1  0.59020800  0.05884600  0.83712300  1
  C  C8  1  0.85421900  0.76507900  0.63207300  1
  C  C9  1  0.64578100  0.76507900  0.13207300  1
  C  C10  1  0.14578100  0.23492100  0.36792700  1
  C  C11  1  0.35421900  0.23492100  0.86792700  1
  Ni  Ni12  1  0.93409600  0.02695800  0.63058300  1
  Ni  Ni13  1  0.56590400  0.02695800  0.13058300  1
  Ni  Ni14  1  0.06590400  0.97304200  0.36941700  1
  Ni  Ni15  1  0.43409600  0.97304200  0.86941700  1
  Ni  Ni16  1  0.16171000  0.83689200  0.58794900  1
  Ni  Ni17  1  0.33829000  0.83689200  0.08794900  1
  Ni  Ni18  1  0.83829000  0.16310800  0.41205100  1
  Ni  Ni19  1  0.66171000  0.16310800  0.91205100  1
  Ni  Ni20  1  0.15930700  0.20022200  0.65337300  1
  Ni  Ni21  1  0.34069300  0.20022200  0.15337300  1
  Ni  Ni22  1  0.84069300  0.79977800  0.34662700  1
  Ni  Ni23  1  0.65930700  0.79977800  0.84662700  1
  Ni  Ni24  1  0.08393800  0.73319400  0.78922100  1
  Ni  Ni25  1  0.41606200  0.73319400  0.28922100  1
  Ni  Ni26  1  0.91606200  0.26680600  0.21077900  1
  Ni  Ni27  1  0.58393800  0.26680600  0.71077900  1
  Ni  Ni28  1  0.01176300  0.50179400  0.76852700  1
  Ni  Ni29  1  0.48823700  0.50179400  0.26852700  1
  Ni  Ni30  1  0.98823700  0.49820600  0.23147300  1
  Ni  Ni31  1  0.51176300  0.49820600  0.73147300  1
  Ni  Ni32  1  0.85613400  0.55784700  0.75868800  1
  Ni  Ni33  1  0.64386600  0.55784700  0.25868800  1
  Ni  Ni34  1  0.14386600  0.44215300  0.24131200  1
  Ni  Ni35  1  0.35613400  0.44215300  0.74131200  1
  Ni  Ni36  1  0.71187400  0.87463100  0.59684100  1
  Ni  Ni37  1  0.78812600  0.87463100  0.09684100  1
  Ni  Ni38  1  0.28812600  0.12536900  0.40315900  1
  Ni  Ni39  1  0.21187400  0.12536900  0.90315900  1
  Ni  Ni40  1  0.90432700  0.64890100  0.55344500  1
  Ni  Ni41  1  0.59567300  0.64890100  0.05344500  1
  Ni  Ni42  1  0.09567300  0.35109900  0.44655500  1
  Ni  Ni43  1  0.40432700  0.35109900  0.94655500  1
  Cu  Cu44  1  0.40411600  0.01510200  0.57694100  1
  Cu  Cu45  1  0.09588400  0.01510200  0.07694100  1
  Cu  Cu46  1  0.59588400  0.98489800  0.42305900  1
  Cu  Cu47  1  0.90411600  0.98489800  0.92305900  1
  Cu  Cu48  1  0.31785300  0.48763500  0.51626600  1
  Cu  Cu49  1  0.18214700  0.48763500  0.01626600  1
  Cu  Cu50  1  0.68214700  0.51236500  0.48373400  1
  Cu  Cu51  1  0.81785300  0.51236500  0.98373400  1
