# generated using pymatgen
data_Cu(Ni3C13)2
_symmetry_space_group_name_H-M   'P 1'
_cell_length_a   9.39426315
_cell_length_b   9.39426285
_cell_length_c   25.62449177
_cell_angle_alpha   90.00000000
_cell_angle_beta   90.00000000
_cell_angle_gamma   119.91291229
_symmetry_Int_Tables_number   1
_chemical_formula_structural   Cu(Ni3C13)2
_chemical_formula_sum   'Cu4 Ni24 C104'
_cell_volume   1960.16111415
_cell_formula_units_Z   4
loop_
 _symmetry_equiv_pos_site_id
 _symmetry_equiv_pos_as_xyz
  1  'x, y, z'
loop_
 _atom_site_type_symbol
 _atom_site_label
 _atom_site_symmetry_multiplicity
 _atom_site_fract_x
 _atom_site_fract_y
 _atom_site_fract_z
 _atom_site_occupancy
  C  C0  1  0.00128088  0.00096817  0.89035898  1
  C  C1  1  0.00128088  0.00096817  0.60964102  1
  C  C2  1  0.99903183  0.99871912  0.39035898  1
  C  C3  1  0.99903183  0.99871912  0.10964102  1
  C  C4  1  0.87258699  0.74148984  0.00056069  1
  C  C5  1  0.25851016  0.12741301  0.99943931  1
  C  C6  1  0.86985416  0.13014584  0.00000000  1
  C  C7  1  0.87258699  0.74148984  0.49943931  1
  C  C8  1  0.25851016  0.12741301  0.50056069  1
  C  C9  1  0.86985416  0.13014584  0.50000000  1
  C  C10  1  0.94972484  0.61862699  0.75000000  1
  C  C11  1  0.37923435  0.32589151  0.75000000  1
  C  C12  1  0.66915175  0.05202456  0.75000000  1
  C  C13  1  0.38137301  0.05027516  0.25000000  1
  C  C14  1  0.67410849  0.62076565  0.25000000  1
  C  C15  1  0.94797544  0.33084825  0.25000000  1
  C  C16  1  0.33347262  0.66679744  0.89712471  1
  C  C17  1  0.33347262  0.66679744  0.60287529  1
  C  C18  1  0.33320256  0.66652738  0.39712471  1
  C  C19  1  0.33320256  0.66652738  0.10287529  1
  Ni  Ni20  1  0.12235334  0.78982456  0.92268108  1
  Ni  Ni21  1  0.21062720  0.33288737  0.92287424  1
  Ni  Ni22  1  0.66783401  0.87881433  0.92261703  1
  Ni  Ni23  1  0.12235334  0.78982456  0.57731892  1
  Ni  Ni24  1  0.21062720  0.33288737  0.57712576  1
  Ni  Ni25  1  0.66783401  0.87881433  0.57738297  1
  Ni  Ni26  1  0.21017544  0.87764666  0.42268108  1
  Ni  Ni27  1  0.66711263  0.78937280  0.42287424  1
  Ni  Ni28  1  0.12118567  0.33216599  0.42261703  1
  Ni  Ni29  1  0.21017544  0.87764666  0.07731892  1
  Ni  Ni30  1  0.66711263  0.78937280  0.07712576  1
  Ni  Ni31  1  0.12118567  0.33216599  0.07738297  1
  Ni  Ni32  1  0.21625903  0.88447938  0.87243725  1
  Ni  Ni33  1  0.11609754  0.33175445  0.87257982  1
  Ni  Ni34  1  0.66797363  0.78340323  0.87262000  1
  Ni  Ni35  1  0.21625903  0.88447938  0.62756275  1
  Ni  Ni36  1  0.11609754  0.33175445  0.62742018  1
  Ni  Ni37  1  0.66797363  0.78340323  0.62738000  1
  Ni  Ni38  1  0.11552062  0.78374097  0.37243725  1
  Ni  Ni39  1  0.66824555  0.88390246  0.37257982  1
  Ni  Ni40  1  0.21659677  0.33202637  0.37262000  1
  Ni  Ni41  1  0.11552062  0.78374097  0.12756275  1
  Ni  Ni42  1  0.66824555  0.88390246  0.12742018  1
  Ni  Ni43  1  0.21659677  0.33202637  0.12738000  1
  Cu  Cu44  1  0.66644486  0.33269762  0.85546024  1
  Cu  Cu45  1  0.66644486  0.33269762  0.64453976  1
  Cu  Cu46  1  0.66730238  0.33355514  0.35546024  1
  Cu  Cu47  1  0.66730238  0.33355514  0.14453976  1
  C  C48  1  0.16162660  0.68762796  0.94045537  1
  C  C49  1  0.31155948  0.47410462  0.94090253  1
  C  C50  1  0.52667961  0.83976013  0.94056907  1
  C  C51  1  0.16162660  0.68762796  0.55954463  1
  C  C52  1  0.31155948  0.47410462  0.55909747  1
  C  C53  1  0.52667961  0.83976013  0.55943093  1
  C  C54  1  0.31237204  0.83837340  0.44045537  1
  C  C55  1  0.52589538  0.68844052  0.44090253  1
  C  C56  1  0.16023987  0.47332038  0.44056907  1
  C  C57  1  0.31237204  0.83837340  0.05954463  1
  C  C58  1  0.52589538  0.68844052  0.05909747  1
  C  C59  1  0.16023987  0.47332038  0.05943093  1
  C  C60  1  0.02035301  0.82320913  0.94312824  1
  C  C61  1  0.17833844  0.19755477  0.94304073  1
  C  C62  1  0.80340578  0.98169264  0.94261838  1
  C  C63  1  0.02035301  0.82320913  0.55687176  1
  C  C64  1  0.17833844  0.19755477  0.55695927  1
  C  C65  1  0.80340578  0.98169264  0.55738162  1
  C  C66  1  0.17679087  0.97964699  0.44312824  1
  C  C67  1  0.80244523  0.82166056  0.44304073  1
  C  C68  1  0.01830736  0.19659422  0.44261838  1
  C  C69  1  0.17679087  0.97964699  0.05687176  1
  C  C70  1  0.80244523  0.82166056  0.05695927  1
  C  C71  1  0.01830736  0.19659422  0.05738162  1
  C  C72  1  0.18720377  0.98903154  0.85349806  1
  C  C73  1  0.01290519  0.19798934  0.85352336  1
  C  C74  1  0.80097008  0.81215826  0.85334806  1
  C  C75  1  0.18720377  0.98903154  0.64650194  1
  C  C76  1  0.01290519  0.19798934  0.64647664  1
  C  C77  1  0.80097008  0.81215826  0.64665194  1
  C  C78  1  0.01096846  0.81279623  0.35349806  1
  C  C79  1  0.80201066  0.98709481  0.35352336  1
  C  C80  1  0.18784174  0.19902992  0.35334806  1
  C  C81  1  0.01096846  0.81279623  0.14650194  1
  C  C82  1  0.80201066  0.98709481  0.14647664  1
  C  C83  1  0.18784174  0.19902992  0.14665194  1
  C  C84  1  0.32040334  0.84356807  0.85582668  1
  C  C85  1  0.15547463  0.47631093  0.85600276  1
  C  C86  1  0.52288959  0.67820351  0.85648145  1
  C  C87  1  0.32040334  0.84356807  0.64417332  1
  C  C88  1  0.15547463  0.47631093  0.64399724  1
  C  C89  1  0.52288959  0.67820351  0.64351855  1
  C  C90  1  0.15643193  0.67959666  0.35582668  1
  C  C91  1  0.52368907  0.84452537  0.35600276  1
  C  C92  1  0.32179649  0.47711041  0.35648145  1
  C  C93  1  0.15643193  0.67959666  0.14417332  1
  C  C94  1  0.52368907  0.84452537  0.14399724  1
  C  C95  1  0.32179649  0.47711041  0.14351855  1
  C  C96  1  0.60217211  0.48452923  0.98208022  1
  C  C97  1  0.51541533  0.11716891  0.98164194  1
  C  C98  1  0.88365749  0.39857710  0.98238524  1
  C  C99  1  0.60217211  0.48452923  0.51791978  1
  C  C100  1  0.51541533  0.11716891  0.51835806  1
  C  C101  1  0.88365749  0.39857710  0.51761476  1
  C  C102  1  0.51547077  0.39782789  0.48208022  1
  C  C103  1  0.88283109  0.48458467  0.48164194  1
  C  C104  1  0.60142290  0.11634251  0.48238524  1
  C  C105  1  0.51547077  0.39782789  0.01791978  1
  C  C106  1  0.88283109  0.48458467  0.01835806  1
  C  C107  1  0.60142290  0.11634251  0.01761476  1
  C  C108  1  0.90077917  0.58210225  0.82565232  1
  C  C109  1  0.41866703  0.31970564  0.82572221  1
  C  C110  1  0.68013153  0.09865347  0.82570035  1
  C  C111  1  0.90077917  0.58210225  0.67434768  1
  C  C112  1  0.41866703  0.31970564  0.67427779  1
  C  C113  1  0.68013153  0.09865347  0.67429965  1
  C  C114  1  0.41789775  0.09922083  0.32565232  1
  C  C115  1  0.68029436  0.58133297  0.32572221  1
  C  C116  1  0.90134653  0.31986847  0.32570035  1
  C  C117  1  0.41789775  0.09922083  0.17434768  1
  C  C118  1  0.68029436  0.58133297  0.17427779  1
  C  C119  1  0.90134653  0.31986847  0.17429965  1
  C  C120  1  0.19160277  0.86984267  0.75000000  1
  C  C121  1  0.13141562  0.32578798  0.75000000  1
  C  C122  1  0.67804578  0.81188769  0.75000000  1
  C  C123  1  0.13015733  0.80839723  0.25000000  1
  C  C124  1  0.67421202  0.86858438  0.25000000  1
  C  C125  1  0.18811231  0.32195422  0.25000000  1
  C  C126  1  0.12141962  0.45139570  0.75000000  1
  C  C127  1  0.55398846  0.67505654  0.75000000  1
  C  C128  1  0.32422547  0.87305411  0.75000000  1
  C  C129  1  0.54860430  0.87858038  0.25000000  1
  C  C130  1  0.32494346  0.44601154  0.25000000  1
  C  C131  1  0.12694589  0.67577453  0.25000000  1
