# generated using pymatgen
data_Cu2Ni7C11
_symmetry_space_group_name_H-M   'P 1'
_cell_length_a   7.63873544
_cell_length_b   8.03440375
_cell_length_c   8.71856704
_cell_angle_alpha   68.04633817
_cell_angle_beta   90.83163175
_cell_angle_gamma   66.95110629
_symmetry_Int_Tables_number   1
_chemical_formula_structural   Cu2Ni7C11
_chemical_formula_sum   'Cu4 Ni14 C22'
_cell_volume   448.47601233
_cell_formula_units_Z   2
loop_
 _symmetry_equiv_pos_site_id
 _symmetry_equiv_pos_as_xyz
  1  'x, y, z'
loop_
 _atom_site_type_symbol
 _atom_site_label
 _atom_site_symmetry_multiplicity
 _atom_site_fract_x
 _atom_site_fract_y
 _atom_site_fract_z
 _atom_site_occupancy
  C  C0  1  0.80815900  0.14665900  0.34184700  1
  C  C1  1  0.19184100  0.85334100  0.65815300  1
  Ni  Ni2  1  0.92997000  0.75053300  0.53998700  1
  Ni  Ni3  1  0.07003000  0.24946700  0.46001300  1
  Ni  Ni4  1  0.85507200  0.51469900  0.17895100  1
  Ni  Ni5  1  0.14492800  0.48530100  0.82104900  1
  Ni  Ni6  1  0.65806800  0.54160400  0.08753300  1
  Ni  Ni7  1  0.34193200  0.45839600  0.91246700  1
  Ni  Ni8  1  0.06705600  0.94540000  0.17543400  1
  Ni  Ni9  1  0.93294400  0.05460000  0.82456600  1
  Ni  Ni10  1  0.98446100  0.17649500  0.04965000  1
  Ni  Ni11  1  0.01553900  0.82350500  0.95035000  1
  Ni  Ni12  1  0.46786300  0.30571500  0.47522600  1
  Ni  Ni13  1  0.53213700  0.69428500  0.52477400  1
  Ni  Ni14  1  0.65396900  0.28415700  0.58400800  1
  Ni  Ni15  1  0.34603100  0.71584300  0.41599200  1
  Cu  Cu16  1  0.51146200  0.12403600  0.18651000  1
  Cu  Cu17  1  0.48853800  0.87596400  0.81349000  1
  Cu  Cu18  1  0.15309100  0.58226400  0.26241000  1
  Cu  Cu19  1  0.84690900  0.41773600  0.73759000  1
  C  C20  1  0.97935200  0.85184600  0.51078500  1
  C  C21  1  0.02064800  0.14815400  0.48921500  1
  C  C22  1  0.63788000  0.97993800  0.31468600  1
  C  C23  1  0.36212000  0.02006200  0.68531400  1
  C  C24  1  0.53054900  0.28939300  0.13857100  1
  C  C25  1  0.46945100  0.71060700  0.86142900  1
  C  C26  1  0.38325900  0.10987600  0.11364100  1
  C  C27  1  0.61674100  0.89012400  0.88635900  1
  C  C28  1  0.76200600  0.45480000  0.18692300  1
  C  C29  1  0.23799400  0.54520000  0.81307700  1
  C  C30  1  0.96823800  0.08066900  0.15298900  1
  C  C31  1  0.03176200  0.91933100  0.84701100  1
  C  C32  1  0.61082600  0.24995800  0.49672800  1
  C  C33  1  0.38917400  0.75004200  0.50327200  1
  C  C34  1  0.21215200  0.41752100  0.38833800  1
  C  C35  1  0.78784800  0.58247900  0.61166200  1
  C  C36  1  0.01471500  0.63372500  0.14710600  1
  C  C37  1  0.98528500  0.36627500  0.85289400  1
  C  C38  1  0.23217400  0.69903100  0.24842900  1
  C  C39  1  0.76782600  0.30096900  0.75157100  1
