# generated using pymatgen
data_Cu26Ni13C6
_symmetry_space_group_name_H-M   'P 1'
_cell_length_a   4.30677400
_cell_length_b   17.52840600
_cell_length_c   18.81196552
_cell_angle_alpha   89.44501130
_cell_angle_beta   90.00000000
_cell_angle_gamma   90.00000000
_symmetry_Int_Tables_number   1
_chemical_formula_structural   Cu26Ni13C6
_chemical_formula_sum   'Cu26 Ni13 C6'
_cell_volume   1420.06527004
_cell_formula_units_Z   1
loop_
 _symmetry_equiv_pos_site_id
 _symmetry_equiv_pos_as_xyz
  1  'x, y, z'
loop_
 _atom_site_type_symbol
 _atom_site_label
 _atom_site_symmetry_multiplicity
 _atom_site_fract_x
 _atom_site_fract_y
 _atom_site_fract_z
 _atom_site_occupancy
  C  C0  1  0.00000000  0.74767500  0.26524800  1
  C  C1  1  0.50000000  0.24486000  0.73192300  1
  C  C2  1  0.00000000  0.26534000  0.17320000  1
  C  C3  1  0.50000000  0.74040000  0.82101600  1
  C  C4  1  0.00000000  0.48213500  0.34409700  1
  C  C5  1  0.50000000  0.51792300  0.65678300  1
  Ni  Ni6  1  0.00000000  0.07889600  0.58586900  1
  Ni  Ni7  1  0.50000000  0.92051500  0.43221400  1
  Ni  Ni8  1  0.00000000  0.32615400  0.52543500  1
  Ni  Ni9  1  0.50000000  0.67468000  0.47745600  1
  Ni  Ni10  1  0.00000000  0.09866000  0.97393700  1
  Ni  Ni11  1  0.50000000  0.90240100  0.02199000  1
  Ni  Ni12  1  0.00000000  0.68976300  0.04409800  1
  Ni  Ni13  1  0.50000000  0.30992600  0.95715300  1
  Ni  Ni14  1  0.00000000  0.51036000  0.88246900  1
  Ni  Ni15  1  0.50000000  0.48995600  0.11654600  1
  Ni  Ni16  1  0.00000000  0.83070800  0.62717200  1
  Ni  Ni17  1  0.50000000  0.17140300  0.38606500  1
  Ni  Ni18  1  0.00000000  0.01087700  0.25122300  1
  Cu  Cu19  1  0.00000000  0.27428800  0.36018000  1
  Cu  Cu20  1  0.50000000  0.72243900  0.63483000  1
  Cu  Cu21  1  0.00000000  0.39563600  0.03480900  1
  Cu  Cu22  1  0.50000000  0.60515800  0.96560000  1
  Cu  Cu23  1  0.00000000  0.60654800  0.76637800  1
  Cu  Cu24  1  0.50000000  0.39341000  0.23331400  1
  Cu  Cu25  1  0.00000000  0.57798800  0.17363000  1
  Cu  Cu26  1  0.50000000  0.42125800  0.82585500  1
  Cu  Cu27  1  0.00000000  0.86810200  0.76306900  1
  Cu  Cu28  1  0.50000000  0.12975100  0.23938500  1
  Cu  Cu29  1  0.00000000  0.98431600  0.09408700  1
  Cu  Cu30  1  0.50000000  0.01444200  0.90787500  1
  Cu  Cu31  1  0.00000000  0.10462700  0.72238400  1
  Cu  Cu32  1  0.50000000  0.89879600  0.27526300  1
  Cu  Cu33  1  0.00000000  0.03952800  0.40562900  1
  Cu  Cu34  1  0.50000000  0.95838100  0.58357400  1
  Cu  Cu35  1  0.00000000  0.80573400  0.44072400  1
  Cu  Cu36  1  0.50000000  0.19673200  0.54939700  1
  Cu  Cu37  1  0.00000000  0.81366600  0.94533400  1
  Cu  Cu38  1  0.50000000  0.18993100  0.05699600  1
  Cu  Cu39  1  0.00000000  0.37367300  0.66499700  1
  Cu  Cu40  1  0.50000000  0.62719900  0.33524100  1
  Cu  Cu41  1  0.00000000  0.57346500  0.51161600  1
  Cu  Cu42  1  0.50000000  0.42691100  0.48605300  1
  Cu  Cu43  1  0.00000000  0.23299900  0.87664500  1
  Cu  Cu44  1  0.50000000  0.76408800  0.12494200  1
