# generated using pymatgen
data_CuNiC8
_symmetry_space_group_name_H-M   'P 1'
_cell_length_a   7.87418300
_cell_length_b   7.87411400
_cell_length_c   10.06365861
_cell_angle_alpha   66.97119008
_cell_angle_beta   66.97106256
_cell_angle_gamma   89.99930144
_symmetry_Int_Tables_number   1
_chemical_formula_structural   CuNiC8
_chemical_formula_sum   'Cu4 Ni4 C32'
_cell_volume   519.78415740
_cell_formula_units_Z   4
loop_
 _symmetry_equiv_pos_site_id
 _symmetry_equiv_pos_as_xyz
  1  'x, y, z'
loop_
 _atom_site_type_symbol
 _atom_site_label
 _atom_site_symmetry_multiplicity
 _atom_site_fract_x
 _atom_site_fract_y
 _atom_site_fract_z
 _atom_site_occupancy
  C  C0  1  0.12502700  0.12495900  0.24999200  1
  C  C1  1  0.87490500  0.37498300  0.75000800  1
  C  C2  1  0.37508300  0.87502100  0.75000800  1
  C  C3  1  0.62495700  0.62510600  0.24998500  1
  C  C4  1  0.37507300  0.37501900  0.74999600  1
  C  C5  1  0.12504900  0.62508700  0.24999700  1
  C  C6  1  0.62496500  0.12494600  0.24997900  1
  C  C7  1  0.87489000  0.87502700  0.75002000  1
  Ni  Ni8  1  0.49991500  0.49986200  0.00025200  1
  Ni  Ni9  1  0.24971400  0.74955200  0.50067500  1
  Ni  Ni10  1  0.75041600  0.25029900  0.49928500  1
  Ni  Ni11  1  0.00005900  0.00005200  0.99979100  1
  Cu  Cu12  1  0.24995800  0.24979200  0.50020900  1
  Cu  Cu13  1  0.00008400  0.50001600  0.99989200  1
  Cu  Cu14  1  0.49996800  0.00004200  0.99994400  1
  Cu  Cu15  1  0.75002400  0.74997700  0.49998900  1
  C  C16  1  0.24955000  0.49632300  0.50091900  1
  C  C17  1  0.00016200  0.74706500  0.99967700  1
  C  C18  1  0.49987000  0.24668000  0.00023800  1
  C  C19  1  0.75039500  0.99719300  0.49918500  1
  C  C20  1  0.11843600  0.11844800  0.76310200  1
  C  C21  1  0.86862200  0.36867700  0.26265700  1
  C  C22  1  0.36794700  0.86800900  0.26402300  1
  C  C23  1  0.61817200  0.61822100  0.76357600  1
  C  C24  1  0.00362100  0.25041200  0.49911100  1
  C  C25  1  0.75294400  0.49987600  0.00032300  1
  C  C26  1  0.25332700  0.00018800  0.99973300  1
  C  C27  1  0.50281700  0.74960400  0.50082600  1
  C  C28  1  0.24955000  0.00260800  0.50090200  1
  C  C29  1  0.00016100  0.25325800  0.99966500  1
  C  C30  1  0.49987500  0.75316500  0.00022100  1
  C  C31  1  0.75038700  0.50356100  0.49917900  1
  C  C32  1  0.38154400  0.38159100  0.23689700  1
  C  C33  1  0.13132500  0.63138400  0.73733700  1
  C  C34  1  0.63200300  0.13206400  0.73597800  1
  C  C35  1  0.88181300  0.88183300  0.23641600  1
  C  C36  1  0.49731200  0.25041400  0.49912500  1
  C  C37  1  0.24674200  0.49987600  0.00033200  1
  C  C38  1  0.74688700  0.00018700  0.99973700  1
  C  C39  1  0.99645000  0.74962100  0.50081700  1
