# generated using pymatgen
data_CuNiC3
_symmetry_space_group_name_H-M   'P 1'
_cell_length_a   5.85338890
_cell_length_b   5.85338890
_cell_length_c   7.07003900
_cell_angle_alpha   90.00000000
_cell_angle_beta   90.00000000
_cell_angle_gamma   142.14645609
_symmetry_Int_Tables_number   1
_chemical_formula_structural   CuNiC3
_chemical_formula_sum   'Cu2 Ni2 C6'
_cell_volume   148.64623356
_cell_formula_units_Z   2
loop_
 _symmetry_equiv_pos_site_id
 _symmetry_equiv_pos_as_xyz
  1  'x, y, z'
loop_
 _atom_site_type_symbol
 _atom_site_label
 _atom_site_symmetry_multiplicity
 _atom_site_fract_x
 _atom_site_fract_y
 _atom_site_fract_z
 _atom_site_occupancy
  C  C0  1  0.54437700  0.45562300  0.25000000  1
  C  C1  1  0.45562300  0.54437700  0.75000000  1
  Ni  Ni2  1  0.26804200  0.73195800  0.25000000  1
  Ni  Ni3  1  0.73195800  0.26804200  0.75000000  1
  C  C4  1  0.83471800  0.16528200  0.05310200  1
  C  C5  1  0.16528200  0.83471800  0.94689800  1
  C  C6  1  0.16528200  0.83471800  0.55310200  1
  C  C7  1  0.83471800  0.16528200  0.44689800  1
  Cu  Cu8  1  0.00000000  0.00000000  0.00000000  1
  Cu  Cu9  1  0.00000000  0.00000000  0.50000000  1
