# generated using pymatgen
data_CuNi6C
_symmetry_space_group_name_H-M   'P 1'
_cell_length_a   5.36230300
_cell_length_b   6.79087200
_cell_length_c   11.86476300
_cell_angle_alpha   90.00000000
_cell_angle_beta   90.00000000
_cell_angle_gamma   90.00000000
_symmetry_Int_Tables_number   1
_chemical_formula_structural   CuNi6C
_chemical_formula_sum   'Cu2 Ni12 C2'
_cell_volume   432.05194300
_cell_formula_units_Z   2
loop_
 _symmetry_equiv_pos_site_id
 _symmetry_equiv_pos_as_xyz
  1  'x, y, z'
loop_
 _atom_site_type_symbol
 _atom_site_label
 _atom_site_symmetry_multiplicity
 _atom_site_fract_x
 _atom_site_fract_y
 _atom_site_fract_z
 _atom_site_occupancy
  C  C0  1  0.50000000  0.50000000  0.66581600  1
  C  C1  1  0.50000000  0.00000000  0.16581600  1
  Ni  Ni2  1  0.50000000  0.74668400  0.91734900  1
  Ni  Ni3  1  0.50000000  0.25331600  0.91734900  1
  Ni  Ni4  1  0.00000000  0.22186400  0.57875100  1
  Ni  Ni5  1  0.00000000  0.77813600  0.57875100  1
  Ni  Ni6  1  0.00000000  0.50000000  0.84847800  1
  Ni  Ni7  1  0.00000000  0.00000000  0.82849300  1
  Ni  Ni8  1  0.50000000  0.24668400  0.41734900  1
  Ni  Ni9  1  0.50000000  0.75331600  0.41734900  1
  Ni  Ni10  1  0.00000000  0.72186400  0.07875100  1
  Ni  Ni11  1  0.00000000  0.27813600  0.07875100  1
  Ni  Ni12  1  0.00000000  0.00000000  0.34847800  1
  Ni  Ni13  1  0.00000000  0.50000000  0.32849300  1
  Cu  Cu14  1  0.50000000  0.00000000  0.66500900  1
  Cu  Cu15  1  0.50000000  0.50000000  0.16500900  1
