# generated using pymatgen
data_Cu5Ni2C25
_symmetry_space_group_name_H-M   'P 1'
_cell_length_a   5.00401900
_cell_length_b   5.92128982
_cell_length_c   10.17707059
_cell_angle_alpha   105.10694322
_cell_angle_beta   100.10820873
_cell_angle_gamma   91.24587446
_symmetry_Int_Tables_number   1
_chemical_formula_structural   Cu5Ni2C25
_chemical_formula_sum   'Cu5 Ni2 C25'
_cell_volume   285.88567365
_cell_formula_units_Z   1
loop_
 _symmetry_equiv_pos_site_id
 _symmetry_equiv_pos_as_xyz
  1  'x, y, z'
loop_
 _atom_site_type_symbol
 _atom_site_label
 _atom_site_symmetry_multiplicity
 _atom_site_fract_x
 _atom_site_fract_y
 _atom_site_fract_z
 _atom_site_occupancy
  C  C0  1  0.25820600  0.87664500  0.74761900  1
  C  C1  1  0.25270600  0.38675900  0.25452900  1
  C  C2  1  0.74467400  0.62214300  0.74439100  1
  C  C3  1  0.74030700  0.12750600  0.25332800  1
  C  C4  1  0.24972600  0.36951000  0.74872300  1
  C  C5  1  0.25470300  0.86941600  0.25707300  1
  C  C6  1  0.74675400  0.12500500  0.74566700  1
  C  C7  1  0.75065600  0.62378400  0.24961500  1
  C  C8  1  0.50091700  0.75064500  0.49882300  1
  Ni  Ni9  1  0.99897200  0.99962500  0.99924300  1
  Ni  Ni10  1  0.00070000  0.50241200  0.49940500  1
  Cu  Cu11  1  0.50038700  0.74701700  0.99931000  1
  Cu  Cu12  1  0.50083100  0.25258600  0.50104900  1
  Cu  Cu13  1  0.00067600  0.50010500  0.00073500  1
  Cu  Cu14  1  0.00599600  0.99411200  0.49883800  1
  Cu  Cu15  1  0.49846900  0.25236000  0.00053600  1
  C  C16  1  0.13602500  0.17550600  0.88183800  1
  C  C17  1  0.10673800  0.67746300  0.38128700  1
  C  C18  1  0.63759200  0.94023100  0.87997100  1
  C  C19  1  0.63602900  0.42813700  0.39037300  1
  C  C20  1  0.13957700  0.66800800  0.88475600  1
  C  C21  1  0.12942900  0.20032600  0.39344000  1
  C  C22  1  0.64439200  0.44519200  0.88722300  1
  C  C23  1  0.63231300  0.97779100  0.39797900  1
  C  C24  1  0.36651200  0.52942100  0.60720800  1
  C  C25  1  0.36069900  0.05753800  0.11581600  1
  C  C26  1  0.85834800  0.32118200  0.61355900  1
  C  C27  1  0.86003100  0.82529500  0.11762900  1
  C  C28  1  0.36177800  0.07563500  0.60988200  1
  C  C29  1  0.35772600  0.55503900  0.11603700  1
  C  C30  1  0.90588700  0.79389400  0.60926600  1
  C  C31  1  0.86224400  0.32971400  0.11485100  1
