# generated using pymatgen
data_Cu6Ni2C7
_symmetry_space_group_name_H-M   'P 1'
_cell_length_a   6.09508609
_cell_length_b   6.89509200
_cell_length_c   6.74489825
_cell_angle_alpha   120.73938632
_cell_angle_beta   110.59238497
_cell_angle_gamma   90.00000000
_symmetry_Int_Tables_number   1
_chemical_formula_structural   Cu6Ni2C7
_chemical_formula_sum   'Cu6 Ni2 C7'
_cell_volume   222.30333844
_cell_formula_units_Z   1
loop_
 _symmetry_equiv_pos_site_id
 _symmetry_equiv_pos_as_xyz
  1  'x, y, z'
loop_
 _atom_site_type_symbol
 _atom_site_label
 _atom_site_symmetry_multiplicity
 _atom_site_fract_x
 _atom_site_fract_y
 _atom_site_fract_z
 _atom_site_occupancy
  C  C0  1  0.71919200  0.37252200  0.74504300  1
  Ni  Ni1  1  0.45383500  0.64891000  0.29781900  1
  Ni  Ni2  1  0.99090000  0.09986400  0.19972900  1
  Cu  Cu3  1  0.44620100  0.42029300  0.18050800  1
  Cu  Cu4  1  0.44620100  0.76021600  0.18050800  1
  Cu  Cu5  1  0.99164900  0.98429800  0.96859600  1
  Cu  Cu6  1  0.99200000  0.32725300  0.31427800  1
  Cu  Cu7  1  0.99200000  0.98702500  0.31427800  1
  Cu  Cu8  1  0.46600900  0.76718300  0.53436600  1
  C  C9  1  0.90193300  0.54310700  0.08621400  1
  C  C10  1  0.53440100  0.20201200  0.40402500  1
  C  C11  1  0.52353000  0.58068900  0.78325000  1
  C  C12  1  0.52353000  0.20256100  0.78325000  1
  C  C13  1  0.91505900  0.54148500  0.70606800  1
  C  C14  1  0.91505900  0.16458300  0.70606800  1
