# generated using pymatgen
data_Cu5NiC20
_symmetry_space_group_name_H-M   'P 1'
_cell_length_a   9.84248646
_cell_length_b   10.04340180
_cell_length_c   20.02688384
_cell_angle_alpha   90.00000000
_cell_angle_beta   90.00000000
_cell_angle_gamma   90.00000000
_symmetry_Int_Tables_number   1
_chemical_formula_structural   Cu5NiC20
_chemical_formula_sum   'Cu40 Ni8 C160'
_cell_volume   1979.69844717
_cell_formula_units_Z   8
loop_
 _symmetry_equiv_pos_site_id
 _symmetry_equiv_pos_as_xyz
  1  'x, y, z'
loop_
 _atom_site_type_symbol
 _atom_site_label
 _atom_site_symmetry_multiplicity
 _atom_site_fract_x
 _atom_site_fract_y
 _atom_site_fract_z
 _atom_site_occupancy
  C  C0  1  0.40381241  0.96184309  0.92462495  1
  C  C1  1  0.09618759  0.46184309  0.07537505  1
  C  C2  1  0.90381241  0.03815691  0.57537505  1
  C  C3  1  0.59618759  0.53815691  0.42462495  1
  C  C4  1  0.59618759  0.03815691  0.07537505  1
  C  C5  1  0.90381241  0.53815691  0.92462495  1
  C  C6  1  0.09618759  0.96184309  0.42462495  1
  C  C7  1  0.40381241  0.46184309  0.57537505  1
  C  C8  1  0.26957657  0.73753503  0.99791147  1
  C  C9  1  0.23042343  0.23753503  0.00208853  1
  C  C10  1  0.76957657  0.26246497  0.50208853  1
  C  C11  1  0.73042343  0.76246497  0.49791147  1
  C  C12  1  0.73042343  0.26246497  0.00208853  1
  C  C13  1  0.76957657  0.76246497  0.99791147  1
  C  C14  1  0.23042343  0.73753503  0.49791147  1
  C  C15  1  0.26957657  0.23753503  0.50208853  1
  C  C16  1  0.18942730  0.76067531  0.93087020  1
  C  C17  1  0.31057270  0.26067531  0.06912980  1
  C  C18  1  0.68942730  0.23932469  0.56912980  1
  C  C19  1  0.81057270  0.73932469  0.43087020  1
  C  C20  1  0.81057270  0.23932469  0.06912980  1
  C  C21  1  0.68942730  0.73932469  0.93087020  1
  C  C22  1  0.31057270  0.76067531  0.43087020  1
  C  C23  1  0.18942730  0.26067531  0.56912980  1
  C  C24  1  0.36693382  0.58546298  0.75822721  1
  C  C25  1  0.13306618  0.08546298  0.24177279  1
  C  C26  1  0.86693382  0.41453702  0.74177279  1
  C  C27  1  0.63306618  0.91453702  0.25822721  1
  C  C28  1  0.63306618  0.41453702  0.24177279  1
  C  C29  1  0.86693382  0.91453702  0.75822721  1
  C  C30  1  0.13306618  0.58546298  0.25822721  1
  C  C31  1  0.36693382  0.08546298  0.74177279  1
  C  C32  1  0.29560281  0.62738968  0.83881120  1
  C  C33  1  0.20439719  0.12738968  0.16118880  1
  C  C34  1  0.79560281  0.37261032  0.66118880  1
  C  C35  1  0.70439719  0.87261032  0.33881120  1
  C  C36  1  0.70439719  0.37261032  0.16118880  1
  C  C37  1  0.79560281  0.87261032  0.83881120  1
  C  C38  1  0.20439719  0.62738968  0.33881120  1
  C  C39  1  0.29560281  0.12738968  0.66118880  1
  C  C40  1  0.47366306  0.64874148  0.82404992  1
  C  C41  1  0.02633694  0.14874148  0.17595008  1
  C  C42  1  0.97366306  0.35125852  0.67595008  1
  C  C43  1  0.52633694  0.85125852  0.32404992  1
  C  C44  1  0.52633694  0.35125852  0.17595008  1
  C  C45  1  0.97366306  0.85125852  0.82404992  1
  C  C46  1  0.02633694  0.64874148  0.32404992  1
  C  C47  1  0.47366306  0.14874148  0.67595008  1
  C  C48  1  0.26947307  0.36688469  0.76733954  1
  C  C49  1  0.23052693  0.86688469  0.23266046  1
  C  C50  1  0.76947307  0.63311531  0.73266046  1
  C  C51  1  0.73052693  0.13311531  0.26733954  1
  C  C52  1  0.73052693  0.63311531  0.23266046  1
  C  C53  1  0.76947307  0.13311531  0.76733954  1
  C  C54  1  0.23052693  0.36688469  0.26733954  1
  C  C55  1  0.26947307  0.86688469  0.73266046  1
  C  C56  1  0.31010915  0.26360876  0.83844476  1
  C  C57  1  0.18989085  0.76360876  0.16155524  1
  C  C58  1  0.81010915  0.73639124  0.66155524  1
  C  C59  1  0.68989085  0.23639124  0.33844476  1
  C  C60  1  0.68989085  0.73639124  0.16155524  1
  C  C61  1  0.81010915  0.23639124  0.83844476  1
  C  C62  1  0.18989085  0.26360876  0.33844476  1
  C  C63  1  0.31010915  0.76360876  0.66155524  1
  C  C64  1  0.20025085  0.40567340  0.84835959  1
  C  C65  1  0.29974915  0.90567340  0.15164041  1
  C  C66  1  0.70025085  0.59432660  0.65164041  1
  C  C67  1  0.79974915  0.09432660  0.34835959  1
  C  C68  1  0.79974915  0.59432660  0.15164041  1
  C  C69  1  0.70025085  0.09432660  0.84835959  1
  C  C70  1  0.29974915  0.40567340  0.34835959  1
  C  C71  1  0.20025085  0.90567340  0.65164041  1
  C  C72  1  0.50631079  0.39693727  0.74481611  1
  C  C73  1  0.99368921  0.89693727  0.25518389  1
  C  C74  1  0.00631079  0.60306273  0.75518389  1
  C  C75  1  0.49368921  0.10306273  0.24481611  1
  C  C76  1  0.49368921  0.60306273  0.25518389  1
  C  C77  1  0.00631079  0.10306273  0.74481611  1
  C  C78  1  0.99368921  0.39693727  0.24481611  1
  C  C79  1  0.50631079  0.89693727  0.75518389  1
  C  C80  1  0.61845666  0.45476341  0.80995416  1
  C  C81  1  0.88154334  0.95476341  0.19004584  1
  C  C82  1  0.11845666  0.54523659  0.69004584  1
  C  C83  1  0.38154334  0.04523659  0.30995416  1
  C  C84  1  0.38154334  0.54523659  0.19004584  1
  C  C85  1  0.11845666  0.04523659  0.80995416  1
  C  C86  1  0.88154334  0.45476341  0.30995416  1
  C  C87  1  0.61845666  0.95476341  0.69004584  1
  C  C88  1  0.54364821  0.29056483  0.81512413  1
  C  C89  1  0.95635179  0.79056483  0.18487587  1
  C  C90  1  0.04364821  0.70943517  0.68487587  1
  C  C91  1  0.45635179  0.20943517  0.31512413  1
  C  C92  1  0.45635179  0.70943517  0.18487587  1
  C  C93  1  0.04364821  0.20943517  0.81512413  1
  C  C94  1  0.95635179  0.29056483  0.31512413  1
  C  C95  1  0.54364821  0.79056483  0.68487587  1
  C  C96  1  0.52935332  0.50888187  0.91785720  1
  C  C97  1  0.97064668  0.00888187  0.08214280  1
  C  C98  1  0.02935332  0.49111813  0.58214280  1
  C  C99  1  0.47064668  0.99111813  0.41785720  1
  C  C100  1  0.47064668  0.49111813  0.08214280  1
  C  C101  1  0.02935332  0.99111813  0.91785720  1
  C  C102  1  0.97064668  0.50888187  0.41785720  1
  C  C103  1  0.52935332  0.00888187  0.58214280  1
  C  C104  1  0.35073661  0.48881637  0.93513176  1
  C  C105  1  0.14926339  0.98881637  0.06486824  1
  C  C106  1  0.85073661  0.51118363  0.56486824  1
  C  C107  1  0.64926339  0.01118363  0.43513176  1
  C  C108  1  0.64926339  0.51118363  0.06486824  1
  C  C109  1  0.85073661  0.01118363  0.93513176  1
  C  C110  1  0.14926339  0.48881637  0.43513176  1
  C  C111  1  0.35073661  0.98881637  0.56486824  1
  C  C112  1  0.45768202  0.34522945  0.92418329  1
  C  C113  1  0.04231798  0.84522945  0.07581671  1
  C  C114  1  0.95768202  0.65477055  0.57581671  1
  C  C115  1  0.54231798  0.15477055  0.42418329  1
  C  C116  1  0.54231798  0.65477055  0.07581671  1
  C  C117  1  0.95768202  0.15477055  0.92418329  1
  C  C118  1  0.04231798  0.34522945  0.42418329  1
  C  C119  1  0.45768202  0.84522945  0.57581671  1
  C  C120  1  0.38422929  0.58843870  0.81225895  1
  C  C121  1  0.11577071  0.08843870  0.18774105  1
  C  C122  1  0.88422929  0.41156130  0.68774105  1
  C  C123  1  0.61577071  0.91156130  0.31225895  1
  C  C124  1  0.61577071  0.41156130  0.18774105  1
  C  C125  1  0.88422929  0.91156130  0.81225895  1
  C  C126  1  0.11577071  0.58843870  0.31225895  1
  C  C127  1  0.38422929  0.08843870  0.68774105  1
  C  C128  1  0.28758689  0.36478191  0.82133668  1
  C  C129  1  0.21241311  0.86478191  0.17866332  1
  C  C130  1  0.78758689  0.63521809  0.67866332  1
  C  C131  1  0.71241311  0.13521809  0.32133668  1
  C  C132  1  0.71241311  0.63521809  0.17866332  1
  C  C133  1  0.78758689  0.13521809  0.82133668  1
  C  C134  1  0.21241311  0.36478191  0.32133668  1
  C  C135  1  0.28758689  0.86478191  0.67866332  1
  C  C136  1  0.52950678  0.39331452  0.79826764  1
  C  C137  1  0.97049322  0.89331452  0.20173236  1
  C  C138  1  0.02950678  0.60668548  0.70173236  1
  C  C139  1  0.47049322  0.10668548  0.29826764  1
  C  C140  1  0.47049322  0.60668548  0.20173236  1
  C  C141  1  0.02950678  0.10668548  0.79826764  1
  C  C142  1  0.97049322  0.39331452  0.29826764  1
  C  C143  1  0.52950678  0.89331452  0.70173236  1
  C  C144  1  0.43894812  0.44826775  0.90876287  1
  C  C145  1  0.06105188  0.94826775  0.09123713  1
  C  C146  1  0.93894812  0.55173225  0.59123713  1
  C  C147  1  0.56105188  0.05173225  0.40876287  1
  C  C148  1  0.56105188  0.55173225  0.09123713  1
  C  C149  1  0.93894812  0.05173225  0.90876287  1
  C  C150  1  0.06105188  0.44826775  0.40876287  1
  C  C151  1  0.43894812  0.94826775  0.59123713  1
  C  C152  1  0.40996255  0.44894160  0.83531761  1
  C  C153  1  0.09003745  0.94894160  0.16468239  1
  C  C154  1  0.90996255  0.55105840  0.66468239  1
  C  C155  1  0.59003745  0.05105840  0.33531761  1
  C  C156  1  0.59003745  0.55105840  0.16468239  1
  C  C157  1  0.90996255  0.05105840  0.83531761  1
  C  C158  1  0.09003745  0.44894160  0.33531761  1
  C  C159  1  0.40996255  0.94894160  0.66468239  1
  Ni  Ni160  1  0.26363674  0.79716523  0.95856329  1
  Ni  Ni161  1  0.23636326  0.29716523  0.04143671  1
  Ni  Ni162  1  0.76363674  0.20283477  0.54143671  1
  Ni  Ni163  1  0.73636326  0.70283477  0.45856329  1
  Ni  Ni164  1  0.73636326  0.20283477  0.04143671  1
  Ni  Ni165  1  0.76363674  0.70283477  0.95856329  1
  Ni  Ni166  1  0.23636326  0.79716523  0.45856329  1
  Ni  Ni167  1  0.26363674  0.29716523  0.54143671  1
  Cu  Cu168  1  0.44055022  0.91443880  0.02770255  1
  Cu  Cu169  1  0.05944978  0.41443880  0.97229745  1
  Cu  Cu170  1  0.94055022  0.08556120  0.47229745  1
  Cu  Cu171  1  0.55944978  0.58556120  0.52770255  1
  Cu  Cu172  1  0.55944978  0.08556120  0.97229745  1
  Cu  Cu173  1  0.94055022  0.58556120  0.02770255  1
  Cu  Cu174  1  0.05944978  0.91443880  0.52770255  1
  Cu  Cu175  1  0.44055022  0.41443880  0.47229745  1
  Cu  Cu176  1  0.47088395  0.08616670  0.85405608  1
  Cu  Cu177  1  0.02911605  0.58616670  0.14594392  1
  Cu  Cu178  1  0.97088395  0.91383330  0.64594392  1
  Cu  Cu179  1  0.52911605  0.41383330  0.35405608  1
  Cu  Cu180  1  0.52911605  0.91383330  0.14594392  1
  Cu  Cu181  1  0.97088395  0.41383330  0.85405608  1
  Cu  Cu182  1  0.02911605  0.08616670  0.35405608  1
  Cu  Cu183  1  0.47088395  0.58616670  0.64594392  1
  Cu  Cu184  1  0.28617405  0.90747391  0.84742432  1
  Cu  Cu185  1  0.21382595  0.40747391  0.15257568  1
  Cu  Cu186  1  0.78617405  0.09252609  0.65257568  1
  Cu  Cu187  1  0.71382595  0.59252609  0.34742432  1
  Cu  Cu188  1  0.71382595  0.09252609  0.15257568  1
  Cu  Cu189  1  0.78617405  0.59252609  0.84742432  1
  Cu  Cu190  1  0.21382595  0.90747391  0.34742432  1
  Cu  Cu191  1  0.28617405  0.40747391  0.65257568  1
  Cu  Cu192  1  0.26620106  0.09573875  0.95619222  1
  Cu  Cu193  1  0.23379894  0.59573875  0.04380778  1
  Cu  Cu194  1  0.76620106  0.90426125  0.54380778  1
  Cu  Cu195  1  0.73379894  0.40426125  0.45619222  1
  Cu  Cu196  1  0.73379894  0.90426125  0.04380778  1
  Cu  Cu197  1  0.76620106  0.40426125  0.95619222  1
  Cu  Cu198  1  0.23379894  0.09573875  0.45619222  1
  Cu  Cu199  1  0.26620106  0.59573875  0.54380778  1
  Cu  Cu200  1  0.55084530  0.82880286  0.90289326  1
  Cu  Cu201  1  0.94915470  0.32880286  0.09710674  1
  Cu  Cu202  1  0.05084530  0.17119714  0.59710674  1
  Cu  Cu203  1  0.44915470  0.67119714  0.40289326  1
  Cu  Cu204  1  0.44915470  0.17119714  0.09710674  1
  Cu  Cu205  1  0.05084530  0.67119714  0.90289326  1
  Cu  Cu206  1  0.94915470  0.82880286  0.40289326  1
  Cu  Cu207  1  0.55084530  0.32880286  0.59710674  1
