# generated using pymatgen
data_Cu3NiC3
_symmetry_space_group_name_H-M   'P 1'
_cell_length_a   5.72277109
_cell_length_b   5.72277109
_cell_length_c   5.72277164
_cell_angle_alpha   59.29368068
_cell_angle_beta   59.29368068
_cell_angle_gamma   59.29367622
_symmetry_Int_Tables_number   1
_chemical_formula_structural   Cu3NiC3
_chemical_formula_sum   'Cu6 Ni2 C6'
_cell_volume   130.39542979
_cell_formula_units_Z   2
loop_
 _symmetry_equiv_pos_site_id
 _symmetry_equiv_pos_as_xyz
  1  'x, y, z'
loop_
 _atom_site_type_symbol
 _atom_site_label
 _atom_site_symmetry_multiplicity
 _atom_site_fract_x
 _atom_site_fract_y
 _atom_site_fract_z
 _atom_site_occupancy
  C  C0  1  0.13333600  0.13333600  0.13333600  1
  C  C1  1  0.86666400  0.86666400  0.86666400  1
  C  C2  1  0.50000000  0.50000000  0.50000000  1
  C  C3  1  0.50000000  0.00000000  0.50000000  1
  C  C4  1  0.00000000  0.50000000  0.50000000  1
  C  C5  1  0.50000000  0.50000000  0.00000000  1
  Ni  Ni6  1  0.73692200  0.73692200  0.73692200  1
  Ni  Ni7  1  0.26307800  0.26307800  0.26307800  1
  Cu  Cu8  1  0.74054600  0.26588200  0.74054600  1
  Cu  Cu9  1  0.26588200  0.74054600  0.74054600  1
  Cu  Cu10  1  0.74054600  0.74054600  0.26588200  1
  Cu  Cu11  1  0.25945400  0.73411800  0.25945400  1
  Cu  Cu12  1  0.73411800  0.25945400  0.25945400  1
  Cu  Cu13  1  0.25945400  0.25945400  0.73411800  1
