# generated using pymatgen
data_CuNi2
_symmetry_space_group_name_H-M   'P 1'
_cell_length_a   3.33387796
_cell_length_b   3.33387796
_cell_length_c   15.03363800
_cell_angle_alpha   90.00000000
_cell_angle_beta   90.00000000
_cell_angle_gamma   119.99999929
_symmetry_Int_Tables_number   1
_chemical_formula_structural   CuNi2
_chemical_formula_sum   'Cu2 Ni4'
_cell_volume   144.70852620
_cell_formula_units_Z   2
loop_
 _symmetry_equiv_pos_site_id
 _symmetry_equiv_pos_as_xyz
  1  'x, y, z'
loop_
 _atom_site_type_symbol
 _atom_site_label
 _atom_site_symmetry_multiplicity
 _atom_site_fract_x
 _atom_site_fract_y
 _atom_site_fract_z
 _atom_site_occupancy
  Ni  Ni0  1  0.33333300  0.66666700  0.91616800  1
  Ni  Ni1  1  0.33333300  0.66666700  0.58383200  1
  Ni  Ni2  1  0.66666700  0.33333300  0.41616800  1
  Ni  Ni3  1  0.66666700  0.33333300  0.08383200  1
  Cu  Cu4  1  0.66666700  0.33333300  0.75000000  1
  Cu  Cu5  1  0.33333300  0.66666700  0.25000000  1
