# generated using pymatgen
data_Cu3NiC8
_symmetry_space_group_name_H-M   'P 1'
_cell_length_a   9.52082200
_cell_length_b   9.82418500
_cell_length_c   10.42843700
_cell_angle_alpha   90.00000000
_cell_angle_beta   90.00000000
_cell_angle_gamma   90.00000000
_symmetry_Int_Tables_number   1
_chemical_formula_structural   Cu3NiC8
_chemical_formula_sum   'Cu24 Ni8 C64'
_cell_volume   975.41672884
_cell_formula_units_Z   8
loop_
 _symmetry_equiv_pos_site_id
 _symmetry_equiv_pos_as_xyz
  1  'x, y, z'
loop_
 _atom_site_type_symbol
 _atom_site_label
 _atom_site_symmetry_multiplicity
 _atom_site_fract_x
 _atom_site_fract_y
 _atom_site_fract_z
 _atom_site_occupancy
  C  C0  1  0.25000000  0.22393500  0.65525400  1
  C  C1  1  0.25000000  0.27606500  0.15525400  1
  C  C2  1  0.75000000  0.77606500  0.34474600  1
  C  C3  1  0.75000000  0.72393500  0.84474600  1
  C  C4  1  0.25000000  0.91159800  0.47008600  1
  C  C5  1  0.25000000  0.58840200  0.97008600  1
  C  C6  1  0.75000000  0.08840200  0.52991400  1
  C  C7  1  0.75000000  0.41159800  0.02991400  1
  C  C8  1  0.25000000  0.87249400  0.75151100  1
  C  C9  1  0.25000000  0.62750600  0.25151100  1
  C  C10  1  0.75000000  0.12750600  0.24848900  1
  C  C11  1  0.75000000  0.37249400  0.74848900  1
  Ni  Ni12  1  0.55030300  0.81951600  0.59505900  1
  Ni  Ni13  1  0.94969700  0.68048400  0.09505900  1
  Ni  Ni14  1  0.05030300  0.18048400  0.40494100  1
  Ni  Ni15  1  0.44969700  0.31951600  0.90494100  1
  Ni  Ni16  1  0.44969700  0.18048400  0.40494100  1
  Ni  Ni17  1  0.05030300  0.31951600  0.90494100  1
  Ni  Ni18  1  0.94969700  0.81951600  0.59505900  1
  Ni  Ni19  1  0.55030300  0.68048400  0.09505900  1
  Cu  Cu20  1  0.47617000  0.88705200  0.90132700  1
  Cu  Cu21  1  0.02383000  0.61294800  0.40132700  1
  Cu  Cu22  1  0.97617000  0.11294800  0.09867300  1
  Cu  Cu23  1  0.52383000  0.38705200  0.59867300  1
  Cu  Cu24  1  0.52383000  0.11294800  0.09867300  1
  Cu  Cu25  1  0.97617000  0.38705200  0.59867300  1
  Cu  Cu26  1  0.02383000  0.88705200  0.90132700  1
  Cu  Cu27  1  0.47617000  0.61294800  0.40132700  1
  Cu  Cu28  1  0.43218000  0.03643900  0.85076300  1
  Cu  Cu29  1  0.06782000  0.46356100  0.35076300  1
  Cu  Cu30  1  0.93218000  0.96356100  0.14923700  1
  Cu  Cu31  1  0.56782000  0.53643900  0.64923700  1
  Cu  Cu32  1  0.56782000  0.96356100  0.14923700  1
  Cu  Cu33  1  0.93218000  0.53643900  0.64923700  1
  Cu  Cu34  1  0.06782000  0.03643900  0.85076300  1
  Cu  Cu35  1  0.43218000  0.46356100  0.35076300  1
  Cu  Cu36  1  0.25000000  0.51658200  0.71342400  1
  Cu  Cu37  1  0.25000000  0.98341800  0.21342400  1
  Cu  Cu38  1  0.75000000  0.48341800  0.28657600  1
  Cu  Cu39  1  0.75000000  0.01658200  0.78657600  1
  Cu  Cu40  1  0.25000000  0.49710600  0.56030500  1
  Cu  Cu41  1  0.25000000  0.00289400  0.06030500  1
  Cu  Cu42  1  0.75000000  0.50289400  0.43969500  1
  Cu  Cu43  1  0.75000000  0.99710600  0.93969500  1
  C  C44  1  0.39542600  0.03398400  0.40085400  1
  C  C45  1  0.10457400  0.46601600  0.90085400  1
  C  C46  1  0.89542600  0.96601600  0.59914600  1
  C  C47  1  0.60457400  0.53398400  0.09914600  1
  C  C48  1  0.60457400  0.96601600  0.59914600  1
  C  C49  1  0.89542600  0.53398400  0.09914600  1
  C  C50  1  0.10457400  0.03398400  0.40085400  1
  C  C51  1  0.39542600  0.46601600  0.90085400  1
  C  C52  1  0.38529000  0.81941300  0.59740500  1
  C  C53  1  0.11471000  0.68058700  0.09740500  1
  C  C54  1  0.88529000  0.18058700  0.40259500  1
  C  C55  1  0.61471000  0.31941300  0.90259500  1
  C  C56  1  0.61471000  0.18058700  0.40259500  1
  C  C57  1  0.88529000  0.31941300  0.90259500  1
  C  C58  1  0.11471000  0.81941300  0.59740500  1
  C  C59  1  0.38529000  0.68058700  0.09740500  1
  C  C60  1  0.59546500  0.74347300  0.47134800  1
  C  C61  1  0.90453500  0.75652700  0.97134800  1
  C  C62  1  0.09546500  0.25652700  0.52865200  1
  C  C63  1  0.40453500  0.24347300  0.02865200  1
  C  C64  1  0.40453500  0.25652700  0.52865200  1
  C  C65  1  0.09546500  0.24347300  0.02865200  1
  C  C66  1  0.90453500  0.74347300  0.47134800  1
  C  C67  1  0.59546500  0.75652700  0.97134800  1
  C  C68  1  0.25000000  0.05091000  0.64121800  1
  C  C69  1  0.25000000  0.44909000  0.14121800  1
  C  C70  1  0.75000000  0.94909000  0.35878200  1
  C  C71  1  0.75000000  0.55091000  0.85878200  1
  C  C72  1  0.25000000  0.69767400  0.84683000  1
  C  C73  1  0.25000000  0.80232600  0.34683000  1
  C  C74  1  0.75000000  0.30232600  0.15317000  1
  C  C75  1  0.75000000  0.19767400  0.65317000  1
  C  C76  1  0.59827100  0.73721100  0.71323200  1
  C  C77  1  0.90172900  0.76278900  0.21323200  1
  C  C78  1  0.09827100  0.26278900  0.28676800  1
  C  C79  1  0.40172900  0.23721100  0.78676800  1
  C  C80  1  0.40172900  0.26278900  0.28676800  1
  C  C81  1  0.09827100  0.23721100  0.78676800  1
  C  C82  1  0.90172900  0.73721100  0.71323200  1
  C  C83  1  0.59827100  0.76278900  0.21323200  1
  C  C84  1  0.39651400  0.94755500  0.87911700  1
  C  C85  1  0.10348600  0.55244500  0.37911700  1
  C  C86  1  0.89651400  0.05244500  0.12088300  1
  C  C87  1  0.60348600  0.44755500  0.62088300  1
  C  C88  1  0.60348600  0.05244500  0.12088300  1
  C  C89  1  0.89651400  0.44755500  0.62088300  1
  C  C90  1  0.10348600  0.94755500  0.87911700  1
  C  C91  1  0.39651400  0.55244500  0.37911700  1
  C  C92  1  0.25000000  0.45005700  0.64324600  1
  C  C93  1  0.25000000  0.04994300  0.14324600  1
  C  C94  1  0.75000000  0.54994300  0.35675400  1
  C  C95  1  0.75000000  0.95005700  0.85675400  1
