# generated using pymatgen
data_Cu8Ni2C5
_symmetry_space_group_name_H-M   'P 1'
_cell_length_a   4.80157100
_cell_length_b   5.78049420
_cell_length_c   13.55689133
_cell_angle_alpha   78.90188735
_cell_angle_beta   89.36495263
_cell_angle_gamma   89.27075066
_symmetry_Int_Tables_number   1
_chemical_formula_structural   Cu8Ni2C5
_chemical_formula_sum   'Cu16 Ni4 C10'
_cell_volume   369.19669832
_cell_formula_units_Z   2
loop_
 _symmetry_equiv_pos_site_id
 _symmetry_equiv_pos_as_xyz
  1  'x, y, z'
loop_
 _atom_site_type_symbol
 _atom_site_label
 _atom_site_symmetry_multiplicity
 _atom_site_fract_x
 _atom_site_fract_y
 _atom_site_fract_z
 _atom_site_occupancy
  C  C0  1  0.50541400  0.49374800  0.99825100  1
  C  C1  1  0.49707200  0.71563100  0.39416700  1
  C  C2  1  0.46659400  0.12165300  0.20401700  1
  C  C3  1  0.51185400  0.31401800  0.60714400  1
  C  C4  1  0.51212000  0.87878200  0.80253200  1
  C  C5  1  0.02190900  0.19119400  0.39910000  1
  C  C6  1  0.95914400  0.41027400  0.79520000  1
  C  C7  1  0.01758800  0.59142500  0.19384300  1
  C  C8  1  0.98867900  0.78263600  0.60343600  1
  C  C9  1  0.00206800  0.00183100  0.99880000  1
  Ni  Ni10  1  0.80637200  0.47344300  0.66780800  1
  Ni  Ni11  1  0.70108700  0.56412500  0.87363000  1
  Ni  Ni12  1  0.29566400  0.03492100  0.33374000  1
  Ni  Ni13  1  0.31854800  0.41310700  0.13341600  1
  Cu  Cu14  1  0.79735400  0.27486400  0.26567700  1
  Cu  Cu15  1  0.80060100  0.08531000  0.85854000  1
  Cu  Cu16  1  0.79512000  0.68142200  0.05905500  1
  Cu  Cu17  1  0.80784600  0.89695900  0.45330700  1
  Cu  Cu18  1  0.70169100  0.17744400  0.06398500  1
  Cu  Cu19  1  0.71261600  0.38096500  0.45302500  1
  Cu  Cu20  1  0.68729800  0.97614300  0.65736500  1
  Cu  Cu21  1  0.70258300  0.80134200  0.24925000  1
  Cu  Cu22  1  0.28407400  0.20915500  0.74810700  1
  Cu  Cu23  1  0.30467800  0.80599600  0.94827100  1
  Cu  Cu24  1  0.30634200  0.62998500  0.53583100  1
  Cu  Cu25  1  0.21424700  0.92327600  0.13878800  1
  Cu  Cu26  1  0.20391800  0.31996600  0.93649200  1
  Cu  Cu27  1  0.19441900  0.13207300  0.53425800  1
  Cu  Cu28  1  0.18906500  0.51175900  0.34452200  1
  Cu  Cu29  1  0.19403100  0.70655300  0.74844200  1
