# generated using pymatgen
data_Cu3(Ni2C)2
_symmetry_space_group_name_H-M   'P 1'
_cell_length_a   6.51117000
_cell_length_b   7.18315100
_cell_length_c   15.92254800
_cell_angle_alpha   90.00000000
_cell_angle_beta   90.00000000
_cell_angle_gamma   90.00000000
_symmetry_Int_Tables_number   1
_chemical_formula_structural   Cu3(Ni2C)2
_chemical_formula_sum   'Cu12 Ni16 C8'
_cell_volume   744.70899115
_cell_formula_units_Z   4
loop_
 _symmetry_equiv_pos_site_id
 _symmetry_equiv_pos_as_xyz
  1  'x, y, z'
loop_
 _atom_site_type_symbol
 _atom_site_label
 _atom_site_symmetry_multiplicity
 _atom_site_fract_x
 _atom_site_fract_y
 _atom_site_fract_z
 _atom_site_occupancy
  C  C0  1  0.25000000  0.33012200  0.64987400  1
  C  C1  1  0.25000000  0.16987800  0.14987400  1
  C  C2  1  0.75000000  0.66987800  0.35012600  1
  C  C3  1  0.75000000  0.83012200  0.85012600  1
  Ni  Ni4  1  0.25000000  0.11885700  0.43851700  1
  Ni  Ni5  1  0.25000000  0.38114300  0.93851700  1
  Ni  Ni6  1  0.75000000  0.88114300  0.56148300  1
  Ni  Ni7  1  0.75000000  0.61885700  0.06148300  1
  Ni  Ni8  1  0.25000000  0.52291700  0.71419000  1
  Ni  Ni9  1  0.25000000  0.97708300  0.21419000  1
  Ni  Ni10  1  0.75000000  0.47708300  0.28581000  1
  Ni  Ni11  1  0.75000000  0.02291700  0.78581000  1
  Ni  Ni12  1  0.46671700  0.32665700  0.57833700  1
  Ni  Ni13  1  0.03328300  0.17334300  0.07833700  1
  Ni  Ni14  1  0.96671700  0.67334300  0.42166300  1
  Ni  Ni15  1  0.53328300  0.82665700  0.92166300  1
  Ni  Ni16  1  0.53328300  0.67334300  0.42166300  1
  Ni  Ni17  1  0.96671700  0.82665700  0.92166300  1
  Ni  Ni18  1  0.03328300  0.32665700  0.57833700  1
  Ni  Ni19  1  0.46671700  0.17334300  0.07833700  1
  Cu  Cu20  1  0.25000000  0.64640200  0.42747700  1
  Cu  Cu21  1  0.25000000  0.85359800  0.92747700  1
  Cu  Cu22  1  0.75000000  0.35359800  0.57252300  1
  Cu  Cu23  1  0.75000000  0.14640200  0.07252300  1
  Cu  Cu24  1  0.46295000  0.14808700  0.37980500  1
  Cu  Cu25  1  0.03705000  0.35191300  0.87980500  1
  Cu  Cu26  1  0.96295000  0.85191300  0.62019500  1
  Cu  Cu27  1  0.53705000  0.64808700  0.12019500  1
  Cu  Cu28  1  0.53705000  0.85191300  0.62019500  1
  Cu  Cu29  1  0.96295000  0.64808700  0.12019500  1
  Cu  Cu30  1  0.03705000  0.14808700  0.37980500  1
  Cu  Cu31  1  0.46295000  0.35191300  0.87980500  1
  C  C32  1  0.25000000  0.12613100  0.71501500  1
  C  C33  1  0.25000000  0.37386900  0.21501500  1
  C  C34  1  0.75000000  0.87386900  0.28498500  1
  C  C35  1  0.75000000  0.62613100  0.78498500  1
