# generated using pymatgen
data_Cu(NiC4)2
_symmetry_space_group_name_H-M   'P 1'
_cell_length_a   16.58446400
_cell_length_b   6.06648400
_cell_length_c   8.99188975
_cell_angle_alpha   67.89002146
_cell_angle_beta   90.00000000
_cell_angle_gamma   90.00000000
_symmetry_Int_Tables_number   1
_chemical_formula_structural   Cu(NiC4)2
_chemical_formula_sum   'Cu4 Ni8 C32'
_cell_volume   838.14197979
_cell_formula_units_Z   4
loop_
 _symmetry_equiv_pos_site_id
 _symmetry_equiv_pos_as_xyz
  1  'x, y, z'
loop_
 _atom_site_type_symbol
 _atom_site_label
 _atom_site_symmetry_multiplicity
 _atom_site_fract_x
 _atom_site_fract_y
 _atom_site_fract_z
 _atom_site_occupancy
  C  C0  1  0.60785200  0.33925700  0.14746200  1
  C  C1  1  0.89214800  0.33925700  0.64746200  1
  C  C2  1  0.39214800  0.66074300  0.85253800  1
  C  C3  1  0.10785200  0.66074300  0.35253800  1
  Ni  Ni4  1  0.52998300  0.89843400  0.04492100  1
  Ni  Ni5  1  0.97001700  0.89843400  0.54492100  1
  Ni  Ni6  1  0.47001700  0.10156600  0.95507900  1
  Ni  Ni7  1  0.02998300  0.10156600  0.45507900  1
  Ni  Ni8  1  0.57431100  0.80093800  0.56583500  1
  Ni  Ni9  1  0.92568900  0.80093800  0.06583500  1
  Ni  Ni10  1  0.42568900  0.19906200  0.43416500  1
  Ni  Ni11  1  0.07431100  0.19906200  0.93416500  1
  Cu  Cu12  1  0.78620300  0.19189300  0.13043700  1
  Cu  Cu13  1  0.71379700  0.19189300  0.63043700  1
  Cu  Cu14  1  0.21379700  0.80810700  0.86956300  1
  Cu  Cu15  1  0.28620300  0.80810700  0.36956300  1
  C  C16  1  0.52112200  0.70517100  0.01973700  1
  C  C17  1  0.97887800  0.70517100  0.51973700  1
  C  C18  1  0.47887800  0.29482900  0.98026300  1
  C  C19  1  0.02112200  0.29482900  0.48026300  1
  C  C20  1  0.60667800  0.91524700  0.44629600  1
  C  C21  1  0.89332200  0.91524700  0.94629600  1
  C  C22  1  0.39332200  0.08475300  0.55370400  1
  C  C23  1  0.10667800  0.08475300  0.05370400  1
  C  C24  1  0.58166200  0.93452000  0.13460200  1
  C  C25  1  0.91833800  0.93452000  0.63460200  1
  C  C26  1  0.41833800  0.06548000  0.86539800  1
  C  C27  1  0.08166200  0.06548000  0.36539800  1
  C  C28  1  0.46179700  0.30722400  0.31618100  1
  C  C29  1  0.03820300  0.30722400  0.81618100  1
  C  C30  1  0.53820300  0.69277600  0.68381900  1
  C  C31  1  0.96179700  0.69277600  0.18381900  1
  C  C32  1  0.68313600  0.42288500  0.91649700  1
  C  C33  1  0.81686400  0.42288500  0.41649700  1
  C  C34  1  0.31686400  0.57711500  0.08350300  1
  C  C35  1  0.18313600  0.57711500  0.58350300  1
  C  C36  1  0.72493500  0.58378300  0.08895200  1
  C  C37  1  0.77506500  0.58378300  0.58895200  1
  C  C38  1  0.27506500  0.41621700  0.91104800  1
  C  C39  1  0.22493500  0.41621700  0.41104800  1
  C  C40  1  0.64825600  0.41286600  0.37602700  1
  C  C41  1  0.85174400  0.41286600  0.87602700  1
  C  C42  1  0.35174400  0.58713400  0.62397300  1
  C  C43  1  0.14825600  0.58713400  0.12397300  1
