# generated using pymatgen
data_Cu3Ni3C7
_symmetry_space_group_name_H-M   'P 1'
_cell_length_a   10.73935200
_cell_length_b   12.28096900
_cell_length_c   14.54789205
_cell_angle_alpha   54.51668297
_cell_angle_beta   90.00000000
_cell_angle_gamma   90.00000000
_symmetry_Int_Tables_number   1
_chemical_formula_structural   Cu3Ni3C7
_chemical_formula_sum   'Cu24 Ni24 C56'
_cell_volume   1562.38113628
_cell_formula_units_Z   8
loop_
 _symmetry_equiv_pos_site_id
 _symmetry_equiv_pos_as_xyz
  1  'x, y, z'
loop_
 _atom_site_type_symbol
 _atom_site_label
 _atom_site_symmetry_multiplicity
 _atom_site_fract_x
 _atom_site_fract_y
 _atom_site_fract_z
 _atom_site_occupancy
  C  C0  1  0.73683900  0.58603800  0.25870400  1
  C  C1  1  0.76316100  0.58603800  0.75870400  1
  C  C2  1  0.26316100  0.41396200  0.74129600  1
  C  C3  1  0.23683900  0.41396200  0.24129600  1
  C  C4  1  0.77018100  0.08072800  0.78982300  1
  C  C5  1  0.72981900  0.08072800  0.28982300  1
  C  C6  1  0.22981900  0.91927200  0.21017700  1
  C  C7  1  0.27018100  0.91927200  0.71017700  1
  C  C8  1  0.81596300  0.32141000  0.35539500  1
  C  C9  1  0.68403700  0.32141000  0.85539500  1
  C  C10  1  0.18403700  0.67859000  0.64460500  1
  C  C11  1  0.31596300  0.67859000  0.14460500  1
  C  C12  1  0.92332900  0.38991100  0.38266400  1
  C  C13  1  0.57667100  0.38991100  0.88266400  1
  C  C14  1  0.07667100  0.61008900  0.61733600  1
  C  C15  1  0.42332900  0.61008900  0.11733600  1
  C  C16  1  0.89784800  0.77008700  0.08140000  1
  C  C17  1  0.60215200  0.77008700  0.58140000  1
  C  C18  1  0.10215200  0.22991300  0.91860000  1
  C  C19  1  0.39784800  0.22991300  0.41860000  1
  C  C20  1  0.96831100  0.63294400  0.15132900  1
  C  C21  1  0.53168900  0.63294400  0.65132900  1
  C  C22  1  0.03168900  0.36705600  0.84867100  1
  C  C23  1  0.46831100  0.36705600  0.34867100  1
  C  C24  1  0.92574900  0.66981600  0.34866500  1
  C  C25  1  0.57425100  0.66981600  0.84866500  1
  C  C26  1  0.07425100  0.33018400  0.65133500  1
  C  C27  1  0.42574900  0.33018400  0.15133500  1
  C  C28  1  0.82249300  0.59836500  0.44496200  1
  C  C29  1  0.67750700  0.59836500  0.94496200  1
  C  C30  1  0.17750700  0.40163500  0.55503800  1
  C  C31  1  0.32249300  0.40163500  0.05503800  1
  C  C32  1  0.61348400  0.91367900  0.97759000  1
  C  C33  1  0.88651600  0.91367900  0.47759000  1
  C  C34  1  0.38651600  0.08632100  0.02241000  1
  C  C35  1  0.11348400  0.08632100  0.52241000  1
  C  C36  1  0.55081900  0.92065900  0.87467300  1
  C  C37  1  0.94918100  0.92065900  0.37467300  1
  C  C38  1  0.44918100  0.07934100  0.12532700  1
  C  C39  1  0.05081900  0.07934100  0.62532700  1
  C  C40  1  0.54092300  0.23038100  0.72441200  1
  C  C41  1  0.95907700  0.23038100  0.22441200  1
  C  C42  1  0.45907700  0.76961900  0.27558800  1
  C  C43  1  0.04092300  0.76961900  0.77558800  1
  C  C44  1  0.63012200  0.31889600  0.61689800  1
  C  C45  1  0.86987800  0.31889600  0.11689800  1
  C  C46  1  0.36987800  0.68110400  0.38310200  1
  C  C47  1  0.13012200  0.68110400  0.88310200  1
  C  C48  1  0.72957700  0.95889100  0.67236900  1
  C  C49  1  0.77042300  0.95889100  0.17236900  1
  C  C50  1  0.27042300  0.04110900  0.32763100  1
  C  C51  1  0.22957700  0.04110900  0.82763100  1
  C  C52  1  0.61039900  0.05191700  0.64443700  1
  C  C53  1  0.88960100  0.05191700  0.14443700  1
  C  C54  1  0.38960100  0.94808300  0.35556300  1
  C  C55  1  0.11039900  0.94808300  0.85556300  1
  Ni  Ni56  1  0.64983200  0.53981200  0.12764000  1
  Ni  Ni57  1  0.85016800  0.53981200  0.62764000  1
  Ni  Ni58  1  0.35016800  0.46018800  0.87236000  1
  Ni  Ni59  1  0.14983200  0.46018800  0.37236000  1
  Ni  Ni60  1  0.58813500  0.46067200  0.41570100  1
  Ni  Ni61  1  0.91186500  0.46067200  0.91570100  1
  Ni  Ni62  1  0.41186500  0.53932800  0.58429900  1
  Ni  Ni63  1  0.08813500  0.53932800  0.08429900  1
  Ni  Ni64  1  0.64196100  0.81479600  0.16147500  1
  Ni  Ni65  1  0.85803900  0.81479600  0.66147500  1
  Ni  Ni66  1  0.35803900  0.18520400  0.83852500  1
  Ni  Ni67  1  0.14196100  0.18520400  0.33852500  1
  Ni  Ni68  1  0.91227300  0.22125600  0.62783500  1
  Ni  Ni69  1  0.58772700  0.22125600  0.12783500  1
  Ni  Ni70  1  0.08772700  0.77874400  0.37216500  1
  Ni  Ni71  1  0.41227300  0.77874400  0.87216500  1
  Ni  Ni72  1  0.89672700  0.87376800  0.89183900  1
  Ni  Ni73  1  0.60327300  0.87376800  0.39183900  1
  Ni  Ni74  1  0.10327300  0.12623200  0.10816100  1
  Ni  Ni75  1  0.39672700  0.12623200  0.60816100  1
  Ni  Ni76  1  0.80686200  0.14897300  0.91591400  1
  Ni  Ni77  1  0.69313800  0.14897300  0.41591400  1
  Ni  Ni78  1  0.19313800  0.85102700  0.08408600  1
  Ni  Ni79  1  0.30686200  0.85102700  0.58408600  1
  Cu  Cu80  1  0.86101600  0.40615600  0.32654800  1
  Cu  Cu81  1  0.63898400  0.40615600  0.82654800  1
  Cu  Cu82  1  0.13898400  0.59384400  0.67345200  1
  Cu  Cu83  1  0.36101600  0.59384400  0.17345200  1
  Cu  Cu84  1  0.90999200  0.68942200  0.15920000  1
  Cu  Cu85  1  0.59000800  0.68942200  0.65920000  1
  Cu  Cu86  1  0.09000800  0.31057800  0.84080000  1
  Cu  Cu87  1  0.40999200  0.31057800  0.34080000  1
  Cu  Cu88  1  0.85155400  0.61232900  0.37465300  1
  Cu  Cu89  1  0.64844600  0.61232900  0.87465300  1
  Cu  Cu90  1  0.14844600  0.38767100  0.62534700  1
  Cu  Cu91  1  0.35155400  0.38767100  0.12534700  1
  Cu  Cu92  1  0.59958600  0.97184600  0.89501800  1
  Cu  Cu93  1  0.90041400  0.97184600  0.39501800  1
  Cu  Cu94  1  0.40041400  0.02815400  0.10498200  1
  Cu  Cu95  1  0.09958600  0.02815400  0.60498200  1
  Cu  Cu96  1  0.62755900  0.24519600  0.69734300  1
  Cu  Cu97  1  0.87244100  0.24519600  0.19734300  1
  Cu  Cu98  1  0.37244100  0.75480400  0.30265700  1
  Cu  Cu99  1  0.12755900  0.75480400  0.80265700  1
  Cu  Cu100  1  0.67611200  0.99900400  0.70039000  1
  Cu  Cu101  1  0.82388800  0.99900400  0.20039000  1
  Cu  Cu102  1  0.32388800  0.00099600  0.29961000  1
  Cu  Cu103  1  0.17611200  0.00099600  0.79961000  1
