# generated using pymatgen
data_Cu(Ni2C3)2
_symmetry_space_group_name_H-M   'P 1'
_cell_length_a   10.03981362
_cell_length_b   10.03981362
_cell_length_c   10.03981407
_cell_angle_alpha   88.85032359
_cell_angle_beta   88.85032359
_cell_angle_gamma   88.85032359
_symmetry_Int_Tables_number   1
_chemical_formula_structural   Cu(Ni2C3)2
_chemical_formula_sum   'Cu2 Ni8 C12'
_cell_volume   1011.38863721
_cell_formula_units_Z   2
loop_
 _symmetry_equiv_pos_site_id
 _symmetry_equiv_pos_as_xyz
  1  'x, y, z'
loop_
 _atom_site_type_symbol
 _atom_site_label
 _atom_site_symmetry_multiplicity
 _atom_site_fract_x
 _atom_site_fract_y
 _atom_site_fract_z
 _atom_site_occupancy
  C  C0  1  0.93293600  0.05738300  0.72288300  1
  C  C1  1  0.94261700  0.27711700  0.06706400  1
  C  C2  1  0.77711700  0.44261700  0.56706400  1
  C  C3  1  0.43293600  0.22288300  0.55738300  1
  C  C4  1  0.27711700  0.06706400  0.94261700  1
  C  C5  1  0.55738300  0.43293600  0.22288300  1
  C  C6  1  0.44261700  0.56706400  0.77711700  1
  C  C7  1  0.56706400  0.77711700  0.44261700  1
  C  C8  1  0.72288300  0.93293600  0.05738300  1
  C  C9  1  0.22288300  0.55738300  0.43293600  1
  C  C10  1  0.05738300  0.72288300  0.93293600  1
  C  C11  1  0.06706400  0.94261700  0.27711700  1
  Ni  Ni12  1  0.75000000  0.12664600  0.37335400  1
  Ni  Ni13  1  0.62664600  0.25000000  0.87335400  1
  Ni  Ni14  1  0.87335400  0.62664600  0.25000000  1
  Ni  Ni15  1  0.75000000  0.75000000  0.75000000  1
  Ni  Ni16  1  0.25000000  0.25000000  0.25000000  1
  Ni  Ni17  1  0.12664600  0.37335400  0.75000000  1
  Ni  Ni18  1  0.37335400  0.75000000  0.12664600  1
  Ni  Ni19  1  0.25000000  0.87335400  0.62664600  1
  Cu  Cu20  1  0.00000000  0.00000000  0.00000000  1
  Cu  Cu21  1  0.50000000  0.50000000  0.50000000  1
