# generated using pymatgen
data_Cu14NiC12
_symmetry_space_group_name_H-M   'P 1'
_cell_length_a   7.55106300
_cell_length_b   7.35259400
_cell_length_c   11.92101269
_cell_angle_alpha   86.20769737
_cell_angle_beta   90.00000000
_cell_angle_gamma   90.00000000
_symmetry_Int_Tables_number   1
_chemical_formula_structural   Cu14NiC12
_chemical_formula_sum   'Cu28 Ni2 C24'
_cell_volume   660.40421974
_cell_formula_units_Z   2
loop_
 _symmetry_equiv_pos_site_id
 _symmetry_equiv_pos_as_xyz
  1  'x, y, z'
loop_
 _atom_site_type_symbol
 _atom_site_label
 _atom_site_symmetry_multiplicity
 _atom_site_fract_x
 _atom_site_fract_y
 _atom_site_fract_z
 _atom_site_occupancy
  C  C0  1  0.67388800  0.73836100  0.88682100  1
  C  C1  1  0.17388800  0.26163900  0.11317900  1
  Ni  Ni2  1  0.64397200  0.81163800  0.06843700  1
  Ni  Ni3  1  0.14397200  0.18836200  0.93156300  1
  Cu  Cu4  1  0.82618000  0.55015200  0.49987800  1
  Cu  Cu5  1  0.32618000  0.44984800  0.50012200  1
  Cu  Cu6  1  0.19007000  0.03576300  0.68535400  1
  Cu  Cu7  1  0.69007000  0.96423700  0.31464600  1
  Cu  Cu8  1  0.92524000  0.40044700  0.87691000  1
  Cu  Cu9  1  0.42524000  0.59955300  0.12309000  1
  Cu  Cu10  1  0.11160900  0.71081000  0.09631600  1
  Cu  Cu11  1  0.61160900  0.28919000  0.90368400  1
  Cu  Cu12  1  0.05229500  0.01935400  0.92311500  1
  Cu  Cu13  1  0.55229500  0.98064600  0.07688500  1
  Cu  Cu14  1  0.06259200  0.59075400  0.98965800  1
  Cu  Cu15  1  0.56259200  0.40924600  0.01034200  1
  Cu  Cu16  1  0.44778400  0.82539400  0.85274700  1
  Cu  Cu17  1  0.94778400  0.17460600  0.14725300  1
  Cu  Cu18  1  0.43149100  0.14335700  0.23643900  1
  Cu  Cu19  1  0.93149100  0.85664300  0.76356100  1
  Cu  Cu20  1  0.48304700  0.79653000  0.79441800  1
  Cu  Cu21  1  0.98304700  0.20347000  0.20558200  1
  Cu  Cu22  1  0.65674700  0.83953500  0.49635400  1
  Cu  Cu23  1  0.15674700  0.16046500  0.50364600  1
  Cu  Cu24  1  0.38464100  0.24900500  0.76725100  1
  Cu  Cu25  1  0.88464100  0.75099500  0.23274900  1
  Cu  Cu26  1  0.74152200  0.94829200  0.71459200  1
  Cu  Cu27  1  0.24152200  0.05170800  0.28540800  1
  Cu  Cu28  1  0.47811700  0.72782400  0.50930500  1
  Cu  Cu29  1  0.97811700  0.27217600  0.49069500  1
  Cu  Cu30  1  0.76018600  0.41739100  0.41523100  1
  Cu  Cu31  1  0.26018600  0.58260900  0.58476900  1
  C  C32  1  0.17292800  0.89614800  0.70563200  1
  C  C33  1  0.67292800  0.10385200  0.29436800  1
  C  C34  1  0.16686400  0.64409900  0.03199900  1
  C  C35  1  0.66686400  0.35590100  0.96800100  1
  C  C36  1  0.50186900  0.19457400  0.62605000  1
  C  C37  1  0.00186900  0.80542600  0.37395000  1
  C  C38  1  0.79783100  0.86865100  0.77873100  1
  C  C39  1  0.29783100  0.13134900  0.22126900  1
  C  C40  1  0.83145500  0.83407800  0.11277300  1
  C  C41  1  0.33145500  0.16592200  0.88722700  1
  C  C42  1  0.76782000  0.50384300  0.91693600  1
  C  C43  1  0.26782000  0.49615700  0.08306400  1
  C  C44  1  0.88179500  0.70058300  0.31486600  1
  C  C45  1  0.38179500  0.29941700  0.68513400  1
  C  C46  1  0.53660200  0.66964200  0.14811800  1
  C  C47  1  0.03660200  0.33035800  0.85188200  1
  C  C48  1  0.54530800  0.83162300  0.53690300  1
  C  C49  1  0.04530800  0.16837700  0.46309700  1
  C  C50  1  0.98208900  0.77815000  0.47320000  1
  C  C51  1  0.48208900  0.22185000  0.52680000  1
  C  C52  1  0.79085900  0.42308100  0.49438500  1
  C  C53  1  0.29085900  0.57691900  0.50561500  1
