# generated using pymatgen
data_CuNiC7
_symmetry_space_group_name_H-M   'P 1'
_cell_length_a   7.20205708
_cell_length_b   7.20205708
_cell_length_c   5.30810462
_cell_angle_alpha   70.68647880
_cell_angle_beta   70.68647880
_cell_angle_gamma   76.46908648
_symmetry_Int_Tables_number   1
_chemical_formula_structural   CuNiC7
_chemical_formula_sum   'Cu2 Ni2 C14'
_cell_volume   242.80097006
_cell_formula_units_Z   2
loop_
 _symmetry_equiv_pos_site_id
 _symmetry_equiv_pos_as_xyz
  1  'x, y, z'
loop_
 _atom_site_type_symbol
 _atom_site_label
 _atom_site_symmetry_multiplicity
 _atom_site_fract_x
 _atom_site_fract_y
 _atom_site_fract_z
 _atom_site_occupancy
  C  C0  1  0.19462800  0.80537200  0.50000000  1
  C  C1  1  0.80466200  0.19533800  0.00000000  1
  Ni  Ni2  1  0.34682700  0.18395000  0.70048400  1
  Ni  Ni3  1  0.81605000  0.65317300  0.29951600  1
  Cu  Cu4  1  0.65301000  0.81757700  0.79902800  1
  Cu  Cu5  1  0.18242300  0.34699000  0.20097200  1
  C  C6  1  0.11243700  0.59721900  0.28111600  1
  C  C7  1  0.40278100  0.88756300  0.71888400  1
  C  C8  1  0.88926000  0.39719000  0.21938300  1
  C  C9  1  0.60281000  0.11074000  0.78061700  1
  C  C10  1  0.90141900  0.81560300  0.89623600  1
  C  C11  1  0.18439700  0.09858100  0.10376400  1
  C  C12  1  0.09761900  0.18516800  0.60211100  1
  C  C13  1  0.81483200  0.90238100  0.39788900  1
  C  C14  1  0.55993600  0.72296100  0.20587900  1
  C  C15  1  0.27703900  0.44006400  0.79412100  1
  C  C16  1  0.43839900  0.27852900  0.29008200  1
  C  C17  1  0.72147100  0.56160100  0.70991800  1
