# generated using pymatgen
data_CuNiC6
_symmetry_space_group_name_H-M   'P 1'
_cell_length_a   5.84778700
_cell_length_b   7.64750700
_cell_length_c   8.48913200
_cell_angle_alpha   90.00000000
_cell_angle_beta   90.00000000
_cell_angle_gamma   90.00000000
_symmetry_Int_Tables_number   1
_chemical_formula_structural   CuNiC6
_chemical_formula_sum   'Cu4 Ni4 C24'
_cell_volume   379.64240440
_cell_formula_units_Z   4
loop_
 _symmetry_equiv_pos_site_id
 _symmetry_equiv_pos_as_xyz
  1  'x, y, z'
loop_
 _atom_site_type_symbol
 _atom_site_label
 _atom_site_symmetry_multiplicity
 _atom_site_fract_x
 _atom_site_fract_y
 _atom_site_fract_z
 _atom_site_occupancy
  Ni  Ni0  1  0.05556800  0.84516000  0.67454200  1
  Ni  Ni1  1  0.44443200  0.15484000  0.17454200  1
  Ni  Ni2  1  0.94443200  0.34516000  0.82545800  1
  Ni  Ni3  1  0.55556800  0.65484000  0.32545800  1
  Cu  Cu4  1  0.25751900  0.75729300  0.99979500  1
  Cu  Cu5  1  0.24248100  0.24270700  0.49979500  1
  Cu  Cu6  1  0.74248100  0.25729300  0.50020500  1
  Cu  Cu7  1  0.75751900  0.74270700  0.00020500  1
  C  C8  1  0.47460500  0.10995900  0.82081000  1
  C  C9  1  0.02539500  0.89004100  0.32081000  1
  C  C10  1  0.52539500  0.60995900  0.67919000  1
  C  C11  1  0.97460500  0.39004100  0.17919000  1
  C  C12  1  0.51818300  0.92827200  0.94064300  1
  C  C13  1  0.98181700  0.07172800  0.44064300  1
  C  C14  1  0.48181700  0.42827200  0.55935700  1
  C  C15  1  0.01818300  0.57172800  0.05935700  1
  C  C16  1  0.38228600  0.26396600  0.95161400  1
  C  C17  1  0.11771400  0.73603400  0.45161400  1
  C  C18  1  0.61771400  0.76396600  0.54838600  1
  C  C19  1  0.88228600  0.23603400  0.04838600  1
  C  C20  1  0.72682000  0.15714300  0.72546800  1
  C  C21  1  0.77318000  0.84285700  0.22546800  1
  C  C22  1  0.27318000  0.65714300  0.77453200  1
  C  C23  1  0.22682000  0.34285700  0.27453200  1
  C  C24  1  0.25534800  0.07500600  0.68884200  1
  C  C25  1  0.24465200  0.92499400  0.18884200  1
  C  C26  1  0.74465200  0.57500600  0.81115800  1
  C  C27  1  0.75534800  0.42499400  0.31115800  1
  C  C28  1  0.99778900  0.86329900  0.91089500  1
  C  C29  1  0.50221100  0.13670100  0.41089500  1
  C  C30  1  0.00221100  0.36329900  0.58910500  1
  C  C31  1  0.49778900  0.63670100  0.08910500  1
