# generated using pymatgen
data_Cu2NiC7
_symmetry_space_group_name_H-M   'P 1'
_cell_length_a   16.10827300
_cell_length_b   7.06962500
_cell_length_c   12.01446279
_cell_angle_alpha   77.94352317
_cell_angle_beta   90.00000000
_cell_angle_gamma   90.00000000
_symmetry_Int_Tables_number   1
_chemical_formula_structural   Cu2NiC7
_chemical_formula_sum   'Cu16 Ni8 C56'
_cell_volume   1338.02089802
_cell_formula_units_Z   8
loop_
 _symmetry_equiv_pos_site_id
 _symmetry_equiv_pos_as_xyz
  1  'x, y, z'
loop_
 _atom_site_type_symbol
 _atom_site_label
 _atom_site_symmetry_multiplicity
 _atom_site_fract_x
 _atom_site_fract_y
 _atom_site_fract_z
 _atom_site_occupancy
  Ni  Ni0  1  0.66988800  0.35590800  0.08103800  1
  Ni  Ni1  1  0.16988800  0.64409200  0.41896200  1
  Ni  Ni2  1  0.33011200  0.64409200  0.91896200  1
  Ni  Ni3  1  0.83011200  0.35590800  0.58103800  1
  Ni  Ni4  1  0.75509300  0.00330200  0.25026000  1
  Ni  Ni5  1  0.25509300  0.99669800  0.24974000  1
  Ni  Ni6  1  0.24490700  0.99669800  0.74974000  1
  Ni  Ni7  1  0.74490700  0.00330200  0.75026000  1
  Cu  Cu8  1  0.85514800  0.15338300  0.97723800  1
  Cu  Cu9  1  0.01087200  0.57942100  0.68046000  1
  Cu  Cu10  1  0.48912800  0.57942100  0.18046000  1
  Cu  Cu11  1  0.98912800  0.42057900  0.31954000  1
  Cu  Cu12  1  0.70497900  0.47634300  0.80730500  1
  Cu  Cu13  1  0.20497900  0.52365700  0.69269500  1
  Cu  Cu14  1  0.29502100  0.52365700  0.19269500  1
  Cu  Cu15  1  0.79502100  0.47634300  0.30730500  1
  Cu  Cu16  1  0.51087200  0.42057900  0.81954000  1
  Cu  Cu17  1  0.13420800  0.12068000  0.47934200  1
  Cu  Cu18  1  0.63420800  0.87932000  0.02065800  1
  Cu  Cu19  1  0.86579200  0.87932000  0.52065800  1
  Cu  Cu20  1  0.35514800  0.84661700  0.52276200  1
  Cu  Cu21  1  0.64485200  0.15338300  0.47723800  1
  Cu  Cu22  1  0.14485200  0.84661700  0.02276200  1
  Cu  Cu23  1  0.36579200  0.12068000  0.97934200  1
  C  C24  1  0.95696400  0.23848500  0.95605300  1
  C  C25  1  0.45696400  0.76151500  0.54394700  1
  C  C26  1  0.04303600  0.76151500  0.04394700  1
  C  C27  1  0.54303600  0.23848500  0.45605300  1
  C  C28  1  0.82886800  0.00494700  0.87685300  1
  C  C29  1  0.32886800  0.99505300  0.62314700  1
  C  C30  1  0.17113200  0.99505300  0.12314700  1
  C  C31  1  0.67113200  0.00494700  0.37685300  1
  C  C32  1  0.84000400  0.02784300  0.12376700  1
  C  C33  1  0.34000400  0.97215700  0.37623300  1
  C  C34  1  0.15999600  0.97215700  0.87623300  1
  C  C35  1  0.65999600  0.02784300  0.62376700  1
  C  C36  1  0.30400000  0.33436000  0.95098300  1
  C  C37  1  0.80400000  0.66564000  0.54901700  1
  C  C38  1  0.69600000  0.66564000  0.04901700  1
  C  C39  1  0.19600000  0.33436000  0.45098300  1
  C  C40  1  0.35178500  0.00637600  0.12567000  1
  C  C41  1  0.85178500  0.99362400  0.37433000  1
  C  C42  1  0.64821500  0.99362400  0.87433000  1
  C  C43  1  0.14821500  0.00637600  0.62567000  1
  C  C44  1  0.33471100  0.95046000  0.88979400  1
  C  C45  1  0.43785800  0.60413700  0.83552200  1
  C  C46  1  0.83471100  0.04954000  0.61020600  1
  C  C47  1  0.16528900  0.95046000  0.38979400  1
  C  C48  1  0.46891000  0.29309200  0.72426900  1
  C  C49  1  0.96891000  0.70690800  0.77573100  1
  C  C50  1  0.53109000  0.70690800  0.27573100  1
  C  C51  1  0.03109000  0.29309200  0.22426900  1
  C  C52  1  0.47453500  0.21766000  0.95531800  1
  C  C53  1  0.97453500  0.78234000  0.54468200  1
  C  C54  1  0.52546500  0.78234000  0.04468200  1
  C  C55  1  0.02546500  0.21766000  0.45531800  1
  C  C56  1  0.89670800  0.54120000  0.22376500  1
  C  C57  1  0.39670800  0.45880000  0.27623500  1
  C  C58  1  0.10329200  0.45880000  0.77623500  1
  C  C59  1  0.60329200  0.54120000  0.72376500  1
  C  C60  1  0.74920900  0.32250200  0.21810200  1
  C  C61  1  0.24920900  0.67749800  0.28189800  1
  C  C62  1  0.25079100  0.67749800  0.78189800  1
  C  C63  1  0.75079100  0.32250200  0.71810200  1
  C  C64  1  0.72733200  0.35834100  0.44496400  1
  C  C65  1  0.22733200  0.64165900  0.05503600  1
  C  C66  1  0.27266800  0.64165900  0.55503600  1
  C  C67  1  0.77266800  0.35834100  0.94496400  1
  C  C68  1  0.74888800  0.70767000  0.27988700  1
  C  C69  1  0.24888800  0.29233000  0.22011300  1
  C  C70  1  0.25111200  0.29233000  0.72011300  1
  C  C71  1  0.75111200  0.70767000  0.77988700  1
  C  C72  1  0.88345200  0.39912300  0.42396700  1
  C  C73  1  0.38345200  0.60087700  0.07603300  1
  C  C74  1  0.11654800  0.60087700  0.57603300  1
  C  C75  1  0.61654800  0.39912300  0.92396700  1
  C  C76  1  0.06214200  0.60413700  0.33552200  1
  C  C77  1  0.56214200  0.39586300  0.16447800  1
  C  C78  1  0.93785800  0.39586300  0.66447800  1
  C  C79  1  0.66528900  0.04954000  0.11020600  1
