# generated using pymatgen
data_Cu7(NiC)2
_symmetry_space_group_name_H-M   'P 1'
_cell_length_a   7.05087600
_cell_length_b   8.91490870
_cell_length_c   8.95066155
_cell_angle_alpha   109.94693633
_cell_angle_beta   102.13141433
_cell_angle_gamma   111.77931621
_symmetry_Int_Tables_number   1
_chemical_formula_structural   Cu7(NiC)2
_chemical_formula_sum   'Cu21 Ni6 C6'
_cell_volume   453.10466795
_cell_formula_units_Z   3
loop_
 _symmetry_equiv_pos_site_id
 _symmetry_equiv_pos_as_xyz
  1  'x, y, z'
loop_
 _atom_site_type_symbol
 _atom_site_label
 _atom_site_symmetry_multiplicity
 _atom_site_fract_x
 _atom_site_fract_y
 _atom_site_fract_z
 _atom_site_occupancy
  C  C0  1  0.68050200  0.43036900  0.98812900  1
  C  C1  1  0.99701700  0.81618500  0.63511000  1
  C  C2  1  0.61617800  0.99997900  0.64166500  1
  C  C3  1  0.93914500  0.35279800  0.31649800  1
  C  C4  1  0.18963900  0.68953600  0.96631200  1
  C  C5  1  0.32988900  0.15150900  0.31210200  1
  Ni  Ni6  1  0.10363700  0.10885400  0.51657400  1
  Ni  Ni7  1  0.49901600  0.05086300  0.98288400  1
  Ni  Ni8  1  0.81566300  0.38158600  0.63385800  1
  Ni  Ni9  1  0.51854200  0.51575400  0.40414200  1
  Ni  Ni10  1  0.99638700  0.00732800  0.00211900  1
  Ni  Ni11  1  0.17878700  0.73501800  0.31437100  1
  Cu  Cu12  1  0.67661100  0.23561300  0.48652600  1
  Cu  Cu13  1  0.81937500  0.37616000  0.77608400  1
  Cu  Cu14  1  0.65940200  0.17985900  0.98212800  1
  Cu  Cu15  1  0.10378900  0.18132600  0.11275700  1
  Cu  Cu16  1  0.99176200  0.07055700  0.60333000  1
  Cu  Cu17  1  0.85760500  0.93764900  0.85186900  1
  Cu  Cu18  1  0.31812800  0.87459000  0.30467800  1
  Cu  Cu19  1  0.49825000  0.05981500  0.13261000  1
  Cu  Cu20  1  0.34910300  0.91120600  0.84261800  1
  Cu  Cu21  1  0.53738700  0.60165900  0.91445300  1
  Cu  Cu22  1  0.59452800  0.74732900  0.05817100  1
  Cu  Cu23  1  0.95544600  0.52389300  0.63273600  1
  Cu  Cu24  1  0.33808300  0.45821800  0.86561100  1
  Cu  Cu25  1  0.05623700  0.91030800  0.06536800  1
  Cu  Cu26  1  0.18893500  0.74118600  0.46090000  1
  Cu  Cu27  1  0.57002700  0.40500600  0.30110400  1
  Cu  Cu28  1  0.03936200  0.58675200  0.17334300  1
  Cu  Cu29  1  0.61151000  0.68527100  0.45755400  1
  Cu  Cu30  1  0.31170400  0.14538800  0.55740800  1
  Cu  Cu31  1  0.02280800  0.11106700  0.37068300  1
  Cu  Cu32  1  0.36044500  0.42896700  0.44810500  1
