# generated using pymatgen
data_Cu2NiC4
_symmetry_space_group_name_H-M   'P 1'
_cell_length_a   6.24559800
_cell_length_b   6.56647400
_cell_length_c   10.34757100
_cell_angle_alpha   90.00000000
_cell_angle_beta   90.00000000
_cell_angle_gamma   90.00000000
_symmetry_Int_Tables_number   1
_chemical_formula_structural   Cu2NiC4
_chemical_formula_sum   'Cu8 Ni4 C16'
_cell_volume   424.36999665
_cell_formula_units_Z   4
loop_
 _symmetry_equiv_pos_site_id
 _symmetry_equiv_pos_as_xyz
  1  'x, y, z'
loop_
 _atom_site_type_symbol
 _atom_site_label
 _atom_site_symmetry_multiplicity
 _atom_site_fract_x
 _atom_site_fract_y
 _atom_site_fract_z
 _atom_site_occupancy
  Ni  Ni0  1  0.75000000  0.65953600  0.97410600  1
  Ni  Ni1  1  0.25000000  0.84046400  0.47410600  1
  Ni  Ni2  1  0.25000000  0.34046400  0.02589400  1
  Ni  Ni3  1  0.75000000  0.15953600  0.52589400  1
  Cu  Cu4  1  0.00666200  0.99246800  0.76905900  1
  Cu  Cu5  1  0.99333800  0.50753200  0.26905900  1
  Cu  Cu6  1  0.00666200  0.49246800  0.73094100  1
  Cu  Cu7  1  0.49333800  0.99246800  0.76905900  1
  Cu  Cu8  1  0.99333800  0.00753200  0.23094100  1
  Cu  Cu9  1  0.50666200  0.00753200  0.23094100  1
  Cu  Cu10  1  0.50666200  0.50753200  0.26905900  1
  Cu  Cu11  1  0.49333800  0.49246800  0.73094100  1
  C  C12  1  0.25000000  0.83011000  0.00795100  1
  C  C13  1  0.25000000  0.33011000  0.49204900  1
  C  C14  1  0.75000000  0.66989000  0.50795100  1
  C  C15  1  0.75000000  0.16989000  0.99204900  1
  C  C16  1  0.25000000  0.71364000  0.17010900  1
  C  C17  1  0.00000000  0.50000000  0.50000000  1
  C  C18  1  0.50000000  0.50000000  0.50000000  1
  C  C19  1  0.25000000  0.17480600  0.64075800  1
  C  C20  1  0.75000000  0.82519400  0.35924200  1
  C  C21  1  0.25000000  0.67480600  0.85924200  1
  C  C22  1  0.75000000  0.32519400  0.14075800  1
  C  C23  1  0.75000000  0.78636000  0.67010900  1
  C  C24  1  0.50000000  0.00000000  0.00000000  1
  C  C25  1  0.00000000  0.00000000  0.00000000  1
  C  C26  1  0.75000000  0.28636000  0.82989100  1
  C  C27  1  0.25000000  0.21364000  0.32989100  1
