# generated using pymatgen
data_CuNiC
_symmetry_space_group_name_H-M   'P 1'
_cell_length_a   4.38720500
_cell_length_b   7.02720800
_cell_length_c   7.68121800
_cell_angle_alpha   90.00000000
_cell_angle_beta   90.00000000
_cell_angle_gamma   90.00000000
_symmetry_Int_Tables_number   1
_chemical_formula_structural   CuNiC
_chemical_formula_sum   'Cu4 Ni4 C4'
_cell_volume   236.81043062
_cell_formula_units_Z   4
loop_
 _symmetry_equiv_pos_site_id
 _symmetry_equiv_pos_as_xyz
  1  'x, y, z'
loop_
 _atom_site_type_symbol
 _atom_site_label
 _atom_site_symmetry_multiplicity
 _atom_site_fract_x
 _atom_site_fract_y
 _atom_site_fract_z
 _atom_site_occupancy
  C  C0  1  0.25000000  0.50146800  0.19156100  1
  C  C1  1  0.75000000  0.49853200  0.80843900  1
  C  C2  1  0.75000000  0.99853200  0.69156100  1
  C  C3  1  0.25000000  0.00146800  0.30843900  1
  Ni  Ni4  1  0.25000000  0.79679500  0.89246000  1
  Ni  Ni5  1  0.75000000  0.20320500  0.10754000  1
  Ni  Ni6  1  0.75000000  0.70320500  0.39246000  1
  Ni  Ni7  1  0.25000000  0.29679500  0.60754000  1
  Cu  Cu8  1  0.25000000  0.65962600  0.56689800  1
  Cu  Cu9  1  0.75000000  0.34037400  0.43310200  1
  Cu  Cu10  1  0.75000000  0.84037400  0.06689800  1
  Cu  Cu11  1  0.25000000  0.15962600  0.93310200  1
