# generated using pymatgen
data_Cu4Ni2C15
_symmetry_space_group_name_H-M   'P 1'
_cell_length_a   19.22965989
_cell_length_b   19.22965989
_cell_length_c   19.22965989
_cell_angle_alpha   168.31987336
_cell_angle_beta   168.31987336
_cell_angle_gamma   16.54705108
_symmetry_Int_Tables_number   1
_chemical_formula_structural   Cu4Ni2C15
_chemical_formula_sum   'Cu4 Ni2 C15'
_cell_volume   291.41805367
_cell_formula_units_Z   1
loop_
 _symmetry_equiv_pos_site_id
 _symmetry_equiv_pos_as_xyz
  1  'x, y, z'
loop_
 _atom_site_type_symbol
 _atom_site_label
 _atom_site_symmetry_multiplicity
 _atom_site_fract_x
 _atom_site_fract_y
 _atom_site_fract_z
 _atom_site_occupancy
  Ni  Ni0  1  0.54847100  0.54847100  0.00000000  1
  Ni  Ni1  1  0.45152900  0.45152900  0.00000000  1
  Cu  Cu2  1  0.21254600  0.21254600  0.00000000  1
  Cu  Cu3  1  0.87883800  0.87883800  0.00000000  1
  Cu  Cu4  1  0.78745400  0.78745400  0.00000000  1
  Cu  Cu5  1  0.12116200  0.12116200  0.00000000  1
  C  C6  1  0.66637900  0.66637900  0.00000000  1
  C  C7  1  0.33362100  0.33362100  0.00000000  1
  C  C8  1  0.00000000  0.00000000  0.00000000  1
  C  C9  1  0.27373900  0.27373900  0.00000000  1
  C  C10  1  0.94429100  0.94429100  0.00000000  1
  C  C11  1  0.60982000  0.60982000  0.00000000  1
  C  C12  1  0.72626100  0.72626100  0.00000000  1
  C  C13  1  0.39018000  0.39018000  0.00000000  1
  C  C14  1  0.05570900  0.05570900  0.00000000  1
  C  C15  1  0.66680700  0.16680700  0.50000000  1
  C  C16  1  0.33319300  0.83319300  0.50000000  1
  C  C17  1  0.00000000  0.50000000  0.50000000  1
  C  C18  1  0.83319300  0.33319300  0.50000000  1
  C  C19  1  0.50000000  0.00000000  0.50000000  1
  C  C20  1  0.16680700  0.66680700  0.50000000  1
