# generated using pymatgen
data_Cu20(NiC6)3
_symmetry_space_group_name_H-M   'P 1'
_cell_length_a   17.53017100
_cell_length_b   6.90179100
_cell_length_c   9.47142404
_cell_angle_alpha   47.13604385
_cell_angle_beta   90.00000000
_cell_angle_gamma   90.00000000
_symmetry_Int_Tables_number   1
_chemical_formula_structural   Cu20(NiC6)3
_chemical_formula_sum   'Cu40 Ni6 C36'
_cell_volume   839.94339571
_cell_formula_units_Z   2
loop_
 _symmetry_equiv_pos_site_id
 _symmetry_equiv_pos_as_xyz
  1  'x, y, z'
loop_
 _atom_site_type_symbol
 _atom_site_label
 _atom_site_symmetry_multiplicity
 _atom_site_fract_x
 _atom_site_fract_y
 _atom_site_fract_z
 _atom_site_occupancy
  C  C0  1  0.38189600  0.65526500  0.32975300  1
  C  C1  1  0.61810400  0.65526500  0.82975300  1
  C  C2  1  0.11785200  0.61423900  0.87471200  1
  C  C3  1  0.88214800  0.61423900  0.37471200  1
  C  C4  1  0.37022400  0.20747100  0.18519300  1
  C  C5  1  0.62977600  0.20747100  0.68519300  1
  C  C6  1  0.35241400  0.04873800  0.40391800  1
  C  C7  1  0.64758600  0.04873800  0.90391800  1
  C  C8  1  0.25612800  0.51555800  0.61889600  1
  C  C9  1  0.74387200  0.51555800  0.11889600  1
  C  C10  1  0.20629900  0.49843400  0.48991900  1
  C  C11  1  0.79370100  0.49843400  0.98991900  1
  C  C12  1  0.52671600  0.87194900  0.40561600  1
  C  C13  1  0.47328400  0.87194900  0.90561600  1
  C  C14  1  0.55520300  0.67080200  0.38742100  1
  C  C15  1  0.44479700  0.67080200  0.88742100  1
  C  C16  1  0.31536000  0.05974900  0.65057400  1
  C  C17  1  0.68464000  0.05974900  0.15057400  1
  C  C18  1  0.40382300  0.04465000  0.63166700  1
  C  C19  1  0.59617700  0.04465000  0.13166700  1
  C  C20  1  0.14146500  0.15610600  0.48539500  1
  C  C21  1  0.85853500  0.15610600  0.98539500  1
  C  C22  1  0.14585900  0.00756800  0.41114300  1
  C  C23  1  0.85414100  0.00756800  0.91114300  1
  C  C24  1  0.24328700  0.25285600  0.91871500  1
  C  C25  1  0.75671300  0.25285600  0.41871500  1
  C  C26  1  0.29501000  0.48041500  0.86270000  1
  C  C27  1  0.70499000  0.48041500  0.36270000  1
  C  C28  1  0.08813400  0.99941500  0.19463500  1
  C  C29  1  0.91186600  0.99941500  0.69463500  1
  C  C30  1  0.17627900  0.99595100  0.17230700  1
  C  C31  1  0.82372100  0.99595100  0.67230700  1
  C  C32  1  0.97247400  0.81677000  0.58437500  1
  C  C33  1  0.02752600  0.81677000  0.08437500  1
  C  C34  1  0.94436300  0.61852600  0.80186100  1
  C  C35  1  0.05563700  0.61852600  0.30186100  1
  Ni  Ni36  1  0.24845400  0.73707800  0.04559800  1
  Ni  Ni37  1  0.75154600  0.73707800  0.54559800  1
  Ni  Ni38  1  0.06381300  0.28860100  0.68249500  1
  Ni  Ni39  1  0.93618700  0.28860100  0.18249500  1
  Ni  Ni40  1  0.56255700  0.33088200  0.34612200  1
  Ni  Ni41  1  0.43744300  0.33088200  0.84612200  1
  Cu  Cu42  1  0.36134200  0.02854300  0.31117600  1
  Cu  Cu43  1  0.63865800  0.02854300  0.81117600  1
  Cu  Cu44  1  0.25783100  0.54579400  0.50065500  1
  Cu  Cu45  1  0.74216900  0.54579400  0.00065500  1
  Cu  Cu46  1  0.51889500  0.81810300  0.33330400  1
  Cu  Cu47  1  0.48110500  0.81810300  0.83330400  1
  Cu  Cu48  1  0.35677200  0.13212100  0.55454200  1
  Cu  Cu49  1  0.64322800  0.13212100  0.05454200  1
  Cu  Cu50  1  0.14658800  0.98019100  0.52852100  1
  Cu  Cu51  1  0.85341200  0.98019100  0.02852100  1
  Cu  Cu52  1  0.24302000  0.44697800  0.84116500  1
  Cu  Cu53  1  0.75698000  0.44697800  0.34116500  1
  Cu  Cu54  1  0.13611800  0.08128200  0.18764000  1
  Cu  Cu55  1  0.86388200  0.08128200  0.68764000  1
  Cu  Cu56  1  0.98088300  0.76402900  0.70946900  1
  Cu  Cu57  1  0.01911700  0.76402900  0.20946900  1
  Cu  Cu58  1  0.32059200  0.58166200  0.13036400  1
  Cu  Cu59  1  0.67940800  0.58166200  0.63036400  1
  Cu  Cu60  1  0.25047900  0.91834700  0.08150700  1
  Cu  Cu61  1  0.74952100  0.91834700  0.58150700  1
  Cu  Cu62  1  0.24199900  0.88575800  0.83662000  1
  Cu  Cu63  1  0.75800100  0.88575800  0.33662000  1
  Cu  Cu64  1  0.18056500  0.55915100  0.13985000  1
  Cu  Cu65  1  0.81943500  0.55915100  0.63985000  1
  Cu  Cu66  1  0.06443400  0.99318800  0.83006200  1
  Cu  Cu67  1  0.93556600  0.99318800  0.33006200  1
  Cu  Cu68  1  0.11114900  0.38805100  0.51290800  1
  Cu  Cu69  1  0.88885100  0.38805100  0.01290800  1
  Cu  Cu70  1  0.09541500  0.38486600  0.77013300  1
  Cu  Cu71  1  0.90458500  0.38486600  0.27013300  1
  Cu  Cu72  1  0.01553300  0.38675600  0.11758800  1
  Cu  Cu73  1  0.98446700  0.38675600  0.61758800  1
  Cu  Cu74  1  0.48186500  0.41523800  0.31958800  1
  Cu  Cu75  1  0.51813500  0.41523800  0.81958800  1
  Cu  Cu76  1  0.59399400  0.43843200  0.15959000  1
  Cu  Cu77  1  0.40600600  0.43843200  0.65959000  1
  Cu  Cu78  1  0.60764000  0.43447300  0.41733800  1
  Cu  Cu79  1  0.39236000  0.43447300  0.91733800  1
  Cu  Cu80  1  0.43200400  0.03657100  0.98878300  1
  Cu  Cu81  1  0.56799600  0.03657100  0.48878300  1
