# generated using pymatgen
data_Cu3Ni2C23
_symmetry_space_group_name_H-M   'P 1'
_cell_length_a   6.27335625
_cell_length_b   10.66508056
_cell_length_c   9.82555077
_cell_angle_alpha   89.71874364
_cell_angle_beta   91.42498434
_cell_angle_gamma   90.95130357
_symmetry_Int_Tables_number   1
_chemical_formula_structural   Cu3Ni2C23
_chemical_formula_sum   'Cu6 Ni4 C46'
_cell_volume   657.08629201
_cell_formula_units_Z   2
loop_
 _symmetry_equiv_pos_site_id
 _symmetry_equiv_pos_as_xyz
  1  'x, y, z'
loop_
 _atom_site_type_symbol
 _atom_site_label
 _atom_site_symmetry_multiplicity
 _atom_site_fract_x
 _atom_site_fract_y
 _atom_site_fract_z
 _atom_site_occupancy
  C  C0  1  0.50406400  0.16396200  0.89919900  1
  C  C1  1  0.01544900  0.65977500  0.89532100  1
  C  C2  1  0.98380300  0.01243300  0.98506800  1
  C  C3  1  0.48294500  0.50346000  0.98256000  1
  C  C4  1  0.00197800  0.00195300  0.50449300  1
  C  C5  1  0.50486700  0.50324900  0.50156200  1
  C  C6  1  0.47620900  0.83862300  0.40100900  1
  C  C7  1  0.98148300  0.33114500  0.40277700  1
  Ni  Ni8  1  0.52121000  0.15480800  0.49970400  1
  Ni  Ni9  1  0.02154600  0.65436800  0.50276800  1
  Ni  Ni10  1  0.55419400  0.81794700  0.96764000  1
  Ni  Ni11  1  0.04181700  0.32962200  0.97359500  1
  Cu  Cu12  1  0.23703600  0.58985900  0.20858200  1
  Cu  Cu13  1  0.75925600  0.90981700  0.70807600  1
  Cu  Cu14  1  0.25568400  0.40618500  0.70712200  1
  Cu  Cu15  1  0.72959100  0.08549700  0.21398300  1
  Cu  Cu16  1  0.51472600  0.66387000  0.71021900  1
  Cu  Cu17  1  0.01479300  0.16581900  0.71325800  1
  C  C18  1  0.26950000  0.90845700  0.71735900  1
  C  C19  1  0.76538300  0.40707700  0.71430900  1
  C  C20  1  0.49443700  0.33542000  0.22283000  1
  C  C21  1  0.98959400  0.83745800  0.21709600  1
  C  C22  1  0.23814600  0.09045200  0.22083100  1
  C  C23  1  0.74363000  0.59314400  0.21403800  1
  C  C24  1  0.24742700  0.22949100  0.35667700  1
  C  C25  1  0.76167600  0.75418200  0.33038600  1
  C  C26  1  0.47082600  0.15748200  0.10370500  1
  C  C27  1  0.97566700  0.67998600  0.10316300  1
  C  C28  1  0.99136400  0.00095100  0.31800700  1
  C  C29  1  0.50327700  0.52928200  0.32013500  1
  C  C30  1  0.02175000  0.99115200  0.80179100  1
  C  C31  1  0.52107400  0.49297000  0.79724600  1
  C  C32  1  0.21017300  0.92878200  0.10796100  1
  C  C33  1  0.73562400  0.43871500  0.10095100  1
  C  C34  1  0.74112900  0.07886500  0.58136000  1
  C  C35  1  0.24344700  0.57887000  0.57802000  1
  C  C36  1  0.49902500  0.83003100  0.60807300  1
  C  C37  1  0.99169500  0.32940500  0.60436500  1
  C  C38  1  0.74221300  0.75481500  0.85692100  1
  C  C39  1  0.23199800  0.26188900  0.85951200  1
  C  C40  1  0.52543700  0.32555600  0.59211400  1
  C  C41  1  0.03249200  0.82287200  0.59578000  1
  C  C42  1  0.27571200  0.06731400  0.60001500  1
  C  C43  1  0.77802000  0.57233900  0.59311000  1
  C  C44  1  0.70343400  0.23669700  0.35077000  1
  C  C45  1  0.19606000  0.75003200  0.34068900  1
  C  C46  1  0.46882700  0.02053400  0.34474700  1
  C  C47  1  0.97267200  0.53050600  0.34280800  1
  C  C48  1  0.49944200  0.97356600  0.85049700  1
  C  C49  1  0.99366800  0.47807600  0.83920500  1
  C  C50  1  0.29069500  0.76160900  0.84975700  1
  C  C51  1  0.78094700  0.26351400  0.84919400  1
  C  C52  1  0.75663700  0.91554400  0.09297400  1
  C  C53  1  0.21624700  0.43740600  0.07374400  1
  C  C54  1  0.51190500  0.67260600  0.08929100  1
  C  C55  1  0.00839900  0.17086600  0.09930700  1
