# generated using pymatgen
data_Cu7Ni2C5
_symmetry_space_group_name_H-M   'P 1'
_cell_length_a   4.04252398
_cell_length_b   6.81282013
_cell_length_c   9.48802554
_cell_angle_alpha   117.63554132
_cell_angle_beta   102.30003114
_cell_angle_gamma   90.00582042
_symmetry_Int_Tables_number   1
_chemical_formula_structural   Cu7Ni2C5
_chemical_formula_sum   'Cu7 Ni2 C5'
_cell_volume   224.70270074
_cell_formula_units_Z   1
loop_
 _symmetry_equiv_pos_site_id
 _symmetry_equiv_pos_as_xyz
  1  'x, y, z'
loop_
 _atom_site_type_symbol
 _atom_site_label
 _atom_site_symmetry_multiplicity
 _atom_site_fract_x
 _atom_site_fract_y
 _atom_site_fract_z
 _atom_site_occupancy
  C  C0  1  0.43456600  0.77707800  0.87010300  1
  C  C1  1  0.28497600  0.90210000  0.57043200  1
  C  C2  1  0.66242400  0.18892800  0.32518200  1
  C  C3  1  0.96868000  0.15363100  0.93812100  1
  C  C4  1  0.04587000  0.78954400  0.09244400  1
  Ni  Ni5  1  0.67182000  0.60803400  0.34420500  1
  Ni  Ni6  1  0.29701400  0.47484500  0.59420600  1
  Cu  Cu7  1  0.45207700  0.10636500  0.90474600  1
  Cu  Cu8  1  0.54746300  0.80746200  0.09565000  1
  Cu  Cu9  1  0.94480700  0.80670800  0.89031900  1
  Cu  Cu10  1  0.00822500  0.46856400  0.01718400  1
  Cu  Cu11  1  0.84702100  0.04735600  0.69437700  1
  Cu  Cu12  1  0.07944400  0.16497100  0.15946700  1
  Cu  Cu13  1  0.17228000  0.97293200  0.34523200  1
