# generated using pymatgen
data_Cu14NiC24
_symmetry_space_group_name_H-M   'P 1'
_cell_length_a   9.09293020
_cell_length_b   9.01188030
_cell_length_c   8.79395852
_cell_angle_alpha   74.39274953
_cell_angle_beta   107.87646164
_cell_angle_gamma   107.82241557
_symmetry_Int_Tables_number   1
_chemical_formula_structural   Cu14NiC24
_chemical_formula_sum   'Cu14 Ni1 C24'
_cell_volume   640.60474484
_cell_formula_units_Z   1
loop_
 _symmetry_equiv_pos_site_id
 _symmetry_equiv_pos_as_xyz
  1  'x, y, z'
loop_
 _atom_site_type_symbol
 _atom_site_label
 _atom_site_symmetry_multiplicity
 _atom_site_fract_x
 _atom_site_fract_y
 _atom_site_fract_z
 _atom_site_occupancy
  Ni  Ni0  1  0.73624193  0.04693142  0.29042311  1
  Cu  Cu1  1  0.82917327  0.16415928  0.66213049  1
  Cu  Cu2  1  0.15948951  0.31519917  0.84454366  1
  Cu  Cu3  1  0.65645171  0.82751884  0.82635946  1
  Cu  Cu4  1  0.49457529  0.00606634  0.49709316  1
  Cu  Cu5  1  0.08126998  0.91423784  0.90655876  1
  Cu  Cu6  1  0.24079591  0.72294611  0.74535171  1
  Cu  Cu7  1  0.43264767  0.61257079  0.58394462  1
  Cu  Cu8  1  0.55960565  0.42644094  0.43421132  1
  Cu  Cu9  1  0.70022825  0.34591100  0.23596893  1
  Cu  Cu10  1  0.94158642  0.07488682  0.05741171  1
  Cu  Cu11  1  0.00979035  0.48632301  0.50937366  1
  Cu  Cu12  1  0.84545010  0.69643591  0.15259859  1
  Cu  Cu13  1  0.17481178  0.83126495  0.33318857  1
  Cu  Cu14  1  0.48513980  0.50441115  0.98352832  1
  C  C15  1  0.49998217  0.16214412  0.84460935  1
  C  C16  1  0.83046985  0.48281079  0.84577725  1
  C  C17  1  0.16861262  0.16469016  0.49847596  1
  C  C18  1  0.85563340  0.79564796  0.52563858  1
  C  C19  1  0.16203972  0.48355470  0.17617015  1
  C  C20  1  0.47791527  0.81767670  0.14899379  1
  C  C21  1  0.76556978  0.21832467  0.85399894  1
  C  C22  1  0.56077180  0.43431493  0.81156434  1
  C  C23  1  0.90391680  0.11327846  0.47777359  1
  C  C24  1  0.22987686  0.14012916  0.77975828  1
  C  C25  1  0.84595281  0.74832653  0.79692969  1
  C  C26  1  0.46868204  0.89163223  0.88117307  1
  C  C27  1  0.09966734  0.50369270  0.90114763  1
  C  C28  1  0.43433934  0.18489080  0.56672083  1
  C  C29  1  0.81696107  0.52260907  0.57560862  1
  C  C30  1  0.55606281  0.11440390  0.11879239  1
  C  C31  1  0.20341452  0.44071831  0.45174473  1
  C  C32  1  0.90091284  0.49109151  0.11452116  1
  C  C33  1  0.57693737  0.85164430  0.41444732  1
  C  C34  1  0.13084633  0.22387000  0.22954478  1
  C  C35  1  0.76049316  0.87120646  0.20557230  1
  C  C36  1  0.42983236  0.55167062  0.18436178  1
  C  C37  1  0.12792808  0.89842000  0.52331359  1
  C  C38  1  0.21963303  0.75852533  0.14380681  1
