# generated using pymatgen
data_Cu2NiC4
_symmetry_space_group_name_H-M   'P 1'
_cell_length_a   5.84361159
_cell_length_b   5.84361159
_cell_length_c   5.84361159
_cell_angle_alpha   118.96244559
_cell_angle_beta   118.96244559
_cell_angle_gamma   91.80669226
_symmetry_Int_Tables_number   1
_chemical_formula_structural   Cu2NiC4
_chemical_formula_sum   'Cu4 Ni2 C8'
_cell_volume   143.23642907
_cell_formula_units_Z   2
loop_
 _symmetry_equiv_pos_site_id
 _symmetry_equiv_pos_as_xyz
  1  'x, y, z'
loop_
 _atom_site_type_symbol
 _atom_site_label
 _atom_site_symmetry_multiplicity
 _atom_site_fract_x
 _atom_site_fract_y
 _atom_site_fract_z
 _atom_site_occupancy
  Ni  Ni0  1  0.75000000  0.25000000  0.50000000  1
  Ni  Ni1  1  0.00000000  0.00000000  0.00000000  1
  Cu  Cu2  1  0.87500000  0.62500000  0.25000000  1
  Cu  Cu3  1  0.37500000  0.62500000  0.75000000  1
  Cu  Cu4  1  0.37500000  0.12500000  0.75000000  1
  Cu  Cu5  1  0.37500000  0.62500000  0.25000000  1
  C  C6  1  0.13385100  0.88155600  0.29342600  1
  C  C7  1  0.11844400  0.41187000  0.25229500  1
  C  C8  1  0.15957500  0.86614900  0.74770500  1
  C  C9  1  0.16187000  0.40957500  0.79342600  1
  C  C10  1  0.59042500  0.38385100  0.75229500  1
  C  C11  1  0.63155600  0.83813000  0.24770500  1
  C  C12  1  0.58813000  0.84042500  0.70657400  1
  C  C13  1  0.61614900  0.36844400  0.20657400  1
