# generated using pymatgen
data_Cu2NiC6
_symmetry_space_group_name_H-M   'P 1'
_cell_length_a   6.89842900
_cell_length_b   5.14239400
_cell_length_c   8.95788458
_cell_angle_alpha   55.92361279
_cell_angle_beta   90.00000000
_cell_angle_gamma   90.00000000
_symmetry_Int_Tables_number   1
_chemical_formula_structural   Cu2NiC6
_chemical_formula_sum   'Cu4 Ni2 C12'
_cell_volume   263.21104975
_cell_formula_units_Z   2
loop_
 _symmetry_equiv_pos_site_id
 _symmetry_equiv_pos_as_xyz
  1  'x, y, z'
loop_
 _atom_site_type_symbol
 _atom_site_label
 _atom_site_symmetry_multiplicity
 _atom_site_fract_x
 _atom_site_fract_y
 _atom_site_fract_z
 _atom_site_occupancy
  Ni  Ni0  1  0.00000000  0.00000000  0.00000000  1
  Ni  Ni1  1  0.50000000  0.00000000  0.50000000  1
  Cu  Cu2  1  0.82534200  0.31472100  0.19996600  1
  Cu  Cu3  1  0.67465800  0.31472100  0.69996600  1
  Cu  Cu4  1  0.17465800  0.68527900  0.80003400  1
  Cu  Cu5  1  0.32534200  0.68527900  0.30003400  1
  C  C6  1  0.83694400  0.28842300  0.01278800  1
  C  C7  1  0.66305600  0.28842300  0.51278800  1
  C  C8  1  0.16305600  0.71157700  0.98721200  1
  C  C9  1  0.33694400  0.71157700  0.48721200  1
  C  C10  1  0.58443600  0.19510900  0.25579100  1
  C  C11  1  0.91556400  0.19510900  0.75579100  1
  C  C12  1  0.41556400  0.80489100  0.74420900  1
  C  C13  1  0.08443600  0.80489100  0.24420900  1
  C  C14  1  0.78161300  0.71529700  0.08411100  1
  C  C15  1  0.71838700  0.71529700  0.58411100  1
  C  C16  1  0.21838700  0.28470300  0.91588900  1
  C  C17  1  0.28161300  0.28470300  0.41588900  1
