# generated using pymatgen
data_Cu2NiC4
_symmetry_space_group_name_H-M   'P 1'
_cell_length_a   3.44816000
_cell_length_b   6.12753948
_cell_length_c   6.62439804
_cell_angle_alpha   117.51981638
_cell_angle_beta   105.08561708
_cell_angle_gamma   90.00000000
_symmetry_Int_Tables_number   1
_chemical_formula_structural   Cu2NiC4
_chemical_formula_sum   'Cu2 Ni1 C4'
_cell_volume   118.66276191
_cell_formula_units_Z   1
loop_
 _symmetry_equiv_pos_site_id
 _symmetry_equiv_pos_as_xyz
  1  'x, y, z'
loop_
 _atom_site_type_symbol
 _atom_site_label
 _atom_site_symmetry_multiplicity
 _atom_site_fract_x
 _atom_site_fract_y
 _atom_site_fract_z
 _atom_site_occupancy
  Ni  Ni0  1  0.00000000  0.00000000  0.00000000  1
  Cu  Cu1  1  0.25823100  0.24518300  0.51646200  1
  Cu  Cu2  1  0.74176900  0.75481700  0.48353800  1
  C  C3  1  0.36636300  0.70295700  0.73272600  1
  C  C4  1  0.63363700  0.29704300  0.26727400  1
  C  C5  1  0.12778500  0.80338900  0.25557000  1
  C  C6  1  0.87221500  0.19661100  0.74443000  1
