# generated using pymatgen
data_Cu16Ni9C5
_symmetry_space_group_name_H-M   'P 1'
_cell_length_a   8.07900720
_cell_length_b   8.07900769
_cell_length_c   16.14786700
_cell_angle_alpha   90.00000000
_cell_angle_beta   90.00000000
_cell_angle_gamma   120.44252313
_symmetry_Int_Tables_number   1
_chemical_formula_structural   Cu16Ni9C5
_chemical_formula_sum   'Cu32 Ni18 C10'
_cell_volume   908.67358273
_cell_formula_units_Z   2
loop_
 _symmetry_equiv_pos_site_id
 _symmetry_equiv_pos_as_xyz
  1  'x, y, z'
loop_
 _atom_site_type_symbol
 _atom_site_label
 _atom_site_symmetry_multiplicity
 _atom_site_fract_x
 _atom_site_fract_y
 _atom_site_fract_z
 _atom_site_occupancy
  C  C0  1  0.50559200  0.49440800  0.75000000  1
  C  C1  1  0.50782900  0.00598300  0.75000000  1
  C  C2  1  0.99401700  0.49217100  0.75000000  1
  C  C3  1  0.49440800  0.50559200  0.25000000  1
  C  C4  1  0.49217100  0.99401700  0.25000000  1
  C  C5  1  0.00598300  0.50782900  0.25000000  1
  C  C6  1  0.33396900  0.66603100  0.96104300  1
  C  C7  1  0.66603100  0.33396900  0.03895700  1
  C  C8  1  0.66603100  0.33396900  0.46104300  1
  C  C9  1  0.33396900  0.66603100  0.53895700  1
  Ni  Ni10  1  0.21370100  0.41966400  0.01076700  1
  Ni  Ni11  1  0.58033600  0.78629900  0.01076700  1
  Ni  Ni12  1  0.21147300  0.78852700  0.01109800  1
  Ni  Ni13  1  0.78629900  0.58033600  0.98923300  1
  Ni  Ni14  1  0.41966400  0.21370100  0.98923300  1
  Ni  Ni15  1  0.78852700  0.21147300  0.98890200  1
  Ni  Ni16  1  0.78629900  0.58033600  0.51076700  1
  Ni  Ni17  1  0.41966400  0.21370100  0.51076700  1
  Ni  Ni18  1  0.78852700  0.21147300  0.51109800  1
  Ni  Ni19  1  0.21370100  0.41966400  0.48923300  1
  Ni  Ni20  1  0.58033600  0.78629900  0.48923300  1
  Ni  Ni21  1  0.21147300  0.78852700  0.48890200  1
  Ni  Ni22  1  0.97936400  0.02063600  0.81909200  1
  Ni  Ni23  1  0.02063600  0.97936400  0.18090800  1
  Ni  Ni24  1  0.02063600  0.97936400  0.31909200  1
  Ni  Ni25  1  0.97936400  0.02063600  0.68090800  1
  Ni  Ni26  1  0.02416900  0.97583100  0.75000000  1
  Ni  Ni27  1  0.97583100  0.02416900  0.25000000  1
  Cu  Cu28  1  0.17084500  0.34045700  0.75000000  1
  Cu  Cu29  1  0.65954300  0.82915500  0.75000000  1
  Cu  Cu30  1  0.18110000  0.81890000  0.75000000  1
  Cu  Cu31  1  0.82915500  0.65954300  0.25000000  1
  Cu  Cu32  1  0.34045700  0.17084500  0.25000000  1
  Cu  Cu33  1  0.81890000  0.18110000  0.25000000  1
  Cu  Cu34  1  0.33788900  0.66211100  0.75000000  1
  Cu  Cu35  1  0.66211100  0.33788900  0.25000000  1
  Cu  Cu36  1  0.77966900  0.55789800  0.82224800  1
  Cu  Cu37  1  0.44210200  0.22033100  0.82224800  1
  Cu  Cu38  1  0.77783600  0.22216400  0.82289700  1
  Cu  Cu39  1  0.22033100  0.44210200  0.17775200  1
  Cu  Cu40  1  0.55789800  0.77966900  0.17775200  1
  Cu  Cu41  1  0.22216400  0.77783600  0.17710300  1
  Cu  Cu42  1  0.22033100  0.44210200  0.32224800  1
  Cu  Cu43  1  0.55789800  0.77966900  0.32224800  1
  Cu  Cu44  1  0.22216400  0.77783600  0.32289700  1
  Cu  Cu45  1  0.77966900  0.55789800  0.67775200  1
  Cu  Cu46  1  0.44210200  0.22033100  0.67775200  1
  Cu  Cu47  1  0.77783600  0.22216400  0.67710300  1
  Cu  Cu48  1  0.45407100  0.54592900  0.87345100  1
  Cu  Cu49  1  0.45458100  0.90885700  0.87406000  1
  Cu  Cu50  1  0.09114300  0.54541900  0.87406000  1
  Cu  Cu51  1  0.54592900  0.45407100  0.12654900  1
  Cu  Cu52  1  0.54541900  0.09114300  0.12594000  1
  Cu  Cu53  1  0.90885700  0.45458100  0.12594000  1
  Cu  Cu54  1  0.54592900  0.45407100  0.37345100  1
  Cu  Cu55  1  0.54541900  0.09114300  0.37406000  1
  Cu  Cu56  1  0.90885700  0.45458100  0.37406000  1
  Cu  Cu57  1  0.45407100  0.54592900  0.62654900  1
  Cu  Cu58  1  0.45458100  0.90885700  0.62594000  1
  Cu  Cu59  1  0.09114300  0.54541900  0.62594000  1
