# generated using pymatgen
data_Cu2(NiC11)3
_symmetry_space_group_name_H-M   'P 1'
_cell_length_a   7.59574600
_cell_length_b   12.23038300
_cell_length_c   13.25507078
_cell_angle_alpha   90.00000000
_cell_angle_beta   93.64249439
_cell_angle_gamma   90.00000000
_symmetry_Int_Tables_number   1
_chemical_formula_structural   Cu2(NiC11)3
_chemical_formula_sum   'Cu4 Ni6 C66'
_cell_volume   1228.89373330
_cell_formula_units_Z   2
loop_
 _symmetry_equiv_pos_site_id
 _symmetry_equiv_pos_as_xyz
  1  'x, y, z'
loop_
 _atom_site_type_symbol
 _atom_site_label
 _atom_site_symmetry_multiplicity
 _atom_site_fract_x
 _atom_site_fract_y
 _atom_site_fract_z
 _atom_site_occupancy
  Ni  Ni0  1  0.34158100  0.76392100  0.80853400  1
  Ni  Ni1  1  0.65841900  0.26392100  0.19146600  1
  Ni  Ni2  1  0.85931200  0.02838600  0.63302400  1
  Ni  Ni3  1  0.14068800  0.52838600  0.36697600  1
  Ni  Ni4  1  0.14090100  0.40191700  0.84888000  1
  Ni  Ni5  1  0.85909900  0.90191700  0.15112000  1
  Cu  Cu6  1  0.08278600  0.76176100  0.54100600  1
  Cu  Cu7  1  0.91721400  0.26176100  0.45899400  1
  Cu  Cu8  1  0.82893400  0.76545600  0.78851500  1
  Cu  Cu9  1  0.17106600  0.26545600  0.21148500  1
  C  C10  1  0.59530500  0.03016100  0.49562600  1
  C  C11  1  0.40469500  0.53016100  0.50437400  1
  C  C12  1  0.52771500  0.95662700  0.58975600  1
  C  C13  1  0.47228500  0.45662700  0.41024400  1
  C  C14  1  0.65204300  0.89993700  0.50842800  1
  C  C15  1  0.34795700  0.39993700  0.49157200  1
  C  C16  1  0.46194100  0.96807300  0.80221300  1
  C  C17  1  0.53805900  0.46807300  0.19778700  1
  C  C18  1  0.26488900  0.96981500  0.85207000  1
  C  C19  1  0.73511100  0.46981500  0.14793000  1
  C  C20  1  0.27493900  0.95870000  0.72833200  1
  C  C21  1  0.72506100  0.45870000  0.27166800  1
  C  C22  1  0.40944400  0.52325200  0.91871500  1
  C  C23  1  0.59055600  0.02325200  0.08128500  1
  C  C24  1  0.43051700  0.39450300  0.96100100  1
  C  C25  1  0.56948300  0.89450300  0.03899900  1
  C  C26  1  0.29475900  0.47846500  0.01281900  1
  C  C27  1  0.70524100  0.97846500  0.98718100  1
  C  C28  1  0.13973400  0.20421600  0.91855800  1
  C  C29  1  0.86026600  0.70421600  0.08144200  1
  C  C30  1  0.27387400  0.20731300  0.82569600  1
  C  C31  1  0.72612600  0.70731300  0.17430400  1
  C  C32  1  0.05711800  0.20170000  0.79829300  1
  C  C33  1  0.94288200  0.70170000  0.20170700  1
  C  C34  1  0.04386100  0.46322300  0.66366800  1
  C  C35  1  0.95613900  0.96322300  0.33633200  1
  C  C36  1  0.22836600  0.39451800  0.66742500  1
  C  C37  1  0.77163400  0.89451800  0.33257500  1
  C  C38  1  0.23159300  0.52590000  0.69787800  1
  C  C39  1  0.76840700  0.02590000  0.30212200  1
  C  C40  1  0.91156700  0.51799100  0.93178600  1
  C  C41  1  0.08843300  0.01799100  0.06821400  1
  C  C42  1  0.89130400  0.38732400  0.96996600  1
  C  C43  1  0.10869600  0.88732400  0.03003400  1
  C  C44  1  0.80244600  0.42877100  0.85767700  1
  C  C45  1  0.19755400  0.92877100  0.14232300  1
  C  C46  1  0.12276000  0.97263900  0.54550300  1
  C  C47  1  0.87724000  0.47263900  0.45449700  1
  C  C48  1  0.37877200  0.69888500  0.63520700  1
  C  C49  1  0.62122800  0.19888500  0.36479300  1
  C  C50  1  0.09525200  0.71493000  0.91143100  1
  C  C51  1  0.90474800  0.21493000  0.08856900  1
  C  C52  1  0.60189300  0.70447000  0.91572500  1
  C  C53  1  0.39810700  0.20447000  0.08427500  1
  C  C54  1  0.82387900  0.97690900  0.81165100  1
  C  C55  1  0.17612100  0.47690900  0.18834900  1
  C  C56  1  0.81717800  0.22978000  0.64031600  1
  C  C57  1  0.18282200  0.72978000  0.35968400  1
  C  C58  1  0.63376300  0.97095000  0.54763600  1
  C  C59  1  0.36623700  0.47095000  0.45236400  1
  C  C60  1  0.33602300  0.93608300  0.79680800  1
  C  C61  1  0.66397700  0.43608300  0.20319200  1
  C  C62  1  0.34235700  0.45657100  0.94441800  1
  C  C63  1  0.65764300  0.95657100  0.05558200  1
  C  C64  1  0.15426600  0.23419600  0.84713000  1
  C  C65  1  0.84573400  0.73419600  0.15287000  1
  C  C66  1  0.16223900  0.45363800  0.70500200  1
  C  C67  1  0.83776100  0.95363800  0.29499800  1
  C  C68  1  0.90863700  0.43773000  0.90880900  1
  C  C69  1  0.09136300  0.93773000  0.09119100  1
  C  C70  1  0.58322200  0.20911500  0.84029700  1
  C  C71  1  0.41677800  0.70911500  0.15970300  1
  C  C72  1  0.35838400  0.25120900  0.59686900  1
  C  C73  1  0.64161600  0.75120900  0.40313100  1
  C  C74  1  0.64278900  0.47315500  0.71686700  1
  C  C75  1  0.35721100  0.97315500  0.28313300  1
