# generated using pymatgen
data_CuNiC
_symmetry_space_group_name_H-M   'P 1'
_cell_length_a   5.40003100
_cell_length_b   5.47031500
_cell_length_c   5.49159446
_cell_angle_alpha   80.10170405
_cell_angle_beta   90.00000000
_cell_angle_gamma   90.00000000
_symmetry_Int_Tables_number   1
_chemical_formula_structural   CuNiC
_chemical_formula_sum   'Cu4 Ni4 C4'
_cell_volume   159.80623932
_cell_formula_units_Z   4
loop_
 _symmetry_equiv_pos_site_id
 _symmetry_equiv_pos_as_xyz
  1  'x, y, z'
loop_
 _atom_site_type_symbol
 _atom_site_label
 _atom_site_symmetry_multiplicity
 _atom_site_fract_x
 _atom_site_fract_y
 _atom_site_fract_z
 _atom_site_occupancy
  C  C0  1  0.47381900  0.69289700  0.71297800  1
  C  C1  1  0.52618100  0.30710300  0.28702200  1
  C  C2  1  0.97381900  0.30710300  0.78702200  1
  C  C3  1  0.02618100  0.69289700  0.21297800  1
  Ni  Ni4  1  0.24653600  0.45952700  0.51018400  1
  Ni  Ni5  1  0.75346400  0.54047300  0.48981600  1
  Ni  Ni6  1  0.74653600  0.54047300  0.98981600  1
  Ni  Ni7  1  0.25346400  0.45952700  0.01018400  1
  Cu  Cu8  1  0.17435600  0.94245300  0.84364100  1
  Cu  Cu9  1  0.82564400  0.05754700  0.15635900  1
  Cu  Cu10  1  0.67435600  0.05754700  0.65635900  1
  Cu  Cu11  1  0.32564400  0.94245300  0.34364100  1
