# generated using pymatgen
data_Cu8Ni8C9
_symmetry_space_group_name_H-M   'P 1'
_cell_length_a   4.92631587
_cell_length_b   10.52289636
_cell_length_c   5.74835096
_cell_angle_alpha   85.04993622
_cell_angle_beta   95.09364485
_cell_angle_gamma   90.56101114
_symmetry_Int_Tables_number   1
_chemical_formula_structural   Cu8Ni8C9
_chemical_formula_sum   'Cu8 Ni8 C9'
_cell_volume   295.70491188
_cell_formula_units_Z   1
loop_
 _symmetry_equiv_pos_site_id
 _symmetry_equiv_pos_as_xyz
  1  'x, y, z'
loop_
 _atom_site_type_symbol
 _atom_site_label
 _atom_site_symmetry_multiplicity
 _atom_site_fract_x
 _atom_site_fract_y
 _atom_site_fract_z
 _atom_site_occupancy
  C  C0  1  0.50000000  0.00000000  0.00000000  1
  C  C1  1  0.48376945  0.27131446  0.72501829  1
  C  C2  1  0.50000000  0.00000000  0.50000000  1
  C  C3  1  0.51623055  0.72868554  0.27498171  1
  C  C4  1  0.50000000  0.50000000  0.00000000  1
  C  C5  1  0.96930071  0.23893088  0.24971247  1
  C  C6  1  0.03069929  0.76106912  0.75028753  1
  C  C7  1  0.00000000  0.50000000  0.50000000  1
  C  C8  1  0.00000000  0.00000000  0.00000000  1
  Ni  Ni9  1  0.76560922  0.07645181  0.23809744  1
  Ni  Ni10  1  0.71980231  0.81900314  0.51824793  1
  Ni  Ni11  1  0.71235066  0.56552676  0.27558870  1
  Ni  Ni12  1  0.69733766  0.33117159  0.00410032  1
  Ni  Ni13  1  0.28764934  0.43447324  0.72441130  1
  Ni  Ni14  1  0.30266234  0.66882841  0.99589968  1
  Ni  Ni15  1  0.28019769  0.18099686  0.48175207  1
  Ni  Ni16  1  0.23439078  0.92354819  0.76190256  1
  Cu  Cu17  1  0.81397060  0.58179475  0.76730917  1
  Cu  Cu18  1  0.78771300  0.32736034  0.51242547  1
  Cu  Cu19  1  0.75830015  0.83607746  0.01642892  1
  Cu  Cu20  1  0.71532416  0.09402899  0.76167073  1
  Cu  Cu21  1  0.28467584  0.90597101  0.23832927  1
  Cu  Cu22  1  0.21228700  0.67263966  0.48757453  1
  Cu  Cu23  1  0.24169985  0.16392254  0.98357108  1
  Cu  Cu24  1  0.18602940  0.41820525  0.23269083  1
