# generated using pymatgen
data_Cu16Ni10C3
_symmetry_space_group_name_H-M   'P 1'
_cell_length_a   11.53085686
_cell_length_b   11.53085686
_cell_length_c   12.88814092
_cell_angle_alpha   116.57338476
_cell_angle_beta   116.57338476
_cell_angle_gamma   90.00000000
_symmetry_Int_Tables_number   1
_chemical_formula_structural   Cu16Ni10C3
_chemical_formula_sum   'Cu16 Ni10 C3'
_cell_volume   1327.10356032
_cell_formula_units_Z   1
loop_
 _symmetry_equiv_pos_site_id
 _symmetry_equiv_pos_as_xyz
  1  'x, y, z'
loop_
 _atom_site_type_symbol
 _atom_site_label
 _atom_site_symmetry_multiplicity
 _atom_site_fract_x
 _atom_site_fract_y
 _atom_site_fract_z
 _atom_site_occupancy
  C  C0  1  0.00000000  -0.00000000  0.00000000  1
  C  C1  1  0.25000000  0.75000000  0.50000000  1
  C  C2  1  0.75000000  0.25000000  0.50000000  1
  Ni  Ni3  1  0.27757143  0.27757143  0.55514287  1
  Ni  Ni4  1  0.72242857  0.72242857  0.44485713  1
  Ni  Ni5  1  0.29535483  0.49130608  0.20321157  1
  Ni  Ni6  1  0.70464517  0.50869392  0.79678843  1
  Ni  Ni7  1  0.90785674  0.71190549  0.20321157  1
  Ni  Ni8  1  0.71190549  0.29535483  0.20321157  1
  Ni  Ni9  1  0.09214326  0.28809451  0.79678843  1
  Ni  Ni10  1  0.28809451  0.70464517  0.79678843  1
  Ni  Ni11  1  0.49130608  0.90785674  0.20321157  1
  Ni  Ni12  1  0.50869392  0.09214326  0.79678843  1
  Cu  Cu13  1  0.19126881  0.39026080  0.00000000  1
  Cu  Cu14  1  0.80873119  0.60973920  0.00000000  1
  Cu  Cu15  1  0.60973920  0.19126881  0.00000000  1
  Cu  Cu16  1  0.39026080  0.80873119  0.00000000  1
  Cu  Cu17  1  0.11440551  0.11440551  0.22881102  1
  Cu  Cu18  1  0.88559449  0.88559449  0.77118898  1
  Cu  Cu19  1  0.29047601  0.39795746  0.26674818  1
  Cu  Cu20  1  0.70952399  0.60204254  0.73325182  1
  Cu  Cu21  1  0.97627218  0.86879072  0.26674818  1
  Cu  Cu22  1  0.86879072  0.29047601  0.26674818  1
  Cu  Cu23  1  0.02372782  0.13120928  0.73325182  1
  Cu  Cu24  1  0.13120928  0.70952399  0.73325182  1
  Cu  Cu25  1  0.39795746  0.97627218  0.26674818  1
  Cu  Cu26  1  0.60204254  0.02372782  0.73325182  1
  Cu  Cu27  1  0.35747813  0.35747813  0.71495626  1
  Cu  Cu28  1  0.64252187  0.64252187  0.28504374  1
