# generated using pymatgen
data_Cu3Ni2C
_symmetry_space_group_name_H-M   'P 1'
_cell_length_a   8.30593252
_cell_length_b   7.95756400
_cell_length_c   12.56589228
_cell_angle_alpha   90.00000000
_cell_angle_beta   115.99644043
_cell_angle_gamma   90.00000000
_symmetry_Int_Tables_number   1
_chemical_formula_structural   Cu3Ni2C
_chemical_formula_sum   'Cu18 Ni12 C6'
_cell_volume   746.50929000
_cell_formula_units_Z   6
loop_
 _symmetry_equiv_pos_site_id
 _symmetry_equiv_pos_as_xyz
  1  'x, y, z'
loop_
 _atom_site_type_symbol
 _atom_site_label
 _atom_site_symmetry_multiplicity
 _atom_site_fract_x
 _atom_site_fract_y
 _atom_site_fract_z
 _atom_site_occupancy
  C  C0  1  0.45161700  0.51533000  0.42684600  1
  C  C1  1  0.54838300  0.01533000  0.07315400  1
  C  C2  1  0.05866100  0.39563600  0.83337200  1
  C  C3  1  0.94133900  0.89563600  0.66662800  1
  C  C4  1  0.90767500  0.53789300  0.18477000  1
  C  C5  1  0.09232500  0.03789300  0.31523000  1
  Ni  Ni6  1  0.74220200  0.28206400  0.39393200  1
  Ni  Ni7  1  0.25779800  0.78206400  0.10606800  1
  Ni  Ni8  1  0.26999400  0.71126200  0.58454400  1
  Ni  Ni9  1  0.73000600  0.21126200  0.91545600  1
  Ni  Ni10  1  0.44106100  0.38697600  0.52083100  1
  Ni  Ni11  1  0.55893900  0.88697600  0.97916900  1
  Ni  Ni12  1  0.57972300  0.67337500  0.48441600  1
  Ni  Ni13  1  0.42027700  0.17337500  0.01558400  1
  Ni  Ni14  1  0.61373100  0.16416600  0.83496100  1
  Ni  Ni15  1  0.38626900  0.66416600  0.66503900  1
  Ni  Ni16  1  0.37940300  0.85757500  0.12266300  1
  Ni  Ni17  1  0.62059700  0.35757500  0.37733700  1
  Cu  Cu18  1  0.81427100  0.44473500  0.74624800  1
  Cu  Cu19  1  0.18572900  0.94473500  0.75375200  1
  Cu  Cu20  1  0.25072300  0.57104100  0.29920400  1
  Cu  Cu21  1  0.74927700  0.07104100  0.20079600  1
  Cu  Cu22  1  0.08512800  0.32701000  0.69728800  1
  Cu  Cu23  1  0.91487200  0.82701000  0.80271200  1
  Cu  Cu24  1  0.91530600  0.62166300  0.33115700  1
  Cu  Cu25  1  0.08469400  0.12166300  0.16884300  1
  Cu  Cu26  1  0.06411600  0.16716900  0.87568700  1
  Cu  Cu27  1  0.93588400  0.66716900  0.62431300  1
  Cu  Cu28  1  0.90270200  0.77151600  0.13385700  1
  Cu  Cu29  1  0.09729800  0.27151600  0.36614300  1
  Cu  Cu30  1  0.23755200  0.55854500  0.86111000  1
  Cu  Cu31  1  0.76244800  0.05854500  0.63889000  1
  Cu  Cu32  1  0.64713000  0.51903200  0.12035200  1
  Cu  Cu33  1  0.35287000  0.01903200  0.37964800  1
  Cu  Cu34  1  0.94666500  0.96351200  0.52373100  1
  Cu  Cu35  1  0.05333500  0.46351200  0.97626900  1
