# generated using pymatgen
data_CuNi34C27
_symmetry_space_group_name_H-M   'P 1'
_cell_length_a   13.06356854
_cell_length_b   13.06356854
_cell_length_c   13.07102321
_cell_angle_alpha   65.58829692
_cell_angle_beta   65.58829692
_cell_angle_gamma   97.29911476
_symmetry_Int_Tables_number   1
_chemical_formula_structural   CuNi34C27
_chemical_formula_sum   'Cu1 Ni34 C27'
_cell_volume   1726.18758443
_cell_formula_units_Z   1
loop_
 _symmetry_equiv_pos_site_id
 _symmetry_equiv_pos_as_xyz
  1  'x, y, z'
loop_
 _atom_site_type_symbol
 _atom_site_label
 _atom_site_symmetry_multiplicity
 _atom_site_fract_x
 _atom_site_fract_y
 _atom_site_fract_z
 _atom_site_occupancy
  C  C0  1  0.05152900  0.80598000  0.72927700  1
  C  C1  1  0.80598000  0.05152900  0.72927700  1
  C  C2  1  0.94847100  0.19402000  0.27072300  1
  C  C3  1  0.19402000  0.94847100  0.27072300  1
  C  C4  1  0.76835400  0.76835400  0.58493500  1
  C  C5  1  0.23164600  0.23164600  0.41506500  1
  C  C6  1  0.69855400  0.30144600  0.00000000  1
  C  C7  1  0.30144600  0.69855400  0.00000000  1
  C  C8  1  0.04541800  0.46304300  0.75132300  1
  C  C9  1  0.46304300  0.04541800  0.75132300  1
  C  C10  1  0.95458200  0.53695700  0.24867700  1
  C  C11  1  0.53695700  0.95458200  0.24867700  1
  C  C12  1  0.82858300  0.42744100  0.62316100  1
  C  C13  1  0.42744100  0.82858300  0.62316100  1
  C  C14  1  0.17141700  0.57255900  0.37683900  1
  C  C15  1  0.57255900  0.17141700  0.37683900  1
  C  C16  1  0.90043200  0.09956800  0.00000000  1
  C  C17  1  0.09956800  0.90043200  0.00000000  1
  C  C18  1  0.26110900  0.46530100  0.89339400  1
  C  C19  1  0.46530100  0.26110900  0.89339400  1
  C  C20  1  0.73889100  0.53469900  0.10660600  1
  C  C21  1  0.53469900  0.73889100  0.10660600  1
  C  C22  1  0.39974900  0.60025100  0.50000000  1
  C  C23  1  0.60025100  0.39974900  0.50000000  1
  C  C24  1  0.50000000  0.50000000  0.00000000  1
  C  C25  1  0.24338400  0.24338400  0.74302300  1
  C  C26  1  0.75661600  0.75661600  0.25697700  1
  Ni  Ni27  1  0.68244100  0.68244100  0.94168900  1
  Ni  Ni28  1  0.31755900  0.31755900  0.05831100  1
  Ni  Ni29  1  0.05867700  0.05867700  0.82109600  1
  Ni  Ni30  1  0.94132300  0.94132300  0.17890400  1
  Ni  Ni31  1  0.08936400  0.28998600  0.92237500  1
  Ni  Ni32  1  0.28998600  0.08936400  0.92237500  1
  Ni  Ni33  1  0.91063600  0.71001400  0.07762500  1
  Ni  Ni34  1  0.71001400  0.91063600  0.07762500  1
  Ni  Ni35  1  0.88167500  0.48592800  0.93604600  1
  Ni  Ni36  1  0.48592800  0.88167500  0.93604600  1
  Ni  Ni37  1  0.11832500  0.51407200  0.06395400  1
  Ni  Ni38  1  0.51407200  0.11832500  0.06395400  1
  Ni  Ni39  1  0.86713400  0.27357300  0.81425800  1
  Ni  Ni40  1  0.27357300  0.86713400  0.81425800  1
  Ni  Ni41  1  0.13286600  0.72642700  0.18574200  1
  Ni  Ni42  1  0.72642700  0.13286600  0.18574200  1
  Ni  Ni43  1  0.24582000  0.63227000  0.68926700  1
  Ni  Ni44  1  0.63227000  0.24582000  0.68926700  1
  Ni  Ni45  1  0.75418000  0.36773000  0.31073300  1
  Ni  Ni46  1  0.36773000  0.75418000  0.31073300  1
  Ni  Ni47  1  0.01272700  0.60798100  0.55822500  1
  Ni  Ni48  1  0.60798100  0.01272700  0.55822500  1
  Ni  Ni49  1  0.98727300  0.39201900  0.44177500  1
  Ni  Ni50  1  0.39201900  0.98727300  0.44177500  1
  Ni  Ni51  1  0.21339000  0.42237500  0.56324300  1
  Ni  Ni52  1  0.42237500  0.21339000  0.56324300  1
  Ni  Ni53  1  0.78661000  0.57762500  0.43675700  1
  Ni  Ni54  1  0.57762500  0.78661000  0.43675700  1
  Ni  Ni55  1  0.65057200  0.44927300  0.81933600  1
  Ni  Ni56  1  0.44927300  0.65057200  0.81933600  1
  Ni  Ni57  1  0.34942800  0.55072700  0.18066400  1
  Ni  Ni58  1  0.55072700  0.34942800  0.18066400  1
  Ni  Ni59  1  0.42531700  0.42531700  0.69238100  1
  Ni  Ni60  1  0.57468300  0.57468300  0.30761900  1
  Cu  Cu61  1  0.00000000  0.00000000  0.50000000  1
