# generated using pymatgen
data_CuNi14C
_symmetry_space_group_name_H-M   'P 1'
_cell_length_a   6.53346777
_cell_length_b   6.62123868
_cell_length_c   10.45936693
_cell_angle_alpha   90.00000000
_cell_angle_beta   90.00000000
_cell_angle_gamma   120.44540434
_symmetry_Int_Tables_number   1
_chemical_formula_structural   CuNi14C
_chemical_formula_sum   'Cu1 Ni14 C1'
_cell_volume   390.07874062
_cell_formula_units_Z   1
loop_
 _symmetry_equiv_pos_site_id
 _symmetry_equiv_pos_as_xyz
  1  'x, y, z'
loop_
 _atom_site_type_symbol
 _atom_site_label
 _atom_site_symmetry_multiplicity
 _atom_site_fract_x
 _atom_site_fract_y
 _atom_site_fract_z
 _atom_site_occupancy
  C  C0  1  0.15951851  0.82975876  0.12500000  1
  Ni  Ni1  1  0.16592633  0.33296267  0.62500000  1
  Ni  Ni2  1  0.16840449  0.83420174  0.62500000  1
  Ni  Ni3  1  0.66166360  0.33136337  0.12500000  1
  Ni  Ni4  1  0.66690780  0.33057715  0.62500000  1
  Ni  Ni5  1  0.66166360  0.83029923  0.12500000  1
  Ni  Ni6  1  0.66690780  0.83632965  0.62500000  1
  Ni  Ni7  1  0.33546704  0.18144931  0.38271435  1
  Ni  Ni8  1  0.33546704  0.18144931  0.86728565  1
  Ni  Ni9  1  0.33546704  0.65401873  0.38271435  1
  Ni  Ni10  1  0.33546704  0.65401873  0.86728565  1
  Ni  Ni11  1  0.84070108  0.17035104  0.36781732  1
  Ni  Ni12  1  0.84070108  0.17035104  0.88218268  1
  Ni  Ni13  1  0.81841350  0.65920725  0.38976414  1
  Ni  Ni14  1  0.81841350  0.65920725  0.86023586  1
  Cu  Cu15  1  0.18891053  0.34445476  0.12500000  1
