# generated using pymatgen
data_Cu3NiC
_symmetry_space_group_name_H-M   'P 1'
_cell_length_a   5.99374400
_cell_length_b   6.01412795
_cell_length_c   7.16583431
_cell_angle_alpha   82.58426834
_cell_angle_beta   106.03387656
_cell_angle_gamma   119.27010768
_symmetry_Int_Tables_number   1
_chemical_formula_structural   Cu3NiC
_chemical_formula_sum   'Cu6 Ni2 C2'
_cell_volume   216.55716693
_cell_formula_units_Z   2
loop_
 _symmetry_equiv_pos_site_id
 _symmetry_equiv_pos_as_xyz
  1  'x, y, z'
loop_
 _atom_site_type_symbol
 _atom_site_label
 _atom_site_symmetry_multiplicity
 _atom_site_fract_x
 _atom_site_fract_y
 _atom_site_fract_z
 _atom_site_occupancy
  C  C0  1  0.34874300  0.65157000  0.01078100  1
  C  C1  1  0.59332700  0.33409900  0.79538900  1
  Ni  Ni2  1  0.05090100  0.99913500  0.16148900  1
  Ni  Ni3  1  0.95051200  0.00525100  0.84263400  1
  Cu  Cu4  1  0.57261700  0.69821500  0.75648600  1
  Cu  Cu5  1  0.11123500  0.69211900  0.22680500  1
  Cu  Cu6  1  0.73545700  0.96839400  0.23649100  1
  Cu  Cu7  1  0.22848800  0.95724000  0.76155900  1
  Cu  Cu8  1  0.95896300  0.34887500  0.75666000  1
  Cu  Cu9  1  0.38575600  0.34710400  0.23970500  1
