# generated using pymatgen
data_Cu3NiC16
_symmetry_space_group_name_H-M   'P 1'
_cell_length_a   5.44383700
_cell_length_b   5.53575600
_cell_length_c   7.71551102
_cell_angle_alpha   90.17431835
_cell_angle_beta   90.04387311
_cell_angle_gamma   90.14609221
_symmetry_Int_Tables_number   1
_chemical_formula_structural   Cu3NiC16
_chemical_formula_sum   'Cu3 Ni1 C16'
_cell_volume   232.51083516
_cell_formula_units_Z   1
loop_
 _symmetry_equiv_pos_site_id
 _symmetry_equiv_pos_as_xyz
  1  'x, y, z'
loop_
 _atom_site_type_symbol
 _atom_site_label
 _atom_site_symmetry_multiplicity
 _atom_site_fract_x
 _atom_site_fract_y
 _atom_site_fract_z
 _atom_site_occupancy
  C  C0  1  0.51094200  0.54667000  0.25280100  1
  C  C1  1  0.98933900  0.04988700  0.25219000  1
  C  C2  1  0.48905800  0.45333000  0.74719900  1
  C  C3  1  0.01066100  0.95011300  0.74781000  1
  Ni  Ni4  1  0.50000000  0.00000000  0.00000000  1
  Cu  Cu5  1  0.00000000  0.50000000  0.00000000  1
  Cu  Cu6  1  0.50000000  0.00000000  0.50000000  1
  Cu  Cu7  1  0.00000000  0.50000000  0.50000000  1
  C  C8  1  0.78152300  0.79658600  0.04317300  1
  C  C9  1  0.71798600  0.29302500  0.45684400  1
  C  C10  1  0.20646900  0.21700200  0.54392300  1
  C  C11  1  0.29767700  0.71767200  0.95514400  1
  C  C12  1  0.21847700  0.20341400  0.95682700  1
  C  C13  1  0.28201400  0.70697500  0.54315600  1
  C  C14  1  0.79353100  0.78299800  0.45607700  1
  C  C15  1  0.70232300  0.28232800  0.04485600  1
  C  C16  1  0.41896600  0.98169900  0.24365300  1
  C  C17  1  0.08228300  0.48131700  0.25563100  1
  C  C18  1  0.58103400  0.01830100  0.75634700  1
  C  C19  1  0.91771700  0.51868300  0.74436900  1
