# generated using pymatgen
data_Cu12Ni4C
_symmetry_space_group_name_H-M   'P 1'
_cell_length_a   19.24861190
_cell_length_b   19.24861190
_cell_length_c   19.24861190
_cell_angle_alpha   60.00000000
_cell_angle_beta   60.00000000
_cell_angle_gamma   60.00000000
_symmetry_Int_Tables_number   1
_chemical_formula_structural   Cu12Ni4C
_chemical_formula_sum   'Cu24 Ni8 C2'
_cell_volume   5042.93360495
_cell_formula_units_Z   2
loop_
 _symmetry_equiv_pos_site_id
 _symmetry_equiv_pos_as_xyz
  1  'x, y, z'
loop_
 _atom_site_type_symbol
 _atom_site_label
 _atom_site_symmetry_multiplicity
 _atom_site_fract_x
 _atom_site_fract_y
 _atom_site_fract_z
 _atom_site_occupancy
  Ni  Ni0  1  0.20567300  0.20567300  0.20567300  1
  Ni  Ni1  1  0.20567300  0.20567300  0.38298200  1
  Ni  Ni2  1  0.20567300  0.38298200  0.20567300  1
  Ni  Ni3  1  0.04432700  0.04432700  0.86701800  1
  Ni  Ni4  1  0.04432700  0.04432700  0.04432700  1
  Ni  Ni5  1  0.38298200  0.20567300  0.20567300  1
  Ni  Ni6  1  0.04432700  0.86701800  0.04432700  1
  Ni  Ni7  1  0.86701800  0.04432700  0.04432700  1
  Cu  Cu8  1  0.80518800  0.43773500  0.43773500  1
  Cu  Cu9  1  0.43773500  0.80518800  0.31934200  1
  Cu  Cu10  1  0.43773500  0.31934200  0.80518800  1
  Cu  Cu11  1  0.43773500  0.80518800  0.43773500  1
  Cu  Cu12  1  0.44481200  0.81226500  0.93065800  1
  Cu  Cu13  1  0.44481200  0.81226500  0.81226500  1
  Cu  Cu14  1  0.31934200  0.43773500  0.43773500  1
  Cu  Cu15  1  0.31934200  0.43773500  0.80518800  1
  Cu  Cu16  1  0.81226500  0.44481200  0.81226500  1
  Cu  Cu17  1  0.81226500  0.44481200  0.93065800  1
  Cu  Cu18  1  0.80518800  0.43773500  0.31934200  1
  Cu  Cu19  1  0.81226500  0.93065800  0.81226500  1
  Cu  Cu20  1  0.81226500  0.93065800  0.44481200  1
  Cu  Cu21  1  0.43773500  0.31934200  0.43773500  1
  Cu  Cu22  1  0.93065800  0.81226500  0.44481200  1
  Cu  Cu23  1  0.93065800  0.81226500  0.81226500  1
  Cu  Cu24  1  0.43773500  0.43773500  0.80518800  1
  Cu  Cu25  1  0.31934200  0.80518800  0.43773500  1
  Cu  Cu26  1  0.43773500  0.43773500  0.31934200  1
  Cu  Cu27  1  0.80518800  0.31934200  0.43773500  1
  Cu  Cu28  1  0.93065800  0.44481200  0.81226500  1
  Cu  Cu29  1  0.81226500  0.81226500  0.44481200  1
  Cu  Cu30  1  0.44481200  0.93065800  0.81226500  1
  Cu  Cu31  1  0.81226500  0.81226500  0.93065800  1
  C  C32  1  0.00000000  0.00000000  0.00000000  1
  C  C33  1  0.25000000  0.25000000  0.25000000  1
