# generated using pymatgen
data_Cu5(Ni3C4)2
_symmetry_space_group_name_H-M   'P 1'
_cell_length_a   10.35085469
_cell_length_b   10.35085469
_cell_length_c   10.35085469
_cell_angle_alpha   90.00000000
_cell_angle_beta   90.00000000
_cell_angle_gamma   90.00000000
_symmetry_Int_Tables_number   1
_chemical_formula_structural   Cu5(Ni3C4)2
_chemical_formula_sum   'Cu20 Ni24 C32'
_cell_volume   1108.99256727
_cell_formula_units_Z   4
loop_
 _symmetry_equiv_pos_site_id
 _symmetry_equiv_pos_as_xyz
  1  'x, y, z'
loop_
 _atom_site_type_symbol
 _atom_site_label
 _atom_site_symmetry_multiplicity
 _atom_site_fract_x
 _atom_site_fract_y
 _atom_site_fract_z
 _atom_site_occupancy
  C  C0  1  0.18174163  0.21138399  0.46944452  1
  C  C1  1  0.96944452  0.31825837  0.78861601  1
  C  C2  1  0.28861601  0.53055548  0.68174163  1
  C  C3  1  0.31825837  0.78861601  0.96944452  1
  C  C4  1  0.53055548  0.68174163  0.28861601  1
  C  C5  1  0.21138399  0.46944452  0.18174163  1
  C  C6  1  0.68174163  0.28861601  0.53055548  1
  C  C7  1  0.46944452  0.18174163  0.21138399  1
  C  C8  1  0.78861601  0.96944452  0.31825837  1
  C  C9  1  0.81825837  0.71138399  0.03055548  1
  C  C10  1  0.03055548  0.81825837  0.71138399  1
  C  C11  1  0.71138399  0.03055548  0.81825837  1
  C  C12  1  0.97119552  0.52880448  0.47119552  1
  C  C13  1  0.52880448  0.47119552  0.97119552  1
  C  C14  1  0.47119552  0.97119552  0.52880448  1
  C  C15  1  0.02880448  0.02880448  0.02880448  1
  C  C16  1  0.92624194  0.25417214  0.30396630  1
  C  C17  1  0.80396630  0.57375806  0.74582786  1
  C  C18  1  0.24582786  0.69603370  0.42624194  1
  C  C19  1  0.57375806  0.74582786  0.80396630  1
  C  C20  1  0.69603370  0.42624194  0.24582786  1
  C  C21  1  0.25417214  0.30396630  0.92624194  1
  C  C22  1  0.42624194  0.24582786  0.69603370  1
  C  C23  1  0.30396630  0.92624194  0.25417214  1
  C  C24  1  0.74582786  0.80396630  0.57375806  1
  C  C25  1  0.07375806  0.75417214  0.19603370  1
  C  C26  1  0.19603370  0.07375806  0.75417214  1
  C  C27  1  0.75417214  0.19603370  0.07375806  1
  C  C28  1  0.57263802  0.92736198  0.07263802  1
  C  C29  1  0.92736198  0.07263802  0.57263802  1
  C  C30  1  0.07263802  0.57263802  0.92736198  1
  C  C31  1  0.42736198  0.42736198  0.42736198  1
  Ni  Ni32  1  0.94688640  0.14666744  0.42799031  1
  Ni  Ni33  1  0.92799031  0.55311360  0.85333256  1
  Ni  Ni34  1  0.35333256  0.57200969  0.44688640  1
  Ni  Ni35  1  0.55311360  0.85333256  0.92799031  1
  Ni  Ni36  1  0.57200969  0.44688640  0.35333256  1
  Ni  Ni37  1  0.14666744  0.42799031  0.94688640  1
  Ni  Ni38  1  0.44688640  0.35333256  0.57200969  1
  Ni  Ni39  1  0.42799031  0.94688640  0.14666744  1
  Ni  Ni40  1  0.85333256  0.92799031  0.55311360  1
  Ni  Ni41  1  0.05311360  0.64666744  0.07200969  1
  Ni  Ni42  1  0.07200969  0.05311360  0.64666744  1
  Ni  Ni43  1  0.64666744  0.07200969  0.05311360  1
  Ni  Ni44  1  0.87968007  0.15681948  0.17737999  1
  Ni  Ni45  1  0.67737999  0.62031993  0.84318052  1
  Ni  Ni46  1  0.34318052  0.82262001  0.37968007  1
  Ni  Ni47  1  0.62031993  0.84318052  0.67737999  1
  Ni  Ni48  1  0.82262001  0.37968007  0.34318052  1
  Ni  Ni49  1  0.15681948  0.17737999  0.87968007  1
  Ni  Ni50  1  0.37968007  0.34318052  0.82262001  1
  Ni  Ni51  1  0.17737999  0.87968007  0.15681948  1
  Ni  Ni52  1  0.84318052  0.67737999  0.62031993  1
  Ni  Ni53  1  0.12031993  0.65681948  0.32262001  1
  Ni  Ni54  1  0.32262001  0.12031993  0.65681948  1
  Ni  Ni55  1  0.65681948  0.32262001  0.12031993  1
  Cu  Cu56  1  0.06936810  0.32903590  0.29311881  1
  Cu  Cu57  1  0.79311881  0.43063190  0.67096410  1
  Cu  Cu58  1  0.17096410  0.70688119  0.56936810  1
  Cu  Cu59  1  0.43063190  0.67096410  0.79311881  1
  Cu  Cu60  1  0.70688119  0.56936810  0.17096410  1
  Cu  Cu61  1  0.32903590  0.29311881  0.06936810  1
  Cu  Cu62  1  0.56936810  0.17096410  0.70688119  1
  Cu  Cu63  1  0.29311881  0.06936810  0.32903590  1
  Cu  Cu64  1  0.67096410  0.79311881  0.43063190  1
  Cu  Cu65  1  0.93063190  0.82903590  0.20688119  1
  Cu  Cu66  1  0.20688119  0.93063190  0.82903590  1
  Cu  Cu67  1  0.82903590  0.20688119  0.93063190  1
  Cu  Cu68  1  0.66566034  0.83433966  0.16566034  1
  Cu  Cu69  1  0.83433966  0.16566034  0.66566034  1
  Cu  Cu70  1  0.16566034  0.66566034  0.83433966  1
  Cu  Cu71  1  0.33433966  0.33433966  0.33433966  1
  Cu  Cu72  1  0.09823965  0.40176035  0.59823965  1
  Cu  Cu73  1  0.40176035  0.59823965  0.09823965  1
  Cu  Cu74  1  0.59823965  0.09823965  0.40176035  1
  Cu  Cu75  1  0.90176035  0.90176035  0.90176035  1
