# generated using pymatgen
data_CuNiC5
_symmetry_space_group_name_H-M   'P 1'
_cell_length_a   5.97515358
_cell_length_b   5.97515358
_cell_length_c   5.97515358
_cell_angle_alpha   120.99458813
_cell_angle_beta   118.41859204
_cell_angle_gamma   90.52330497
_symmetry_Int_Tables_number   1
_chemical_formula_structural   CuNiC5
_chemical_formula_sum   'Cu2 Ni2 C10'
_cell_volume   151.41294369
_cell_formula_units_Z   2
loop_
 _symmetry_equiv_pos_site_id
 _symmetry_equiv_pos_as_xyz
  1  'x, y, z'
loop_
 _atom_site_type_symbol
 _atom_site_label
 _atom_site_symmetry_multiplicity
 _atom_site_fract_x
 _atom_site_fract_y
 _atom_site_fract_z
 _atom_site_occupancy
  C  C0  1  0.12526700  0.87526700  0.25000000  1
  C  C1  1  0.87473300  0.12473300  0.75000000  1
  Ni  Ni2  1  0.50000000  0.50000000  0.50000000  1
  Ni  Ni3  1  0.50000000  0.00000000  0.00000000  1
  Cu  Cu4  1  0.50000000  0.50000000  0.00000000  1
  Cu  Cu5  1  0.00000000  0.50000000  0.50000000  1
  C  C6  1  0.72170300  0.25569600  0.46600700  1
  C  C7  1  0.28969000  0.25569600  0.03399300  1
  C  C8  1  0.73104100  0.24986400  0.01882400  1
  C  C9  1  0.73104100  0.71221700  0.48117600  1
  C  C10  1  0.27829700  0.74430400  0.53399300  1
  C  C11  1  0.71031000  0.74430400  0.96600700  1
  C  C12  1  0.26895900  0.75013600  0.98117600  1
  C  C13  1  0.26895900  0.28778300  0.51882400  1
