# generated using pymatgen
data_Cu3Ni7C5
_symmetry_space_group_name_H-M   'P 1'
_cell_length_a   4.64859679
_cell_length_b   6.15621993
_cell_length_c   7.97397653
_cell_angle_alpha   105.07463191
_cell_angle_beta   97.14285598
_cell_angle_gamma   105.93519747
_symmetry_Int_Tables_number   1
_chemical_formula_structural   Cu3Ni7C5
_chemical_formula_sum   'Cu3 Ni7 C5'
_cell_volume   207.11533494
_cell_formula_units_Z   1
loop_
 _symmetry_equiv_pos_site_id
 _symmetry_equiv_pos_as_xyz
  1  'x, y, z'
loop_
 _atom_site_type_symbol
 _atom_site_label
 _atom_site_symmetry_multiplicity
 _atom_site_fract_x
 _atom_site_fract_y
 _atom_site_fract_z
 _atom_site_occupancy
  C  C0  1  0.84922900  0.11582500  0.33813200  1
  C  C1  1  0.24930100  0.82949700  0.92701200  1
  C  C2  1  0.55536700  0.48030000  0.15403700  1
  C  C3  1  0.91626000  0.24390400  0.87926400  1
  C  C4  1  0.19616000  0.71427300  0.43986200  1
  Ni  Ni5  1  0.21349800  0.45582700  0.97177700  1
  Ni  Ni6  1  0.66917300  0.23452500  0.99491400  1
  Ni  Ni7  1  0.44513400  0.72076100  0.32394100  1
  Ni  Ni8  1  0.29692600  0.66927600  0.61342700  1
  Ni  Ni9  1  0.89198000  0.50849000  0.33664600  1
  Ni  Ni10  1  0.94589400  0.00512900  0.80969600  1
  Ni  Ni11  1  0.16475900  0.96281900  0.48160700  1
  Cu  Cu12  1  0.31919700  0.22810800  0.21656700  1
  Cu  Cu13  1  0.78627800  0.73275200  0.09093400  1
  Cu  Cu14  1  0.79004300  0.32611500  0.72078300  1
