# generated using pymatgen
data_CuNi
_symmetry_space_group_name_H-M   'P 1'
_cell_length_a   3.68331600
_cell_length_b   7.97471321
_cell_length_c   9.39562527
_cell_angle_alpha   102.13937453
_cell_angle_beta   90.00000000
_cell_angle_gamma   103.35225534
_symmetry_Int_Tables_number   1
_chemical_formula_structural   CuNi
_chemical_formula_sum   'Cu6 Ni6'
_cell_volume   262.17443202
_cell_formula_units_Z   6
loop_
 _symmetry_equiv_pos_site_id
 _symmetry_equiv_pos_as_xyz
  1  'x, y, z'
loop_
 _atom_site_type_symbol
 _atom_site_label
 _atom_site_symmetry_multiplicity
 _atom_site_fract_x
 _atom_site_fract_y
 _atom_site_fract_z
 _atom_site_occupancy
  Ni  Ni0  1  0.62701400  0.25402800  0.92621100  1
  Ni  Ni1  1  0.37298600  0.74597200  0.07378900  1
  Ni  Ni2  1  0.74661100  0.49322200  0.78719000  1
  Ni  Ni3  1  0.25338900  0.50677800  0.21281000  1
  Ni  Ni4  1  0.07045300  0.14090600  0.59355900  1
  Ni  Ni5  1  0.92954700  0.85909400  0.40644100  1
  Cu  Cu6  1  0.03570100  0.07140200  0.83256300  1
  Cu  Cu7  1  0.96429900  0.92859800  0.16743700  1
  Cu  Cu8  1  0.34507100  0.69014200  0.81609200  1
  Cu  Cu9  1  0.65492900  0.30985800  0.18390800  1
  Cu  Cu10  1  0.65836000  0.31672000  0.54888800  1
  Cu  Cu11  1  0.34164000  0.68328000  0.45111200  1
