# generated using pymatgen
data_Cu13NiC6
_symmetry_space_group_name_H-M   'P 1'
_cell_length_a   13.04024463
_cell_length_b   13.04024463
_cell_length_c   13.04024463
_cell_angle_alpha   143.98728772
_cell_angle_beta   143.98728772
_cell_angle_gamma   51.84630209
_symmetry_Int_Tables_number   1
_chemical_formula_structural   Cu13NiC6
_chemical_formula_sum   'Cu26 Ni2 C12'
_cell_volume   762.29355377
_cell_formula_units_Z   2
loop_
 _symmetry_equiv_pos_site_id
 _symmetry_equiv_pos_as_xyz
  1  'x, y, z'
loop_
 _atom_site_type_symbol
 _atom_site_label
 _atom_site_symmetry_multiplicity
 _atom_site_fract_x
 _atom_site_fract_y
 _atom_site_fract_z
 _atom_site_occupancy
  C  C0  1  0.10682100  0.10682100  0.00000000  1
  C  C1  1  0.89317900  0.89317900  0.00000000  1
  C  C2  1  0.39317900  0.39317900  0.00000000  1
  C  C3  1  0.60682100  0.60682100  0.00000000  1
  C  C4  1  0.85363900  0.35363900  0.83285100  1
  C  C5  1  0.14636100  0.64636100  0.16714900  1
  C  C6  1  0.52078800  0.02078800  0.16714900  1
  C  C7  1  0.35363900  0.52078800  0.50000000  1
  C  C8  1  0.97921200  0.14636100  0.50000000  1
  C  C9  1  0.47921200  0.97921200  0.83285100  1
  C  C10  1  0.64636100  0.47921200  0.50000000  1
  C  C11  1  0.02078800  0.85363900  0.50000000  1
  Ni  Ni12  1  0.25000000  0.25000000  0.00000000  1
  Ni  Ni13  1  0.75000000  0.75000000  0.00000000  1
  Cu  Cu14  1  0.73705100  0.23705100  0.85650700  1
  Cu  Cu15  1  0.26294900  0.76294900  0.14349300  1
  Cu  Cu16  1  0.38054500  0.88054500  0.14349300  1
  Cu  Cu17  1  0.23705100  0.38054500  0.50000000  1
  Cu  Cu18  1  0.11945500  0.26294900  0.50000000  1
  Cu  Cu19  1  0.61945500  0.11945500  0.85650700  1
  Cu  Cu20  1  0.76294900  0.61945500  0.50000000  1
  Cu  Cu21  1  0.88054500  0.73705100  0.50000000  1
  Cu  Cu22  1  0.50000000  0.00000000  0.50000000  1
  Cu  Cu23  1  0.00000000  0.50000000  0.50000000  1
  Cu  Cu24  1  0.20981300  0.06609900  0.27591200  1
  Cu  Cu25  1  0.79018700  0.93390100  0.72408800  1
  Cu  Cu26  1  0.06609900  0.79018700  0.85628600  1
  Cu  Cu27  1  0.70981300  0.43390100  0.14371400  1
  Cu  Cu28  1  0.93390100  0.20981300  0.14371400  1
  Cu  Cu29  1  0.29018700  0.56609900  0.85628600  1
  Cu  Cu30  1  0.56609900  0.70981300  0.27591200  1
  Cu  Cu31  1  0.43390100  0.29018700  0.72408800  1
  Cu  Cu32  1  0.20644300  0.70644300  0.72657000  1
  Cu  Cu33  1  0.79355700  0.29355700  0.27343000  1
  Cu  Cu34  1  0.97987300  0.47987300  0.27343000  1
  Cu  Cu35  1  0.70644300  0.97987300  0.50000000  1
  Cu  Cu36  1  0.52012700  0.79355700  0.50000000  1
  Cu  Cu37  1  0.02012700  0.52012700  0.72657000  1
  Cu  Cu38  1  0.29355700  0.02012700  0.50000000  1
  Cu  Cu39  1  0.47987300  0.20644300  0.50000000  1
