# generated using pymatgen
data_Cu2NiC18
_symmetry_space_group_name_H-M   'P 1'
_cell_length_a   5.62418800
_cell_length_b   9.51069048
_cell_length_c   9.87308887
_cell_angle_alpha   118.68144573
_cell_angle_beta   105.97453649
_cell_angle_gamma   90.67268895
_symmetry_Int_Tables_number   1
_chemical_formula_structural   Cu2NiC18
_chemical_formula_sum   'Cu4 Ni2 C36'
_cell_volume   438.89720938
_cell_formula_units_Z   2
loop_
 _symmetry_equiv_pos_site_id
 _symmetry_equiv_pos_as_xyz
  1  'x, y, z'
loop_
 _atom_site_type_symbol
 _atom_site_label
 _atom_site_symmetry_multiplicity
 _atom_site_fract_x
 _atom_site_fract_y
 _atom_site_fract_z
 _atom_site_occupancy
  Ni  Ni0  1  0.75151300  0.98378400  0.00111000  1
  Ni  Ni1  1  0.24848700  0.01621600  0.99889000  1
  Cu  Cu2  1  0.29958400  0.66410100  0.66481300  1
  Cu  Cu3  1  0.70041600  0.33589900  0.33518700  1
  Cu  Cu4  1  0.80559100  0.67060700  0.66804100  1
  Cu  Cu5  1  0.19440900  0.32939300  0.33195900  1
  C  C6  1  0.46802700  0.97701000  0.35835100  1
  C  C7  1  0.53197300  0.02299000  0.64164900  1
  C  C8  1  0.92051600  0.98335800  0.36139100  1
  C  C9  1  0.07948400  0.01664200  0.63860900  1
  C  C10  1  0.84156300  0.34384800  0.01882200  1
  C  C11  1  0.15843700  0.65615200  0.98117800  1
  C  C12  1  0.38576200  0.33566400  0.02028000  1
  C  C13  1  0.61423800  0.66433600  0.97972000  1
  C  C14  1  0.18315300  0.64538800  0.34003200  1
  C  C15  1  0.81684700  0.35461200  0.65996800  1
  C  C16  1  0.72760200  0.63586300  0.34016900  1
  C  C17  1  0.27239800  0.36413700  0.65983100  1
  C  C18  1  0.58575700  0.52585100  0.59431700  1
  C  C19  1  0.41424300  0.47414900  0.40568300  1
  C  C20  1  0.07195900  0.54879600  0.59378100  1
  C  C21  1  0.92804100  0.45120400  0.40621900  1
  C  C22  1  0.32376900  0.72990000  0.09817300  1
  C  C23  1  0.67623100  0.27010000  0.90182700  1
  C  C24  1  0.83084700  0.69877300  0.09772900  1
  C  C25  1  0.16915300  0.30122700  0.90227100  1
  C  C26  1  0.02192400  0.17459400  0.72273900  1
  C  C27  1  0.97807600  0.82540600  0.27726100  1
  C  C28  1  0.51810900  0.20392100  0.69864200  1
  C  C29  1  0.48189100  0.79607900  0.30135800  1
  C  C30  1  0.27645500  0.09530900  0.20291500  1
  C  C31  1  0.72354500  0.90469100  0.79708500  1
  C  C32  1  0.78506000  0.10213100  0.17425400  1
  C  C33  1  0.21494000  0.89786900  0.82574600  1
  C  C34  1  0.59195200  0.86104700  0.55165700  1
  C  C35  1  0.40804800  0.13895300  0.44834300  1
  C  C36  1  0.11128700  0.87532900  0.52578700  1
  C  C37  1  0.88871300  0.12467100  0.47421300  1
  C  C38  1  0.45059900  0.58520300  0.86339700  1
  C  C39  1  0.54940100  0.41479700  0.13660300  1
  C  C40  1  0.93314100  0.59890100  0.87488400  1
  C  C41  1  0.06685900  0.40109900  0.12511600  1
