# generated using pymatgen
data_CuNiC8
_symmetry_space_group_name_H-M   'P 1'
_cell_length_a   8.52798113
_cell_length_b   8.56786670
_cell_length_c   8.53899399
_cell_angle_alpha   90.00000000
_cell_angle_beta   90.00000000
_cell_angle_gamma   90.00000000
_symmetry_Int_Tables_number   1
_chemical_formula_structural   CuNiC8
_chemical_formula_sum   'Cu4 Ni4 C32'
_cell_volume   623.91530559
_cell_formula_units_Z   4
loop_
 _symmetry_equiv_pos_site_id
 _symmetry_equiv_pos_as_xyz
  1  'x, y, z'
loop_
 _atom_site_type_symbol
 _atom_site_label
 _atom_site_symmetry_multiplicity
 _atom_site_fract_x
 _atom_site_fract_y
 _atom_site_fract_z
 _atom_site_occupancy
  Ni  Ni0  1  0.00000000  0.00000000  -0.00000000  1
  Ni  Ni1  1  0.50000000  0.50000000  0.50000000  1
  Ni  Ni2  1  0.50000000  0.00000000  0.50000000  1
  Ni  Ni3  1  0.00000000  0.50000000  -0.00000000  1
  C  C4  1  0.00000000  0.50000000  0.50000000  1
  C  C5  1  0.50000000  0.50000000  -0.00000000  1
  C  C6  1  0.50000000  0.00000000  -0.00000000  1
  C  C7  1  0.00000000  0.00000000  0.50000000  1
  Cu  Cu8  1  0.75000000  0.75000000  0.75000000  1
  Cu  Cu9  1  0.25000000  0.25000000  0.75000000  1
  Cu  Cu10  1  0.25000000  0.75000000  0.25000000  1
  Cu  Cu11  1  0.75000000  0.25000000  0.25000000  1
  C  C12  1  0.25000000  0.25000000  0.25000000  1
  C  C13  1  0.75000000  0.75000000  0.25000000  1
  C  C14  1  0.75000000  0.25000000  0.75000000  1
  C  C15  1  0.25000000  0.75000000  0.75000000  1
  C  C16  1  0.02648665  0.20494851  0.27521096  1
  C  C17  1  0.97351335  0.79505149  0.27521096  1
  C  C18  1  0.97351335  0.20494851  0.72478904  1
  C  C19  1  0.02648665  0.79505149  0.72478904  1
  C  C20  1  0.29041266  0.02666023  0.21925704  1
  C  C21  1  0.29041266  0.97333977  0.78074296  1
  C  C22  1  0.70958734  0.97333977  0.21925704  1
  C  C23  1  0.70958734  0.02666023  0.78074296  1
  C  C24  1  0.21335327  0.27233350  0.02446587  1
  C  C25  1  0.78664673  0.27233350  0.97553413  1
  C  C26  1  0.21335327  0.72766650  0.97553413  1
  C  C27  1  0.78664673  0.72766650  0.02446587  1
  C  C28  1  0.47351335  0.29505149  0.22478904  1
  C  C29  1  0.52648665  0.70494851  0.22478904  1
  C  C30  1  0.52648665  0.29505149  0.77521096  1
  C  C31  1  0.47351335  0.70494851  0.77521096  1
  C  C32  1  0.20958734  0.47333977  0.28074296  1
  C  C33  1  0.20958734  0.52666023  0.71925704  1
  C  C34  1  0.79041266  0.52666023  0.28074296  1
  C  C35  1  0.79041266  0.47333977  0.71925704  1
  C  C36  1  0.28664673  0.22766650  0.47553413  1
  C  C37  1  0.71335327  0.22766650  0.52446587  1
  C  C38  1  0.28664673  0.77233350  0.52446587  1
  C  C39  1  0.71335327  0.77233350  0.47553413  1
