# generated using pymatgen
data_Cu18Ni16C7
_symmetry_space_group_name_H-M   'P 1'
_cell_length_a   14.86048682
_cell_length_b   14.86048682
_cell_length_c   14.86048682
_cell_angle_alpha   60.00000000
_cell_angle_beta   60.00000000
_cell_angle_gamma   60.00000000
_symmetry_Int_Tables_number   1
_chemical_formula_structural   Cu18Ni16C7
_chemical_formula_sum   'Cu36 Ni32 C14'
_cell_volume   2320.51357026
_cell_formula_units_Z   2
loop_
 _symmetry_equiv_pos_site_id
 _symmetry_equiv_pos_as_xyz
  1  'x, y, z'
loop_
 _atom_site_type_symbol
 _atom_site_label
 _atom_site_symmetry_multiplicity
 _atom_site_fract_x
 _atom_site_fract_y
 _atom_site_fract_z
 _atom_site_occupancy
  C  C0  1  0.35661200  0.35661200  0.64338800  1
  C  C1  1  0.64338800  0.64338800  0.35661200  1
  C  C2  1  0.35661200  0.64338800  0.35661200  1
  C  C3  1  0.64338800  0.35661200  0.64338800  1
  C  C4  1  0.64338800  0.35661200  0.35661200  1
  C  C5  1  0.35661200  0.64338800  0.64338800  1
  C  C6  1  0.89338800  0.89338800  0.60661200  1
  C  C7  1  0.60661200  0.60661200  0.89338800  1
  C  C8  1  0.89338800  0.60661200  0.89338800  1
  C  C9  1  0.60661200  0.89338800  0.60661200  1
  C  C10  1  0.60661200  0.89338800  0.89338800  1
  C  C11  1  0.89338800  0.60661200  0.60661200  1
  C  C12  1  0.25000000  0.25000000  0.25000000  1
  C  C13  1  0.00000000  0.00000000  0.00000000  1
  Ni  Ni14  1  0.25622100  0.49762600  0.49762600  1
  Ni  Ni15  1  0.49762600  0.25622100  0.74852600  1
  Ni  Ni16  1  0.49762600  0.74852600  0.25622100  1
  Ni  Ni17  1  0.74852600  0.49762600  0.49762600  1
  Ni  Ni18  1  0.49762600  0.49762600  0.25622100  1
  Ni  Ni19  1  0.25622100  0.74852600  0.49762600  1
  Ni  Ni20  1  0.74852600  0.25622100  0.49762600  1
  Ni  Ni21  1  0.49762600  0.49762600  0.74852600  1
  Ni  Ni22  1  0.49762600  0.25622100  0.49762600  1
  Ni  Ni23  1  0.74852600  0.49762600  0.25622100  1
  Ni  Ni24  1  0.25622100  0.49762600  0.74852600  1
  Ni  Ni25  1  0.49762600  0.74852600  0.49762600  1
  Ni  Ni26  1  0.99377900  0.75237400  0.75237400  1
  Ni  Ni27  1  0.75237400  0.99377900  0.50147400  1
  Ni  Ni28  1  0.75237400  0.50147400  0.99377900  1
  Ni  Ni29  1  0.50147400  0.75237400  0.75237400  1
  Ni  Ni30  1  0.75237400  0.75237400  0.99377900  1
  Ni  Ni31  1  0.99377900  0.50147400  0.75237400  1
  Ni  Ni32  1  0.50147400  0.99377900  0.75237400  1
  Ni  Ni33  1  0.75237400  0.75237400  0.50147400  1
  Ni  Ni34  1  0.75237400  0.99377900  0.75237400  1
  Ni  Ni35  1  0.50147400  0.75237400  0.99377900  1
  Ni  Ni36  1  0.99377900  0.75237400  0.50147400  1
  Ni  Ni37  1  0.75237400  0.50147400  0.75237400  1
  Ni  Ni38  1  0.03148000  0.32284000  0.32284000  1
  Ni  Ni39  1  0.32284000  0.03148000  0.32284000  1
  Ni  Ni40  1  0.32284000  0.32284000  0.03148000  1
  Ni  Ni41  1  0.32284000  0.32284000  0.32284000  1
  Ni  Ni42  1  0.21852000  0.92716000  0.92716000  1
  Ni  Ni43  1  0.92716000  0.21852000  0.92716000  1
  Ni  Ni44  1  0.92716000  0.92716000  0.21852000  1
  Ni  Ni45  1  0.92716000  0.92716000  0.92716000  1
  Cu  Cu46  1  0.27505700  0.27505700  0.72494300  1
  Cu  Cu47  1  0.72494300  0.72494300  0.27505700  1
  Cu  Cu48  1  0.27505700  0.72494300  0.27505700  1
  Cu  Cu49  1  0.72494300  0.27505700  0.72494300  1
  Cu  Cu50  1  0.72494300  0.27505700  0.27505700  1
  Cu  Cu51  1  0.27505700  0.72494300  0.72494300  1
  Cu  Cu52  1  0.97494300  0.97494300  0.52505700  1
  Cu  Cu53  1  0.52505700  0.52505700  0.97494300  1
  Cu  Cu54  1  0.97494300  0.52505700  0.97494300  1
  Cu  Cu55  1  0.52505700  0.97494300  0.52505700  1
  Cu  Cu56  1  0.52505700  0.97494300  0.97494300  1
  Cu  Cu57  1  0.97494300  0.52505700  0.52505700  1
  Cu  Cu58  1  0.59974700  0.18456200  0.18456200  1
  Cu  Cu59  1  0.18456200  0.59974700  0.03112900  1
  Cu  Cu60  1  0.18456200  0.03112900  0.59974700  1
  Cu  Cu61  1  0.03112900  0.18456200  0.18456200  1
  Cu  Cu62  1  0.18456200  0.18456200  0.59974700  1
  Cu  Cu63  1  0.59974700  0.03112900  0.18456200  1
  Cu  Cu64  1  0.03112900  0.59974700  0.18456200  1
  Cu  Cu65  1  0.18456200  0.18456200  0.03112900  1
  Cu  Cu66  1  0.18456200  0.59974700  0.18456200  1
  Cu  Cu67  1  0.03112900  0.18456200  0.59974700  1
  Cu  Cu68  1  0.59974700  0.18456200  0.03112900  1
  Cu  Cu69  1  0.18456200  0.03112900  0.18456200  1
  Cu  Cu70  1  0.65025300  0.06543800  0.06543800  1
  Cu  Cu71  1  0.06543800  0.65025300  0.21887100  1
  Cu  Cu72  1  0.06543800  0.21887100  0.65025300  1
  Cu  Cu73  1  0.21887100  0.06543800  0.06543800  1
  Cu  Cu74  1  0.06543800  0.06543800  0.65025300  1
  Cu  Cu75  1  0.65025300  0.21887100  0.06543800  1
  Cu  Cu76  1  0.21887100  0.65025300  0.06543800  1
  Cu  Cu77  1  0.06543800  0.06543800  0.21887100  1
  Cu  Cu78  1  0.06543800  0.65025300  0.06543800  1
  Cu  Cu79  1  0.21887100  0.06543800  0.65025300  1
  Cu  Cu80  1  0.65025300  0.06543800  0.21887100  1
  Cu  Cu81  1  0.06543800  0.21887100  0.06543800  1
