# generated using pymatgen
data_CuNiC4
_symmetry_space_group_name_H-M   'P 1'
_cell_length_a   7.08279090
_cell_length_b   7.08279090
_cell_length_c   10.17968200
_cell_angle_alpha   90.00000000
_cell_angle_beta   90.00000000
_cell_angle_gamma   147.15863631
_symmetry_Int_Tables_number   1
_chemical_formula_structural   CuNiC4
_chemical_formula_sum   'Cu2 Ni2 C8'
_cell_volume   276.94567724
_cell_formula_units_Z   2
loop_
 _symmetry_equiv_pos_site_id
 _symmetry_equiv_pos_as_xyz
  1  'x, y, z'
loop_
 _atom_site_type_symbol
 _atom_site_label
 _atom_site_symmetry_multiplicity
 _atom_site_fract_x
 _atom_site_fract_y
 _atom_site_fract_z
 _atom_site_occupancy
  Ni  Ni0  1  0.25538600  0.74461400  0.25000000  1
  Ni  Ni1  1  0.74461400  0.25538600  0.75000000  1
  Cu  Cu2  1  0.00000000  0.00000000  0.50000000  1
  Cu  Cu3  1  0.00000000  0.00000000  0.00000000  1
  C  C4  1  0.46841800  0.53158200  0.75000000  1
  C  C5  1  0.53158200  0.46841800  0.25000000  1
  C  C6  1  0.06582700  0.93417300  0.75000000  1
  C  C7  1  0.93417300  0.06582700  0.25000000  1
  C  C8  1  0.36975200  0.63024800  0.56199200  1
  C  C9  1  0.36975200  0.63024800  0.93800800  1
  C  C10  1  0.63024800  0.36975200  0.06199200  1
  C  C11  1  0.63024800  0.36975200  0.43800800  1
