# generated using pymatgen
data_Cu4NiC13
_symmetry_space_group_name_H-M   'P 1'
_cell_length_a   10.45813777
_cell_length_b   10.45813777
_cell_length_c   5.14431566
_cell_angle_alpha   81.58995768
_cell_angle_beta   81.58995768
_cell_angle_gamma   72.65019822
_symmetry_Int_Tables_number   1
_chemical_formula_structural   Cu4NiC13
_chemical_formula_sum   'Cu8 Ni2 C26'
_cell_volume   528.12481116
_cell_formula_units_Z   2
loop_
 _symmetry_equiv_pos_site_id
 _symmetry_equiv_pos_as_xyz
  1  'x, y, z'
loop_
 _atom_site_type_symbol
 _atom_site_label
 _atom_site_symmetry_multiplicity
 _atom_site_fract_x
 _atom_site_fract_y
 _atom_site_fract_z
 _atom_site_occupancy
  C  C0  1  0.40670300  0.40670300  0.74667800  1
  C  C1  1  0.59329700  0.59329700  0.25332200  1
  Ni  Ni2  1  0.00000000  0.50000000  0.00000000  1
  Ni  Ni3  1  0.50000000  0.00000000  0.00000000  1
  Cu  Cu4  1  0.06901100  0.31188100  0.53176700  1
  Cu  Cu5  1  0.31188100  0.06901100  0.53176700  1
  Cu  Cu6  1  0.93098900  0.68811900  0.46823300  1
  Cu  Cu7  1  0.68811900  0.93098900  0.46823300  1
  Cu  Cu8  1  0.80205400  0.35430800  0.83614600  1
  Cu  Cu9  1  0.35430800  0.80205400  0.83614600  1
  Cu  Cu10  1  0.19794600  0.64569200  0.16385400  1
  Cu  Cu11  1  0.64569200  0.19794600  0.16385400  1
  C  C12  1  0.91256300  0.64938400  0.76063500  1
  C  C13  1  0.64938400  0.91256300  0.76063500  1
  C  C14  1  0.08743700  0.35061600  0.23936500  1
  C  C15  1  0.35061600  0.08743700  0.23936500  1
  C  C16  1  0.85755700  0.42443100  0.01209200  1
  C  C17  1  0.42443100  0.85755700  0.01209200  1
  C  C18  1  0.14244300  0.57556900  0.98790800  1
  C  C19  1  0.57556900  0.14244300  0.98790800  1
  C  C20  1  0.09572600  0.40230000  0.70815200  1
  C  C21  1  0.40230000  0.09572600  0.70815200  1
  C  C22  1  0.90427400  0.59770000  0.29184800  1
  C  C23  1  0.59770000  0.90427400  0.29184800  1
  C  C24  1  0.92333800  0.29024500  0.61503600  1
  C  C25  1  0.29024500  0.92333800  0.61503600  1
  C  C26  1  0.07666200  0.70975500  0.38496400  1
  C  C27  1  0.70975500  0.07666200  0.38496400  1
  C  C28  1  0.67853300  0.43160200  0.71327500  1
  C  C29  1  0.43160200  0.67853300  0.71327500  1
  C  C30  1  0.32146700  0.56839800  0.28672500  1
  C  C31  1  0.56839800  0.32146700  0.28672500  1
  C  C32  1  0.78565800  0.21434200  0.00000000  1
  C  C33  1  0.21434200  0.78565800  0.00000000  1
  C  C34  1  0.16093900  0.16093900  0.59809800  1
  C  C35  1  0.83906100  0.83906100  0.40190200  1
