# generated using pymatgen
data_Cu2(NiC3)3
_symmetry_space_group_name_H-M   'P 1'
_cell_length_a   7.01117900
_cell_length_b   5.99323900
_cell_length_c   6.51851803
_cell_angle_alpha   86.24108990
_cell_angle_beta   90.00000000
_cell_angle_gamma   90.00000000
_symmetry_Int_Tables_number   1
_chemical_formula_structural   Cu2(NiC3)3
_chemical_formula_sum   'Cu2 Ni3 C9'
_cell_volume   273.31674265
_cell_formula_units_Z   1
loop_
 _symmetry_equiv_pos_site_id
 _symmetry_equiv_pos_as_xyz
  1  'x, y, z'
loop_
 _atom_site_type_symbol
 _atom_site_label
 _atom_site_symmetry_multiplicity
 _atom_site_fract_x
 _atom_site_fract_y
 _atom_site_fract_z
 _atom_site_occupancy
  C  C0  1  0.50000000  0.00000000  0.50000000  1
  Ni  Ni1  1  0.24806100  0.50000000  0.50000000  1
  Ni  Ni2  1  0.75193900  0.50000000  0.50000000  1
  Ni  Ni3  1  0.00000000  0.00000000  0.50000000  1
  Cu  Cu4  1  0.00000000  0.00000000  0.00000000  1
  Cu  Cu5  1  0.50000000  0.00000000  0.00000000  1
  C  C6  1  0.00000000  0.32216800  0.69902100  1
  C  C7  1  0.50000000  0.32799600  0.71187300  1
  C  C8  1  0.24547900  0.81595800  0.71423800  1
  C  C9  1  0.75452100  0.81595800  0.71423800  1
  C  C10  1  0.24547900  0.18404200  0.28576200  1
  C  C11  1  0.75452100  0.18404200  0.28576200  1
  C  C12  1  0.50000000  0.67200400  0.28812700  1
  C  C13  1  0.00000000  0.67783200  0.30097900  1
