# generated using pymatgen
data_CuNiC4
_symmetry_space_group_name_H-M   'P 1'
_cell_length_a   4.84230822
_cell_length_b   4.84230822
_cell_length_c   8.04265100
_cell_angle_alpha   90.00000000
_cell_angle_beta   90.00000000
_cell_angle_gamma   120.00000307
_symmetry_Int_Tables_number   1
_chemical_formula_structural   CuNiC4
_chemical_formula_sum   'Cu2 Ni2 C8'
_cell_volume   163.31824390
_cell_formula_units_Z   2
loop_
 _symmetry_equiv_pos_site_id
 _symmetry_equiv_pos_as_xyz
  1  'x, y, z'
loop_
 _atom_site_type_symbol
 _atom_site_label
 _atom_site_symmetry_multiplicity
 _atom_site_fract_x
 _atom_site_fract_y
 _atom_site_fract_z
 _atom_site_occupancy
  Ni  Ni0  1  0.66666700  0.33333300  0.56923700  1
  Ni  Ni1  1  0.33333300  0.66666700  0.43076300  1
  Cu  Cu2  1  0.33333300  0.66666700  0.05889400  1
  Cu  Cu3  1  0.66666700  0.33333300  0.94110600  1
  C  C4  1  0.82876000  0.17124000  0.24069100  1
  C  C5  1  0.82876000  0.65751900  0.24069100  1
  C  C6  1  0.34248100  0.17124000  0.24069100  1
  C  C7  1  0.17124000  0.82876000  0.75930900  1
  C  C8  1  0.17124000  0.34248100  0.75930900  1
  C  C9  1  0.65751900  0.82876000  0.75930900  1
  C  C10  1  0.00000000  0.00000000  0.50000000  1
  C  C11  1  0.00000000  0.00000000  0.00000000  1
