# generated using pymatgen
data_Cu5(NiC3)3
_symmetry_space_group_name_H-M   'P 1'
_cell_length_a   7.36881500
_cell_length_b   10.53099532
_cell_length_c   11.33633214
_cell_angle_alpha   102.32032883
_cell_angle_beta   103.62123716
_cell_angle_gamma   109.29574273
_symmetry_Int_Tables_number   1
_chemical_formula_structural   Cu5(NiC3)3
_chemical_formula_sum   'Cu20 Ni12 C36'
_cell_volume   765.19887408
_cell_formula_units_Z   4
loop_
 _symmetry_equiv_pos_site_id
 _symmetry_equiv_pos_as_xyz
  1  'x, y, z'
loop_
 _atom_site_type_symbol
 _atom_site_label
 _atom_site_symmetry_multiplicity
 _atom_site_fract_x
 _atom_site_fract_y
 _atom_site_fract_z
 _atom_site_occupancy
  C  C0  1  0.44589100  0.41689000  0.13358300  1
  C  C1  1  0.55410900  0.58311000  0.86641700  1
  C  C2  1  0.27401000  0.31294500  0.85539900  1
  C  C3  1  0.72599000  0.68705500  0.14460100  1
  C  C4  1  0.82420100  0.04066400  0.06595600  1
  C  C5  1  0.17579900  0.95933600  0.93404400  1
  C  C6  1  0.64316200  0.09010700  0.98232900  1
  C  C7  1  0.35683800  0.90989300  0.01767100  1
  C  C8  1  0.99818000  0.36310100  0.92048600  1
  C  C9  1  0.00182000  0.63689900  0.07951400  1
  C  C10  1  0.73905500  0.27439200  0.89836200  1
  C  C11  1  0.26094500  0.72560800  0.10163800  1
  C  C12  1  0.05336500  0.75431300  0.39260000  1
  C  C13  1  0.94663500  0.24568700  0.60740000  1
  C  C14  1  0.23368100  0.67885000  0.39990300  1
  C  C15  1  0.76631900  0.32115000  0.60009700  1
  C  C16  1  0.86159000  0.32651100  0.29705400  1
  C  C17  1  0.13841000  0.67348900  0.70294600  1
  C  C18  1  0.11982900  0.42963800  0.33748900  1
  C  C19  1  0.88017100  0.57036200  0.66251100  1
  C  C20  1  0.35063500  0.10832300  0.19973700  1
  C  C21  1  0.64936500  0.89167700  0.80026300  1
  C  C22  1  0.39873200  0.05869200  0.33736500  1
  C  C23  1  0.60126800  0.94130800  0.66263500  1
  C  C24  1  0.39275700  0.36211200  0.53634500  1
  C  C25  1  0.60724300  0.63788800  0.46365500  1
  C  C26  1  0.38408800  0.19460600  0.52499700  1
  C  C27  1  0.61591200  0.80539400  0.47500300  1
  C  C28  1  0.93676700  0.20332000  0.99793600  1
  C  C29  1  0.06323300  0.79668000  0.00206400  1
  C  C30  1  0.93242300  0.53930000  0.33822100  1
  C  C31  1  0.06757700  0.46070000  0.66177900  1
  C  C32  1  0.38411700  0.25411300  0.36403000  1
  C  C33  1  0.61588300  0.74588700  0.63597000  1
  Ni  Ni34  1  0.78577200  0.09149900  0.00383200  1
  Ni  Ni35  1  0.21422800  0.90850100  0.99616800  1
  Ni  Ni36  1  0.88662300  0.28976700  0.93796400  1
  Ni  Ni37  1  0.11337700  0.71023300  0.06203600  1
  Ni  Ni38  1  0.08564200  0.66713300  0.37290700  1
  Ni  Ni39  1  0.91435800  0.33286700  0.62709300  1
  Ni  Ni40  1  0.97622700  0.42399700  0.32730200  1
  Ni  Ni41  1  0.02377300  0.57600300  0.67269800  1
  Ni  Ni42  1  0.37449700  0.13013600  0.29505200  1
  Ni  Ni43  1  0.62550300  0.86986400  0.70494800  1
  Ni  Ni44  1  0.42178900  0.27981400  0.49201300  1
  Ni  Ni45  1  0.57821100  0.72018600  0.50798700  1
  C  C46  1  0.24661400  0.03055900  0.68680200  1
  C  C47  1  0.75338600  0.96944100  0.31319800  1
  Cu  Cu48  1  0.12222200  0.22126300  0.04594400  1
  Cu  Cu49  1  0.87777800  0.77873700  0.95405600  1
  Cu  Cu50  1  0.74847000  0.52912200  0.31718200  1
  Cu  Cu51  1  0.25153000  0.47087800  0.68281800  1
  Cu  Cu52  1  0.36544700  0.34884600  0.31405800  1
  Cu  Cu53  1  0.63455300  0.65115400  0.68594200  1
  Cu  Cu54  1  0.31502200  0.40615700  0.91799100  1
  Cu  Cu55  1  0.68497800  0.59384300  0.08200900  1
  Cu  Cu56  1  0.54174000  0.28160600  0.08883500  1
  Cu  Cu57  1  0.45826000  0.71839400  0.91116500  1
  Cu  Cu58  1  0.34315800  0.54666300  0.18278800  1
  Cu  Cu59  1  0.65684200  0.45333700  0.81721200  1
  Cu  Cu60  1  0.09927500  0.88945200  0.66738900  1
  Cu  Cu61  1  0.90072500  0.11054800  0.33261100  1
  Cu  Cu62  1  0.40423400  0.08221800  0.81256200  1
  Cu  Cu63  1  0.59576600  0.91778200  0.18743800  1
  Cu  Cu64  1  0.34383700  0.02492700  0.58698600  1
  Cu  Cu65  1  0.65616300  0.97507300  0.41301400  1
  Cu  Cu66  1  0.14595000  0.12885400  0.68077800  1
  Cu  Cu67  1  0.85405000  0.87114600  0.31922200  1
