# generated using pymatgen
data_Cu2NiC4
_symmetry_space_group_name_H-M   'P 1'
_cell_length_a   4.77344200
_cell_length_b   5.97455300
_cell_length_c   10.25577700
_cell_angle_alpha   89.99997924
_cell_angle_beta   89.99998241
_cell_angle_gamma   90.00002159
_symmetry_Int_Tables_number   1
_chemical_formula_structural   Cu2NiC4
_chemical_formula_sum   'Cu8 Ni4 C16'
_cell_volume   292.48637309
_cell_formula_units_Z   4
loop_
 _symmetry_equiv_pos_site_id
 _symmetry_equiv_pos_as_xyz
  1  'x, y, z'
loop_
 _atom_site_type_symbol
 _atom_site_label
 _atom_site_symmetry_multiplicity
 _atom_site_fract_x
 _atom_site_fract_y
 _atom_site_fract_z
 _atom_site_occupancy
  Ni  Ni0  1  0.92704000  0.75000000  0.40597400  1
  Ni  Ni1  1  0.42702400  0.25000000  0.09401600  1
  Ni  Ni2  1  0.07297500  0.24999900  0.59401600  1
  Ni  Ni3  1  0.57295800  0.75000000  0.90597400  1
  Cu  Cu4  1  0.49999700  0.50001200  0.49991500  1
  Cu  Cu5  1  0.00000200  0.50001500  0.99991500  1
  Cu  Cu6  1  0.49999700  0.99998800  0.49991300  1
  Cu  Cu7  1  0.00000300  0.99998500  0.99991500  1
  Cu  Cu8  1  0.49356500  0.75000400  0.22640100  1
  Cu  Cu9  1  0.00644200  0.75000200  0.72640000  1
  Cu  Cu10  1  0.50618300  0.25000000  0.77353300  1
  Cu  Cu11  1  0.99381600  0.24999800  0.27353400  1
  C  C12  1  0.71743800  0.75000000  0.05498900  1
  C  C13  1  0.21736200  0.25000000  0.44519200  1
  C  C14  1  0.28263700  0.25000000  0.94519200  1
  C  C15  1  0.78256000  0.75000000  0.55499000  1
  C  C16  1  0.23077400  0.75000000  0.90625900  1
  C  C17  1  0.73082500  0.25000000  0.59376900  1
  C  C18  1  0.26922500  0.75000000  0.40626000  1
  C  C19  1  0.76917400  0.25000000  0.09376900  1
  C  C20  1  0.22536300  0.47013600  0.66296500  1
  C  C21  1  0.72541600  0.52996400  0.83705300  1
  C  C22  1  0.77458200  0.97003500  0.33705300  1
  C  C23  1  0.27463800  0.02986300  0.16296500  1
  C  C24  1  0.77458200  0.52996400  0.33705300  1
  C  C25  1  0.27463700  0.47013700  0.16296500  1
  C  C26  1  0.22536300  0.02986300  0.66296400  1
  C  C27  1  0.72541600  0.97003700  0.83705300  1
