# generated using pymatgen
data_Cu5Ni2C25
_symmetry_space_group_name_H-M   'P 1'
_cell_length_a   5.90593900
_cell_length_b   5.91649273
_cell_length_c   8.11604826
_cell_angle_alpha   90.80690047
_cell_angle_beta   90.77536170
_cell_angle_gamma   93.61859495
_symmetry_Int_Tables_number   1
_chemical_formula_structural   Cu5Ni2C25
_chemical_formula_sum   'Cu5 Ni2 C25'
_cell_volume   282.97154894
_cell_formula_units_Z   1
loop_
 _symmetry_equiv_pos_site_id
 _symmetry_equiv_pos_as_xyz
  1  'x, y, z'
loop_
 _atom_site_type_symbol
 _atom_site_label
 _atom_site_symmetry_multiplicity
 _atom_site_fract_x
 _atom_site_fract_y
 _atom_site_fract_z
 _atom_site_occupancy
  C  C0  1  0.49984800  0.00140500  0.00507700  1
  C  C1  1  0.24680800  0.74212200  0.75502400  1
  C  C2  1  0.75390500  0.74012400  0.24780300  1
  C  C3  1  0.49777700  0.49785700  0.00387500  1
  C  C4  1  0.00033200  0.50035800  0.49579800  1
  C  C5  1  0.75333900  0.26107000  0.24599000  1
  C  C6  1  0.24551600  0.25878000  0.75214000  1
  C  C7  1  0.00412600  0.00113100  0.49585600  1
  C  C8  1  0.99982000  0.50233700  0.00359500  1
  Ni  Ni9  1  0.00230100  0.00154100  0.00111100  1
  Ni  Ni10  1  0.75298900  0.73949400  0.75029800  1
  Cu  Cu11  1  0.49908100  0.49752000  0.49967000  1
  Cu  Cu12  1  0.24253400  0.26205400  0.24814400  1
  Cu  Cu13  1  0.75324900  0.24481400  0.75044600  1
  Cu  Cu14  1  0.50201100  0.99596000  0.49819500  1
  Cu  Cu15  1  0.24607700  0.75304400  0.24927400  1
  C  C16  1  0.24267900  0.23946500  0.00864800  1
  C  C17  1  0.99871800  0.97673100  0.76029500  1
  C  C18  1  0.48107200  0.99336500  0.26330100  1
  C  C19  1  0.22747600  0.77663700  0.01427200  1
  C  C20  1  0.73940200  0.73270700  0.51078200  1
  C  C21  1  0.49163700  0.48612100  0.26206400  1
  C  C22  1  0.96387000  0.50505400  0.74830100  1
  C  C23  1  0.73588300  0.23568100  0.51472700  1
  C  C24  1  0.75697200  0.76251900  0.98650000  1
  C  C25  1  0.50432800  0.51156400  0.74205700  1
  C  C26  1  0.02069500  0.51616300  0.25109600  1
  C  C27  1  0.77267100  0.22956300  0.98170900  1
  C  C28  1  0.26357900  0.26290100  0.49180700  1
  C  C29  1  0.99985300  0.02567900  0.23652400  1
  C  C30  1  0.53491800  0.98425700  0.73751900  1
  C  C31  1  0.26653500  0.76198200  0.48810000  1
