# generated using pymatgen
data_Cu4Ni2C
_symmetry_space_group_name_H-M   'P 1'
_cell_length_a   8.96964065
_cell_length_b   8.96964065
_cell_length_c   8.96964048
_cell_angle_alpha   58.05695961
_cell_angle_beta   58.05695961
_cell_angle_gamma   58.05695908
_symmetry_Int_Tables_number   1
_chemical_formula_structural   Cu4Ni2C
_chemical_formula_sum   'Cu12 Ni6 C3'
_cell_volume   487.54501342
_cell_formula_units_Z   3
loop_
 _symmetry_equiv_pos_site_id
 _symmetry_equiv_pos_as_xyz
  1  'x, y, z'
loop_
 _atom_site_type_symbol
 _atom_site_label
 _atom_site_symmetry_multiplicity
 _atom_site_fract_x
 _atom_site_fract_y
 _atom_site_fract_z
 _atom_site_occupancy
  C  C0  1  0.19089400  0.19089400  0.19089400  1
  C  C1  1  0.80910600  0.80910600  0.80910600  1
  C  C2  1  0.00000000  0.00000000  0.00000000  1
  Ni  Ni3  1  0.63434000  0.23596700  0.38664500  1
  Ni  Ni4  1  0.23596700  0.38664500  0.63434000  1
  Ni  Ni5  1  0.38664500  0.63434000  0.23596700  1
  Ni  Ni6  1  0.61335500  0.36566000  0.76403300  1
  Ni  Ni7  1  0.36566000  0.76403300  0.61335500  1
  Ni  Ni8  1  0.76403300  0.61335500  0.36566000  1
  Cu  Cu9  1  0.14389900  0.95217700  0.62615200  1
  Cu  Cu10  1  0.04782300  0.37384800  0.85610100  1
  Cu  Cu11  1  0.37384800  0.85610100  0.04782300  1
  Cu  Cu12  1  0.38875500  0.55028700  0.81487400  1
  Cu  Cu13  1  0.81487400  0.38875500  0.55028700  1
  Cu  Cu14  1  0.55028700  0.81487400  0.38875500  1
  Cu  Cu15  1  0.61124500  0.44971300  0.18512600  1
  Cu  Cu16  1  0.18512600  0.61124500  0.44971300  1
  Cu  Cu17  1  0.44971300  0.18512600  0.61124500  1
  Cu  Cu18  1  0.62615200  0.14389900  0.95217700  1
  Cu  Cu19  1  0.85610100  0.04782300  0.37384800  1
  Cu  Cu20  1  0.95217700  0.62615200  0.14389900  1
