# generated using pymatgen
data_Cu4NiC17
_symmetry_space_group_name_H-M   'P 1'
_cell_length_a   5.11968705
_cell_length_b   6.83575998
_cell_length_c   8.58453342
_cell_angle_alpha   93.49987502
_cell_angle_beta   92.80450924
_cell_angle_gamma   106.39326735
_symmetry_Int_Tables_number   1
_chemical_formula_structural   Cu4NiC17
_chemical_formula_sum   'Cu4 Ni1 C17'
_cell_volume   286.99408634
_cell_formula_units_Z   1
loop_
 _symmetry_equiv_pos_site_id
 _symmetry_equiv_pos_as_xyz
  1  'x, y, z'
loop_
 _atom_site_type_symbol
 _atom_site_label
 _atom_site_symmetry_multiplicity
 _atom_site_fract_x
 _atom_site_fract_y
 _atom_site_fract_z
 _atom_site_occupancy
  C  C0  1  0.44273900  0.23141000  0.82578800  1
  Ni  Ni1  1  0.97081400  0.01360200  0.46540500  1
  Cu  Cu2  1  0.40540100  0.75412200  0.80696400  1
  Cu  Cu3  1  0.61653100  0.24177200  0.20499800  1
  Cu  Cu4  1  0.00521100  0.65098800  0.27145300  1
  Cu  Cu5  1  0.98531700  0.35472100  0.71521800  1
  C  C6  1  0.49667900  0.51208100  0.49349200  1
  C  C7  1  0.99457600  0.99218300  0.01007700  1
  C  C8  1  0.12385500  0.81896700  0.16531500  1
  C  C9  1  0.87725000  0.18454300  0.82544900  1
  C  C10  1  0.47983200  0.76373200  0.63642600  1
  C  C11  1  0.52875400  0.25135300  0.37268900  1
  C  C12  1  0.22043600  0.51600700  0.82732900  1
  C  C13  1  0.78625700  0.47009300  0.16336600  1
  C  C14  1  0.21643800  0.89155500  0.83277500  1
  C  C15  1  0.79837200  0.09949800  0.18913600  1
  C  C16  1  0.21777600  0.55706300  0.33544700  1
  C  C17  1  0.75908200  0.44535800  0.66767400  1
  C  C18  1  0.63313700  0.77523200  0.93168500  1
  C  C19  1  0.37760100  0.20352200  0.07881200  1
  C  C20  1  0.14771800  0.27935100  0.58610100  1
  C  C21  1  0.83288900  0.72432700  0.39908900  1
