# generated using pymatgen
data_Cu2NiC11
_symmetry_space_group_name_H-M   'P 1'
_cell_length_a   3.83089800
_cell_length_b   4.11070100
_cell_length_c   12.79715200
_cell_angle_alpha   90.00000000
_cell_angle_beta   90.00000000
_cell_angle_gamma   90.00000000
_symmetry_Int_Tables_number   1
_chemical_formula_structural   Cu2NiC11
_chemical_formula_sum   'Cu2 Ni1 C11'
_cell_volume   201.52540648
_cell_formula_units_Z   1
loop_
 _symmetry_equiv_pos_site_id
 _symmetry_equiv_pos_as_xyz
  1  'x, y, z'
loop_
 _atom_site_type_symbol
 _atom_site_label
 _atom_site_symmetry_multiplicity
 _atom_site_fract_x
 _atom_site_fract_y
 _atom_site_fract_z
 _atom_site_occupancy
  C  C0  1  0.50000000  0.50000000  0.11264500  1
  C  C1  1  0.50000000  0.50000000  0.79755500  1
  C  C2  1  0.50000000  0.00000000  0.26523100  1
  C  C3  1  0.50000000  0.50000000  0.50940300  1
  Ni  Ni4  1  0.00000000  0.00000000  0.97810200  1
  Cu  Cu5  1  0.00000000  0.00000000  0.39909800  1
  Cu  Cu6  1  0.00000000  0.00000000  0.63794800  1
  C  C7  1  0.50000000  0.00000000  0.40414800  1
  C  C8  1  0.50000000  0.00000000  0.62703500  1
  C  C9  1  0.00000000  0.00000000  0.13313600  1
  C  C10  1  0.00000000  0.00000000  0.83856600  1
  C  C11  1  0.00000000  0.50000000  0.39247400  1
  C  C12  1  0.00000000  0.50000000  0.63027000  1
  C  C13  1  0.00000000  0.50000000  0.97994600  1
