# generated using pymatgen
data_CuNiC8
_symmetry_space_group_name_H-M   'P 1'
_cell_length_a   7.94082854
_cell_length_b   9.68454738
_cell_length_c   7.94119413
_cell_angle_alpha   66.00914746
_cell_angle_beta   90.47759466
_cell_angle_gamma   113.98735333
_symmetry_Int_Tables_number   1
_chemical_formula_structural   CuNiC8
_chemical_formula_sum   'Cu4 Ni4 C32'
_cell_volume   500.66554013
_cell_formula_units_Z   4
loop_
 _symmetry_equiv_pos_site_id
 _symmetry_equiv_pos_as_xyz
  1  'x, y, z'
loop_
 _atom_site_type_symbol
 _atom_site_label
 _atom_site_symmetry_multiplicity
 _atom_site_fract_x
 _atom_site_fract_y
 _atom_site_fract_z
 _atom_site_occupancy
  Ni  Ni0  1  0.58135900  0.72090900  0.91863300  1
  Ni  Ni1  1  0.33134300  0.22089300  0.66868500  1
  Ni  Ni2  1  0.83149800  0.22100200  0.16849500  1
  Ni  Ni3  1  0.08135900  0.72089100  0.41864000  1
  Cu  Cu4  1  0.58776500  0.72519400  0.41217300  1
  Cu  Cu5  1  0.33776300  0.22520800  0.16218900  1
  Cu  Cu6  1  0.08781800  0.72518300  0.91221800  1
  Cu  Cu7  1  0.83781500  0.22518400  0.66224100  1
  C  C8  1  0.00267000  0.00180300  0.49736900  1
  C  C9  1  0.75263300  0.50178400  0.24733900  1
  C  C10  1  0.50261400  0.00175300  0.99740000  1
  C  C11  1  0.25261100  0.50174800  0.74742500  1
  C  C12  1  0.99897800  0.99931500  0.00103500  1
  C  C13  1  0.74891500  0.49927600  0.75108700  1
  C  C14  1  0.49892600  0.99928700  0.50103600  1
  C  C15  1  0.24897000  0.49933000  0.25099100  1
  C  C16  1  0.55193000  0.17015800  0.17516300  1
  C  C17  1  0.30195900  0.67014100  0.92517800  1
  C  C18  1  0.05193000  0.17012300  0.67518600  1
  C  C19  1  0.80188200  0.67012700  0.42518600  1
  C  C20  1  0.72322600  0.96683200  0.34637900  1
  C  C21  1  0.47322700  0.46685700  0.09643300  1
  C  C22  1  0.22322300  0.96684300  0.84640600  1
  C  C23  1  0.97317400  0.46681000  0.59646400  1
  C  C24  1  0.54005100  0.73977300  0.16325900  1
  C  C25  1  0.29004600  0.23973800  0.91327100  1
  C  C26  1  0.04001500  0.73977000  0.66327400  1
  C  C27  1  0.79007500  0.23976100  0.41328400  1
  C  C28  1  0.15303600  0.96848700  0.27555800  1
  C  C29  1  0.90303000  0.46849300  0.02545800  1
  C  C30  1  0.65306100  0.96855300  0.77548800  1
  C  C31  1  0.40307200  0.46852700  0.52545700  1
  C  C32  1  0.82465600  0.16884400  0.94710900  1
  C  C33  1  0.57463900  0.66879700  0.69706000  1
  C  C34  1  0.32466400  0.16881400  0.44709800  1
  C  C35  1  0.07458600  0.66877300  0.19714400  1
  C  C36  1  0.08860000  0.24027800  0.21103200  1
  C  C37  1  0.83863100  0.74023700  0.96105600  1
  C  C38  1  0.58864600  0.24027200  0.71103200  1
  C  C39  1  0.33860400  0.74023100  0.46106900  1
