# generated using pymatgen
data_Cu7NiC29
_symmetry_space_group_name_H-M   'P 1'
_cell_length_a   11.01509611
_cell_length_b   15.50166508
_cell_length_c   10.96376247
_cell_angle_alpha   90.14765195
_cell_angle_beta   91.35528543
_cell_angle_gamma   90.45035155
_symmetry_Int_Tables_number   1
_chemical_formula_structural   Cu7NiC29
_chemical_formula_sum   'Cu28 Ni4 C116'
_cell_volume   1871.49932183
_cell_formula_units_Z   4
loop_
 _symmetry_equiv_pos_site_id
 _symmetry_equiv_pos_as_xyz
  1  'x, y, z'
loop_
 _atom_site_type_symbol
 _atom_site_label
 _atom_site_symmetry_multiplicity
 _atom_site_fract_x
 _atom_site_fract_y
 _atom_site_fract_z
 _atom_site_occupancy
  Ni  Ni0  1  0.00329046  0.11679522  0.50318153  1
  Ni  Ni1  1  0.50698319  0.38479299  0.98620071  1
  Ni  Ni2  1  0.23796555  0.38454242  0.24702628  1
  Ni  Ni3  1  0.23062320  0.12072051  0.24297587  1
  Cu  Cu4  1  0.99969945  0.10871120  0.00374331  1
  Cu  Cu5  1  0.00882292  0.62200509  0.50900464  1
  Cu  Cu6  1  0.01662672  0.61973809  0.99275128  1
  Cu  Cu7  1  0.54160948  0.12548535  0.47763634  1
  Cu  Cu8  1  0.54428045  0.12932512  0.98337344  1
  Cu  Cu9  1  0.53009892  0.62989077  0.51153317  1
  Cu  Cu10  1  0.53317515  0.62221715  0.97439993  1
  Cu  Cu11  1  0.50195665  0.37989007  0.51304275  1
  Cu  Cu12  1  0.51537812  0.85958693  0.98424624  1
  Cu  Cu13  1  0.49229587  0.86715441  0.50881952  1
  Cu  Cu14  1  0.96725166  0.38760280  0.00377604  1
  Cu  Cu15  1  0.95878269  0.38584028  0.49926232  1
  Cu  Cu16  1  0.95783987  0.88038695  0.00010437  1
  Cu  Cu17  1  0.96840230  0.87330012  0.51250242  1
  Cu  Cu18  1  0.23304332  0.39950073  0.76938696  1
  Cu  Cu19  1  0.22831048  0.88887578  0.27102833  1
  Cu  Cu20  1  0.21889191  0.87195269  0.73926151  1
  Cu  Cu21  1  0.76233292  0.38403486  0.25407083  1
  Cu  Cu22  1  0.74053113  0.38348769  0.75405030  1
  Cu  Cu23  1  0.76256537  0.86883307  0.25697201  1
  Cu  Cu24  1  0.73941187  0.86743787  0.74979394  1
  Cu  Cu25  1  0.22689076  0.11268754  0.74908863  1
  Cu  Cu26  1  0.23834992  0.62478321  0.25978994  1
  Cu  Cu27  1  0.26795234  0.62772879  0.74107153  1
  Cu  Cu28  1  0.77874837  0.11930270  0.24948569  1
  Cu  Cu29  1  0.78404127  0.12284819  0.75389423  1
  Cu  Cu30  1  0.78170060  0.62090866  0.25284964  1
  Cu  Cu31  1  0.77245446  0.62286150  0.75885297  1
  C  C32  1  0.99192101  0.99436523  0.25307750  1
  C  C33  1  0.99339907  0.99264579  0.75493145  1
  C  C34  1  0.00333899  0.50240816  0.25026156  1
  C  C35  1  0.99677655  0.49992472  0.75215149  1
  C  C36  1  0.50754512  0.98186836  0.22907450  1
  C  C37  1  0.50842285  0.99204530  0.73511312  1
  C  C38  1  0.50997824  0.49391880  0.24491289  1
  C  C39  1  0.49531835  0.50240764  0.74719890  1
  C  C40  1  0.24159791  0.99511725  0.01223483  1
  C  C41  1  0.24375891  0.99969850  0.51795237  1
  C  C42  1  0.25353028  0.50987907  0.00728860  1
  C  C43  1  0.23831837  0.49648227  0.51137927  1
  C  C44  1  0.74228173  0.99988651  0.99465443  1
  C  C45  1  0.74424473  0.99841751  0.49596547  1
  C  C46  1  0.75288162  0.50354864  0.00034876  1
  C  C47  1  0.74410222  0.50350451  0.50369435  1
  C  C48  1  0.26537968  0.24092699  0.95236429  1
  C  C49  1  0.26878467  0.24584573  0.47235358  1
  C  C50  1  0.25999204  0.75354222  0.97503854  1
  C  C51  1  0.24874743  0.75105112  0.49867215  1
  C  C52  1  0.75918186  0.24863814  0.00334158  1
  C  C53  1  0.75161970  0.24956212  0.50547829  1
  C  C54  1  0.75461082  0.74648458  0.00006286  1
  C  C55  1  0.75292072  0.74595513  0.50583879  1
  C  C56  1  0.98810517  0.25316031  0.25952851  1
  C  C57  1  0.99713633  0.25552512  0.76298200  1
  C  C58  1  0.99744084  0.75009895  0.26356019  1
  C  C59  1  0.99681380  0.74918210  0.74876276  1
  C  C60  1  0.52268045  0.25657009  0.25872049  1
  C  C61  1  0.51684454  0.24827564  0.74849158  1
  C  C62  1  0.52041521  0.74920574  0.26292795  1
  C  C63  1  0.50291790  0.74777253  0.74706166  1
  C  C64  1  0.09858479  0.77060321  0.60692813  1
  C  C65  1  0.58515413  0.25501797  0.10009657  1
  C  C66  1  0.58504896  0.25230987  0.59053286  1
  C  C67  1  0.59740977  0.75569536  0.10877552  1
  C  C68  1  0.60229678  0.76304333  0.60265739  1
  C  C69  1  0.40322261  0.20382958  0.35458376  1
  C  C70  1  0.40453720  0.19061339  0.85058691  1
  C  C71  1  0.40605902  0.69887797  0.36228190  1
  C  C72  1  0.41022745  0.73134570  0.89803522  1
  C  C73  1  0.89601549  0.24328108  0.41382930  1
  C  C74  1  0.91257437  0.23592120  0.92222341  1
  C  C75  1  0.89333504  0.72951652  0.40710937  1
  C  C76  1  0.89842352  0.73202605  0.90139449  1
  C  C77  1  0.14414369  0.24697445  0.33642056  1
  C  C78  1  0.17027391  0.25375248  0.79356939  1
  C  C79  1  0.16003625  0.74968774  0.33554487  1
  C  C80  1  0.14492637  0.73702278  0.84757077  1
  C  C81  1  0.65583357  0.21883985  0.35094941  1
  C  C82  1  0.65999702  0.22818746  0.85352211  1
  C  C83  1  0.65860571  0.72125047  0.35434502  1
  C  C84  1  0.64944278  0.72863967  0.85454326  1
  C  C85  1  0.35577911  0.76591968  0.64486344  1
  C  C86  1  0.84814887  0.27137047  0.15391556  1
  C  C87  1  0.85329460  0.27353427  0.65161735  1
  C  C88  1  0.86607877  0.77025083  0.14093963  1
  C  C89  1  0.85170099  0.77024628  0.64754640  1
  C  C90  1  0.36229937  0.51554316  0.16229421  1
  C  C91  1  0.34900412  0.49450990  0.64663650  1
  C  C92  1  0.35059540  0.00098958  0.16199565  1
  C  C93  1  0.34889180  0.99468923  0.66928831  1
  C  C94  1  0.86108896  0.48708288  0.14282330  1
  C  C95  1  0.85326650  0.47951540  0.64377586  1
  C  C96  1  0.84497877  0.97948833  0.13961528  1
  C  C97  1  0.84845596  0.97992227  0.64381495  1
  C  C98  1  0.14696536  0.01031489  0.37012407  1
  C  C99  1  0.14878166  0.00038098  0.86364360  1
  C  C100  1  0.14858609  0.50986820  0.35729936  1
  C  C101  1  0.14599824  0.52385099  0.85917769  1
  C  C102  1  0.62815006  0.02424011  0.33996247  1
  C  C103  1  0.63291746  0.03205703  0.84268883  1
  C  C104  1  0.62519969  0.52843833  0.36530714  1
  C  C105  1  0.64088318  0.51347302  0.85694911  1
  C  C106  1  0.39169708  0.51781244  0.89760698  1
  C  C107  1  0.88127011  0.01378315  0.38655639  1
  C  C108  1  0.88642392  0.01229818  0.89401829  1
  C  C109  1  0.88807365  0.51659351  0.38993309  1
  C  C110  1  0.89182390  0.51725451  0.89512266  1
  C  C111  1  0.10989551  0.48389991  0.10517584  1
  C  C112  1  0.09588332  0.47387478  0.61453652  1
  C  C113  1  0.09602165  0.97447083  0.11864131  1
  C  C114  1  0.09769884  0.97822507  0.62042200  1
  C  C115  1  0.61608338  0.49399151  0.10933954  1
  C  C116  1  0.59972382  0.48875349  0.60927946  1
  C  C117  1  0.58663233  0.99221777  0.07623751  1
  C  C118  1  0.58815774  0.99459938  0.57990524  1
  C  C119  1  0.99653634  0.37862789  0.27959129  1
  C  C120  1  0.00594647  0.37855242  0.79668410  1
  C  C121  1  0.99584795  0.87200053  0.29390759  1
  C  C122  1  0.99754304  0.87084675  0.79136362  1
  C  C123  1  0.47896717  0.37737502  0.29052811  1
  C  C124  1  0.48495991  0.37082450  0.75890767  1
  C  C125  1  0.47527946  0.87009395  0.29193197  1
  C  C126  1  0.51819357  0.87322246  0.77838044  1
  C  C127  1  0.48946055  0.62665341  0.71967580  1
  C  C128  1  0.99516989  0.12871577  0.21709922  1
  C  C129  1  0.00226947  0.12860917  0.73281308  1
  C  C130  1  0.00639564  0.62841261  0.21725534  1
  C  C131  1  0.98691004  0.62388254  0.71625586  1
  C  C132  1  0.22372881  0.12637913  0.01682409  1
  C  C133  1  0.24548829  0.12786117  0.53862747  1
  C  C134  1  0.22899737  0.65041529  0.05188294  1
  C  C135  1  0.23019721  0.62503713  0.52394339  1
  C  C136  1  0.75081514  0.12413082  0.03677975  1
  C  C137  1  0.75122310  0.12435594  0.53851855  1
  C  C138  1  0.74770785  0.62575019  0.03621963  1
  C  C139  1  0.74568913  0.62534311  0.54626848  1
  C  C140  1  0.28590767  0.37264808  0.48317528  1
  C  C141  1  0.27763246  0.36081242  0.99840678  1
  C  C142  1  0.28205470  0.88091490  0.47494177  1
  C  C143  1  0.29175677  0.87402909  0.99256461  1
  C  C144  1  0.73677056  0.37625995  0.46715813  1
  C  C145  1  0.75122668  0.37522088  0.97028177  1
  C  C146  1  0.74439918  0.87279519  0.46555409  1
  C  C147  1  0.74071752  0.87377962  0.96492108  1
