# generated using pymatgen
data_Cu2NiC11
_symmetry_space_group_name_H-M   'P 1'
_cell_length_a   2.90595400
_cell_length_b   7.76006525
_cell_length_c   11.43755735
_cell_angle_alpha   81.84183841
_cell_angle_beta   83.11161059
_cell_angle_gamma   81.55730530
_symmetry_Int_Tables_number   1
_chemical_formula_structural   Cu2NiC11
_chemical_formula_sum   'Cu4 Ni2 C22'
_cell_volume   251.24769980
_cell_formula_units_Z   2
loop_
 _symmetry_equiv_pos_site_id
 _symmetry_equiv_pos_as_xyz
  1  'x, y, z'
loop_
 _atom_site_type_symbol
 _atom_site_label
 _atom_site_symmetry_multiplicity
 _atom_site_fract_x
 _atom_site_fract_y
 _atom_site_fract_z
 _atom_site_occupancy
  C  C0  1  0.68645800  0.15561300  0.93213300  1
  C  C1  1  0.85740600  0.57667900  0.20231900  1
  C  C2  1  0.00000000  0.00000000  0.50000000  1
  C  C3  1  0.14259400  0.42332100  0.79768100  1
  C  C4  1  0.31354200  0.84438700  0.06786700  1
  C  C5  1  0.43108700  0.28703500  0.35591500  1
  C  C6  1  0.56891300  0.71296500  0.64408500  1
  C  C7  1  0.50000000  0.50000000  0.00000000  1
  Ni  Ni8  1  0.93748300  0.77634200  0.86481200  1
  Ni  Ni9  1  0.06251700  0.22365800  0.13518800  1
  Cu  Cu10  1  0.21369800  0.64252600  0.42771700  1
  Cu  Cu11  1  0.36746600  0.07034300  0.71550800  1
  Cu  Cu12  1  0.63253400  0.92965700  0.28449200  1
  Cu  Cu13  1  0.78630200  0.35747400  0.57228300  1
  C  C14  1  0.35922400  0.94361700  0.88689600  1
  C  C15  1  0.48327300  0.37254300  0.17551800  1
  C  C16  1  0.59903500  0.81313500  0.45916600  1
  C  C17  1  0.74845200  0.23942800  0.74722300  1
  C  C18  1  0.89827100  0.68992600  0.02217100  1
  C  C19  1  0.02154600  0.10106400  0.31031000  1
  C  C20  1  0.17005100  0.52524500  0.60308100  1
  C  C21  1  0.10172900  0.31007400  0.97782900  1
  C  C22  1  0.25154800  0.76057200  0.25277700  1
  C  C23  1  0.40096500  0.18686500  0.54083400  1
  C  C24  1  0.51672700  0.62745700  0.82448200  1
  C  C25  1  0.64077600  0.05638300  0.11310400  1
  C  C26  1  0.82994900  0.47475500  0.39691900  1
  C  C27  1  0.97845400  0.89893600  0.68969000  1
