# generated using pymatgen
data_Cu6NiC22
_symmetry_space_group_name_H-M   'P 1'
_cell_length_a   13.06893900
_cell_length_b   7.22960300
_cell_length_c   18.23494674
_cell_angle_alpha   87.62332925
_cell_angle_beta   90.00000000
_cell_angle_gamma   90.00000000
_symmetry_Int_Tables_number   1
_chemical_formula_structural   Cu6NiC22
_chemical_formula_sum   'Cu24 Ni4 C88'
_cell_volume   1721.41482064
_cell_formula_units_Z   4
loop_
 _symmetry_equiv_pos_site_id
 _symmetry_equiv_pos_as_xyz
  1  'x, y, z'
loop_
 _atom_site_type_symbol
 _atom_site_label
 _atom_site_symmetry_multiplicity
 _atom_site_fract_x
 _atom_site_fract_y
 _atom_site_fract_z
 _atom_site_occupancy
  C  C0  1  0.13256100  0.29576800  0.24759500  1
  C  C1  1  0.63256100  0.70423200  0.25240500  1
  C  C2  1  0.86743900  0.70423200  0.75240500  1
  C  C3  1  0.36743900  0.29576800  0.74759500  1
  Ni  Ni4  1  0.25367900  0.95285600  0.51474300  1
  Ni  Ni5  1  0.75367900  0.04714400  0.98525700  1
  Ni  Ni6  1  0.74632100  0.04714400  0.48525700  1
  Ni  Ni7  1  0.24632100  0.95285600  0.01474300  1
  Cu  Cu8  1  0.02158700  0.21102100  0.40497700  1
  Cu  Cu9  1  0.52158700  0.78897900  0.09502300  1
  Cu  Cu10  1  0.97841300  0.78897900  0.59502300  1
  Cu  Cu11  1  0.47841300  0.21102100  0.90497700  1
  Cu  Cu12  1  0.19913800  0.44028200  0.40909500  1
  Cu  Cu13  1  0.69913800  0.55971800  0.09090500  1
  Cu  Cu14  1  0.80086200  0.55971800  0.59090500  1
  Cu  Cu15  1  0.30086200  0.44028200  0.90909500  1
  Cu  Cu16  1  0.00661200  0.20286100  0.09965400  1
  Cu  Cu17  1  0.50661200  0.79713900  0.40034600  1
  Cu  Cu18  1  0.99338800  0.79713900  0.90034600  1
  Cu  Cu19  1  0.49338800  0.20286100  0.59965400  1
  Cu  Cu20  1  0.04903200  0.59495400  0.12270700  1
  Cu  Cu21  1  0.54903200  0.40504600  0.37729300  1
  Cu  Cu22  1  0.95096800  0.40504600  0.87729300  1
  Cu  Cu23  1  0.45096800  0.59495400  0.62270700  1
  Cu  Cu24  1  0.26767100  0.93104100  0.22866700  1
  Cu  Cu25  1  0.76767100  0.06895900  0.27133300  1
  Cu  Cu26  1  0.73232900  0.06895900  0.77133300  1
  Cu  Cu27  1  0.23232900  0.93104100  0.72866700  1
  Cu  Cu28  1  0.35597700  0.25523800  0.16121200  1
  Cu  Cu29  1  0.85597700  0.74476200  0.33878800  1
  Cu  Cu30  1  0.64402300  0.74476200  0.83878800  1
  Cu  Cu31  1  0.14402300  0.25523800  0.66121200  1
  C  C32  1  0.26026800  0.29260600  0.44132000  1
  C  C33  1  0.76026800  0.70739400  0.05868000  1
  C  C34  1  0.73973200  0.70739400  0.55868000  1
  C  C35  1  0.23973200  0.29260600  0.94132000  1
  C  C36  1  0.91822400  0.23488000  0.42948800  1
  C  C37  1  0.41822400  0.76512000  0.07051200  1
  C  C38  1  0.08177600  0.76512000  0.57051200  1
  C  C39  1  0.58177600  0.23488000  0.92948800  1
  C  C40  1  0.02791700  0.23499300  0.32233300  1
  C  C41  1  0.52791700  0.76500700  0.17766700  1
  C  C42  1  0.97208300  0.76500700  0.67766700  1
  C  C43  1  0.47208300  0.23499300  0.82233300  1
  C  C44  1  0.21323200  0.62591100  0.43106300  1
  C  C45  1  0.71323200  0.37408900  0.06893700  1
  C  C46  1  0.78676800  0.37408900  0.56893700  1
  C  C47  1  0.28676800  0.62591100  0.93106300  1
  C  C48  1  0.19701600  0.43019800  0.32646100  1
  C  C49  1  0.69701600  0.56980200  0.17353900  1
  C  C50  1  0.80298400  0.56980200  0.67353900  1
  C  C51  1  0.30298400  0.43019800  0.82646100  1
  C  C52  1  0.07809400  0.39878300  0.43231800  1
  C  C53  1  0.57809400  0.60121700  0.06768200  1
  C  C54  1  0.92190600  0.60121700  0.56768200  1
  C  C55  1  0.42190600  0.39878300  0.93231800  1
  C  C56  1  0.07883400  0.05140100  0.43167200  1
  C  C57  1  0.57883400  0.94859900  0.06832800  1
  C  C58  1  0.92116600  0.94859900  0.56832800  1
  C  C59  1  0.42116600  0.05140100  0.93167200  1
  C  C60  1  0.04175200  0.16990600  0.17780800  1
  C  C61  1  0.54175200  0.83009400  0.32219200  1
  C  C62  1  0.95824800  0.83009400  0.82219200  1
  C  C63  1  0.45824800  0.16990600  0.67780800  1
  C  C64  1  0.08370900  0.51921100  0.19810800  1
  C  C65  1  0.58370900  0.48078900  0.30189200  1
  C  C66  1  0.91629100  0.48078900  0.80189200  1
  C  C67  1  0.41629100  0.51921100  0.69810800  1
  C  C68  1  0.97512500  0.42337200  0.09539900  1
  C  C69  1  0.47512500  0.57662800  0.40460100  1
  C  C70  1  0.02487500  0.57662800  0.90460100  1
  C  C71  1  0.52487500  0.42337200  0.59539900  1
  C  C72  1  0.09031400  0.17434700  0.04944500  1
  C  C73  1  0.59031400  0.82565300  0.45055500  1
  C  C74  1  0.90968600  0.82565300  0.95055500  1
  C  C75  1  0.40968600  0.17434700  0.54944500  1
  C  C76  1  0.91024800  0.11697000  0.08530800  1
  C  C77  1  0.41024800  0.88303000  0.41469200  1
  C  C78  1  0.08975200  0.88303000  0.91469200  1
  C  C79  1  0.58975200  0.11697000  0.58530800  1
  C  C80  1  0.13327100  0.61269600  0.07198400  1
  C  C81  1  0.63327100  0.38730400  0.42801600  1
  C  C82  1  0.86672900  0.38730400  0.92801600  1
  C  C83  1  0.36672900  0.61269600  0.57198400  1
  C  C84  1  0.97866600  0.74327200  0.13005800  1
  C  C85  1  0.47866600  0.25672800  0.36994200  1
  C  C86  1  0.02133400  0.25672800  0.86994200  1
  C  C87  1  0.52133400  0.74327200  0.63005800  1
  C  C88  1  0.25408500  0.33249300  0.18430800  1
  C  C89  1  0.75408500  0.66750700  0.31569200  1
  C  C90  1  0.74591500  0.66750700  0.81569200  1
  C  C91  1  0.24591500  0.33249300  0.68430800  1
  C  C92  1  0.19757000  0.05284000  0.27228500  1
  C  C93  1  0.69757000  0.94716000  0.22771500  1
  C  C94  1  0.80243000  0.94716000  0.72771500  1
  C  C95  1  0.30243000  0.05284000  0.77228500  1
  C  C96  1  0.34894900  0.19408300  0.08653100  1
  C  C97  1  0.84894900  0.80591700  0.41346900  1
  C  C98  1  0.65105100  0.80591700  0.91346900  1
  C  C99  1  0.15105100  0.19408300  0.58653100  1
  C  C100  1  0.22329700  0.90040600  0.15726300  1
  C  C101  1  0.72329700  0.09959400  0.34273700  1
  C  C102  1  0.77670300  0.09959400  0.84273700  1
  C  C103  1  0.27670300  0.90040600  0.65726300  1
  C  C104  1  0.36852800  0.06673900  0.21487800  1
  C  C105  1  0.86852800  0.93326100  0.28512200  1
  C  C106  1  0.63147200  0.93326100  0.78512200  1
  C  C107  1  0.13147200  0.06673900  0.71487800  1
  C  C108  1  0.30649500  0.77860200  0.27178000  1
  C  C109  1  0.80649500  0.22139800  0.22822000  1
  C  C110  1  0.69350500  0.22139800  0.72822000  1
  C  C111  1  0.19350500  0.77860200  0.77178000  1
  C  C112  1  0.44038500  0.36755100  0.18023500  1
  C  C113  1  0.94038500  0.63244900  0.31976500  1
  C  C114  1  0.55961500  0.63244900  0.81976500  1
  C  C115  1  0.05961500  0.36755100  0.68023500  1
