# generated using pymatgen
data_CuNiC9
_symmetry_space_group_name_H-M   'P 1'
_cell_length_a   8.50470300
_cell_length_b   10.44965700
_cell_length_c   15.26145300
_cell_angle_alpha   90.00000000
_cell_angle_beta   90.00000000
_cell_angle_gamma   90.00000000
_symmetry_Int_Tables_number   1
_chemical_formula_structural   CuNiC9
_chemical_formula_sum   'Cu8 Ni8 C72'
_cell_volume   1356.30408805
_cell_formula_units_Z   8
loop_
 _symmetry_equiv_pos_site_id
 _symmetry_equiv_pos_as_xyz
  1  'x, y, z'
loop_
 _atom_site_type_symbol
 _atom_site_label
 _atom_site_symmetry_multiplicity
 _atom_site_fract_x
 _atom_site_fract_y
 _atom_site_fract_z
 _atom_site_occupancy
  C  C0  1  0.00000000  0.33002300  0.75000000  1
  C  C1  1  0.50000000  0.16997700  0.25000000  1
  C  C2  1  0.00000000  0.66997700  0.25000000  1
  C  C3  1  0.50000000  0.83002300  0.75000000  1
  Ni  Ni4  1  0.47395400  0.68418100  0.00321700  1
  Ni  Ni5  1  0.02604600  0.81581900  0.50321700  1
  Ni  Ni6  1  0.97395400  0.81581900  0.99678300  1
  Ni  Ni7  1  0.52604600  0.68418100  0.49678300  1
  Ni  Ni8  1  0.52604600  0.31581900  0.99678300  1
  Ni  Ni9  1  0.97395400  0.18418100  0.49678300  1
  Ni  Ni10  1  0.02604600  0.18418100  0.00321700  1
  Ni  Ni11  1  0.47395400  0.31581900  0.50321700  1
  Cu  Cu12  1  0.35333000  0.97282100  0.44836400  1
  Cu  Cu13  1  0.14667000  0.52717900  0.94836400  1
  Cu  Cu14  1  0.85333000  0.52717900  0.55163600  1
  Cu  Cu15  1  0.64667000  0.97282100  0.05163600  1
  Cu  Cu16  1  0.64667000  0.02717900  0.55163600  1
  Cu  Cu17  1  0.85333000  0.47282100  0.05163600  1
  Cu  Cu18  1  0.14667000  0.47282100  0.44836400  1
  Cu  Cu19  1  0.35333000  0.02717900  0.94836400  1
  C  C20  1  0.38481500  0.02330500  0.34593800  1
  C  C21  1  0.11518500  0.47669500  0.84593800  1
  C  C22  1  0.88481500  0.47669500  0.65406200  1
  C  C23  1  0.61518500  0.02330500  0.15406200  1
  C  C24  1  0.61518500  0.97669500  0.65406200  1
  C  C25  1  0.88481500  0.52330500  0.15406200  1
  C  C26  1  0.11518500  0.52330500  0.34593800  1
  C  C27  1  0.38481500  0.97669500  0.84593800  1
  C  C28  1  0.25985500  0.79916600  0.25035900  1
  C  C29  1  0.24014500  0.70083400  0.75035900  1
  C  C30  1  0.75985500  0.70083400  0.74964100  1
  C  C31  1  0.74014500  0.79916600  0.24964100  1
  C  C32  1  0.74014500  0.20083400  0.74964100  1
  C  C33  1  0.75985500  0.29916600  0.24964100  1
  C  C34  1  0.24014500  0.29916600  0.25035900  1
  C  C35  1  0.25985500  0.20083400  0.75035900  1
  C  C36  1  0.22295500  0.39675400  0.20591600  1
  C  C37  1  0.27704500  0.10324600  0.70591600  1
  C  C38  1  0.72295500  0.10324600  0.79408400  1
  C  C39  1  0.77704500  0.39675400  0.29408400  1
  C  C40  1  0.77704500  0.60324600  0.79408400  1
  C  C41  1  0.72295500  0.89675400  0.29408400  1
  C  C42  1  0.27704500  0.89675400  0.20591600  1
  C  C43  1  0.22295500  0.60324600  0.70591600  1
  C  C44  1  0.00000000  0.96590000  0.75000000  1
  C  C45  1  0.50000000  0.53410000  0.25000000  1
  C  C46  1  0.00000000  0.03410000  0.25000000  1
  C  C47  1  0.50000000  0.46590000  0.75000000  1
  C  C48  1  0.42547700  0.66141000  0.11811800  1
  C  C49  1  0.07452300  0.83859000  0.61811800  1
  C  C50  1  0.92547700  0.83859000  0.88188200  1
  C  C51  1  0.57452300  0.66141000  0.38188200  1
  C  C52  1  0.57452300  0.33859000  0.88188200  1
  C  C53  1  0.92547700  0.16141000  0.38188200  1
  C  C54  1  0.07452300  0.16141000  0.11811800  1
  C  C55  1  0.42547700  0.33859000  0.61811800  1
  C  C56  1  0.51755200  0.71132100  0.88510100  1
  C  C57  1  0.98244800  0.78867900  0.38510100  1
  C  C58  1  0.01755200  0.78867900  0.11489900  1
  C  C59  1  0.48244800  0.71132100  0.61489900  1
  C  C60  1  0.48244800  0.28867900  0.11489900  1
  C  C61  1  0.01755200  0.21132100  0.61489900  1
  C  C62  1  0.98244800  0.21132100  0.88510100  1
  C  C63  1  0.51755200  0.28867900  0.38510100  1
  C  C64  1  0.43509200  0.90209300  0.02297500  1
  C  C65  1  0.06490800  0.59790700  0.52297500  1
  C  C66  1  0.93509200  0.59790700  0.97702500  1
  C  C67  1  0.56490800  0.90209300  0.47702500  1
  C  C68  1  0.56490800  0.09790700  0.97702500  1
  C  C69  1  0.93509200  0.40209300  0.47702500  1
  C  C70  1  0.06490800  0.40209300  0.02297500  1
  C  C71  1  0.43509200  0.09790700  0.52297500  1
  C  C72  1  0.34766700  0.48436800  0.97636000  1
  C  C73  1  0.15233300  0.01563200  0.47636000  1
  C  C74  1  0.84766700  0.01563200  0.02364000  1
  C  C75  1  0.65233300  0.48436800  0.52364000  1
  C  C76  1  0.65233300  0.51563200  0.02364000  1
  C  C77  1  0.84766700  0.98436800  0.52364000  1
  C  C78  1  0.15233300  0.98436800  0.97636000  1
  C  C79  1  0.34766700  0.51563200  0.47636000  1
  C  C80  1  0.20373500  0.69687000  0.96231200  1
  C  C81  1  0.29626500  0.80313000  0.46231200  1
  C  C82  1  0.70373500  0.80313000  0.03768800  1
  C  C83  1  0.79626500  0.69687000  0.53768800  1
  C  C84  1  0.79626500  0.30313000  0.03768800  1
  C  C85  1  0.70373500  0.19687000  0.53768800  1
  C  C86  1  0.29626500  0.19687000  0.96231200  1
  C  C87  1  0.20373500  0.30313000  0.46231200  1
