# generated using pymatgen
data_Cu3Ni3C8
_symmetry_space_group_name_H-M   'P 1'
_cell_length_a   3.04571700
_cell_length_b   3.12546000
_cell_length_c   13.18819200
_cell_angle_alpha   90.00000000
_cell_angle_beta   90.00000000
_cell_angle_gamma   90.00000000
_symmetry_Int_Tables_number   1
_chemical_formula_structural   Cu3Ni3C8
_chemical_formula_sum   'Cu3 Ni3 C8'
_cell_volume   125.54191634
_cell_formula_units_Z   1
loop_
 _symmetry_equiv_pos_site_id
 _symmetry_equiv_pos_as_xyz
  1  'x, y, z'
loop_
 _atom_site_type_symbol
 _atom_site_label
 _atom_site_symmetry_multiplicity
 _atom_site_fract_x
 _atom_site_fract_y
 _atom_site_fract_z
 _atom_site_occupancy
  Ni  Ni0  1  0.00000000  0.00000000  0.18976200  1
  Ni  Ni1  1  0.50000000  0.50000000  0.67649100  1
  Ni  Ni2  1  0.50000000  0.50000000  0.31325300  1
  C  C3  1  0.50000000  0.00000000  0.42480400  1
  C  C4  1  0.00000000  0.50000000  0.93887600  1
  C  C5  1  0.00000000  0.50000000  0.07799300  1
  C  C6  1  0.50000000  0.00000000  0.56393100  1
  C  C7  1  0.00000000  0.00000000  0.35068200  1
  C  C8  1  0.50000000  0.50000000  0.86256600  1
  C  C9  1  0.50000000  0.50000000  0.15111400  1
  C  C10  1  0.00000000  0.00000000  0.63694600  1
  Cu  Cu11  1  0.00000000  0.00000000  0.81195900  1
  Cu  Cu12  1  0.50000000  0.00000000  0.00752000  1
  Cu  Cu13  1  0.00000000  0.50000000  0.49410500  1
