# generated using pymatgen
data_CuNi4C15
_symmetry_space_group_name_H-M   'P 1'
_cell_length_a   6.00502807
_cell_length_b   6.00502807
_cell_length_c   10.78968252
_cell_angle_alpha   71.20737848
_cell_angle_beta   71.20737848
_cell_angle_gamma   59.93844380
_symmetry_Int_Tables_number   1
_chemical_formula_structural   CuNi4C15
_chemical_formula_sum   'Cu1 Ni4 C15'
_cell_volume   312.59496179
_cell_formula_units_Z   1
loop_
 _symmetry_equiv_pos_site_id
 _symmetry_equiv_pos_as_xyz
  1  'x, y, z'
loop_
 _atom_site_type_symbol
 _atom_site_label
 _atom_site_symmetry_multiplicity
 _atom_site_fract_x
 _atom_site_fract_y
 _atom_site_fract_z
 _atom_site_occupancy
  Ni  Ni0  1  0.87126000  0.87126000  0.38735900  1
  Ni  Ni1  1  0.12874000  0.12874000  0.61264100  1
  Ni  Ni2  1  0.27639400  0.27639400  0.14825100  1
  Ni  Ni3  1  0.72360600  0.72360600  0.85174900  1
  Cu  Cu4  1  0.00000000  0.00000000  0.00000000  1
  C  C5  1  0.57151200  0.57151200  0.24538700  1
  C  C6  1  0.42848800  0.42848800  0.75461300  1
  C  C7  1  0.50000000  0.50000000  0.50000000  1
  C  C8  1  0.38179100  0.84960600  0.36645800  1
  C  C9  1  0.61820900  0.15039400  0.63354200  1
  C  C10  1  0.15039400  0.61820900  0.63354200  1
  C  C11  1  0.84960600  0.38179100  0.36645800  1
  C  C12  1  0.76149400  0.76149400  0.11188200  1
  C  C13  1  0.23850600  0.23850600  0.88811800  1
  C  C14  1  0.37496900  0.37496900  0.39208800  1
  C  C15  1  0.62503100  0.62503100  0.60791200  1
  C  C16  1  0.28293700  0.75426900  0.14662500  1
  C  C17  1  0.71706300  0.24573100  0.85337500  1
  C  C18  1  0.24573100  0.71706300  0.85337500  1
  C  C19  1  0.75426900  0.28293700  0.14662500  1
