# generated using pymatgen
data_Cu2NiC10
_symmetry_space_group_name_H-M   'P 1'
_cell_length_a   6.27140265
_cell_length_b   6.26848897
_cell_length_c   6.24706683
_cell_angle_alpha   106.05548947
_cell_angle_beta   106.14085364
_cell_angle_gamma   117.77758675
_symmetry_Int_Tables_number   1
_chemical_formula_structural   Cu2NiC10
_chemical_formula_sum   'Cu2 Ni1 C10'
_cell_volume   183.34747738
_cell_formula_units_Z   1
loop_
 _symmetry_equiv_pos_site_id
 _symmetry_equiv_pos_as_xyz
  1  'x, y, z'
loop_
 _atom_site_type_symbol
 _atom_site_label
 _atom_site_symmetry_multiplicity
 _atom_site_fract_x
 _atom_site_fract_y
 _atom_site_fract_z
 _atom_site_occupancy
  Ni  Ni0  1  0.14882400  0.85568900  0.75017200  1
  Cu  Cu1  1  0.12758700  0.87279000  0.24940900  1
  Cu  Cu2  1  0.85950900  0.14092900  0.75020700  1
  C  C3  1  0.38537300  0.61424900  0.74961600  1
  C  C4  1  0.62388600  0.37735100  0.25041800  1
  C  C5  1  0.81124600  0.72617900  0.45762200  1
  C  C6  1  0.35582700  0.79347200  0.58198300  1
  C  C7  1  0.72985600  0.80294000  0.93641200  1
  C  C8  1  0.78774100  0.37385300  0.07191200  1
  C  C9  1  0.62640000  0.21207000  0.42818400  1
  C  C10  1  0.19742000  0.26981200  0.56381500  1
  C  C11  1  0.20657100  0.64487400  0.91683800  1
  C  C12  1  0.27517700  0.19079000  0.04341100  1
