# generated using pymatgen
data_Cu3(NiC2)2
_symmetry_space_group_name_H-M   'P 1'
_cell_length_a   6.58412400
_cell_length_b   6.76274300
_cell_length_c   12.59666600
_cell_angle_alpha   90.00000000
_cell_angle_beta   90.00000000
_cell_angle_gamma   90.00000000
_symmetry_Int_Tables_number   1
_chemical_formula_structural   Cu3(NiC2)2
_chemical_formula_sum   'Cu12 Ni8 C16'
_cell_volume   560.88845285
_cell_formula_units_Z   4
loop_
 _symmetry_equiv_pos_site_id
 _symmetry_equiv_pos_as_xyz
  1  'x, y, z'
loop_
 _atom_site_type_symbol
 _atom_site_label
 _atom_site_symmetry_multiplicity
 _atom_site_fract_x
 _atom_site_fract_y
 _atom_site_fract_z
 _atom_site_occupancy
  Ni  Ni0  1  0.99319400  0.17194000  0.09260200  1
  Ni  Ni1  1  0.00680600  0.82806000  0.90739800  1
  Ni  Ni2  1  0.50680600  0.67194000  0.90739800  1
  Ni  Ni3  1  0.00680600  0.82806000  0.59260200  1
  Ni  Ni4  1  0.49319400  0.32806000  0.09260200  1
  Ni  Ni5  1  0.99319400  0.17194000  0.40739800  1
  Ni  Ni6  1  0.49319400  0.32806000  0.40739800  1
  Ni  Ni7  1  0.50680600  0.67194000  0.59260200  1
  C  C8  1  0.03225600  0.12113700  0.75000000  1
  C  C9  1  0.96774400  0.87886300  0.25000000  1
  C  C10  1  0.46774400  0.62113700  0.25000000  1
  C  C11  1  0.53225600  0.37886300  0.75000000  1
  C  C12  1  0.30076900  0.86158400  0.75000000  1
  C  C13  1  0.69923100  0.13841600  0.25000000  1
  C  C14  1  0.19923100  0.36158400  0.25000000  1
  C  C15  1  0.80076900  0.63841600  0.75000000  1
  C  C16  1  0.16769800  0.45947800  0.54305900  1
  C  C17  1  0.83230200  0.54052200  0.45694100  1
  C  C18  1  0.33230200  0.95947800  0.45694100  1
  C  C19  1  0.83230200  0.54052200  0.04305900  1
  C  C20  1  0.66769800  0.04052200  0.54305900  1
  C  C21  1  0.16769800  0.45947800  0.95694100  1
  C  C22  1  0.66769800  0.04052200  0.95694100  1
  C  C23  1  0.33230200  0.95947800  0.04305900  1
  Cu  Cu24  1  0.16837800  0.51393400  0.75000000  1
  Cu  Cu25  1  0.83162200  0.48606600  0.25000000  1
  Cu  Cu26  1  0.33162200  0.01393400  0.25000000  1
  Cu  Cu27  1  0.66837800  0.98606600  0.75000000  1
  Cu  Cu28  1  0.33089400  0.16481100  0.62342900  1
  Cu  Cu29  1  0.66910600  0.83518900  0.37657100  1
  Cu  Cu30  1  0.16910600  0.66481100  0.37657100  1
  Cu  Cu31  1  0.66910600  0.83518900  0.12342900  1
  Cu  Cu32  1  0.83089400  0.33518900  0.62342900  1
  Cu  Cu33  1  0.33089400  0.16481100  0.87657100  1
  Cu  Cu34  1  0.83089400  0.33518900  0.87657100  1
  Cu  Cu35  1  0.16910600  0.66481100  0.12342900  1
