# generated using pymatgen
data_Cu(NiC3)2
_symmetry_space_group_name_H-M   'P 1'
_cell_length_a   8.22203963
_cell_length_b   8.22203963
_cell_length_c   8.91794143
_cell_angle_alpha   63.31657414
_cell_angle_beta   63.31657414
_cell_angle_gamma   91.48203111
_symmetry_Int_Tables_number   1
_chemical_formula_structural   Cu(NiC3)2
_chemical_formula_sum   'Cu2 Ni4 C12'
_cell_volume   461.33916066
_cell_formula_units_Z   2
loop_
 _symmetry_equiv_pos_site_id
 _symmetry_equiv_pos_as_xyz
  1  'x, y, z'
loop_
 _atom_site_type_symbol
 _atom_site_label
 _atom_site_symmetry_multiplicity
 _atom_site_fract_x
 _atom_site_fract_y
 _atom_site_fract_z
 _atom_site_occupancy
  Ni  Ni0  1  0.25000000  0.25000000  0.50000000  1
  Ni  Ni1  1  0.75000000  0.75000000  0.50000000  1
  Ni  Ni2  1  0.84166800  0.65833200  0.00000000  1
  Ni  Ni3  1  0.15833200  0.34166800  0.00000000  1
  Cu  Cu4  1  0.66640800  0.16640800  0.00000000  1
  Cu  Cu5  1  0.33359200  0.83359200  0.00000000  1
  C  C6  1  0.75239200  0.25239200  0.49521600  1
  C  C7  1  0.24760800  0.74760800  0.50478400  1
  C  C8  1  0.22273000  0.00068100  0.27658900  1
  C  C9  1  0.50068100  0.72273000  0.27658900  1
  C  C10  1  0.01192000  0.51192000  0.29202000  1
  C  C11  1  0.69606000  0.19606000  0.29202000  1
  C  C12  1  0.77727000  0.99931900  0.72341100  1
  C  C13  1  0.49931900  0.27727000  0.72341100  1
  C  C14  1  0.98808000  0.48808000  0.70798000  1
  C  C15  1  0.30394000  0.80394000  0.70798000  1
  C  C16  1  0.50000000  0.50000000  0.00000000  1
  C  C17  1  0.00000000  0.00000000  0.00000000  1
