# generated using pymatgen
data_Cu2Ni5C16
_symmetry_space_group_name_H-M   'P 1'
_cell_length_a   8.59533300
_cell_length_b   10.86353300
_cell_length_c   11.74861160
_cell_angle_alpha   84.12129037
_cell_angle_beta   90.00000000
_cell_angle_gamma   90.00000000
_symmetry_Int_Tables_number   1
_chemical_formula_structural   Cu2Ni5C16
_chemical_formula_sum   'Cu8 Ni20 C64'
_cell_volume   1091.26527456
_cell_formula_units_Z   4
loop_
 _symmetry_equiv_pos_site_id
 _symmetry_equiv_pos_as_xyz
  1  'x, y, z'
loop_
 _atom_site_type_symbol
 _atom_site_label
 _atom_site_symmetry_multiplicity
 _atom_site_fract_x
 _atom_site_fract_y
 _atom_site_fract_z
 _atom_site_occupancy
  C  C0  1  0.59577900  0.16883900  0.03317800  1
  C  C1  1  0.09577900  0.33116100  0.96682200  1
  C  C2  1  0.40422100  0.83116100  0.96682200  1
  C  C3  1  0.90422100  0.66883900  0.03317800  1
  Ni  Ni4  1  0.90811000  0.30063900  0.30301900  1
  Ni  Ni5  1  0.40811000  0.19936100  0.69698100  1
  Ni  Ni6  1  0.09189000  0.69936100  0.69698100  1
  Ni  Ni7  1  0.59189000  0.80063900  0.30301900  1
  Ni  Ni8  1  0.75171300  0.04732400  0.28914100  1
  Ni  Ni9  1  0.25171300  0.45267600  0.71085900  1
  Ni  Ni10  1  0.24828700  0.95267600  0.71085900  1
  Ni  Ni11  1  0.74828700  0.54732400  0.28914100  1
  Ni  Ni12  1  0.09297700  0.05915000  0.30723500  1
  Ni  Ni13  1  0.59297700  0.44085000  0.69276500  1
  Ni  Ni14  1  0.90702300  0.94085000  0.69276500  1
  Ni  Ni15  1  0.40702300  0.55915000  0.30723500  1
  Ni  Ni16  1  0.26268900  0.30834200  0.30935600  1
  Ni  Ni17  1  0.76268900  0.19165800  0.69064400  1
  Ni  Ni18  1  0.73731100  0.69165800  0.69064400  1
  Ni  Ni19  1  0.23731100  0.80834200  0.30935600  1
  Ni  Ni20  1  0.42713900  0.05080000  0.28966900  1
  Ni  Ni21  1  0.92713900  0.44920000  0.71033100  1
  Ni  Ni22  1  0.57286100  0.94920000  0.71033100  1
  Ni  Ni23  1  0.07286100  0.55080000  0.28966900  1
  Cu  Cu24  1  0.74015900  0.42358300  0.04280100  1
  Cu  Cu25  1  0.24015900  0.07641700  0.95719900  1
  Cu  Cu26  1  0.25984100  0.57641700  0.95719900  1
  Cu  Cu27  1  0.75984100  0.92358300  0.04280100  1
  Cu  Cu28  1  0.59272700  0.32194300  0.43571700  1
  Cu  Cu29  1  0.09272700  0.17805700  0.56428300  1
  Cu  Cu30  1  0.40727300  0.67805700  0.56428300  1
  Cu  Cu31  1  0.90727300  0.82194300  0.43571700  1
  C  C32  1  0.91403600  0.15244300  0.23860000  1
  C  C33  1  0.41403600  0.34755700  0.76140000  1
  C  C34  1  0.08596400  0.84755700  0.76140000  1
  C  C35  1  0.58596400  0.65244300  0.23860000  1
  C  C36  1  0.10318500  0.18606100  0.43189500  1
  C  C37  1  0.60318500  0.31393900  0.56810500  1
  C  C38  1  0.89681500  0.81393900  0.56810500  1
  C  C39  1  0.39681500  0.68606100  0.43189500  1
  C  C40  1  0.08539100  0.34138700  0.22307400  1
  C  C41  1  0.58539100  0.15861300  0.77692600  1
  C  C42  1  0.91460900  0.65861300  0.77692600  1
  C  C43  1  0.41460900  0.84138700  0.22307400  1
  C  C44  1  0.91153800  0.45340800  0.35704200  1
  C  C45  1  0.41153800  0.04659200  0.64295800  1
  C  C46  1  0.08846200  0.54659200  0.64295800  1
  C  C47  1  0.58846200  0.95340800  0.35704200  1
  C  C48  1  0.69364900  0.41851300  0.17277200  1
  C  C49  1  0.19364900  0.08148700  0.82722800  1
  C  C50  1  0.30635100  0.58148700  0.82722800  1
  C  C51  1  0.80635100  0.91851300  0.17277200  1
  C  C52  1  0.73077000  0.25039300  0.38956100  1
  C  C53  1  0.23077000  0.24960700  0.61043900  1
  C  C54  1  0.26923000  0.74960700  0.61043900  1
  C  C55  1  0.76923000  0.75039300  0.38956100  1
  C  C56  1  0.90728600  0.96478700  0.38946400  1
  C  C57  1  0.40728600  0.53521300  0.61053600  1
  C  C58  1  0.09271400  0.03521300  0.61053600  1
  C  C59  1  0.59271400  0.46478700  0.38946400  1
  C  C60  1  0.58956100  0.12832700  0.20552800  1
  C  C61  1  0.08956100  0.37167300  0.79447200  1
  C  C62  1  0.41043900  0.87167300  0.79447200  1
  C  C63  1  0.91043900  0.62832700  0.20552800  1
  C  C64  1  0.27151200  0.15772200  0.23754800  1
  C  C65  1  0.77151200  0.34227800  0.76245200  1
  C  C66  1  0.72848800  0.84227800  0.76245200  1
  C  C67  1  0.22848800  0.65772200  0.23754800  1
  C  C68  1  0.27153500  0.96111800  0.37172200  1
  C  C69  1  0.77153500  0.53888200  0.62827800  1
  C  C70  1  0.72846500  0.03888200  0.62827800  1
  C  C71  1  0.22846500  0.46111800  0.37172200  1
  C  C72  1  0.10034100  0.93188100  0.20343900  1
  C  C73  1  0.60034100  0.56811900  0.79656100  1
  C  C74  1  0.89965900  0.06811900  0.79656100  1
  C  C75  1  0.39965900  0.43188100  0.20343900  1
  C  C76  1  0.43882300  0.26119100  0.40307400  1
  C  C77  1  0.93882300  0.23880900  0.59692600  1
  C  C78  1  0.56117700  0.73880900  0.59692600  1
  C  C79  1  0.06117700  0.76119100  0.40307400  1
  C  C80  1  0.90184000  0.36633800  0.03738700  1
  C  C81  1  0.40184000  0.13366200  0.96261300  1
  C  C82  1  0.09816000  0.63366200  0.96261300  1
  C  C83  1  0.59816000  0.86633800  0.03738700  1
  C  C84  1  0.73874700  0.55905900  0.98738300  1
  C  C85  1  0.23874700  0.94094100  0.01261700  1
  C  C86  1  0.26125300  0.44094100  0.01261700  1
  C  C87  1  0.76125300  0.05905900  0.98738300  1
  C  C88  1  0.61521000  0.34497900  0.99063900  1
  C  C89  1  0.11521000  0.15502100  0.00936100  1
  C  C90  1  0.38479000  0.65502100  0.00936100  1
  C  C91  1  0.88479000  0.84497900  0.99063900  1
