# generated using pymatgen
data_CuNi5C12
_symmetry_space_group_name_H-M   'P 1'
_cell_length_a   3.08705600
_cell_length_b   9.51103400
_cell_length_c   12.93434000
_cell_angle_alpha   90.00000000
_cell_angle_beta   90.00000000
_cell_angle_gamma   90.00000000
_symmetry_Int_Tables_number   1
_chemical_formula_structural   CuNi5C12
_chemical_formula_sum   'Cu2 Ni10 C24'
_cell_volume   379.76638002
_cell_formula_units_Z   2
loop_
 _symmetry_equiv_pos_site_id
 _symmetry_equiv_pos_as_xyz
  1  'x, y, z'
loop_
 _atom_site_type_symbol
 _atom_site_label
 _atom_site_symmetry_multiplicity
 _atom_site_fract_x
 _atom_site_fract_y
 _atom_site_fract_z
 _atom_site_occupancy
  Ni  Ni0  1  0.00000000  0.25053500  0.49927300  1
  Ni  Ni1  1  0.00000000  0.74946500  0.99927300  1
  Ni  Ni2  1  0.50000000  0.25260800  0.00127300  1
  Ni  Ni3  1  0.50000000  0.74739200  0.50127300  1
  Ni  Ni4  1  0.00000000  0.24719100  0.77551700  1
  Ni  Ni5  1  0.00000000  0.75280900  0.27551700  1
  Ni  Ni6  1  0.50000000  0.51037900  0.88118100  1
  Ni  Ni7  1  0.50000000  0.99586700  0.11693800  1
  Ni  Ni8  1  0.50000000  0.00413300  0.61693800  1
  Ni  Ni9  1  0.50000000  0.48962100  0.38118100  1
  Cu  Cu10  1  0.00000000  0.25020600  0.22219900  1
  Cu  Cu11  1  0.00000000  0.74979400  0.72219900  1
  C  C12  1  0.50000000  0.47861000  0.63979800  1
  C  C13  1  0.50000000  0.02818300  0.36088200  1
  C  C14  1  0.50000000  0.97181700  0.86088200  1
  C  C15  1  0.50000000  0.52139000  0.13979800  1
  C  C16  1  0.50000000  0.40826000  0.54611800  1
  C  C17  1  0.50000000  0.09729400  0.45480500  1
  C  C18  1  0.50000000  0.90270600  0.95480500  1
  C  C19  1  0.50000000  0.59174000  0.04611800  1
  C  C20  1  0.50000000  0.11941600  0.85855600  1
  C  C21  1  0.50000000  0.37368400  0.14486500  1
  C  C22  1  0.50000000  0.62631600  0.64486500  1
  C  C23  1  0.50000000  0.88058400  0.35855600  1
  C  C24  1  0.50000000  0.40181000  0.73163100  1
  C  C25  1  0.50000000  0.10505800  0.26832800  1
  C  C26  1  0.50000000  0.89494200  0.76832800  1
  C  C27  1  0.50000000  0.59819000  0.23163100  1
  C  C28  1  0.00000000  0.37128000  0.91913400  1
  C  C29  1  0.00000000  0.13463600  0.08303800  1
  C  C30  1  0.00000000  0.86536400  0.58303800  1
  C  C31  1  0.00000000  0.62872000  0.41913400  1
  C  C32  1  0.00000000  0.13265700  0.64161300  1
  C  C33  1  0.00000000  0.36250800  0.35485200  1
  C  C34  1  0.00000000  0.63749200  0.85485200  1
  C  C35  1  0.00000000  0.86734300  0.14161300  1
