# generated using pymatgen
data_Cu(NiC2)2
_symmetry_space_group_name_H-M   'P 1'
_cell_length_a   6.94890188
_cell_length_b   6.94890188
_cell_length_c   6.88403737
_cell_angle_alpha   61.19229681
_cell_angle_beta   61.19229681
_cell_angle_gamma   33.55131271
_symmetry_Int_Tables_number   1
_chemical_formula_structural   Cu(NiC2)2
_chemical_formula_sum   'Cu1 Ni2 C4'
_cell_volume   158.75406306
_cell_formula_units_Z   1
loop_
 _symmetry_equiv_pos_site_id
 _symmetry_equiv_pos_as_xyz
  1  'x, y, z'
loop_
 _atom_site_type_symbol
 _atom_site_label
 _atom_site_symmetry_multiplicity
 _atom_site_fract_x
 _atom_site_fract_y
 _atom_site_fract_z
 _atom_site_occupancy
  Ni  Ni0  1  0.74253700  0.74253700  0.27597800  1
  Ni  Ni1  1  0.25746300  0.25746300  0.72402200  1
  Cu  Cu2  1  0.00000000  0.00000000  0.00000000  1
  C  C3  1  0.88559500  0.88559500  0.44610700  1
  C  C4  1  0.11440500  0.11440500  0.55389300  1
  C  C5  1  0.62700200  0.62700200  0.03005200  1
  C  C6  1  0.37299800  0.37299800  0.96994800  1
