# generated using pymatgen
data_Cu2Ni
_symmetry_space_group_name_H-M   'P 1'
_cell_length_a   7.88607600
_cell_length_b   8.37694200
_cell_length_c   9.65536000
_cell_angle_alpha   90.00000000
_cell_angle_beta   90.00000000
_cell_angle_gamma   90.00000000
_symmetry_Int_Tables_number   1
_chemical_formula_structural   Cu2Ni
_chemical_formula_sum   'Cu16 Ni8'
_cell_volume   637.84468019
_cell_formula_units_Z   8
loop_
 _symmetry_equiv_pos_site_id
 _symmetry_equiv_pos_as_xyz
  1  'x, y, z'
loop_
 _atom_site_type_symbol
 _atom_site_label
 _atom_site_symmetry_multiplicity
 _atom_site_fract_x
 _atom_site_fract_y
 _atom_site_fract_z
 _atom_site_occupancy
  Ni  Ni0  1  0.90854200  0.86392900  0.78039200  1
  Ni  Ni1  1  0.09145800  0.13607100  0.21960800  1
  Ni  Ni2  1  0.59145800  0.36392900  0.21960800  1
  Ni  Ni3  1  0.09145800  0.63607100  0.28039200  1
  Ni  Ni4  1  0.40854200  0.63607100  0.78039200  1
  Ni  Ni5  1  0.90854200  0.36392900  0.71960800  1
  Ni  Ni6  1  0.40854200  0.13607100  0.71960800  1
  Ni  Ni7  1  0.59145800  0.86392900  0.28039200  1
  Cu  Cu8  1  0.98400600  0.86671400  0.66804800  1
  Cu  Cu9  1  0.01599400  0.13328600  0.33195200  1
  Cu  Cu10  1  0.51599400  0.36671400  0.33195200  1
  Cu  Cu11  1  0.01599400  0.63328600  0.16804800  1
  Cu  Cu12  1  0.48400600  0.63328600  0.66804800  1
  Cu  Cu13  1  0.98400600  0.36671400  0.83195200  1
  Cu  Cu14  1  0.48400600  0.13328600  0.83195200  1
  Cu  Cu15  1  0.51599400  0.86671400  0.16804800  1
  Cu  Cu16  1  0.83348400  0.86132300  0.89274800  1
  Cu  Cu17  1  0.16651600  0.13867700  0.10725200  1
  Cu  Cu18  1  0.66651600  0.36132300  0.10725200  1
  Cu  Cu19  1  0.16651600  0.63867700  0.39274800  1
  Cu  Cu20  1  0.33348400  0.63867700  0.89274800  1
  Cu  Cu21  1  0.83348400  0.36132300  0.60725200  1
  Cu  Cu22  1  0.33348400  0.13867700  0.60725200  1
  Cu  Cu23  1  0.66651600  0.86132300  0.39274800  1
