# generated using pymatgen
data_Cu2Ni3C
_symmetry_space_group_name_H-M   'P 1'
_cell_length_a   4.65652800
_cell_length_b   9.19404250
_cell_length_c   9.37912908
_cell_angle_alpha   112.06678112
_cell_angle_beta   90.00000000
_cell_angle_gamma   104.66909434
_symmetry_Int_Tables_number   1
_chemical_formula_structural   Cu2Ni3C
_chemical_formula_sum   'Cu4 Ni6 C2'
_cell_volume   357.96555352
_cell_formula_units_Z   2
loop_
 _symmetry_equiv_pos_site_id
 _symmetry_equiv_pos_as_xyz
  1  'x, y, z'
loop_
 _atom_site_type_symbol
 _atom_site_label
 _atom_site_symmetry_multiplicity
 _atom_site_fract_x
 _atom_site_fract_y
 _atom_site_fract_z
 _atom_site_occupancy
  C  C0  1  0.86441800  0.72883600  0.95048000  1
  C  C1  1  0.13558200  0.27116400  0.04952000  1
  Ni  Ni2  1  0.06222100  0.12444200  0.40892700  1
  Ni  Ni3  1  0.41284200  0.82568400  0.37396400  1
  Ni  Ni4  1  0.93777900  0.87555800  0.59107300  1
  Ni  Ni5  1  0.69087400  0.38174800  0.45420100  1
  Ni  Ni6  1  0.58715800  0.17431600  0.62603600  1
  Ni  Ni7  1  0.30912600  0.61825200  0.54579900  1
  Cu  Cu8  1  0.79959000  0.59918000  0.30280400  1
  Cu  Cu9  1  0.52024500  0.04049000  0.22422500  1
  Cu  Cu10  1  0.47975500  0.95951000  0.77577500  1
  Cu  Cu11  1  0.20041000  0.40082000  0.69719600  1
