# generated using pymatgen
data_CuNiC14
_symmetry_space_group_name_H-M   'P 1'
_cell_length_a   6.81957500
_cell_length_b   8.69445800
_cell_length_c   18.60304000
_cell_angle_alpha   90.00000000
_cell_angle_beta   90.00000000
_cell_angle_gamma   90.00000000
_symmetry_Int_Tables_number   1
_chemical_formula_structural   CuNiC14
_chemical_formula_sum   'Cu4 Ni4 C56'
_cell_volume   1103.02090575
_cell_formula_units_Z   4
loop_
 _symmetry_equiv_pos_site_id
 _symmetry_equiv_pos_as_xyz
  1  'x, y, z'
loop_
 _atom_site_type_symbol
 _atom_site_label
 _atom_site_symmetry_multiplicity
 _atom_site_fract_x
 _atom_site_fract_y
 _atom_site_fract_z
 _atom_site_occupancy
  Ni  Ni0  1  0.08543800  0.17016700  0.25000000  1
  Ni  Ni1  1  0.91456200  0.82983300  0.75000000  1
  Ni  Ni2  1  0.58543800  0.32983300  0.75000000  1
  Ni  Ni3  1  0.41456200  0.67016700  0.25000000  1
  Cu  Cu4  1  0.00000000  0.00000000  0.00000000  1
  Cu  Cu5  1  0.50000000  0.50000000  0.00000000  1
  Cu  Cu6  1  0.00000000  0.00000000  0.50000000  1
  Cu  Cu7  1  0.50000000  0.50000000  0.50000000  1
  C  C8  1  0.15160400  0.31162200  0.55934600  1
  C  C9  1  0.84839600  0.68837800  0.44065400  1
  C  C10  1  0.65160400  0.18837800  0.44065400  1
  C  C11  1  0.84839600  0.68837800  0.05934600  1
  C  C12  1  0.34839600  0.81162200  0.55934600  1
  C  C13  1  0.15160400  0.31162200  0.94065400  1
  C  C14  1  0.34839600  0.81162200  0.94065400  1
  C  C15  1  0.65160400  0.18837800  0.05934600  1
  C  C16  1  0.01691100  0.00196200  0.66468900  1
  C  C17  1  0.98308900  0.99803800  0.33531100  1
  C  C18  1  0.51691100  0.49803800  0.33531100  1
  C  C19  1  0.98308900  0.99803800  0.16468900  1
  C  C20  1  0.48308900  0.50196200  0.66468900  1
  C  C21  1  0.01691100  0.00196200  0.83531100  1
  C  C22  1  0.48308900  0.50196200  0.83531100  1
  C  C23  1  0.51691100  0.49803800  0.16468900  1
  C  C24  1  0.23285300  0.47082500  0.99171800  1
  C  C25  1  0.76714700  0.52917500  0.00828200  1
  C  C26  1  0.73285300  0.02917500  0.00828200  1
  C  C27  1  0.76714700  0.52917500  0.49171800  1
  C  C28  1  0.26714700  0.97082500  0.99171800  1
  C  C29  1  0.23285300  0.47082500  0.50828200  1
  C  C30  1  0.26714700  0.97082500  0.50828200  1
  C  C31  1  0.73285300  0.02917500  0.49171800  1
  C  C32  1  0.31699400  0.08398100  0.25000000  1
  C  C33  1  0.68300600  0.91601900  0.75000000  1
  C  C34  1  0.81699400  0.41601900  0.75000000  1
  C  C35  1  0.18300600  0.58398100  0.25000000  1
  C  C36  1  0.46429400  0.11022900  0.10242200  1
  C  C37  1  0.53570600  0.88977100  0.89757800  1
  C  C38  1  0.96429400  0.38977100  0.89757800  1
  C  C39  1  0.53570600  0.88977100  0.60242200  1
  C  C40  1  0.03570600  0.61022900  0.10242200  1
  C  C41  1  0.46429400  0.11022900  0.39757800  1
  C  C42  1  0.03570600  0.61022900  0.39757800  1
  C  C43  1  0.96429400  0.38977100  0.60242200  1
  C  C44  1  0.13319200  0.29123400  0.17971100  1
  C  C45  1  0.86680800  0.70876600  0.82028900  1
  C  C46  1  0.63319200  0.20876600  0.82028900  1
  C  C47  1  0.86680800  0.70876600  0.67971100  1
  C  C48  1  0.36680800  0.79123400  0.17971100  1
  C  C49  1  0.13319200  0.29123400  0.32028900  1
  C  C50  1  0.36680800  0.79123400  0.32028900  1
  C  C51  1  0.63319200  0.20876600  0.67971100  1
  C  C52  1  0.83109000  0.22499200  0.25000000  1
  C  C53  1  0.16891000  0.77500800  0.75000000  1
  C  C54  1  0.33109000  0.27500800  0.75000000  1
  C  C55  1  0.66891000  0.72499200  0.25000000  1
  C  C56  1  0.04524100  0.20889600  0.01371300  1
  C  C57  1  0.95475900  0.79110400  0.98628700  1
  C  C58  1  0.54524100  0.29110400  0.98628700  1
  C  C59  1  0.95475900  0.79110400  0.51371300  1
  C  C60  1  0.45475900  0.70889600  0.01371300  1
  C  C61  1  0.04524100  0.20889600  0.48628700  1
  C  C62  1  0.45475900  0.70889600  0.48628700  1
  C  C63  1  0.54524100  0.29110400  0.51371300  1
