# generated using pymatgen
data_CuNiC5
_symmetry_space_group_name_H-M   'P 1'
_cell_length_a   9.81967100
_cell_length_b   5.22931400
_cell_length_c   7.47944877
_cell_angle_alpha   69.69167221
_cell_angle_beta   90.00000000
_cell_angle_gamma   90.00000000
_symmetry_Int_Tables_number   1
_chemical_formula_structural   CuNiC5
_chemical_formula_sum   'Cu4 Ni4 C20'
_cell_volume   360.19634858
_cell_formula_units_Z   4
loop_
 _symmetry_equiv_pos_site_id
 _symmetry_equiv_pos_as_xyz
  1  'x, y, z'
loop_
 _atom_site_type_symbol
 _atom_site_label
 _atom_site_symmetry_multiplicity
 _atom_site_fract_x
 _atom_site_fract_y
 _atom_site_fract_z
 _atom_site_occupancy
  Ni  Ni0  1  0.00616600  0.51240400  0.75100900  1
  Ni  Ni1  1  0.50616600  0.48759600  0.74899100  1
  Ni  Ni2  1  0.99383400  0.48759600  0.24899100  1
  Ni  Ni3  1  0.49383400  0.51240400  0.25100900  1
  Cu  Cu4  1  0.75439200  0.09722900  0.60287100  1
  Cu  Cu5  1  0.25439200  0.90277100  0.89712900  1
  Cu  Cu6  1  0.24560800  0.90277100  0.39712900  1
  Cu  Cu7  1  0.74560800  0.09722900  0.10287100  1
  C  C8  1  0.88563800  0.39445800  0.56178300  1
  C  C9  1  0.38563800  0.60554200  0.93821700  1
  C  C10  1  0.11436200  0.60554200  0.43821700  1
  C  C11  1  0.61436200  0.39445800  0.06178300  1
  C  C12  1  0.60832600  0.35816300  0.50152100  1
  C  C13  1  0.10832600  0.64183700  0.99847900  1
  C  C14  1  0.39167400  0.64183700  0.49847900  1
  C  C15  1  0.89167400  0.35816300  0.00152100  1
  C  C16  1  0.40660300  0.14784800  0.80426300  1
  C  C17  1  0.90660300  0.85215200  0.69573700  1
  C  C18  1  0.59339700  0.85215200  0.19573700  1
  C  C19  1  0.09339700  0.14784800  0.30426300  1
  C  C20  1  0.12987600  0.20673300  0.84937400  1
  C  C21  1  0.62987600  0.79326700  0.65062600  1
  C  C22  1  0.87012400  0.79326700  0.15062600  1
  C  C23  1  0.37012400  0.20673300  0.34937400  1
  C  C24  1  0.69700200  0.13377100  0.84293200  1
  C  C25  1  0.19700200  0.86622900  0.65706800  1
  C  C26  1  0.30299800  0.86622900  0.15706800  1
  C  C27  1  0.80299800  0.13377100  0.34293200  1
