# generated using pymatgen
data_Cu4Ni4C3
_symmetry_space_group_name_H-M   'P 1'
_cell_length_a   7.29300318
_cell_length_b   7.29300318
_cell_length_c   7.29300378
_cell_angle_alpha   87.20992616
_cell_angle_beta   87.20992616
_cell_angle_gamma   87.20992638
_symmetry_Int_Tables_number   1
_chemical_formula_structural   Cu4Ni4C3
_chemical_formula_sum   'Cu12 Ni12 C9'
_cell_volume   386.56331120
_cell_formula_units_Z   3
loop_
 _symmetry_equiv_pos_site_id
 _symmetry_equiv_pos_as_xyz
  1  'x, y, z'
loop_
 _atom_site_type_symbol
 _atom_site_label
 _atom_site_symmetry_multiplicity
 _atom_site_fract_x
 _atom_site_fract_y
 _atom_site_fract_z
 _atom_site_occupancy
  C  C0  1  0.00000000  0.00000000  0.00000000  1
  Ni  Ni1  1  0.71674100  0.51609300  0.56888300  1
  Ni  Ni2  1  0.56888300  0.71674100  0.51609300  1
  Ni  Ni3  1  0.51609300  0.56888300  0.71674100  1
  Ni  Ni4  1  0.28325900  0.48390700  0.43111700  1
  Ni  Ni5  1  0.43111700  0.28325900  0.48390700  1
  Ni  Ni6  1  0.48390700  0.43111700  0.28325900  1
  Ni  Ni7  1  0.65948200  0.34034000  0.42139500  1
  Ni  Ni8  1  0.42139500  0.65948200  0.34034000  1
  Ni  Ni9  1  0.34034000  0.42139500  0.65948200  1
  Ni  Ni10  1  0.34051800  0.65966000  0.57860500  1
  Ni  Ni11  1  0.57860500  0.34051800  0.65966000  1
  Ni  Ni12  1  0.65966000  0.57860500  0.34051800  1
  Cu  Cu13  1  0.87136400  0.51794600  0.61619100  1
  Cu  Cu14  1  0.61619100  0.87136400  0.51794600  1
  Cu  Cu15  1  0.51794600  0.61619100  0.87136400  1
  Cu  Cu16  1  0.12863600  0.48205400  0.38380900  1
  Cu  Cu17  1  0.38380900  0.12863600  0.48205400  1
  Cu  Cu18  1  0.48205400  0.38380900  0.12863600  1
  Cu  Cu19  1  0.77121600  0.22916300  0.36338000  1
  Cu  Cu20  1  0.36338000  0.77121600  0.22916300  1
  Cu  Cu21  1  0.22916300  0.36338000  0.77121600  1
  Cu  Cu22  1  0.22878400  0.77083700  0.63662000  1
  Cu  Cu23  1  0.63662000  0.22878400  0.77083700  1
  Cu  Cu24  1  0.77083700  0.63662000  0.22878400  1
  C  C25  1  0.81936200  0.81936200  0.81936200  1
  C  C26  1  0.18063800  0.18063800  0.18063800  1
  C  C27  1  0.98529500  0.02619600  0.57744300  1
  C  C28  1  0.57744300  0.98529500  0.02619600  1
  C  C29  1  0.02619600  0.57744300  0.98529500  1
  C  C30  1  0.01470500  0.97380400  0.42255700  1
  C  C31  1  0.42255700  0.01470500  0.97380400  1
  C  C32  1  0.97380400  0.42255700  0.01470500  1
