# generated using pymatgen
data_CuNiC18
_symmetry_space_group_name_H-M   'P 1'
_cell_length_a   7.58123100
_cell_length_b   8.49150566
_cell_length_c   11.64229637
_cell_angle_alpha   96.69632242
_cell_angle_beta   94.56175458
_cell_angle_gamma   102.91245524
_symmetry_Int_Tables_number   1
_chemical_formula_structural   CuNiC18
_chemical_formula_sum   'Cu4 Ni4 C72'
_cell_volume   721.22022855
_cell_formula_units_Z   4
loop_
 _symmetry_equiv_pos_site_id
 _symmetry_equiv_pos_as_xyz
  1  'x, y, z'
loop_
 _atom_site_type_symbol
 _atom_site_label
 _atom_site_symmetry_multiplicity
 _atom_site_fract_x
 _atom_site_fract_y
 _atom_site_fract_z
 _atom_site_occupancy
  C  C0  1  0.61649800  0.80399800  0.00563400  1
  C  C1  1  0.38350200  0.19600200  0.99436600  1
  C  C2  1  0.29358700  0.87174800  0.82027300  1
  C  C3  1  0.70641300  0.12825200  0.17972700  1
  C  C4  1  0.21632100  0.64167500  0.93898300  1
  C  C5  1  0.78367900  0.35832500  0.06101700  1
  C  C6  1  0.98570800  0.79121000  0.89113500  1
  C  C7  1  0.01429200  0.20879000  0.10886500  1
  C  C8  1  0.34634300  0.86748300  0.60847900  1
  C  C9  1  0.65365700  0.13251700  0.39152100  1
  C  C10  1  0.55247700  0.08396000  0.75651800  1
  C  C11  1  0.44752300  0.91604000  0.24348200  1
  C  C12  1  0.88696800  0.20857200  0.77687000  1
  C  C13  1  0.11303200  0.79142800  0.22313000  1
  C  C14  1  0.68142500  0.38257100  0.74998800  1
  C  C15  1  0.31857500  0.61742900  0.25001200  1
  C  C16  1  0.15403500  0.44557100  0.01249400  1
  C  C17  1  0.84596500  0.55442900  0.98750600  1
  C  C18  1  0.37283100  0.86972100  0.44395100  1
  C  C19  1  0.62716900  0.13027900  0.55604900  1
  C  C20  1  0.08127600  0.08595200  0.80552800  1
  C  C21  1  0.91872400  0.91404800  0.19447200  1
  C  C22  1  0.71845700  0.63710200  0.80201200  1
  C  C23  1  0.28154300  0.36289800  0.19798800  1
  C  C24  1  0.98654700  0.81531300  0.64062000  1
  C  C25  1  0.01345300  0.18468700  0.35938000  1
  C  C26  1  0.81067800  0.90449300  0.66316300  1
  C  C27  1  0.18932200  0.09550700  0.33683700  1
  C  C28  1  0.78369900  0.70548000  0.66445700  1
  C  C29  1  0.21630100  0.29451900  0.33554300  1
  C  C30  1  0.79864600  0.62539400  0.26945100  1
  C  C31  1  0.20135400  0.37460600  0.73054900  1
  C  C32  1  0.76270400  0.42861400  0.29950800  1
  C  C33  1  0.23729600  0.57138600  0.70049200  1
  C  C34  1  0.59652700  0.52739600  0.30888900  1
  C  C35  1  0.40347300  0.47260400  0.69111100  1
  C  C36  1  0.63766600  0.76236600  0.48345500  1
  C  C37  1  0.36233400  0.23763400  0.51654500  1
  C  C38  1  0.85442300  0.86134000  0.44908200  1
  C  C39  1  0.14557700  0.13866000  0.55091800  1
  C  C40  1  0.96646800  0.61052300  0.44971400  1
  C  C41  1  0.03353200  0.38947700  0.55028600  1
  C  C42  1  0.76148000  0.50560100  0.49942700  1
  C  C43  1  0.23852000  0.49439900  0.50057300  1
  Ni  Ni44  1  0.78311200  0.76396400  0.49430800  1
  Ni  Ni45  1  0.21688800  0.23603600  0.50569200  1
  Ni  Ni46  1  0.81887200  0.60004900  0.44692600  1
  Ni  Ni47  1  0.18112800  0.39995100  0.55307400  1
  Cu  Cu48  1  0.84643800  0.80163300  0.62168300  1
  Cu  Cu49  1  0.15356200  0.19836700  0.37831700  1
  Cu  Cu50  1  0.73939600  0.54343600  0.32384000  1
  Cu  Cu51  1  0.26060400  0.45656400  0.67616000  1
  C  C52  1  0.33856000  0.73870100  0.88149300  1
  C  C53  1  0.66144000  0.26129900  0.11850700  1
  C  C54  1  0.04588700  0.67275800  0.95104400  1
  C  C55  1  0.95411300  0.32724200  0.04895600  1
  C  C56  1  0.12116400  0.91221900  0.85697000  1
  C  C57  1  0.87883600  0.08778100  0.14303000  1
  C  C58  1  0.26218200  0.51178300  0.98275500  1
  C  C59  1  0.73781800  0.48821700  0.01724500  1
  C  C60  1  0.80672600  0.77350800  0.86739300  1
  C  C61  1  0.19327400  0.22649200  0.13260700  1
  C  C62  1  0.24428700  0.80041500  0.69142200  1
  C  C63  1  0.75571300  0.19958500  0.30857800  1
  C  C64  1  0.49421700  0.99562200  0.63544000  1
  C  C65  1  0.50578300  0.00437800  0.36456000  1
  C  C66  1  0.44129100  0.01274500  0.84052100  1
  C  C67  1  0.55870900  0.98725500  0.15947900  1
  C  C68  1  0.29387800  0.80124300  0.49312100  1
  C  C69  1  0.70612200  0.19875700  0.50687900  1
  C  C70  1  0.74745400  0.07760400  0.77831000  1
  C  C71  1  0.25254600  0.92239600  0.22169000  1
  C  C72  1  0.86093600  0.36282500  0.76231900  1
  C  C73  1  0.13906400  0.63717500  0.23768100  1
  C  C74  1  0.53756000  0.25486600  0.75295400  1
  C  C75  1  0.46244000  0.74513400  0.24704600  1
  C  C76  1  0.06561700  0.19248200  0.78217700  1
  C  C77  1  0.93438300  0.80751800  0.21782300  1
  C  C78  1  0.64834800  0.53225600  0.73186100  1
  C  C79  1  0.35165200  0.46774400  0.26813900  1
