# generated using pymatgen
data_Cu2NiC7
_symmetry_space_group_name_H-M   'P 1'
_cell_length_a   5.31841600
_cell_length_b   9.09821400
_cell_length_c   18.60551700
_cell_angle_alpha   90.00000000
_cell_angle_beta   90.00000000
_cell_angle_gamma   90.00000000
_symmetry_Int_Tables_number   1
_chemical_formula_structural   Cu2NiC7
_chemical_formula_sum   'Cu16 Ni8 C56'
_cell_volume   900.28537358
_cell_formula_units_Z   8
loop_
 _symmetry_equiv_pos_site_id
 _symmetry_equiv_pos_as_xyz
  1  'x, y, z'
loop_
 _atom_site_type_symbol
 _atom_site_label
 _atom_site_symmetry_multiplicity
 _atom_site_fract_x
 _atom_site_fract_y
 _atom_site_fract_z
 _atom_site_occupancy
  Ni  Ni0  1  0.61729400  0.15223500  0.37536700  1
  Ni  Ni1  1  0.38270600  0.84776500  0.62463300  1
  Ni  Ni2  1  0.61729400  0.65223500  0.12463300  1
  Ni  Ni3  1  0.11729400  0.84776500  0.12463300  1
  Ni  Ni4  1  0.88270600  0.15223500  0.87536700  1
  Ni  Ni5  1  0.38270600  0.34776500  0.87536700  1
  Ni  Ni6  1  0.11729400  0.34776500  0.37536700  1
  Ni  Ni7  1  0.88270600  0.65223500  0.62463300  1
  C  C8  1  0.37599800  0.98115500  0.87631900  1
  C  C9  1  0.62400200  0.01884500  0.12368100  1
  C  C10  1  0.87599800  0.01884500  0.62368100  1
  C  C11  1  0.12400200  0.98115500  0.37631900  1
  C  C12  1  0.37599800  0.48115500  0.62368100  1
  C  C13  1  0.62400200  0.51884500  0.37631900  1
  C  C14  1  0.87599800  0.51884500  0.87631900  1
  C  C15  1  0.12400200  0.48115500  0.12368100  1
  Cu  Cu16  1  0.56358600  0.66176000  0.77173400  1
  Cu  Cu17  1  0.71382700  0.83676600  0.47573600  1
  Cu  Cu18  1  0.78617300  0.83676600  0.97573600  1
  Cu  Cu19  1  0.93641400  0.16176000  0.22826600  1
  Cu  Cu20  1  0.06358600  0.33824000  0.72826600  1
  Cu  Cu21  1  0.43641400  0.83824000  0.27173400  1
  Cu  Cu22  1  0.21382700  0.66323400  0.47573600  1
  Cu  Cu23  1  0.71382700  0.33676600  0.02426400  1
  Cu  Cu24  1  0.78617300  0.33676600  0.52426400  1
  Cu  Cu25  1  0.93641400  0.66176000  0.27173400  1
  Cu  Cu26  1  0.43641400  0.33824000  0.22826600  1
  Cu  Cu27  1  0.56358600  0.16176000  0.72826600  1
  Cu  Cu28  1  0.28617300  0.16323400  0.52426400  1
  Cu  Cu29  1  0.06358600  0.83824000  0.77173400  1
  Cu  Cu30  1  0.28617300  0.66323400  0.97573600  1
  Cu  Cu31  1  0.21382700  0.16323400  0.02426400  1
  C  C32  1  0.93703200  0.50320900  0.31169300  1
  C  C33  1  0.29383100  0.01405900  0.06601000  1
  C  C34  1  0.06296800  0.49679100  0.68830700  1
  C  C35  1  0.71110300  0.33767800  0.93613100  1
  C  C36  1  0.21110300  0.16232200  0.93613100  1
  C  C37  1  0.92432000  0.21047000  0.05094900  1
  C  C38  1  0.94083200  0.66707400  0.18454300  1
  C  C39  1  0.05916800  0.83292600  0.68454300  1
  C  C40  1  0.71110300  0.83767800  0.56386900  1
  C  C41  1  0.94083200  0.16707400  0.31545700  1
  C  C42  1  0.43703200  0.49679100  0.18830700  1
  C  C43  1  0.78889700  0.33767800  0.43613100  1
  C  C44  1  0.70616900  0.98594100  0.93399000  1
  C  C45  1  0.44083200  0.83292600  0.18454300  1
  C  C46  1  0.56296800  0.00320900  0.68830700  1
  C  C47  1  0.29383100  0.51405900  0.43399000  1
  C  C48  1  0.43703200  0.99679100  0.31169300  1
  C  C49  1  0.16483400  0.76896100  0.30337000  1
  C  C50  1  0.33516600  0.76896100  0.80337000  1
  C  C51  1  0.57568000  0.71047000  0.94905100  1
  C  C52  1  0.78889700  0.83767800  0.06386900  1
  C  C53  1  0.55916800  0.66707400  0.68454300  1
  C  C54  1  0.79383100  0.48594100  0.06601000  1
  C  C55  1  0.16483400  0.26896100  0.19663000  1
  C  C56  1  0.28889700  0.16232200  0.43613100  1
  C  C57  1  0.55916800  0.16707400  0.81545700  1
  C  C58  1  0.70616900  0.48594100  0.56601000  1
  C  C59  1  0.21110300  0.66232200  0.56386900  1
  C  C60  1  0.20616900  0.51405900  0.93399000  1
  C  C61  1  0.66483400  0.73103900  0.30337000  1
  C  C62  1  0.06296800  0.99679100  0.81169300  1
  C  C63  1  0.83516600  0.73103900  0.80337000  1
  C  C64  1  0.83516600  0.23103900  0.69663000  1
  C  C65  1  0.79383100  0.98594100  0.43399000  1
  C  C66  1  0.28889700  0.66232200  0.06386900  1
  C  C67  1  0.20616900  0.01405900  0.56601000  1
  C  C68  1  0.33516600  0.26896100  0.69663000  1
  C  C69  1  0.07568000  0.78953000  0.94905100  1
  C  C70  1  0.42432000  0.78953000  0.44905100  1
  C  C71  1  0.66483400  0.23103900  0.19663000  1
  C  C72  1  0.42432000  0.28953000  0.05094900  1
  C  C73  1  0.57568000  0.21047000  0.55094900  1
  C  C74  1  0.07568000  0.28953000  0.55094900  1
  C  C75  1  0.44083200  0.33292600  0.31545700  1
  C  C76  1  0.56296800  0.50320900  0.81169300  1
  C  C77  1  0.92432000  0.71047000  0.44905100  1
  C  C78  1  0.05916800  0.33292600  0.81545700  1
  C  C79  1  0.93703200  0.00320900  0.18830700  1
