# generated using pymatgen
data_CuNiC41
_symmetry_space_group_name_H-M   'P 1'
_cell_length_a   6.52115776
_cell_length_b   7.48831018
_cell_length_c   9.25409774
_cell_angle_alpha   112.95434368
_cell_angle_beta   110.66576835
_cell_angle_gamma   89.95899492
_symmetry_Int_Tables_number   1
_chemical_formula_structural   CuNiC41
_chemical_formula_sum   'Cu1 Ni1 C41'
_cell_volume   384.39394081
_cell_formula_units_Z   1
loop_
 _symmetry_equiv_pos_site_id
 _symmetry_equiv_pos_as_xyz
  1  'x, y, z'
loop_
 _atom_site_type_symbol
 _atom_site_label
 _atom_site_symmetry_multiplicity
 _atom_site_fract_x
 _atom_site_fract_y
 _atom_site_fract_z
 _atom_site_occupancy
  Ni  Ni0  1  0.74839512  0.56881479  0.50048332  1
  Cu  Cu1  1  0.99802352  0.48093235  0.99530791  1
  C  C2  1  0.45814748  0.79583040  0.16886256  1
  C  C3  1  0.70307440  0.34907583  0.15118730  1
  C  C4  1  0.27594537  0.17742405  0.80116133  1
  C  C5  1  0.53289785  0.61054270  0.81935353  1
  C  C6  1  0.64707836  0.99476569  0.29191232  1
  C  C7  1  0.64342134  0.26538591  0.27739450  1
  C  C8  1  0.33913739  0.97545725  0.67518000  1
  C  C9  1  0.34203720  0.67438704  0.68314268  1
  C  C10  1  0.70931196  0.79395776  0.16809030  1
  C  C11  1  0.45012528  0.34868286  0.15416711  1
  C  C12  1  0.52563190  0.17871487  0.80260143  1
  C  C13  1  0.28449971  0.61121806  0.81860760  1
  C  C14  1  0.96007345  0.82191122  0.92033211  1
  C  C15  1  0.96449968  0.08844783  0.92489260  1
  C  C16  1  0.06592036  0.19124018  0.13165754  1
  C  C17  1  0.06216660  0.90471137  0.12308014  1
  C  C18  1  0.95170167  0.88369884  0.65703485  1
  C  C19  1  0.70790923  0.88679442  0.65840248  1
  C  C20  1  0.31103795  0.21276464  0.38467163  1
  C  C21  1  0.07316405  0.21149825  0.38395002  1
  C  C22  1  0.49063951  0.98072486  0.98111945  1
  C  C23  1  0.93479362  0.35550778  0.65405320  1
  C  C24  1  0.71676759  0.35692919  0.65506809  1
  C  C25  1  0.28524668  0.65665933  0.34677718  1
  C  C26  1  0.05919060  0.65635536  0.34615327  1
  C  C27  1  0.58641439  0.88157199  0.17272327  1
  C  C28  1  0.58117668  0.26960729  0.15988796  1
  C  C29  1  0.39779110  0.08736982  0.79506267  1
  C  C30  1  0.40325800  0.69121292  0.80734295  1
  C  C31  1  0.10793369  0.37982676  0.79368255  1
  C  C32  1  0.68520327  0.38218778  0.79552759  1
  C  C33  1  0.30695026  0.58838716  0.19996214  1
  C  C34  1  0.89164796  0.58890623  0.19881988  1
  C  C35  1  0.95855973  0.36004941  0.51761235  1
  C  C36  1  0.55579446  0.36321646  0.51984662  1
  C  C37  1  0.46329838  0.71240831  0.48656220  1
  C  C38  1  0.01952915  0.71075153  0.48525223  1
  C  C39  1  0.00963087  0.78432760  0.01557036  1
  C  C40  1  0.01056211  0.21348212  0.02524903  1
  C  C41  1  0.85848851  0.86241590  0.71559470  1
  C  C42  1  0.15440456  0.14541690  0.30808806  1
