# generated using pymatgen
data_CuNiC8
_symmetry_space_group_name_H-M   'P 1'
_cell_length_a   10.26472900
_cell_length_b   5.78267000
_cell_length_c   9.87701722
_cell_angle_alpha   87.05220399
_cell_angle_beta   90.00000000
_cell_angle_gamma   90.00000000
_symmetry_Int_Tables_number   1
_chemical_formula_structural   CuNiC8
_chemical_formula_sum   'Cu4 Ni4 C32'
_cell_volume   585.49969237
_cell_formula_units_Z   4
loop_
 _symmetry_equiv_pos_site_id
 _symmetry_equiv_pos_as_xyz
  1  'x, y, z'
loop_
 _atom_site_type_symbol
 _atom_site_label
 _atom_site_symmetry_multiplicity
 _atom_site_fract_x
 _atom_site_fract_y
 _atom_site_fract_z
 _atom_site_occupancy
  C  C0  1  0.32150300  0.73439000  0.49812700  1
  C  C1  1  0.82150300  0.26561000  0.00187300  1
  C  C2  1  0.67849700  0.26561000  0.50187300  1
  C  C3  1  0.17849700  0.73439000  0.99812700  1
  Ni  Ni4  1  0.39667400  0.30347000  0.80749500  1
  Ni  Ni5  1  0.89667400  0.69653000  0.69250500  1
  Ni  Ni6  1  0.10332600  0.30347000  0.30749500  1
  Ni  Ni7  1  0.60332600  0.69653000  0.19250500  1
  Cu  Cu8  1  0.61040100  0.80350000  0.81319900  1
  Cu  Cu9  1  0.38959900  0.19650000  0.18680100  1
  Cu  Cu10  1  0.88959900  0.80350000  0.31319900  1
  Cu  Cu11  1  0.11040100  0.19650000  0.68680100  1
  C  C12  1  0.44546600  0.86914400  0.11870300  1
  C  C13  1  0.06179900  0.62666200  0.37518600  1
  C  C14  1  0.71566500  0.50697100  0.74968300  1
  C  C15  1  0.28433500  0.49302900  0.25031700  1
  C  C16  1  0.46197200  0.10198500  0.37990400  1
  C  C17  1  0.80229000  0.73754600  0.50868100  1
  C  C18  1  0.78569900  0.98369400  0.74915800  1
  C  C19  1  0.96197200  0.89801500  0.12009600  1
  C  C20  1  0.43820100  0.62666200  0.87518600  1
  C  C21  1  0.21566500  0.49302900  0.75031700  1
  C  C22  1  0.05453400  0.86914400  0.61870300  1
  C  C23  1  0.55453400  0.13085600  0.88129700  1
  C  C24  1  0.28569900  0.01630600  0.75084200  1
  C  C25  1  0.95853400  0.60859800  0.87449000  1
  C  C26  1  0.53802800  0.89801500  0.62009600  1
  C  C27  1  0.03802800  0.10198500  0.87990400  1
  C  C28  1  0.21430100  0.01630600  0.25084200  1
  C  C29  1  0.94546600  0.13085600  0.38129700  1
  C  C30  1  0.45853400  0.39140200  0.62551000  1
  C  C31  1  0.93820100  0.37333800  0.62481400  1
  C  C32  1  0.04146600  0.39140200  0.12551000  1
  C  C33  1  0.71430100  0.98369400  0.24915900  1
  C  C34  1  0.54146600  0.60859800  0.37449000  1
  C  C35  1  0.30229000  0.26245400  0.99131900  1
  C  C36  1  0.19771000  0.26245400  0.49131900  1
  C  C37  1  0.69771000  0.73754600  0.00868100  1
  C  C38  1  0.56179900  0.37333800  0.12481400  1
  C  C39  1  0.78433500  0.50697100  0.24968300  1
