# generated using pymatgen
data_Cu2NiC4
_symmetry_space_group_name_H-M   'P 1'
_cell_length_a   6.10016500
_cell_length_b   6.84145000
_cell_length_c   11.31314700
_cell_angle_alpha   90.00000000
_cell_angle_beta   90.00000000
_cell_angle_gamma   90.00000000
_symmetry_Int_Tables_number   1
_chemical_formula_structural   Cu2NiC4
_chemical_formula_sum   'Cu8 Ni4 C16'
_cell_volume   472.14258094
_cell_formula_units_Z   4
loop_
 _symmetry_equiv_pos_site_id
 _symmetry_equiv_pos_as_xyz
  1  'x, y, z'
loop_
 _atom_site_type_symbol
 _atom_site_label
 _atom_site_symmetry_multiplicity
 _atom_site_fract_x
 _atom_site_fract_y
 _atom_site_fract_z
 _atom_site_occupancy
  Ni  Ni0  1  0.85996500  0.00000000  0.50000000  1
  Ni  Ni1  1  0.14003500  0.50000000  0.00000000  1
  Ni  Ni2  1  0.53451400  0.00000000  0.00000000  1
  Ni  Ni3  1  0.46548600  0.50000000  0.50000000  1
  Cu  Cu4  1  0.50607700  0.50000000  0.20902700  1
  Cu  Cu5  1  0.50607700  0.50000000  0.79097300  1
  Cu  Cu6  1  0.49392300  0.00000000  0.29097300  1
  Cu  Cu7  1  0.49392300  0.00000000  0.70902700  1
  Cu  Cu8  1  0.00000000  0.25000000  0.25000000  1
  Cu  Cu9  1  0.00000000  0.75000000  0.75000000  1
  Cu  Cu10  1  0.00000000  0.75000000  0.25000000  1
  Cu  Cu11  1  0.00000000  0.25000000  0.75000000  1
  C  C12  1  0.90206200  0.50000000  0.12467300  1
  C  C13  1  0.90206200  0.50000000  0.87532700  1
  C  C14  1  0.09793800  0.00000000  0.37532700  1
  C  C15  1  0.09793800  0.00000000  0.62467300  1
  C  C16  1  0.24939800  0.50000000  0.35383800  1
  C  C17  1  0.24939800  0.50000000  0.64616200  1
  C  C18  1  0.75060200  0.00000000  0.14616200  1
  C  C19  1  0.75060200  0.00000000  0.85383800  1
  C  C20  1  0.67760100  0.23729500  0.37887100  1
  C  C21  1  0.67760100  0.76270500  0.62112900  1
  C  C22  1  0.32239900  0.73729500  0.12112900  1
  C  C23  1  0.32239900  0.26270500  0.87887100  1
  C  C24  1  0.32239900  0.26270500  0.12112900  1
  C  C25  1  0.32239900  0.73729500  0.87887100  1
  C  C26  1  0.67760100  0.76270500  0.37887100  1
  C  C27  1  0.67760100  0.23729500  0.62112900  1
