# generated using pymatgen
data_CuNi5C3
_symmetry_space_group_name_H-M   'P 1'
_cell_length_a   9.57208477
_cell_length_b   9.57208477
_cell_length_c   8.79011200
_cell_angle_alpha   90.00000000
_cell_angle_beta   90.00000000
_cell_angle_gamma   135.99400983
_symmetry_Int_Tables_number   1
_chemical_formula_structural   CuNi5C3
_chemical_formula_sum   'Cu2 Ni10 C6'
_cell_volume   559.53307969
_cell_formula_units_Z   2
loop_
 _symmetry_equiv_pos_site_id
 _symmetry_equiv_pos_as_xyz
  1  'x, y, z'
loop_
 _atom_site_type_symbol
 _atom_site_label
 _atom_site_symmetry_multiplicity
 _atom_site_fract_x
 _atom_site_fract_y
 _atom_site_fract_z
 _atom_site_occupancy
  C  C0  1  0.53050200  0.46949800  0.75000000  1
  C  C1  1  0.46949800  0.53050200  0.25000000  1
  C  C2  1  0.23510900  0.76489100  0.75000000  1
  C  C3  1  0.76489100  0.23510900  0.25000000  1
  C  C4  1  0.88251400  0.11748600  0.75000000  1
  C  C5  1  0.11748600  0.88251400  0.25000000  1
  Ni  Ni6  1  0.75329200  0.24670800  0.75000000  1
  Ni  Ni7  1  0.24670800  0.75329200  0.25000000  1
  Ni  Ni8  1  0.64883300  0.87859300  0.55695600  1
  Ni  Ni9  1  0.87859300  0.64883300  0.44304400  1
  Ni  Ni10  1  0.64883300  0.87859300  0.94304400  1
  Ni  Ni11  1  0.87859300  0.64883300  0.05695600  1
  Ni  Ni12  1  0.35116700  0.12140700  0.44304400  1
  Ni  Ni13  1  0.12140700  0.35116700  0.55695600  1
  Ni  Ni14  1  0.35116700  0.12140700  0.05695600  1
  Ni  Ni15  1  0.12140700  0.35116700  0.94304400  1
  Cu  Cu16  1  0.98321500  0.01678500  0.75000000  1
  Cu  Cu17  1  0.01678500  0.98321500  0.25000000  1
