# generated using pymatgen
data_Cu8NiC51
_symmetry_space_group_name_H-M   'P 1'
_cell_length_a   9.00051900
_cell_length_b   9.45576387
_cell_length_c   11.69257952
_cell_angle_alpha   100.08332165
_cell_angle_beta   102.14399118
_cell_angle_gamma   91.90588361
_symmetry_Int_Tables_number   1
_chemical_formula_structural   Cu8NiC51
_chemical_formula_sum   'Cu8 Ni1 C51'
_cell_volume   955.27982318
_cell_formula_units_Z   1
loop_
 _symmetry_equiv_pos_site_id
 _symmetry_equiv_pos_as_xyz
  1  'x, y, z'
loop_
 _atom_site_type_symbol
 _atom_site_label
 _atom_site_symmetry_multiplicity
 _atom_site_fract_x
 _atom_site_fract_y
 _atom_site_fract_z
 _atom_site_occupancy
  C  C0  1  0.47790300  0.36455200  0.08576100  1
  C  C1  1  0.52209700  0.63544800  0.91423900  1
  C  C2  1  0.24720600  0.62998600  0.38139200  1
  C  C3  1  0.75279400  0.37001400  0.61860800  1
  Ni  Ni4  1  0.00000000  0.00000000  0.50000000  1
  Cu  Cu5  1  0.24137600  0.90340800  0.15001600  1
  Cu  Cu6  1  0.75862400  0.09659200  0.84998400  1
  Cu  Cu7  1  0.93918800  0.41868800  0.12434000  1
  Cu  Cu8  1  0.06081200  0.58131200  0.87566000  1
  Cu  Cu9  1  0.13348500  0.20431500  0.28777800  1
  Cu  Cu10  1  0.86651500  0.79568500  0.71222200  1
  Cu  Cu11  1  0.11913600  0.14697200  0.97648700  1
  Cu  Cu12  1  0.88086400  0.85302800  0.02351300  1
  C  C13  1  0.52966800  0.73210600  0.44244100  1
  C  C14  1  0.47033200  0.26789400  0.55755900  1
  C  C15  1  0.94376000  0.27132200  0.23066300  1
  C  C16  1  0.05624000  0.72867800  0.76933700  1
  C  C17  1  0.24342000  0.80598100  0.26160100  1
  C  C18  1  0.75658000  0.19401900  0.73839900  1
  C  C19  1  0.62394200  0.25481300  0.28625900  1
  C  C20  1  0.37605800  0.74518700  0.71374100  1
  C  C21  1  0.02576400  0.55309100  0.24350600  1
  C  C22  1  0.97423600  0.44690900  0.75649400  1
  C  C23  1  0.30189900  0.08666900  0.25010200  1
  C  C24  1  0.69810100  0.91333100  0.74989800  1
  C  C25  1  0.90050300  0.22069600  0.97854200  1
  C  C26  1  0.09949700  0.77930400  0.02145800  1
  C  C27  1  0.18243100  0.24214300  0.88205000  1
  C  C28  1  0.81756900  0.75785700  0.11795000  1
  C  C29  1  0.53217300  0.31522100  0.88253300  1
  C  C30  1  0.46782700  0.68477900  0.11746700  1
  C  C31  1  0.05912800  0.53641400  0.52656600  1
  C  C32  1  0.94087200  0.46358600  0.47343400  1
  C  C33  1  0.26996100  0.02939100  0.01269800  1
  C  C34  1  0.73003900  0.97060900  0.98730200  1
  C  C35  1  0.65490200  0.13044200  0.25291600  1
  C  C36  1  0.34509800  0.86955800  0.74708400  1
  C  C37  1  0.08126800  0.10015000  0.39118500  1
  C  C38  1  0.91873200  0.89985000  0.60881500  1
  C  C39  1  0.69749200  0.68004200  0.33727000  1
  C  C40  1  0.30250800  0.31995800  0.66273000  1
  C  C41  1  0.74422000  0.43810000  0.10525800  1
  C  C42  1  0.25578000  0.56190000  0.89474200  1
  C  C43  1  0.03752100  0.00305700  0.13054700  1
  C  C44  1  0.96247900  0.99694300  0.86945300  1
  C  C45  1  0.23693300  0.35629600  0.37707700  1
  C  C46  1  0.76306700  0.64370400  0.62292300  1
  C  C47  1  0.44269800  0.13885600  0.55653900  1
  C  C48  1  0.55730200  0.86114400  0.44346100  1
  C  C49  1  0.42635200  0.81686100  0.10284500  1
  C  C50  1  0.57364800  0.18313900  0.89715500  1
  C  C51  1  0.40169300  0.53847800  0.22671300  1
  C  C52  1  0.59830700  0.46152200  0.77328700  1
  C  C53  1  0.15937100  0.28236800  0.12340300  1
  C  C54  1  0.84062900  0.71763200  0.87659700  1
  C  C55  1  0.00000000  0.50000000  0.00000000  1
  C  C56  1  0.27608600  0.19104500  0.65883100  1
  C  C57  1  0.72391400  0.80895500  0.34116900  1
  C  C58  1  0.12129100  0.86678300  0.48391300  1
  C  C59  1  0.87870900  0.13321700  0.51608700  1
