# generated using pymatgen
data_Cu14NiC3
_symmetry_space_group_name_H-M   'P 1'
_cell_length_a   6.31155300
_cell_length_b   19.29429700
_cell_length_c   11.14979871
_cell_angle_alpha   90.00000000
_cell_angle_beta   114.34787072
_cell_angle_gamma   90.00000000
_symmetry_Int_Tables_number   1
_chemical_formula_structural   Cu14NiC3
_chemical_formula_sum   'Cu56 Ni4 C12'
_cell_volume   1237.02588757
_cell_formula_units_Z   4
loop_
 _symmetry_equiv_pos_site_id
 _symmetry_equiv_pos_as_xyz
  1  'x, y, z'
loop_
 _atom_site_type_symbol
 _atom_site_label
 _atom_site_symmetry_multiplicity
 _atom_site_fract_x
 _atom_site_fract_y
 _atom_site_fract_z
 _atom_site_occupancy
  C  C0  1  0.72210100  0.61074100  0.53466300  1
  C  C1  1  0.72210100  0.88925900  0.03466300  1
  C  C2  1  0.27789900  0.38925900  0.46533700  1
  C  C3  1  0.27789900  0.11074100  0.96533700  1
  C  C4  1  0.10285000  0.52700300  0.80730100  1
  C  C5  1  0.10285000  0.97299700  0.30730100  1
  C  C6  1  0.89715000  0.47299700  0.19269900  1
  C  C7  1  0.89715000  0.02700300  0.69269900  1
  C  C8  1  0.47650100  0.49086000  0.29743200  1
  C  C9  1  0.47650100  0.00914000  0.79743200  1
  C  C10  1  0.52349900  0.50914000  0.70256800  1
  C  C11  1  0.52349900  0.99086000  0.20256800  1
  Ni  Ni12  1  0.00452500  0.75696100  0.56002800  1
  Ni  Ni13  1  0.00452500  0.74303900  0.06002800  1
  Ni  Ni14  1  0.99547500  0.24303900  0.43997200  1
  Ni  Ni15  1  0.99547500  0.25696100  0.93997200  1
  Cu  Cu16  1  0.58347000  0.46378100  0.18384600  1
  Cu  Cu17  1  0.58347000  0.03621900  0.68384600  1
  Cu  Cu18  1  0.41653000  0.53621900  0.81615400  1
  Cu  Cu19  1  0.41653000  0.96378100  0.31615400  1
  Cu  Cu20  1  0.18669700  0.50889000  0.19545400  1
  Cu  Cu21  1  0.18669700  0.99111000  0.69545400  1
  Cu  Cu22  1  0.81330300  0.49111000  0.80454600  1
  Cu  Cu23  1  0.81330300  0.00889000  0.30454600  1
  Cu  Cu24  1  0.61666400  0.56635500  0.36701500  1
  Cu  Cu25  1  0.61666400  0.93364500  0.86701500  1
  Cu  Cu26  1  0.38333600  0.43364500  0.63298500  1
  Cu  Cu27  1  0.38333600  0.06635500  0.13298500  1
  Cu  Cu28  1  0.51220500  0.42849700  0.41395800  1
  Cu  Cu29  1  0.51220500  0.07150300  0.91395800  1
  Cu  Cu30  1  0.48779500  0.57150300  0.58604200  1
  Cu  Cu31  1  0.48779500  0.92849700  0.08604200  1
  Cu  Cu32  1  0.25690100  0.44652000  0.90073500  1
  Cu  Cu33  1  0.25690100  0.05348000  0.40073500  1
  Cu  Cu34  1  0.74309900  0.55348000  0.09926500  1
  Cu  Cu35  1  0.74309900  0.94652000  0.59926500  1
  Cu  Cu36  1  0.17483800  0.57936400  0.94820900  1
  Cu  Cu37  1  0.17483800  0.92063600  0.44820900  1
  Cu  Cu38  1  0.82516200  0.42063600  0.05179100  1
  Cu  Cu39  1  0.82516200  0.07936400  0.55179100  1
  Cu  Cu40  1  0.04015300  0.44830400  0.69320900  1
  Cu  Cu41  1  0.04015300  0.05169600  0.19320900  1
  Cu  Cu42  1  0.95984700  0.55169600  0.30679100  1
  Cu  Cu43  1  0.95984700  0.94830400  0.80679100  1
  Cu  Cu44  1  0.97682000  0.59146800  0.68186000  1
  Cu  Cu45  1  0.97682000  0.90853200  0.18186000  1
  Cu  Cu46  1  0.02318000  0.40853200  0.31814000  1
  Cu  Cu47  1  0.02318000  0.09146800  0.81814000  1
  Cu  Cu48  1  0.46298300  0.71801600  0.56281200  1
  Cu  Cu49  1  0.46298300  0.78198400  0.06281200  1
  Cu  Cu50  1  0.53701700  0.28198400  0.43718800  1
  Cu  Cu51  1  0.53701700  0.21801600  0.93718800  1
  Cu  Cu52  1  0.36124300  0.74142900  0.45299000  1
  Cu  Cu53  1  0.36124300  0.75857100  0.95299000  1
  Cu  Cu54  1  0.63875700  0.25857100  0.54701000  1
  Cu  Cu55  1  0.63875700  0.24142900  0.04701000  1
  Cu  Cu56  1  0.83689600  0.69579200  0.49668300  1
  Cu  Cu57  1  0.83689600  0.80420800  0.99668300  1
  Cu  Cu58  1  0.16310400  0.30420800  0.50331700  1
  Cu  Cu59  1  0.16310400  0.19579200  0.00331700  1
  Cu  Cu60  1  0.04552100  0.71284400  0.94788600  1
  Cu  Cu61  1  0.04552100  0.78715600  0.44788600  1
  Cu  Cu62  1  0.95447900  0.28715600  0.05211400  1
  Cu  Cu63  1  0.95447900  0.21284400  0.55211400  1
  Cu  Cu64  1  0.89553700  0.80569200  0.61522900  1
  Cu  Cu65  1  0.89553700  0.69430800  0.11522900  1
  Cu  Cu66  1  0.10446300  0.19430800  0.38477100  1
  Cu  Cu67  1  0.10446300  0.30569200  0.88477100  1
  Cu  Cu68  1  0.77304200  0.27012300  0.33996800  1
  Cu  Cu69  1  0.77304200  0.22987700  0.83996800  1
  Cu  Cu70  1  0.22695800  0.72987700  0.66003200  1
  Cu  Cu71  1  0.22695800  0.77012300  0.16003200  1
