# generated using pymatgen
data_Cu(NiC7)2
_symmetry_space_group_name_H-M   'P 1'
_cell_length_a   7.62559166
_cell_length_b   7.62559166
_cell_length_c   4.48038900
_cell_angle_alpha   90.00000000
_cell_angle_beta   90.00000000
_cell_angle_gamma   119.99999706
_symmetry_Int_Tables_number   1
_chemical_formula_structural   Cu(NiC7)2
_chemical_formula_sum   'Cu1 Ni2 C14'
_cell_volume   225.62824139
_cell_formula_units_Z   1
loop_
 _symmetry_equiv_pos_site_id
 _symmetry_equiv_pos_as_xyz
  1  'x, y, z'
loop_
 _atom_site_type_symbol
 _atom_site_label
 _atom_site_symmetry_multiplicity
 _atom_site_fract_x
 _atom_site_fract_y
 _atom_site_fract_z
 _atom_site_occupancy
  Ni  Ni0  1  0.66666700  0.33333300  0.49949300  1
  Ni  Ni1  1  0.33333300  0.66666700  0.99251200  1
  Cu  Cu2  1  0.00000000  0.00000000  0.25397100  1
  C  C3  1  0.66666700  0.33333300  0.86149000  1
  C  C4  1  0.55067200  0.10134400  0.39131000  1
  C  C5  1  0.55067200  0.44932800  0.39131000  1
  C  C6  1  0.89865600  0.44932800  0.39131000  1
  C  C7  1  0.33333300  0.66666700  0.35371700  1
  C  C8  1  0.45154300  0.90308600  0.88388300  1
  C  C9  1  0.45154300  0.54845700  0.88388300  1
  C  C10  1  0.09691400  0.54845700  0.88388300  1
  C  C11  1  0.89717900  0.79435900  0.96586400  1
  C  C12  1  0.89717900  0.10282100  0.96586400  1
  C  C13  1  0.20564100  0.10282100  0.96586400  1
  C  C14  1  0.09979700  0.19959400  0.55443900  1
  C  C15  1  0.09979700  0.90020300  0.55443900  1
  C  C16  1  0.80040600  0.90020300  0.55443900  1
