# generated using pymatgen
data_Cu3NiC8
_symmetry_space_group_name_H-M   'P 1'
_cell_length_a   3.28662634
_cell_length_b   3.28662634
_cell_length_c   37.39701000
_cell_angle_alpha   90.00000000
_cell_angle_beta   90.00000000
_cell_angle_gamma   120.00000682
_symmetry_Int_Tables_number   1
_chemical_formula_structural   Cu3NiC8
_chemical_formula_sum   'Cu3 Ni1 C8'
_cell_volume   349.83893723
_cell_formula_units_Z   1
loop_
 _symmetry_equiv_pos_site_id
 _symmetry_equiv_pos_as_xyz
  1  'x, y, z'
loop_
 _atom_site_type_symbol
 _atom_site_label
 _atom_site_symmetry_multiplicity
 _atom_site_fract_x
 _atom_site_fract_y
 _atom_site_fract_z
 _atom_site_occupancy
  Ni  Ni0  1  0.00000000  0.00000000  0.09391100  1
  Cu  Cu1  1  0.00000000  0.00000000  0.46967000  1
  Cu  Cu2  1  0.33333300  0.66666700  0.28180100  1
  Cu  Cu3  1  0.33333300  0.66666700  0.65753700  1
  C  C4  1  0.00000000  0.00000000  0.32714600  1
  C  C5  1  0.33333300  0.66666700  0.04882800  1
  C  C6  1  0.33333300  0.66666700  0.42431300  1
  C  C7  1  0.33333300  0.66666700  0.13900200  1
  C  C8  1  0.33333300  0.66666700  0.51502000  1
  C  C9  1  0.00000000  0.00000000  0.23644900  1
  C  C10  1  0.00000000  0.00000000  0.69874400  1
  C  C11  1  0.00000000  0.00000000  0.61632800  1
