# generated using pymatgen
data_Cu4Ni4C7
_symmetry_space_group_name_H-M   'P 1'
_cell_length_a   3.90378589
_cell_length_b   11.21893843
_cell_length_c   13.86218400
_cell_angle_alpha   90.00000000
_cell_angle_beta   90.00000000
_cell_angle_gamma   103.16018014
_symmetry_Int_Tables_number   1
_chemical_formula_structural   Cu4Ni4C7
_chemical_formula_sum   'Cu16 Ni16 C28'
_cell_volume   591.16845322
_cell_formula_units_Z   4
loop_
 _symmetry_equiv_pos_site_id
 _symmetry_equiv_pos_as_xyz
  1  'x, y, z'
loop_
 _atom_site_type_symbol
 _atom_site_label
 _atom_site_symmetry_multiplicity
 _atom_site_fract_x
 _atom_site_fract_y
 _atom_site_fract_z
 _atom_site_occupancy
  C  C0  1  0.99412600  0.59618100  0.27398000  1
  C  C1  1  0.49412600  0.09618100  0.22602000  1
  C  C2  1  0.00587400  0.40381900  0.72602000  1
  C  C3  1  0.50587400  0.90381900  0.77398000  1
  C  C4  1  0.01433900  0.56548800  0.39272900  1
  C  C5  1  0.51433900  0.06548800  0.10727100  1
  C  C6  1  0.98566100  0.43451200  0.60727100  1
  C  C7  1  0.48566100  0.93451200  0.89272900  1
  C  C8  1  0.65930200  0.49174500  0.32419400  1
  C  C9  1  0.15930200  0.99174500  0.17580600  1
  C  C10  1  0.34069800  0.50825500  0.67580600  1
  C  C11  1  0.84069800  0.00825500  0.82419400  1
  C  C12  1  0.07763300  0.41161700  0.23311300  1
  C  C13  1  0.57763300  0.91161700  0.26688700  1
  C  C14  1  0.92236700  0.58838300  0.76688700  1
  C  C15  1  0.42236700  0.08838300  0.73311300  1
  C  C16  1  0.01056600  0.35990800  0.34338700  1
  C  C17  1  0.51056600  0.85990800  0.15661300  1
  C  C18  1  0.98943400  0.64009200  0.65661300  1
  C  C19  1  0.48943400  0.14009200  0.84338700  1
  C  C20  1  0.18819300  0.09689600  0.53754100  1
  C  C21  1  0.68819300  0.59689600  0.96245900  1
  C  C22  1  0.81180700  0.90310400  0.46245900  1
  C  C23  1  0.31180700  0.40310400  0.03754100  1
  C  C24  1  0.36768600  0.16167400  0.49254300  1
  C  C25  1  0.86768600  0.66167400  0.00745700  1
  C  C26  1  0.63231400  0.83832600  0.50745700  1
  C  C27  1  0.13231400  0.33832600  0.99254300  1
  Ni  Ni28  1  0.93241100  0.52689400  0.32579600  1
  Ni  Ni29  1  0.43241100  0.02689400  0.17420400  1
  Ni  Ni30  1  0.06758900  0.47310600  0.67420400  1
  Ni  Ni31  1  0.56758900  0.97310600  0.82579600  1
  Ni  Ni32  1  0.13105100  0.43561100  0.30403800  1
  Ni  Ni33  1  0.63105100  0.93561100  0.19596200  1
  Ni  Ni34  1  0.86894900  0.56438900  0.69596200  1
  Ni  Ni35  1  0.36894900  0.06439000  0.80403800  1
  Ni  Ni36  1  0.40007300  0.12892900  0.39842400  1
  Ni  Ni37  1  0.90007300  0.62892900  0.10157600  1
  Ni  Ni38  1  0.59992700  0.87107100  0.60157600  1
  Ni  Ni39  1  0.09992700  0.37107100  0.89842400  1
  Ni  Ni40  1  0.54690300  0.26658400  0.53674600  1
  Ni  Ni41  1  0.04690300  0.76658400  0.96325400  1
  Ni  Ni42  1  0.45309700  0.73341600  0.46325400  1
  Ni  Ni43  1  0.95309700  0.23341600  0.03674600  1
  Cu  Cu44  1  0.22330900  0.02275300  0.37482200  1
  Cu  Cu45  1  0.72330900  0.52275300  0.12517800  1
  Cu  Cu46  1  0.77669100  0.97724700  0.62517800  1
  Cu  Cu47  1  0.27669100  0.47724700  0.87482200  1
  Cu  Cu48  1  0.58945700  0.19699400  0.33623500  1
  Cu  Cu49  1  0.08945700  0.69699400  0.16376500  1
  Cu  Cu50  1  0.41054300  0.80300600  0.66376500  1
  Cu  Cu51  1  0.91054300  0.30300600  0.83623500  1
  Cu  Cu52  1  0.77481700  0.34990800  0.49484400  1
  Cu  Cu53  1  0.27481700  0.84990800  0.00515600  1
  Cu  Cu54  1  0.22518300  0.65009200  0.50515600  1
  Cu  Cu55  1  0.72518300  0.15009200  0.99484400  1
  Cu  Cu56  1  0.47553500  0.27636800  0.62554500  1
  Cu  Cu57  1  0.97553500  0.77636800  0.87445500  1
  Cu  Cu58  1  0.52446500  0.72363200  0.37445500  1
  Cu  Cu59  1  0.02446500  0.22363200  0.12554500  1
