# generated using pymatgen
data_Cu5Ni2C5
_symmetry_space_group_name_H-M   'P 1'
_cell_length_a   11.83239944
_cell_length_b   11.59015377
_cell_length_c   11.71520546
_cell_angle_alpha   160.83651840
_cell_angle_beta   161.09619293
_cell_angle_gamma   27.01802128
_symmetry_Int_Tables_number   1
_chemical_formula_structural   Cu5Ni2C5
_chemical_formula_sum   'Cu5 Ni2 C5'
_cell_volume   170.80743864
_cell_formula_units_Z   1
loop_
 _symmetry_equiv_pos_site_id
 _symmetry_equiv_pos_as_xyz
  1  'x, y, z'
loop_
 _atom_site_type_symbol
 _atom_site_label
 _atom_site_symmetry_multiplicity
 _atom_site_fract_x
 _atom_site_fract_y
 _atom_site_fract_z
 _atom_site_occupancy
  C  C0  1  0.25508300  0.39296100  0.99991200  1
  C  C1  1  0.61977300  0.68767700  0.00012600  1
  C  C2  1  0.80890900  0.00495500  0.00042000  1
  C  C3  1  0.05385200  0.09706700  0.99963800  1
  C  C4  1  0.31779200  0.59882100  0.00312000  1
  Ni  Ni5  1  0.15167300  0.23328900  0.00029700  1
  Ni  Ni6  1  0.71884600  0.84496600  0.99999700  1
  Cu  Cu7  1  0.00059200  0.98613200  0.99757500  1
  Cu  Cu8  1  0.56908900  0.11150400  0.49804200  1
  Cu  Cu9  1  0.78830900  0.48953700  0.48724700  1
  Cu  Cu10  1  0.07071500  0.61288000  0.50155000  1
  Cu  Cu11  1  0.30092200  0.00132200  0.51207600  1
