# generated using pymatgen
data_Cu10Ni2C7
_symmetry_space_group_name_H-M   'P 1'
_cell_length_a   5.38140983
_cell_length_b   5.46638635
_cell_length_c   9.26739841
_cell_angle_alpha   97.44297892
_cell_angle_beta   89.04408876
_cell_angle_gamma   103.80553778
_symmetry_Int_Tables_number   1
_chemical_formula_structural   Cu10Ni2C7
_chemical_formula_sum   'Cu10 Ni2 C7'
_cell_volume   262.48290798
_cell_formula_units_Z   1
loop_
 _symmetry_equiv_pos_site_id
 _symmetry_equiv_pos_as_xyz
  1  'x, y, z'
loop_
 _atom_site_type_symbol
 _atom_site_label
 _atom_site_symmetry_multiplicity
 _atom_site_fract_x
 _atom_site_fract_y
 _atom_site_fract_z
 _atom_site_occupancy
  C  C0  1  0.72913500  0.40059300  0.74285000  1
  C  C1  1  0.91751500  0.91744000  0.01057800  1
  C  C2  1  0.05188000  0.10281300  0.33128700  1
  C  C3  1  0.03936500  0.97875900  0.66158000  1
  C  C4  1  0.58356900  0.41665700  0.15545100  1
  C  C5  1  0.29305300  0.55682500  0.94254700  1
  C  C6  1  0.47553300  0.66969500  0.43594100  1
  Ni  Ni7  1  0.35477100  0.36019300  0.31778500  1
  Ni  Ni8  1  0.65757700  0.59513300  0.97821100  1
  Cu  Cu9  1  0.17385300  0.76796700  0.10601900  1
  Cu  Cu10  1  0.11031700  0.71161200  0.79654600  1
  Cu  Cu11  1  0.24284800  0.89725900  0.48375600  1
  Cu  Cu12  1  0.24264500  0.21692700  0.01274000  1
  Cu  Cu13  1  0.30957200  0.29467500  0.73133400  1
  Cu  Cu14  1  0.70372900  0.70452000  0.60843000  1
  Cu  Cu15  1  0.78067800  0.76556000  0.30782800  1
  Cu  Cu16  1  0.81149200  0.17250200  0.17152500  1
  Cu  Cu17  1  0.82449200  0.07793200  0.83491000  1
  Cu  Cu18  1  0.89241900  0.19849200  0.53496900  1
