# generated using pymatgen
data_CuNiC12
_symmetry_space_group_name_H-M   'P 1'
_cell_length_a   3.89498500
_cell_length_b   4.02463695
_cell_length_c   13.05510099
_cell_angle_alpha   86.16013427
_cell_angle_beta   90.00000000
_cell_angle_gamma   90.00000000
_symmetry_Int_Tables_number   1
_chemical_formula_structural   CuNiC12
_chemical_formula_sum   'Cu1 Ni1 C12'
_cell_volume   204.19104800
_cell_formula_units_Z   1
loop_
 _symmetry_equiv_pos_site_id
 _symmetry_equiv_pos_as_xyz
  1  'x, y, z'
loop_
 _atom_site_type_symbol
 _atom_site_label
 _atom_site_symmetry_multiplicity
 _atom_site_fract_x
 _atom_site_fract_y
 _atom_site_fract_z
 _atom_site_occupancy
  C  C0  1  0.50000000  0.42850600  0.75899500  1
  Ni  Ni1  1  0.50000000  0.57014000  0.21962900  1
  Cu  Cu2  1  0.50000000  0.86067500  0.92827600  1
  C  C3  1  0.50000000  0.49739100  0.48514100  1
  C  C4  1  0.00000000  0.19215500  0.02440900  1
  C  C5  1  0.00000000  0.97118400  0.60774500  1
  C  C6  1  0.00000000  0.02359700  0.35952000  1
  C  C7  1  0.50000000  0.97055300  0.61364300  1
  C  C8  1  0.00000000  0.47065000  0.60944200  1
  C  C9  1  0.50000000  0.02077800  0.37628100  1
  C  C10  1  0.00000000  0.52056300  0.36910300  1
  C  C11  1  0.00000000  0.97642400  0.86392900  1
  C  C12  1  0.00000000  0.01330200  0.18532800  1
  C  C13  1  0.50000000  0.48175100  0.01522600  1
