# generated using pymatgen
data_Cu2(NiC2)5
_symmetry_space_group_name_H-M   'P 1'
_cell_length_a   11.31550700
_cell_length_b   8.97000800
_cell_length_c   13.81827789
_cell_angle_alpha   51.37363538
_cell_angle_beta   90.00000000
_cell_angle_gamma   90.00000000
_symmetry_Int_Tables_number   1
_chemical_formula_structural   Cu2(NiC2)5
_chemical_formula_sum   'Cu8 Ni20 C40'
_cell_volume   1095.72488141
_cell_formula_units_Z   4
loop_
 _symmetry_equiv_pos_site_id
 _symmetry_equiv_pos_as_xyz
  1  'x, y, z'
loop_
 _atom_site_type_symbol
 _atom_site_label
 _atom_site_symmetry_multiplicity
 _atom_site_fract_x
 _atom_site_fract_y
 _atom_site_fract_z
 _atom_site_occupancy
  C  C0  1  0.30247600  0.81700300  0.31445300  1
  C  C1  1  0.69752400  0.18299700  0.68554700  1
  C  C2  1  0.80247600  0.18299700  0.18554700  1
  C  C3  1  0.19752400  0.81700300  0.81445300  1
  Ni  Ni4  1  0.62511600  0.68842300  0.09869300  1
  Ni  Ni5  1  0.37488400  0.31157700  0.90130700  1
  Ni  Ni6  1  0.12511600  0.31157700  0.40130700  1
  Ni  Ni7  1  0.87488400  0.68842300  0.59869300  1
  Ni  Ni8  1  0.64954800  0.58941600  0.13728000  1
  Ni  Ni9  1  0.35045200  0.41058400  0.86272000  1
  Ni  Ni10  1  0.14954800  0.41058400  0.36272000  1
  Ni  Ni11  1  0.85045200  0.58941600  0.63728000  1
  Ni  Ni12  1  0.01906600  0.91425900  0.45617200  1
  Ni  Ni13  1  0.98093400  0.08574100  0.54382800  1
  Ni  Ni14  1  0.51906600  0.08574100  0.04382800  1
  Ni  Ni15  1  0.48093400  0.91425900  0.95617200  1
  Ni  Ni16  1  0.91261400  0.54917000  0.23339200  1
  Ni  Ni17  1  0.08738600  0.45083000  0.76660800  1
  Ni  Ni18  1  0.41261400  0.45083000  0.26660800  1
  Ni  Ni19  1  0.58738600  0.54917000  0.73339200  1
  Ni  Ni20  1  0.44908400  0.82503100  0.00711100  1
  Ni  Ni21  1  0.55091600  0.17496900  0.99288900  1
  Ni  Ni22  1  0.94908400  0.17496900  0.49288900  1
  Ni  Ni23  1  0.05091600  0.82503100  0.50711100  1
  Cu  Cu24  1  0.62901900  0.70149600  0.40116000  1
  Cu  Cu25  1  0.37098100  0.29850400  0.59884000  1
  Cu  Cu26  1  0.12901900  0.29850400  0.09884000  1
  Cu  Cu27  1  0.87098100  0.70149600  0.90116000  1
  Cu  Cu28  1  0.98701900  0.81459700  0.20541800  1
  Cu  Cu29  1  0.01298100  0.18540300  0.79458200  1
  Cu  Cu30  1  0.48701900  0.18540300  0.29458200  1
  Cu  Cu31  1  0.51298100  0.81459700  0.70541800  1
  C  C32  1  0.36528300  0.79506300  0.20424000  1
  C  C33  1  0.63471700  0.20493700  0.79576000  1
  C  C34  1  0.86528300  0.20493700  0.29576000  1
  C  C35  1  0.13471700  0.79506300  0.70424000  1
  C  C36  1  0.91069200  0.89456000  0.27097700  1
  C  C37  1  0.08930800  0.10544000  0.72902300  1
  C  C38  1  0.41069200  0.10544000  0.22902300  1
  C  C39  1  0.58930800  0.89456000  0.77097700  1
  C  C40  1  0.82035000  0.51844100  0.04332200  1
  C  C41  1  0.17965000  0.48155900  0.95667800  1
  C  C42  1  0.32035000  0.48155900  0.45667800  1
  C  C43  1  0.67965000  0.51844100  0.54332200  1
  C  C44  1  0.90604500  0.59734900  0.28071500  1
  C  C45  1  0.09395500  0.40265100  0.71928500  1
  C  C46  1  0.40604500  0.40265100  0.21928500  1
  C  C47  1  0.59395500  0.59734900  0.78071500  1
  C  C48  1  0.99080000  0.25497200  0.07294300  1
  C  C49  1  0.00920000  0.74502800  0.92705700  1
  C  C50  1  0.49080000  0.74502800  0.42705700  1
  C  C51  1  0.50920000  0.25497200  0.57294300  1
  C  C52  1  0.75122600  0.16625300  0.06987000  1
  C  C53  1  0.24877400  0.83374700  0.93013000  1
  C  C54  1  0.25122600  0.83374700  0.43013000  1
  C  C55  1  0.74877400  0.16625300  0.56987000  1
  C  C56  1  0.61490300  0.26299600  0.20983300  1
  C  C57  1  0.38509700  0.73700400  0.79016700  1
  C  C58  1  0.11490300  0.73700400  0.29016700  1
  C  C59  1  0.88509700  0.26299600  0.70983300  1
  C  C60  1  0.63416500  0.66671100  0.29905500  1
  C  C61  1  0.36583500  0.33328900  0.70094500  1
  C  C62  1  0.13416500  0.33328900  0.20094500  1
  C  C63  1  0.86583500  0.66671100  0.79905500  1
  C  C64  1  0.70436700  0.89650800  0.36134400  1
  C  C65  1  0.29563300  0.10349200  0.63865600  1
  C  C66  1  0.20436700  0.10349200  0.13865600  1
  C  C67  1  0.79563300  0.89650800  0.86134400  1
