# generated using pymatgen
data_Cu4NiC36
_symmetry_space_group_name_H-M   'P 1'
_cell_length_a   7.64795834
_cell_length_b   7.62986902
_cell_length_c   10.94539319
_cell_angle_alpha   101.40410507
_cell_angle_beta   110.55447958
_cell_angle_gamma   90.35378766
_symmetry_Int_Tables_number   1
_chemical_formula_structural   Cu4NiC36
_chemical_formula_sum   'Cu4 Ni1 C36'
_cell_volume   584.23676143
_cell_formula_units_Z   1
loop_
 _symmetry_equiv_pos_site_id
 _symmetry_equiv_pos_as_xyz
  1  'x, y, z'
loop_
 _atom_site_type_symbol
 _atom_site_label
 _atom_site_symmetry_multiplicity
 _atom_site_fract_x
 _atom_site_fract_y
 _atom_site_fract_z
 _atom_site_occupancy
  C  C0  1  0.75213549  0.06481760  0.80748834  1
  C  C1  1  0.24866979  0.93695700  0.18884728  1
  Ni  Ni2  1  0.00056448  0.49967162  0.49842462  1
  Cu  Cu3  1  0.63255297  0.32343294  0.31722917  1
  Cu  Cu4  1  0.36820130  0.68044553  0.67849766  1
  Cu  Cu5  1  0.49833295  0.50249261  0.99911776  1
  Cu  Cu6  1  0.00244958  0.00099724  0.49891709  1
  C  C7  1  0.65329778  0.74631312  0.50527694  1
  C  C8  1  0.34785741  0.25637756  0.48956967  1
  C  C9  1  0.29153359  0.09074933  0.81589669  1
  C  C10  1  0.71203706  0.91226327  0.18303888  1
  C  C11  1  0.05833904  0.57432374  0.83217926  1
  C  C12  1  0.93924287  0.42806418  0.16460698  1
  C  C13  1  0.73274561  0.57279320  0.45763653  1
  C  C14  1  0.26739263  0.42865507  0.53773570  1
  C  C15  1  0.78573366  0.91371513  0.53906796  1
  C  C16  1  0.21906745  0.08681983  0.45867562  1
  C  C17  1  0.60243549  0.07181220  0.20490331  1
  C  C18  1  0.40393836  0.93236971  0.79754839  1
  C  C19  1  0.41913220  0.26130526  0.88585215  1
  C  C20  1  0.58124732  0.74408325  0.11196598  1
  C  C21  1  0.87991255  0.88946352  0.30375141  1
  C  C22  1  0.12459516  0.11044062  0.69355273  1
  C  C23  1  0.91122045  0.41115616  0.29020260  1
  C  C24  1  0.08739110  0.58706568  0.70626461  1
  C  C25  1  0.77618210  0.43892256  0.04231533  1
  C  C26  1  0.22055656  0.56707437  0.95601511  1
  C  C27  1  0.41718326  0.26114258  0.37720056  1
  C  C28  1  0.57853536  0.74230374  0.61515785  1
  C  C29  1  0.88746904  0.24249500  0.47730298  1
  C  C30  1  0.11656765  0.75762645  0.52157024  1
  C  C31  1  0.48570322  0.42404799  0.15428559  1
  C  C32  1  0.50678652  0.58184266  0.84285959  1
  C  C33  1  0.80839696  0.94912840  0.07953673  1
  C  C34  1  0.19270608  0.05617373  0.91870281  1
  C  C35  1  0.90678303  0.41675351  0.80168739  1
  C  C36  1  0.09149340  0.58576133  0.19748442  1
  C  C37  1  0.52678924  0.23969279  0.61651561  1
  C  C38  1  0.47773562  0.76549950  0.37721597  1
  C  C39  1  0.04977612  0.26786745  0.12276834  1
  C  C40  1  0.94623855  0.73541558  0.87063414  1
