# generated using pymatgen
data_Cu11NiC8
_symmetry_space_group_name_H-M   'P 1'
_cell_length_a   5.12700700
_cell_length_b   5.45240942
_cell_length_c   8.69552588
_cell_angle_alpha   106.83925886
_cell_angle_beta   90.28045342
_cell_angle_gamma   117.97610253
_symmetry_Int_Tables_number   1
_chemical_formula_structural   Cu11NiC8
_chemical_formula_sum   'Cu11 Ni1 C8'
_cell_volume   202.59892816
_cell_formula_units_Z   1
loop_
 _symmetry_equiv_pos_site_id
 _symmetry_equiv_pos_as_xyz
  1  'x, y, z'
loop_
 _atom_site_type_symbol
 _atom_site_label
 _atom_site_symmetry_multiplicity
 _atom_site_fract_x
 _atom_site_fract_y
 _atom_site_fract_z
 _atom_site_occupancy
  C  C0  1  0.10961300  0.34977400  0.08155100  1
  C  C1  1  0.17894700  0.87326100  0.56826500  1
  C  C2  1  0.34271500  0.89335000  0.16676800  1
  C  C3  1  0.37012700  0.37853300  0.68262800  1
  C  C4  1  0.85069200  0.15191000  0.43774800  1
  C  C5  1  0.63241000  0.09647600  0.81330300  1
  C  C6  1  0.66076100  0.64309000  0.32184500  1
  C  C7  1  0.84017000  0.60546600  0.92588800  1
  Ni  Ni8  1  0.61335200  0.62661800  0.13410900  1
  Cu  Cu9  1  0.04125600  0.02229100  0.22736300  1
  Cu  Cu10  1  0.04938500  0.51959200  0.72690300  1
  Cu  Cu11  1  0.44721200  0.85663800  0.35839700  1
  Cu  Cu12  1  0.28257000  0.30998300  0.45548700  1
  Cu  Cu13  1  0.23356200  0.76619200  0.96992200  1
  Cu  Cu14  1  0.75060400  0.72533400  0.51602500  1
  Cu  Cu15  1  0.74277500  0.22640800  0.02281500  1
  Cu  Cu16  1  0.44174800  0.38765100  0.89096600  1
  Cu  Cu17  1  0.54200800  0.12483700  0.62491700  1
  Cu  Cu18  1  0.93089300  0.48077000  0.27910500  1
  Cu  Cu19  1  0.91997400  0.93455100  0.79547700  1
