# generated using pymatgen
data_Cu3NiC
_symmetry_space_group_name_H-M   'P 1'
_cell_length_a   4.01074604
_cell_length_b   5.63477100
_cell_length_c   15.24904291
_cell_angle_alpha   90.00000000
_cell_angle_beta   95.63855787
_cell_angle_gamma   90.00000000
_symmetry_Int_Tables_number   1
_chemical_formula_structural   Cu3NiC
_chemical_formula_sum   'Cu12 Ni4 C4'
_cell_volume   342.95535567
_cell_formula_units_Z   4
loop_
 _symmetry_equiv_pos_site_id
 _symmetry_equiv_pos_as_xyz
  1  'x, y, z'
loop_
 _atom_site_type_symbol
 _atom_site_label
 _atom_site_symmetry_multiplicity
 _atom_site_fract_x
 _atom_site_fract_y
 _atom_site_fract_z
 _atom_site_occupancy
  C  C0  1  0.64352900  0.96709400  0.34565300  1
  C  C1  1  0.85647100  0.46709400  0.15434700  1
  C  C2  1  0.35647100  0.03290600  0.65434700  1
  C  C3  1  0.14352900  0.53290600  0.84565300  1
  Ni  Ni4  1  0.24616500  0.46494300  0.37110600  1
  Ni  Ni5  1  0.25383500  0.96494300  0.12889400  1
  Ni  Ni6  1  0.75383500  0.53505700  0.62889400  1
  Ni  Ni7  1  0.74616500  0.03505700  0.87110600  1
  Cu  Cu8  1  0.16355300  0.27097500  0.40468900  1
  Cu  Cu9  1  0.33644700  0.77097500  0.09531100  1
  Cu  Cu10  1  0.83644700  0.72902500  0.59531100  1
  Cu  Cu11  1  0.66355300  0.22902500  0.90468900  1
  Cu  Cu12  1  0.15606100  0.66105500  0.40101400  1
  Cu  Cu13  1  0.34393900  0.16105500  0.09898600  1
  Cu  Cu14  1  0.84393900  0.33894500  0.59898600  1
  Cu  Cu15  1  0.65606100  0.83894500  0.90101400  1
  Cu  Cu16  1  0.07616000  0.96159800  0.19442600  1
  Cu  Cu17  1  0.42384000  0.46159800  0.30557400  1
  Cu  Cu18  1  0.92384000  0.03840200  0.80557400  1
  Cu  Cu19  1  0.57616000  0.53840200  0.69442600  1
