# generated using pymatgen
data_Cu3(NiC10)2
_symmetry_space_group_name_H-M   'P 1'
_cell_length_a   11.69780915
_cell_length_b   11.69780915
_cell_length_c   11.69780986
_cell_angle_alpha   27.25286848
_cell_angle_beta   27.25286848
_cell_angle_gamma   27.25286951
_symmetry_Int_Tables_number   1
_chemical_formula_structural   Cu3(NiC10)2
_chemical_formula_sum   'Cu3 Ni2 C20'
_cell_volume   296.15867058
_cell_formula_units_Z   1
loop_
 _symmetry_equiv_pos_site_id
 _symmetry_equiv_pos_as_xyz
  1  'x, y, z'
loop_
 _atom_site_type_symbol
 _atom_site_label
 _atom_site_symmetry_multiplicity
 _atom_site_fract_x
 _atom_site_fract_y
 _atom_site_fract_z
 _atom_site_occupancy
  Ni  Ni0  1  0.70210500  0.70210500  0.70210500  1
  Ni  Ni1  1  0.49830000  0.49830000  0.49830000  1
  Cu  Cu2  1  0.10160600  0.10160600  0.10160600  1
  Cu  Cu3  1  0.89698200  0.89698200  0.89698200  1
  Cu  Cu4  1  0.30077400  0.30077400  0.30077400  1
  C  C5  1  0.19789400  0.19789400  0.19789400  1
  C  C6  1  0.59973200  0.59973200  0.59973200  1
  C  C7  1  0.00086700  0.00086700  0.00086700  1
  C  C8  1  0.40195300  0.40195300  0.40195300  1
  C  C9  1  0.79986500  0.79986500  0.79986500  1
  C  C10  1  0.80162600  0.80162600  0.29321400  1
  C  C11  1  0.99654200  0.99654200  0.50608900  1
  C  C12  1  0.39853400  0.39853400  0.90743900  1
  C  C13  1  0.19987300  0.19987300  0.69838900  1
  C  C14  1  0.60330500  0.60330500  0.09503300  1
  C  C15  1  0.29321400  0.80162600  0.80162600  1
  C  C16  1  0.50608900  0.99654200  0.99654200  1
  C  C17  1  0.90743900  0.39853400  0.39853400  1
  C  C18  1  0.69838900  0.19987300  0.19987300  1
  C  C19  1  0.09503300  0.60330500  0.60330500  1
  C  C20  1  0.80162600  0.29321400  0.80162600  1
  C  C21  1  0.99654200  0.50608900  0.99654200  1
  C  C22  1  0.39853400  0.90743900  0.39853400  1
  C  C23  1  0.19987300  0.69838900  0.19987300  1
  C  C24  1  0.60330500  0.09503300  0.60330500  1
