# generated using pymatgen
data_Cu3NiC16
_symmetry_space_group_name_H-M   'P 1'
_cell_length_a   7.61402256
_cell_length_b   7.61402256
_cell_length_c   7.66043100
_cell_angle_alpha   90.00000000
_cell_angle_beta   90.00000000
_cell_angle_gamma   90.06917304
_symmetry_Int_Tables_number   1
_chemical_formula_structural   Cu3NiC16
_chemical_formula_sum   'Cu6 Ni2 C32'
_cell_volume   444.10044321
_cell_formula_units_Z   2
loop_
 _symmetry_equiv_pos_site_id
 _symmetry_equiv_pos_as_xyz
  1  'x, y, z'
loop_
 _atom_site_type_symbol
 _atom_site_label
 _atom_site_symmetry_multiplicity
 _atom_site_fract_x
 _atom_site_fract_y
 _atom_site_fract_z
 _atom_site_occupancy
  Ni  Ni0  1  0.25283100  0.25283100  0.74943800  1
  Ni  Ni1  1  0.25283100  0.25283100  0.25056200  1
  Cu  Cu2  1  0.74718800  0.25306100  0.74991400  1
  Cu  Cu3  1  0.74648000  0.74648000  0.74954900  1
  Cu  Cu4  1  0.25306100  0.74718800  0.74991400  1
  Cu  Cu5  1  0.74718800  0.25306100  0.25008600  1
  Cu  Cu6  1  0.74648000  0.74648000  0.25045100  1
  Cu  Cu7  1  0.25306100  0.74718800  0.25008600  1
  C  C8  1  0.99888400  0.99888400  0.00000000  1
  C  C9  1  0.50161900  0.99805900  0.00000000  1
  C  C10  1  0.99805900  0.50161900  0.00000000  1
  C  C11  1  0.50112500  0.50112500  0.00000000  1
  C  C12  1  0.99807600  0.99807600  0.50000000  1
  C  C13  1  0.50110300  0.99865600  0.50000000  1
  C  C14  1  0.99865600  0.50110300  0.50000000  1
  C  C15  1  0.50168800  0.50168800  0.50000000  1
  C  C16  1  0.99678200  0.99678200  0.73509000  1
  C  C17  1  0.50393900  0.99607800  0.75511000  1
  C  C18  1  0.99607800  0.50393900  0.75511000  1
  C  C19  1  0.50407400  0.50407400  0.74898800  1
  C  C20  1  0.99678200  0.99678200  0.26491000  1
  C  C21  1  0.50393900  0.99607800  0.24489000  1
  C  C22  1  0.99607800  0.50393900  0.24489000  1
  C  C23  1  0.50407400  0.50407400  0.25101200  1
  C  C24  1  0.99401100  0.25169800  0.00000000  1
  C  C25  1  0.50639500  0.24640900  0.00000000  1
  C  C26  1  0.99812400  0.74798200  0.00000000  1
  C  C27  1  0.50116900  0.75311600  0.00000000  1
  C  C28  1  0.99349900  0.25809900  0.50000000  1
  C  C29  1  0.50520400  0.25638100  0.50000000  1
  C  C30  1  0.99909400  0.74220700  0.50000000  1
  C  C31  1  0.50220400  0.74433100  0.50000000  1
  C  C32  1  0.74798200  0.99812400  0.00000000  1
  C  C33  1  0.25169800  0.99401100  0.00000000  1
  C  C34  1  0.75311600  0.50116900  0.00000000  1
  C  C35  1  0.24640900  0.50639500  0.00000000  1
  C  C36  1  0.74220700  0.99909400  0.50000000  1
  C  C37  1  0.25809900  0.99349900  0.50000000  1
  C  C38  1  0.74433100  0.50220400  0.50000000  1
  C  C39  1  0.25638100  0.50520400  0.50000000  1
