# generated using pymatgen
data_CuNiC16
_symmetry_space_group_name_H-M   'P 1'
_cell_length_a   5.34868439
_cell_length_b   5.34868439
_cell_length_c   7.42885471
_cell_angle_alpha   90.00000000
_cell_angle_beta   90.00000000
_cell_angle_gamma   89.96850899
_symmetry_Int_Tables_number   1
_chemical_formula_structural   CuNiC16
_chemical_formula_sum   'Cu1 Ni1 C16'
_cell_volume   212.52779853
_cell_formula_units_Z   1
loop_
 _symmetry_equiv_pos_site_id
 _symmetry_equiv_pos_as_xyz
  1  'x, y, z'
loop_
 _atom_site_type_symbol
 _atom_site_label
 _atom_site_symmetry_multiplicity
 _atom_site_fract_x
 _atom_site_fract_y
 _atom_site_fract_z
 _atom_site_occupancy
  Ni  Ni0  1  0.98308877  0.98308877  0.50000000  1
  Cu  Cu1  1  0.52862017  0.52862017  -0.00000000  1
  C  C2  1  0.50557346  0.01256625  0.75123739  1
  C  C3  1  0.50557346  0.01256625  0.24876261  1
  C  C4  1  0.01256625  0.50557346  0.24876261  1
  C  C5  1  0.01256625  0.50557346  0.75123739  1
  C  C6  1  0.77352678  0.21765975  0.75699501  1
  C  C7  1  0.21765975  0.77352678  0.75699501  1
  C  C8  1  0.21765975  0.77352678  0.24300499  1
  C  C9  1  0.77352678  0.21765975  0.24300499  1
  C  C10  1  0.70836352  0.70836352  0.72527365  1
  C  C11  1  0.29016280  0.29016280  0.79869175  1
  C  C12  1  0.29016280  0.29016280  0.20130825  1
  C  C13  1  0.70836352  0.70836352  0.27472635  1
  C  C14  1  0.51958467  0.94817723  -0.00000000  1
  C  C15  1  0.46655196  0.03567209  0.50000000  1
  C  C16  1  0.94817723  0.51958467  -0.00000000  1
  C  C17  1  0.03567209  0.46655196  0.50000000  1
