# generated using pymatgen
data_Cu3NiC
_symmetry_space_group_name_H-M   'P 1'
_cell_length_a   3.83002900
_cell_length_b   5.12298211
_cell_length_c   6.64126584
_cell_angle_alpha   95.21131059
_cell_angle_beta   105.68559479
_cell_angle_gamma   90.60130008
_symmetry_Int_Tables_number   1
_chemical_formula_structural   Cu3NiC
_chemical_formula_sum   'Cu6 Ni2 C2'
_cell_volume   124.85455887
_cell_formula_units_Z   2
loop_
 _symmetry_equiv_pos_site_id
 _symmetry_equiv_pos_as_xyz
  1  'x, y, z'
loop_
 _atom_site_type_symbol
 _atom_site_label
 _atom_site_symmetry_multiplicity
 _atom_site_fract_x
 _atom_site_fract_y
 _atom_site_fract_z
 _atom_site_occupancy
  C  C0  1  0.60863600  0.31460600  0.25769300  1
  C  C1  1  0.39136400  0.68539400  0.74230700  1
  Ni  Ni2  1  0.98461400  0.20670600  0.75426900  1
  Ni  Ni3  1  0.01538600  0.79329400  0.24573100  1
  Cu  Cu4  1  0.80721500  0.38244400  0.63892200  1
  Cu  Cu5  1  0.19278500  0.61755600  0.36107800  1
  Cu  Cu6  1  0.88055900  0.96238400  0.71821900  1
  Cu  Cu7  1  0.11944100  0.03761600  0.28178100  1
  Cu  Cu8  1  0.27644500  0.28522400  0.89797100  1
  Cu  Cu9  1  0.72355500  0.71477600  0.10202900  1
