# generated using pymatgen
data_Cu5NiC3
_symmetry_space_group_name_H-M   'P 1'
_cell_length_a   8.59556679
_cell_length_b   11.40861923
_cell_length_c   13.53601475
_cell_angle_alpha   90.00000000
_cell_angle_beta   90.00000000
_cell_angle_gamma   90.00000000
_symmetry_Int_Tables_number   1
_chemical_formula_structural   Cu5NiC3
_chemical_formula_sum   'Cu40 Ni8 C24'
_cell_volume   1327.38963992
_cell_formula_units_Z   8
loop_
 _symmetry_equiv_pos_site_id
 _symmetry_equiv_pos_as_xyz
  1  'x, y, z'
loop_
 _atom_site_type_symbol
 _atom_site_label
 _atom_site_symmetry_multiplicity
 _atom_site_fract_x
 _atom_site_fract_y
 _atom_site_fract_z
 _atom_site_occupancy
  C  C0  1  0.00000000  0.75000000  0.58088534  1
  C  C1  1  0.00000000  0.25000000  0.41911466  1
  C  C2  1  0.50000000  0.25000000  0.91911466  1
  C  C3  1  0.50000000  0.75000000  0.08088534  1
  C  C4  1  0.00000000  0.75000000  0.11711114  1
  C  C5  1  0.00000000  0.25000000  0.88288886  1
  C  C6  1  0.50000000  0.25000000  0.38288886  1
  C  C7  1  0.50000000  0.75000000  0.61711114  1
  C  C8  1  0.75382579  0.57665220  0.85271273  1
  C  C9  1  0.24617421  0.42334780  0.14728727  1
  C  C10  1  0.74617421  0.07665220  0.64728727  1
  C  C11  1  0.24617421  0.92334780  0.85271273  1
  C  C12  1  0.25382579  0.92334780  0.35271273  1
  C  C13  1  0.75382579  0.07665220  0.14728727  1
  C  C14  1  0.25382579  0.42334780  0.64728727  1
  C  C15  1  0.74617421  0.57665220  0.35271273  1
  C  C16  1  0.75473737  0.91462431  0.86724165  1
  C  C17  1  0.24526263  0.08537569  0.13275835  1
  C  C18  1  0.74526263  0.41462431  0.63275835  1
  C  C19  1  0.24526263  0.58537569  0.86724165  1
  C  C20  1  0.25473737  0.58537569  0.36724165  1
  C  C21  1  0.75473737  0.41462431  0.13275835  1
  C  C22  1  0.25473737  0.08537569  0.63275835  1
  C  C23  1  0.74526263  0.91462431  0.36724165  1
  Ni  Ni24  1  0.78027232  0.76865690  0.91112318  1
  Ni  Ni25  1  0.21972768  0.23134310  0.08887682  1
  Ni  Ni26  1  0.71972768  0.26865690  0.58887682  1
  Ni  Ni27  1  0.21972768  0.73134310  0.91112318  1
  Ni  Ni28  1  0.28027232  0.73134310  0.41112318  1
  Ni  Ni29  1  0.78027232  0.26865690  0.08887682  1
  Ni  Ni30  1  0.28027232  0.23134310  0.58887682  1
  Ni  Ni31  1  0.71972768  0.76865690  0.41112318  1
  Cu  Cu32  1  0.97611588  0.96274257  0.87714315  1
  Cu  Cu33  1  0.02388412  0.03725743  0.12285685  1
  Cu  Cu34  1  0.52388412  0.46274257  0.62285685  1
  Cu  Cu35  1  0.02388412  0.53725743  0.87714315  1
  Cu  Cu36  1  0.47611588  0.53725743  0.37714315  1
  Cu  Cu37  1  0.97611588  0.46274257  0.12285685  1
  Cu  Cu38  1  0.47611588  0.03725743  0.62285685  1
  Cu  Cu39  1  0.52388412  0.96274257  0.37714315  1
  Cu  Cu40  1  0.77253433  0.59095685  0.68605899  1
  Cu  Cu41  1  0.22746567  0.40904315  0.31394101  1
  Cu  Cu42  1  0.72746567  0.09095685  0.81394101  1
  Cu  Cu43  1  0.22746567  0.90904315  0.68605899  1
  Cu  Cu44  1  0.27253433  0.90904315  0.18605899  1
  Cu  Cu45  1  0.77253433  0.09095685  0.31394101  1
  Cu  Cu46  1  0.27253433  0.40904315  0.81394101  1
  Cu  Cu47  1  0.72746567  0.59095685  0.18605899  1
  Cu  Cu48  1  0.52592068  0.90226668  0.84818588  1
  Cu  Cu49  1  0.47407932  0.09773332  0.15181412  1
  Cu  Cu50  1  0.97407932  0.40226668  0.65181412  1
  Cu  Cu51  1  0.47407932  0.59773332  0.84818588  1
  Cu  Cu52  1  0.02592068  0.59773332  0.34818588  1
  Cu  Cu53  1  0.52592068  0.40226668  0.15181412  1
  Cu  Cu54  1  0.02592068  0.09773332  0.65181412  1
  Cu  Cu55  1  0.97407932  0.90226668  0.34818588  1
  Cu  Cu56  1  0.71197457  0.98707701  0.99792479  1
  Cu  Cu57  1  0.28802543  0.01292299  0.00207521  1
  Cu  Cu58  1  0.78802543  0.48707701  0.50207521  1
  Cu  Cu59  1  0.28802543  0.51292299  0.99792479  1
  Cu  Cu60  1  0.21197457  0.51292299  0.49792479  1
  Cu  Cu61  1  0.71197457  0.48707701  0.00207521  1
  Cu  Cu62  1  0.21197457  0.01292299  0.50207521  1
  Cu  Cu63  1  0.78802543  0.98707701  0.49792479  1
  Cu  Cu64  1  0.77848100  0.88335177  0.72237274  1
  Cu  Cu65  1  0.22151900  0.11664823  0.27762726  1
  Cu  Cu66  1  0.72151900  0.38335177  0.77762726  1
  Cu  Cu67  1  0.22151900  0.61664823  0.72237274  1
  Cu  Cu68  1  0.27848100  0.61664823  0.22237274  1
  Cu  Cu69  1  0.77848100  0.38335177  0.27762726  1
  Cu  Cu70  1  0.27848100  0.11664823  0.77762726  1
  Cu  Cu71  1  0.72151900  0.88335177  0.22237274  1
