# generated using pymatgen
data_Cu11NiC3
_symmetry_space_group_name_H-M   'P 1'
_cell_length_a   5.29500000
_cell_length_b   5.48183332
_cell_length_c   15.04101052
_cell_angle_alpha   79.65922950
_cell_angle_beta   89.74645953
_cell_angle_gamma   89.58568159
_symmetry_Int_Tables_number   1
_chemical_formula_structural   Cu11NiC3
_chemical_formula_sum   'Cu22 Ni2 C6'
_cell_volume   429.48038952
_cell_formula_units_Z   2
loop_
 _symmetry_equiv_pos_site_id
 _symmetry_equiv_pos_as_xyz
  1  'x, y, z'
loop_
 _atom_site_type_symbol
 _atom_site_label
 _atom_site_symmetry_multiplicity
 _atom_site_fract_x
 _atom_site_fract_y
 _atom_site_fract_z
 _atom_site_occupancy
  C  C0  1  0.99475000  0.97036900  0.99309100  1
  C  C1  1  0.49971600  0.16614400  0.66658200  1
  C  C2  1  0.99987400  0.33375200  0.33290600  1
  C  C3  1  0.47789200  0.44554200  0.00446500  1
  C  C4  1  0.99957000  0.66602600  0.66652500  1
  C  C5  1  0.50009100  0.83382000  0.33292800  1
  Ni  Ni6  1  0.29501700  0.20336300  0.02503200  1
  Ni  Ni7  1  0.09209800  0.06325200  0.89039900  1
  Cu  Cu8  1  0.20057000  0.02616900  0.35691600  1
  Cu  Cu9  1  0.70152900  0.14126800  0.30958000  1
  Cu  Cu10  1  0.41705400  0.20883700  0.55128400  1
  Cu  Cu11  1  0.08629900  0.37689800  0.21769000  1
  Cu  Cu12  1  0.58311700  0.12527700  0.78197400  1
  Cu  Cu13  1  0.91699000  0.29213000  0.44850900  1
  Cu  Cu14  1  0.58932100  0.47335900  0.11268600  1
  Cu  Cu15  1  0.20030200  0.35849100  0.69032200  1
  Cu  Cu16  1  0.29855800  0.52724800  0.35655700  1
  Cu  Cu17  1  0.20682800  0.69234200  0.02655000  1
  Cu  Cu18  1  0.77721100  0.29484400  0.97528700  1
  Cu  Cu19  1  0.70131400  0.47328100  0.64327700  1
  Cu  Cu20  1  0.79929300  0.64116400  0.30930000  1
  Cu  Cu21  1  0.41981600  0.56412500  0.88904100  1
  Cu  Cu22  1  0.08423600  0.70794100  0.55122300  1
  Cu  Cu23  1  0.41762700  0.87668500  0.21760400  1
  Cu  Cu24  1  0.91738200  0.62454500  0.78224300  1
  Cu  Cu25  1  0.58278300  0.79153300  0.44837500  1
  Cu  Cu26  1  0.92939300  0.98642800  0.11136400  1
  Cu  Cu27  1  0.29816100  0.85959200  0.69011700  1
  Cu  Cu28  1  0.71392600  0.80189100  0.97510400  1
  Cu  Cu29  1  0.79928200  0.97368600  0.64306800  1
