# generated using pymatgen
data_CuNiC12
_symmetry_space_group_name_H-M   'P 1'
_cell_length_a   5.99634971
_cell_length_b   5.99634971
_cell_length_c   5.97651383
_cell_angle_alpha   60.59596051
_cell_angle_beta   60.59596051
_cell_angle_gamma   60.46781571
_symmetry_Int_Tables_number   1
_chemical_formula_structural   CuNiC12
_chemical_formula_sum   'Cu1 Ni1 C12'
_cell_volume   153.85088115
_cell_formula_units_Z   1
loop_
 _symmetry_equiv_pos_site_id
 _symmetry_equiv_pos_as_xyz
  1  'x, y, z'
loop_
 _atom_site_type_symbol
 _atom_site_label
 _atom_site_symmetry_multiplicity
 _atom_site_fract_x
 _atom_site_fract_y
 _atom_site_fract_z
 _atom_site_occupancy
  Ni  Ni0  1  0.50000000  0.50000000  0.00000000  1
  C  C1  1  0.88253800  0.88253800  0.86805700  1
  C  C2  1  0.11746200  0.11746200  0.13194300  1
  C  C3  1  0.00000000  0.50000000  0.50000000  1
  C  C4  1  0.50000000  0.00000000  0.50000000  1
  Cu  Cu5  1  0.50000000  0.50000000  0.50000000  1
  C  C6  1  0.74659100  0.74659100  0.73987600  1
  C  C7  1  0.74910300  0.74910300  0.26817300  1
  C  C8  1  0.27114100  0.75016700  0.73999700  1
  C  C9  1  0.75016700  0.27114100  0.73999700  1
  C  C10  1  0.25340900  0.25340900  0.26012400  1
  C  C11  1  0.25089700  0.25089700  0.73182700  1
  C  C12  1  0.72885900  0.24983300  0.26000300  1
  C  C13  1  0.24983300  0.72885900  0.26000300  1
