# generated using pymatgen
data_Cu6Ni6C
_symmetry_space_group_name_H-M   'P 1'
_cell_length_a   11.35960100
_cell_length_b   6.66895900
_cell_length_c   12.68858030
_cell_angle_alpha   65.61275103
_cell_angle_beta   90.00000000
_cell_angle_gamma   90.00000000
_symmetry_Int_Tables_number   1
_chemical_formula_structural   Cu6Ni6C
_chemical_formula_sum   'Cu24 Ni24 C4'
_cell_volume   875.47859395
_cell_formula_units_Z   4
loop_
 _symmetry_equiv_pos_site_id
 _symmetry_equiv_pos_as_xyz
  1  'x, y, z'
loop_
 _atom_site_type_symbol
 _atom_site_label
 _atom_site_symmetry_multiplicity
 _atom_site_fract_x
 _atom_site_fract_y
 _atom_site_fract_z
 _atom_site_occupancy
  C  C0  1  0.83573700  0.77381800  0.76243800  1
  C  C1  1  0.16426300  0.22618200  0.23756200  1
  C  C2  1  0.33573700  0.22618200  0.73756200  1
  C  C3  1  0.66426300  0.77381800  0.26243800  1
  Ni  Ni4  1  0.45227900  0.57499700  0.60421600  1
  Ni  Ni5  1  0.54772100  0.42500300  0.39578400  1
  Ni  Ni6  1  0.95227900  0.42500300  0.89578400  1
  Ni  Ni7  1  0.04772100  0.57499700  0.10421600  1
  Ni  Ni8  1  0.21205900  0.39562000  0.68451100  1
  Ni  Ni9  1  0.78794100  0.60438000  0.31548900  1
  Ni  Ni10  1  0.71205900  0.60438000  0.81548900  1
  Ni  Ni11  1  0.28794100  0.39562000  0.18451100  1
  Ni  Ni12  1  0.88433000  0.86487500  0.86867700  1
  Ni  Ni13  1  0.11567000  0.13512500  0.13132300  1
  Ni  Ni14  1  0.38433000  0.13512500  0.63132300  1
  Ni  Ni15  1  0.61567000  0.86487500  0.36867700  1
  Ni  Ni16  1  0.04729300  0.87271500  0.68629700  1
  Ni  Ni17  1  0.95270700  0.12728500  0.31370300  1
  Ni  Ni18  1  0.54729300  0.12728500  0.81370300  1
  Ni  Ni19  1  0.45270700  0.87271500  0.18629700  1
  Ni  Ni20  1  0.35794800  0.44371000  0.86494200  1
  Ni  Ni21  1  0.64205200  0.55629000  0.13505800  1
  Ni  Ni22  1  0.85794800  0.55629000  0.63505800  1
  Ni  Ni23  1  0.14205200  0.44371000  0.36494200  1
  Ni  Ni24  1  0.31021800  0.00363600  0.86934300  1
  Ni  Ni25  1  0.68978200  0.99636400  0.13065700  1
  Ni  Ni26  1  0.81021800  0.99636400  0.63065700  1
  Ni  Ni27  1  0.18978200  0.00363600  0.36934300  1
  Cu  Cu28  1  0.09689800  0.97054000  0.73582800  1
  Cu  Cu29  1  0.90310200  0.02946000  0.26417200  1
  Cu  Cu30  1  0.59689800  0.02946000  0.76417200  1
  Cu  Cu31  1  0.40310200  0.97054000  0.23582800  1
  Cu  Cu32  1  0.08035700  0.81784500  0.61149100  1
  Cu  Cu33  1  0.91964300  0.18215500  0.38850900  1
  Cu  Cu34  1  0.58035700  0.18215500  0.88850900  1
  Cu  Cu35  1  0.41964300  0.81784500  0.11149100  1
  Cu  Cu36  1  0.83577600  0.66384700  0.53395600  1
  Cu  Cu37  1  0.16422400  0.33615300  0.46604400  1
  Cu  Cu38  1  0.33577600  0.33615300  0.96604400  1
  Cu  Cu39  1  0.66422400  0.66384700  0.03395600  1
  Cu  Cu40  1  0.05408300  0.41482300  0.86939500  1
  Cu  Cu41  1  0.94591700  0.58517700  0.13060500  1
  Cu  Cu42  1  0.55408300  0.58517700  0.63060500  1
  Cu  Cu43  1  0.44591700  0.41482300  0.36939500  1
  Cu  Cu44  1  0.38634700  0.63532200  0.81307500  1
  Cu  Cu45  1  0.61365300  0.36467800  0.18692500  1
  Cu  Cu46  1  0.88634700  0.36467800  0.68692500  1
  Cu  Cu47  1  0.11365300  0.63532200  0.31307500  1
  Cu  Cu48  1  0.39382700  0.69754300  0.52332800  1
  Cu  Cu49  1  0.60617300  0.30245700  0.47667200  1
  Cu  Cu50  1  0.89382700  0.30245700  0.97667200  1
  Cu  Cu51  1  0.10617300  0.69754300  0.02332800  1
