# generated using pymatgen
data_Cu2NiC12
_symmetry_space_group_name_H-M   'P 1'
_cell_length_a   5.35133409
_cell_length_b   10.65935217
_cell_length_c   5.34727020
_cell_angle_alpha   58.16880913
_cell_angle_beta   58.24835009
_cell_angle_gamma   58.11500821
_symmetry_Int_Tables_number   1
_chemical_formula_structural   Cu2NiC12
_chemical_formula_sum   'Cu2 Ni1 C12'
_cell_volume   206.67086140
_cell_formula_units_Z   1
loop_
 _symmetry_equiv_pos_site_id
 _symmetry_equiv_pos_as_xyz
  1  'x, y, z'
loop_
 _atom_site_type_symbol
 _atom_site_label
 _atom_site_symmetry_multiplicity
 _atom_site_fract_x
 _atom_site_fract_y
 _atom_site_fract_z
 _atom_site_occupancy
  Ni  Ni0  1  0.50000000  0.75000000  0.50000000  1
  Cu  Cu1  1  0.99714000  0.01006300  0.98951100  1
  Cu  Cu2  1  0.00286000  0.48993700  0.01048900  1
  C  C3  1  0.31876300  0.07244800  0.76990600  1
  C  C4  1  0.32220800  0.57573400  0.76415700  1
  C  C5  1  0.14711800  0.38563700  0.31729000  1
  C  C6  1  0.15183400  0.88195600  0.32160100  1
  C  C7  1  0.23309000  0.34158400  0.84921100  1
  C  C8  1  0.23561500  0.83839500  0.84907400  1
  C  C9  1  0.85288200  0.11436300  0.68271000  1
  C  C10  1  0.84816600  0.61804400  0.67839900  1
  C  C11  1  0.68123700  0.42755200  0.23009400  1
  C  C12  1  0.67779200  0.92426600  0.23584300  1
  C  C13  1  0.76691000  0.15841600  0.15078900  1
  C  C14  1  0.76438500  0.66160500  0.15092600  1
