# generated using pymatgen
data_Cu5NiC7
_symmetry_space_group_name_H-M   'P 1'
_cell_length_a   5.18913020
_cell_length_b   5.18594668
_cell_length_c   8.11805728
_cell_angle_alpha   90.02185701
_cell_angle_beta   89.97101964
_cell_angle_gamma   120.01901255
_symmetry_Int_Tables_number   1
_chemical_formula_structural   Cu5NiC7
_chemical_formula_sum   'Cu5 Ni1 C7'
_cell_volume   189.15684536
_cell_formula_units_Z   1
loop_
 _symmetry_equiv_pos_site_id
 _symmetry_equiv_pos_as_xyz
  1  'x, y, z'
loop_
 _atom_site_type_symbol
 _atom_site_label
 _atom_site_symmetry_multiplicity
 _atom_site_fract_x
 _atom_site_fract_y
 _atom_site_fract_z
 _atom_site_occupancy
  C  C0  1  0.99995300  0.00000400  0.99706900  1
  C  C1  1  0.99999300  0.49998300  0.24991600  1
  C  C2  1  0.50000600  0.99999300  0.24964700  1
  C  C3  1  0.50001400  0.50000700  0.24995200  1
  C  C4  1  0.99996700  0.49997400  0.75183200  1
  C  C5  1  0.50001600  0.00001000  0.75190000  1
  C  C6  1  0.49996500  0.49998400  0.75182700  1
  Ni  Ni7  1  0.99998100  0.00002500  0.65134400  1
  Cu  Cu8  1  0.33343400  0.66691400  0.99993700  1
  Cu  Cu9  1  0.66653500  0.33310200  0.99994100  1
  Cu  Cu10  1  0.33329600  0.66667400  0.50206500  1
  Cu  Cu11  1  0.66665500  0.33332400  0.50207600  1
  Cu  Cu12  1  0.99998400  0.00000700  0.34249400  1
