# generated using pymatgen
data_Cu8NiC19
_symmetry_space_group_name_H-M   'P 1'
_cell_length_a   5.97865900
_cell_length_b   10.10362000
_cell_length_c   12.47091403
_cell_angle_alpha   89.54165788
_cell_angle_beta   90.00000000
_cell_angle_gamma   90.00000000
_symmetry_Int_Tables_number   1
_chemical_formula_structural   Cu8NiC19
_chemical_formula_sum   'Cu8 Ni1 C19'
_cell_volume   753.29515925
_cell_formula_units_Z   1
loop_
 _symmetry_equiv_pos_site_id
 _symmetry_equiv_pos_as_xyz
  1  'x, y, z'
loop_
 _atom_site_type_symbol
 _atom_site_label
 _atom_site_symmetry_multiplicity
 _atom_site_fract_x
 _atom_site_fract_y
 _atom_site_fract_z
 _atom_site_occupancy
  C  C0  1  0.00000000  0.28416900  0.05543700  1
  C  C1  1  0.00000000  0.21404400  0.56534000  1
  C  C2  1  0.50000000  0.71526100  0.93990900  1
  C  C3  1  0.50000000  0.78518900  0.43990800  1
  C  C4  1  0.00000000  0.92421500  0.07767800  1
  C  C5  1  0.00000000  0.57588500  0.57797700  1
  C  C6  1  0.50000000  0.07680100  0.92106600  1
  C  C7  1  0.50000000  0.42397100  0.42279000  1
  C  C8  1  0.00000000  0.87089400  0.78920900  1
  C  C9  1  0.00000000  0.63324700  0.28930100  1
  C  C10  1  0.50000000  0.13440800  0.20982700  1
  C  C11  1  0.50000000  0.36577100  0.71189000  1
  C  C12  1  0.00000000  0.57938000  0.86884100  1
  C  C13  1  0.00000000  0.92126900  0.36960400  1
  C  C14  1  0.50000000  0.42116000  0.13011100  1
  C  C15  1  0.50000000  0.07863600  0.63197800  1
  C  C16  1  0.00000000  0.30471200  0.31028100  1
  C  C17  1  0.50000000  0.80487200  0.18882200  1
  C  C18  1  0.50000000  0.69509700  0.68902700  1
  Ni  Ni19  1  0.00000000  0.18991000  0.81028100  1
  Cu  Cu20  1  0.25423500  0.89041000  0.92173100  1
  Cu  Cu21  1  0.74554500  0.61044100  0.42203000  1
  Cu  Cu22  1  0.75406600  0.11097700  0.07683200  1
  Cu  Cu23  1  0.24566100  0.38872800  0.57976900  1
  Cu  Cu24  1  0.24593400  0.11097700  0.07683200  1
  Cu  Cu25  1  0.75433900  0.38872800  0.57976900  1
  Cu  Cu26  1  0.74576500  0.89041000  0.92173100  1
  Cu  Cu27  1  0.25445500  0.61044100  0.42203000  1
