# generated using pymatgen
data_Cu4Ni2C9
_symmetry_space_group_name_H-M   'P 1'
_cell_length_a   8.85536620
_cell_length_b   8.85536620
_cell_length_c   10.33513477
_cell_angle_alpha   58.91337995
_cell_angle_beta   58.91337995
_cell_angle_gamma   54.62406178
_symmetry_Int_Tables_number   1
_chemical_formula_structural   Cu4Ni2C9
_chemical_formula_sum   'Cu8 Ni4 C18'
_cell_volume   537.79079126
_cell_formula_units_Z   2
loop_
 _symmetry_equiv_pos_site_id
 _symmetry_equiv_pos_as_xyz
  1  'x, y, z'
loop_
 _atom_site_type_symbol
 _atom_site_label
 _atom_site_symmetry_multiplicity
 _atom_site_fract_x
 _atom_site_fract_y
 _atom_site_fract_z
 _atom_site_occupancy
  C  C0  1  0.39722600  0.60277400  0.75000000  1
  C  C1  1  0.60277400  0.39722600  0.25000000  1
  Ni  Ni2  1  0.88855300  0.82591400  0.00698700  1
  Ni  Ni3  1  0.17408600  0.11144700  0.49301300  1
  Ni  Ni4  1  0.11144700  0.17408600  0.99301300  1
  Ni  Ni5  1  0.82591400  0.88855300  0.50698700  1
  Cu  Cu6  1  0.72136200  0.98740700  0.01316400  1
  Cu  Cu7  1  0.01259300  0.27863800  0.48683600  1
  Cu  Cu8  1  0.27863800  0.01259300  0.98683600  1
  Cu  Cu9  1  0.98740700  0.72136200  0.51316400  1
  Cu  Cu10  1  0.02549300  0.69642400  0.06778100  1
  Cu  Cu11  1  0.30357600  0.97450700  0.43221900  1
  Cu  Cu12  1  0.97450700  0.30357600  0.93221900  1
  Cu  Cu13  1  0.69642400  0.02549300  0.56778100  1
  C  C14  1  0.17532100  0.54721100  0.03333900  1
  C  C15  1  0.45278900  0.82467900  0.46666100  1
  C  C16  1  0.82467900  0.45278900  0.96666100  1
  C  C17  1  0.54721100  0.17532100  0.53333900  1
  C  C18  1  0.16731400  0.65995600  0.73039600  1
  C  C19  1  0.34004400  0.83268600  0.76960400  1
  C  C20  1  0.83268600  0.34004400  0.26960400  1
  C  C21  1  0.65995600  0.16731400  0.23039600  1
  C  C22  1  0.46563000  0.36478800  0.73768200  1
  C  C23  1  0.63521200  0.53437000  0.76231800  1
  C  C24  1  0.53437000  0.63521200  0.26231800  1
  C  C25  1  0.36478800  0.46563000  0.23768200  1
  C  C26  1  0.80671500  0.87365700  0.90090200  1
  C  C27  1  0.12634300  0.19328500  0.59909800  1
  C  C28  1  0.19328500  0.12634300  0.09909800  1
  C  C29  1  0.87365700  0.80671500  0.40090200  1
