# generated using pymatgen
data_CuNiC
_symmetry_space_group_name_H-M   'P 1'
_cell_length_a   4.11642200
_cell_length_b   4.11642200
_cell_length_c   14.05130800
_cell_angle_alpha   90.00000000
_cell_angle_beta   90.00000000
_cell_angle_gamma   90.00000000
_symmetry_Int_Tables_number   1
_chemical_formula_structural   CuNiC
_chemical_formula_sum   'Cu4 Ni4 C4'
_cell_volume   238.09843162
_cell_formula_units_Z   4
loop_
 _symmetry_equiv_pos_site_id
 _symmetry_equiv_pos_as_xyz
  1  'x, y, z'
loop_
 _atom_site_type_symbol
 _atom_site_label
 _atom_site_symmetry_multiplicity
 _atom_site_fract_x
 _atom_site_fract_y
 _atom_site_fract_z
 _atom_site_occupancy
  C  C0  1  0.50000000  0.50000000  0.89990000  1
  C  C1  1  0.00000000  0.00000000  0.10648900  1
  C  C2  1  0.00000000  0.00000000  0.59554500  1
  C  C3  1  0.50000000  0.50000000  0.40345700  1
  Ni  Ni4  1  0.50000000  0.50000000  0.18653900  1
  Ni  Ni5  1  0.50000000  0.50000000  0.67315500  1
  Ni  Ni6  1  0.00000000  0.00000000  0.32671600  1
  Ni  Ni7  1  0.00000000  0.00000000  0.81817000  1
  Cu  Cu8  1  0.50000000  0.00000000  0.00189500  1
  Cu  Cu9  1  0.50000000  0.00000000  0.49312000  1
  Cu  Cu10  1  0.00000000  0.50000000  0.00189500  1
  Cu  Cu11  1  0.00000000  0.50000000  0.49312000  1
