# generated using pymatgen
data_Cu2NiC4
_symmetry_space_group_name_H-M   'P 1'
_cell_length_a   5.83073056
_cell_length_b   5.83073056
_cell_length_c   14.24548708
_cell_angle_alpha   89.72843177
_cell_angle_beta   89.72843177
_cell_angle_gamma   59.87428942
_symmetry_Int_Tables_number   1
_chemical_formula_structural   Cu2NiC4
_chemical_formula_sum   'Cu12 Ni6 C24'
_cell_volume   418.88600497
_cell_formula_units_Z   6
loop_
 _symmetry_equiv_pos_site_id
 _symmetry_equiv_pos_as_xyz
  1  'x, y, z'
loop_
 _atom_site_type_symbol
 _atom_site_label
 _atom_site_symmetry_multiplicity
 _atom_site_fract_x
 _atom_site_fract_y
 _atom_site_fract_z
 _atom_site_occupancy
  Ni  Ni0  1  0.83645200  0.83645200  0.95961100  1
  Ni  Ni1  1  0.16145600  0.16145600  0.66913500  1
  Ni  Ni2  1  0.33151800  0.33151800  0.83463700  1
  Ni  Ni3  1  0.82715200  0.82715200  0.33385200  1
  Ni  Ni4  1  0.99422100  0.99422100  0.50093300  1
  Ni  Ni5  1  0.66070900  0.66070900  0.16610600  1
  Cu  Cu6  1  0.82939200  0.32821900  0.83424800  1
  Cu  Cu7  1  0.50049000  0.50049000  0.62150500  1
  Cu  Cu8  1  0.49624100  0.49624100  0.99816100  1
  Cu  Cu9  1  0.32821900  0.82939200  0.83424800  1
  Cu  Cu10  1  0.50130600  0.98872000  0.50120500  1
  Cu  Cu11  1  0.16638400  0.16638400  0.28983400  1
  Cu  Cu12  1  0.98872000  0.50130600  0.50120500  1
  Cu  Cu13  1  0.16401900  0.65882200  0.16654500  1
  Cu  Cu14  1  0.82170900  0.82170900  0.71202600  1
  Cu  Cu15  1  0.65882200  0.16401900  0.16654500  1
  Cu  Cu16  1  0.49012200  0.49012200  0.37798500  1
  Cu  Cu17  1  0.15806200  0.15806200  0.04129300  1
  C  C18  1  0.65558500  0.20110200  0.91524800  1
  C  C19  1  0.50605600  0.50605600  0.75705400  1
  C  C20  1  0.20110200  0.65558500  0.91524800  1
  C  C21  1  0.64555400  0.64555400  0.91263100  1
  C  C22  1  0.33665200  0.84277500  0.57899000  1
  C  C23  1  0.00077700  0.00077700  0.76011400  1
  C  C24  1  0.17005600  0.17005600  0.42450400  1
  C  C25  1  0.48318400  0.98843700  0.75802300  1
  C  C26  1  0.84277500  0.33665200  0.57899000  1
  C  C27  1  0.15146200  0.15146200  0.90877900  1
  C  C28  1  0.32006800  0.32006800  0.57573700  1
  C  C29  1  0.98843700  0.48318400  0.75802300  1
  C  C30  1  0.00284400  0.50679500  0.24423900  1
  C  C31  1  0.66875700  0.66875700  0.42633000  1
  C  C32  1  0.14976900  0.65242500  0.42232200  1
  C  C33  1  0.50679500  0.00284400  0.24423900  1
  C  C34  1  0.83609600  0.83609600  0.09732800  1
  C  C35  1  0.81854200  0.81854200  0.57600800  1
  C  C36  1  0.98781500  0.98781500  0.24176200  1
  C  C37  1  0.65242500  0.14976900  0.42232200  1
  C  C38  1  0.34304700  0.34304700  0.08511100  1
  C  C39  1  0.80354100  0.32516500  0.08223200  1
  C  C40  1  0.48747300  0.48747300  0.24213800  1
  C  C41  1  0.32516500  0.80354100  0.08223200  1
