# generated using pymatgen
data_CuNiC5
_symmetry_space_group_name_H-M   'P 1'
_cell_length_a   9.63050600
_cell_length_b   5.12514300
_cell_length_c   7.41773934
_cell_angle_alpha   69.26338523
_cell_angle_beta   90.00000000
_cell_angle_gamma   90.00000000
_symmetry_Int_Tables_number   1
_chemical_formula_structural   CuNiC5
_chemical_formula_sum   'Cu4 Ni4 C20'
_cell_volume   342.40452612
_cell_formula_units_Z   4
loop_
 _symmetry_equiv_pos_site_id
 _symmetry_equiv_pos_as_xyz
  1  'x, y, z'
loop_
 _atom_site_type_symbol
 _atom_site_label
 _atom_site_symmetry_multiplicity
 _atom_site_fract_x
 _atom_site_fract_y
 _atom_site_fract_z
 _atom_site_occupancy
  Ni  Ni0  1  0.01483900  0.53188500  0.74141500  1
  Ni  Ni1  1  0.51483900  0.46811500  0.75858500  1
  Ni  Ni2  1  0.98516100  0.46811500  0.25858500  1
  Ni  Ni3  1  0.48516100  0.53188500  0.24141500  1
  Cu  Cu4  1  0.75098500  0.10624200  0.60192600  1
  Cu  Cu5  1  0.25098500  0.89375800  0.89807400  1
  Cu  Cu6  1  0.24901500  0.89375800  0.39807400  1
  Cu  Cu7  1  0.74901500  0.10624200  0.10192600  1
  C  C8  1  0.88190800  0.40612000  0.56663200  1
  C  C9  1  0.38190800  0.59388000  0.93336800  1
  C  C10  1  0.11809200  0.59388000  0.43336800  1
  C  C11  1  0.61809200  0.40612000  0.06663200  1
  C  C12  1  0.60859100  0.36168000  0.49102800  1
  C  C13  1  0.10859100  0.63832000  0.00897200  1
  C  C14  1  0.39140900  0.63832000  0.50897200  1
  C  C15  1  0.89140900  0.36168000  0.99102800  1
  C  C16  1  0.39785000  0.13470200  0.79220500  1
  C  C17  1  0.89785000  0.86529800  0.70779500  1
  C  C18  1  0.60215000  0.86529800  0.20779500  1
  C  C19  1  0.10215000  0.13470200  0.29220500  1
  C  C20  1  0.13180000  0.19718200  0.85908600  1
  C  C21  1  0.63180000  0.80281800  0.64091400  1
  C  C22  1  0.86820000  0.80281800  0.14091400  1
  C  C23  1  0.36820000  0.19718200  0.35908600  1
  C  C24  1  0.68264500  0.15441100  0.83972100  1
  C  C25  1  0.18264500  0.84558900  0.66027900  1
  C  C26  1  0.31735500  0.84558900  0.16027900  1
  C  C27  1  0.81735500  0.15441100  0.33972100  1
