# generated using pymatgen
data_CuNiC16
_symmetry_space_group_name_H-M   'P 1'
_cell_length_a   5.68228660
_cell_length_b   5.68228660
_cell_length_c   8.13497958
_cell_angle_alpha   90.00000000
_cell_angle_beta   90.00000000
_cell_angle_gamma   90.40114709
_symmetry_Int_Tables_number   1
_chemical_formula_structural   CuNiC16
_chemical_formula_sum   'Cu1 Ni1 C16'
_cell_volume   262.65888267
_cell_formula_units_Z   1
loop_
 _symmetry_equiv_pos_site_id
 _symmetry_equiv_pos_as_xyz
  1  'x, y, z'
loop_
 _atom_site_type_symbol
 _atom_site_label
 _atom_site_symmetry_multiplicity
 _atom_site_fract_x
 _atom_site_fract_y
 _atom_site_fract_z
 _atom_site_occupancy
  Ni  Ni0  1  0.01519928  0.98480072  0.50000000  1
  Cu  Cu1  1  0.48435340  0.51564660  0.00000000  1
  C  C2  1  0.50586544  0.01050813  0.26089761  1
  C  C3  1  0.50586544  0.01050813  0.73910239  1
  C  C4  1  0.98949187  0.49413456  0.73910239  1
  C  C5  1  0.98949187  0.49413456  0.26089761  1
  C  C6  1  0.29635280  0.30421304  0.21987697  1
  C  C7  1  0.69578696  0.70364720  0.21987697  1
  C  C8  1  0.69578696  0.70364720  0.78012303  1
  C  C9  1  0.29635280  0.30421304  0.78012303  1
  C  C10  1  0.23562908  0.76437092  0.18616961  1
  C  C11  1  0.80716338  0.19283662  0.29809689  1
  C  C12  1  0.80716338  0.19283662  0.70190311  1
  C  C13  1  0.23562908  0.76437092  0.81383039  1
  C  C14  1  0.54380214  0.07889277  0.00000000  1
  C  C15  1  0.42381664  0.97945775  0.50000000  1
  C  C16  1  0.92110723  0.45619786  0.00000000  1
  C  C17  1  0.02054225  0.57618336  0.50000000  1
