# generated using pymatgen
data_CuNiC8
_symmetry_space_group_name_H-M   'P 1'
_cell_length_a   5.69151096
_cell_length_b   5.69151096
_cell_length_c   5.69151109
_cell_angle_alpha   53.01510853
_cell_angle_beta   53.01510853
_cell_angle_gamma   53.01510204
_symmetry_Int_Tables_number   1
_chemical_formula_structural   CuNiC8
_chemical_formula_sum   'Cu1 Ni1 C8'
_cell_volume   109.02474220
_cell_formula_units_Z   1
loop_
 _symmetry_equiv_pos_site_id
 _symmetry_equiv_pos_as_xyz
  1  'x, y, z'
loop_
 _atom_site_type_symbol
 _atom_site_label
 _atom_site_symmetry_multiplicity
 _atom_site_fract_x
 _atom_site_fract_y
 _atom_site_fract_z
 _atom_site_occupancy
  C  C0  1  0.86678700  0.86678700  0.86678700  1
  C  C1  1  0.13154100  0.13154100  0.13154100  1
  Ni  Ni2  1  0.33991500  0.33991500  0.33991500  1
  Cu  Cu3  1  0.65983900  0.65983900  0.65983900  1
  C  C4  1  0.28464600  0.94008000  0.55090100  1
  C  C5  1  0.55090100  0.28464600  0.94008000  1
  C  C6  1  0.94008000  0.55090100  0.28464600  1
  C  C7  1  0.70501700  0.06687100  0.45030200  1
  C  C8  1  0.45030200  0.70501700  0.06687100  1
  C  C9  1  0.06687100  0.45030200  0.70501700  1
