# generated using pymatgen
data_Cu8Ni4C3
_symmetry_space_group_name_H-M   'P 1'
_cell_length_a   6.15299981
_cell_length_b   8.84209312
_cell_length_c   9.81749174
_cell_angle_alpha   64.64644347
_cell_angle_beta   85.00303488
_cell_angle_gamma   84.56252894
_symmetry_Int_Tables_number   1
_chemical_formula_structural   Cu8Ni4C3
_chemical_formula_sum   'Cu16 Ni8 C6'
_cell_volume   479.86408171
_cell_formula_units_Z   2
loop_
 _symmetry_equiv_pos_site_id
 _symmetry_equiv_pos_as_xyz
  1  'x, y, z'
loop_
 _atom_site_type_symbol
 _atom_site_label
 _atom_site_symmetry_multiplicity
 _atom_site_fract_x
 _atom_site_fract_y
 _atom_site_fract_z
 _atom_site_occupancy
  C  C0  1  0.21212400  0.14249100  0.56494300  1
  C  C1  1  0.78787600  0.85750900  0.43505700  1
  C  C2  1  0.71943800  0.47184400  0.20124200  1
  C  C3  1  0.28056200  0.52815600  0.79875800  1
  C  C4  1  0.75063100  0.04736700  0.00440700  1
  C  C5  1  0.24936900  0.95263300  0.99559300  1
  Ni  Ni6  1  0.38590900  0.21619800  0.18639300  1
  Ni  Ni7  1  0.61409100  0.78380200  0.81360700  1
  Ni  Ni8  1  0.32703700  0.68070500  0.37900900  1
  Ni  Ni9  1  0.67296300  0.31929500  0.62099100  1
  Ni  Ni10  1  0.13273400  0.22497200  0.18353200  1
  Ni  Ni11  1  0.86726600  0.77502800  0.81646800  1
  Ni  Ni12  1  0.17965700  0.58179000  0.32977400  1
  Ni  Ni13  1  0.82034300  0.41821000  0.67022600  1
  Cu  Cu14  1  0.02591500  0.14591600  0.30821100  1
  Cu  Cu15  1  0.97408500  0.85408400  0.69178900  1
  Cu  Cu16  1  0.47343600  0.13341500  0.31231900  1
  Cu  Cu17  1  0.52656400  0.86658500  0.68768100  1
  Cu  Cu18  1  0.26997800  0.45742700  0.30848200  1
  Cu  Cu19  1  0.73002200  0.54257300  0.69151800  1
  Cu  Cu20  1  0.49032900  0.30191200  0.06311300  1
  Cu  Cu21  1  0.50967100  0.69808800  0.93688700  1
  Cu  Cu22  1  0.24035800  0.74421500  0.46647100  1
  Cu  Cu23  1  0.75964200  0.25578500  0.53352900  1
  Cu  Cu24  1  0.47400100  0.31267600  0.66859900  1
  Cu  Cu25  1  0.52599900  0.68732400  0.33140100  1
  Cu  Cu26  1  0.04708800  0.31957700  0.06073900  1
  Cu  Cu27  1  0.95291200  0.68042300  0.93926100  1
  Cu  Cu28  1  0.02187600  0.37220100  0.68161400  1
  Cu  Cu29  1  0.97812400  0.62779900  0.31838600  1
