# generated using pymatgen
data_Cu2NiC40
_symmetry_space_group_name_H-M   'P 1'
_cell_length_a   6.50639977
_cell_length_b   8.92267987
_cell_length_c   9.04924871
_cell_angle_alpha   86.48569325
_cell_angle_beta   106.38983036
_cell_angle_gamma   105.57439839
_symmetry_Int_Tables_number   1
_chemical_formula_structural   Cu2NiC40
_chemical_formula_sum   'Cu2 Ni1 C40'
_cell_volume   485.43666387
_cell_formula_units_Z   1
loop_
 _symmetry_equiv_pos_site_id
 _symmetry_equiv_pos_as_xyz
  1  'x, y, z'
loop_
 _atom_site_type_symbol
 _atom_site_label
 _atom_site_symmetry_multiplicity
 _atom_site_fract_x
 _atom_site_fract_y
 _atom_site_fract_z
 _atom_site_occupancy
  Ni  Ni0  1  0.83589324  0.05559076  0.67325582  1
  C  C1  1  0.25433565  0.77199654  0.21098105  1
  C  C2  1  0.61620694  0.54572800  0.87347361  1
  C  C3  1  0.08707571  0.84684163  0.50075402  1
  C  C4  1  0.39479804  0.45794066  0.14016461  1
  C  C5  1  0.87769316  0.09947595  0.39076787  1
  C  C6  1  0.74560574  0.31191629  0.82584959  1
  Cu  Cu7  1  0.22604226  0.43037801  0.53779084  1
  Cu  Cu8  1  0.77652819  0.48530810  0.50949626  1
  C  C9  1  0.23039773  0.21208120  0.84798159  1
  C  C10  1  0.74643981  0.81885238  0.16258043  1
  C  C11  1  0.39864895  0.15112502  0.38887148  1
  C  C12  1  0.14142781  0.64191805  0.84264215  1
  C  C13  1  0.57391779  0.78424084  0.57967479  1
  C  C14  1  0.90336996  0.40633062  0.17750049  1
  C  C15  1  0.32563103  0.11805939  0.13920085  1
  C  C16  1  0.18519215  0.89653719  0.89403281  1
  C  C17  1  0.67309548  0.83790767  0.89611572  1
  C  C18  1  0.82406015  0.15106361  0.10563094  1
  C  C19  1  0.32208908  0.55604057  0.91167984  1
  C  C20  1  0.20190590  0.79300989  0.95208441  1
  C  C21  1  0.59992213  0.88422832  0.72359829  1
  C  C22  1  0.87131854  0.26265646  0.06610500  1
  C  C23  1  0.40720336  0.32192613  0.34196792  1
  C  C24  1  0.12891049  0.68992432  0.67519589  1
  C  C25  1  0.57146260  0.61367481  0.62601686  1
  C  C26  1  0.90729912  0.33936015  0.33991913  1
  C  C27  1  0.20657649  0.08091106  0.46349280  1
  C  C28  1  0.34935834  0.04857589  0.23631615  1
  C  C29  1  0.74188702  0.78011684  0.99025813  1
  C  C30  1  0.74956847  0.99054085  0.17073171  1
  C  C31  1  0.29862606  0.23997056  0.02266596  1
  C  C32  1  0.14997221  0.03502562  0.80603247  1
  C  C33  1  0.54248694  0.71142557  0.20628502  1
  C  C34  1  0.96365396  0.78272668  0.26314578  1
  C  C35  1  0.42296516  0.30065094  0.77748382  1
  C  C36  1  0.78819682  0.86964888  0.52624101  1
  C  C37  1  0.91570360  0.54069885  0.85440177  1
  C  C38  1  0.62374809  0.14084232  0.49835413  1
  C  C39  1  0.12654715  0.52282999  0.17645467  1
  C  C40  1  0.36322974  0.79253035  0.45069285  1
  C  C41  1  0.70567768  0.47565112  0.11159970  1
  C  C42  1  0.01532826  0.26624192  0.76094775  1
