# generated using pymatgen
data_Cu3NiC15
_symmetry_space_group_name_H-M   'P 1'
_cell_length_a   8.74798335
_cell_length_b   6.27248106
_cell_length_c   10.77110600
_cell_angle_alpha   90.00000000
_cell_angle_beta   90.00000000
_cell_angle_gamma   105.06908248
_symmetry_Int_Tables_number   1
_chemical_formula_structural   Cu3NiC15
_chemical_formula_sum   'Cu6 Ni2 C30'
_cell_volume   570.70376601
_cell_formula_units_Z   2
loop_
 _symmetry_equiv_pos_site_id
 _symmetry_equiv_pos_as_xyz
  1  'x, y, z'
loop_
 _atom_site_type_symbol
 _atom_site_label
 _atom_site_symmetry_multiplicity
 _atom_site_fract_x
 _atom_site_fract_y
 _atom_site_fract_z
 _atom_site_occupancy
  Ni  Ni0  1  0.91549900  0.41354100  0.25000000  1
  Ni  Ni1  1  0.41807800  0.58523200  0.75000000  1
  Cu  Cu2  1  0.16680400  0.00037000  0.49906400  1
  Cu  Cu3  1  0.50108500  0.01107100  0.50353800  1
  Cu  Cu4  1  0.83192400  0.98790400  0.49615200  1
  Cu  Cu5  1  0.16680400  0.00037000  0.00093600  1
  Cu  Cu6  1  0.50108500  0.01107100  0.99646200  1
  Cu  Cu7  1  0.83192400  0.98790400  0.00384800  1
  C  C8  1  0.11112200  0.55145500  0.25000000  1
  C  C9  1  0.34822500  0.56643100  0.25000000  1
  C  C10  1  0.80260600  0.59014200  0.25000000  1
  C  C11  1  0.22370700  0.44143800  0.75000000  1
  C  C12  1  0.53392700  0.41230100  0.75000000  1
  C  C13  1  0.99027100  0.43848400  0.75000000  1
  C  C14  1  0.03338700  0.13026500  0.58036400  1
  C  C15  1  0.33393200  0.10343500  0.60223800  1
  C  C16  1  0.70139200  0.12262300  0.59190000  1
  C  C17  1  0.30010300  0.87049200  0.41759200  1
  C  C18  1  0.63119700  0.87550700  0.40813800  1
  C  C19  1  0.99879100  0.89730800  0.39628700  1
  C  C20  1  0.10074200  0.76224600  0.90687000  1
  C  C21  1  0.45718500  0.76074200  0.87645500  1
  C  C22  1  0.80137000  0.73964800  0.91474300  1
  C  C23  1  0.23140100  0.23973400  0.09469800  1
  C  C24  1  0.53263200  0.26020800  0.08459700  1
  C  C25  1  0.87300400  0.23893500  0.12323700  1
  C  C26  1  0.23140100  0.23973400  0.40530200  1
  C  C27  1  0.53263200  0.26020800  0.41540300  1
  C  C28  1  0.87300400  0.23893500  0.37676300  1
  C  C29  1  0.10074200  0.76224600  0.59313000  1
  C  C30  1  0.45718500  0.76074200  0.62354500  1
  C  C31  1  0.80137000  0.73964800  0.58525700  1
  C  C32  1  0.03338700  0.13026500  0.91963600  1
  C  C33  1  0.33393200  0.10343500  0.89776200  1
  C  C34  1  0.70139200  0.12262300  0.90810000  1
  C  C35  1  0.30010300  0.87049200  0.08240800  1
  C  C36  1  0.63119700  0.87550700  0.09186200  1
  C  C37  1  0.99879100  0.89730800  0.10371300  1
