# generated using pymatgen
data_CuNi5C3
_symmetry_space_group_name_H-M   'P 1'
_cell_length_a   9.66825625
_cell_length_b   9.66825625
_cell_length_c   8.72378800
_cell_angle_alpha   90.00000000
_cell_angle_beta   90.00000000
_cell_angle_gamma   136.33252001
_symmetry_Int_Tables_number   1
_chemical_formula_structural   CuNi5C3
_chemical_formula_sum   'Cu2 Ni10 C6'
_cell_volume   563.05063521
_cell_formula_units_Z   2
loop_
 _symmetry_equiv_pos_site_id
 _symmetry_equiv_pos_as_xyz
  1  'x, y, z'
loop_
 _atom_site_type_symbol
 _atom_site_label
 _atom_site_symmetry_multiplicity
 _atom_site_fract_x
 _atom_site_fract_y
 _atom_site_fract_z
 _atom_site_occupancy
  C  C0  1  0.52825100  0.47174900  0.75000000  1
  C  C1  1  0.47174900  0.52825100  0.25000000  1
  C  C2  1  0.24104300  0.75895700  0.75000000  1
  C  C3  1  0.75895700  0.24104300  0.25000000  1
  C  C4  1  0.89027800  0.10972200  0.75000000  1
  C  C5  1  0.10972200  0.89027800  0.25000000  1
  Ni  Ni6  1  0.75591600  0.24408400  0.75000000  1
  Ni  Ni7  1  0.24408400  0.75591600  0.25000000  1
  Ni  Ni8  1  0.65182500  0.88139000  0.55777900  1
  Ni  Ni9  1  0.88139000  0.65182500  0.44222100  1
  Ni  Ni10  1  0.65182500  0.88139000  0.94222100  1
  Ni  Ni11  1  0.88139000  0.65182500  0.05777900  1
  Ni  Ni12  1  0.34817500  0.11861000  0.44222100  1
  Ni  Ni13  1  0.11861000  0.34817500  0.55777900  1
  Ni  Ni14  1  0.34817500  0.11861000  0.05777900  1
  Ni  Ni15  1  0.11861000  0.34817500  0.94222100  1
  Cu  Cu16  1  0.99103600  0.00896400  0.75000000  1
  Cu  Cu17  1  0.00896400  0.99103600  0.25000000  1
