# generated using pymatgen
data_Cu16Ni2C21
_symmetry_space_group_name_H-M   'P 1'
_cell_length_a   5.69140388
_cell_length_b   15.07403040
_cell_length_c   14.65315429
_cell_angle_alpha   90.00000000
_cell_angle_beta   98.28907527
_cell_angle_gamma   90.00000000
_symmetry_Int_Tables_number   1
_chemical_formula_structural   Cu16Ni2C21
_chemical_formula_sum   'Cu32 Ni4 C42'
_cell_volume   1243.99634651
_cell_formula_units_Z   2
loop_
 _symmetry_equiv_pos_site_id
 _symmetry_equiv_pos_as_xyz
  1  'x, y, z'
loop_
 _atom_site_type_symbol
 _atom_site_label
 _atom_site_symmetry_multiplicity
 _atom_site_fract_x
 _atom_site_fract_y
 _atom_site_fract_z
 _atom_site_occupancy
  C  C0  1  0.50000000  0.50000000  0.50000000  1
  C  C1  1  0.00000000  -0.00000000  0.00000000  1
  C  C2  1  0.52001134  0.35156157  0.10177601  1
  C  C3  1  0.02001134  0.14843843  0.60177601  1
  C  C4  1  0.47998866  0.64843843  0.89822399  1
  C  C5  1  0.97998866  0.85156157  0.39822399  1
  C  C6  1  0.43263633  0.09972851  0.34299742  1
  C  C7  1  0.93263633  0.40027149  0.84299742  1
  C  C8  1  0.56736367  0.90027149  0.65700258  1
  C  C9  1  0.06736367  0.59972851  0.15700258  1
  C  C10  1  0.30162363  0.28468262  0.15805933  1
  C  C11  1  0.80162363  0.21531738  0.65805933  1
  C  C12  1  0.69837637  0.71531738  0.84194067  1
  C  C13  1  0.19837637  0.78468262  0.34194067  1
  C  C14  1  0.62784359  0.15673206  0.26792266  1
  C  C15  1  0.12784359  0.34326794  0.76792266  1
  C  C16  1  0.37215641  0.84326794  0.73207734  1
  C  C17  1  0.87215641  0.65673206  0.23207734  1
  Ni  Ni18  1  0.43640936  0.19327814  0.18577312  1
  Ni  Ni19  1  0.93640936  0.30672186  0.68577312  1
  Ni  Ni20  1  0.56359064  0.80672186  0.81422688  1
  Ni  Ni21  1  0.06359064  0.69327814  0.31422688  1
  Cu  Cu22  1  0.50413175  0.11887499  0.94494743  1
  Cu  Cu23  1  0.00413175  0.38112501  0.44494743  1
  Cu  Cu24  1  0.49586825  0.88112501  0.05505257  1
  Cu  Cu25  1  0.99586825  0.61887499  0.55505257  1
  Cu  Cu26  1  0.23292886  0.39464048  0.46808856  1
  Cu  Cu27  1  0.73292886  0.10535952  0.96808856  1
  Cu  Cu28  1  0.76707114  0.60535952  0.53191144  1
  Cu  Cu29  1  0.26707114  0.89464048  0.03191144  1
  Cu  Cu30  1  0.86285262  0.42533345  0.49317911  1
  Cu  Cu31  1  0.36285262  0.07466655  0.99317911  1
  Cu  Cu32  1  0.13714738  0.57466655  0.50682089  1
  Cu  Cu33  1  0.63714738  0.92533345  0.00682089  1
  Cu  Cu34  1  0.55585637  0.46522939  0.37506074  1
  Cu  Cu35  1  0.05585637  0.03477061  0.87506074  1
  Cu  Cu36  1  0.44414363  0.53477061  0.62493926  1
  Cu  Cu37  1  0.94414363  0.96522939  0.12493926  1
  Cu  Cu38  1  0.26095994  0.33344612  0.23924940  1
  Cu  Cu39  1  0.76095994  0.16655388  0.73924940  1
  Cu  Cu40  1  0.73904006  0.66655388  0.76075060  1
  Cu  Cu41  1  0.23904006  0.83344612  0.26075060  1
  Cu  Cu42  1  0.11049151  0.26505119  0.08522378  1
  Cu  Cu43  1  0.61049151  0.23494881  0.58522378  1
  Cu  Cu44  1  0.88950849  0.73494881  0.91477622  1
  Cu  Cu45  1  0.38950849  0.76505119  0.41477622  1
  Cu  Cu46  1  0.74796116  0.22701416  0.32308208  1
  Cu  Cu47  1  0.24796116  0.27298584  0.82308208  1
  Cu  Cu48  1  0.25203884  0.77298584  0.67691792  1
  Cu  Cu49  1  0.75203884  0.72701416  0.17691792  1
  Cu  Cu50  1  0.75996325  0.08656826  0.23170618  1
  Cu  Cu51  1  0.25996325  0.41343174  0.73170618  1
  Cu  Cu52  1  0.24003675  0.91343174  0.76829382  1
  Cu  Cu53  1  0.74003675  0.58656826  0.26829382  1
  C  C54  1  0.42394567  0.43144776  0.07770499  1
  C  C55  1  0.92394567  0.06855224  0.57770499  1
  C  C56  1  0.57605433  0.56855224  0.92229501  1
  C  C57  1  0.07605433  0.93144776  0.42229501  1
  C  C58  1  0.56391298  0.30856267  0.02544362  1
  C  C59  1  0.06391298  0.19143733  0.52544362  1
  C  C60  1  0.43608702  0.69143733  0.97455638  1
  C  C61  1  0.93608702  0.80856267  0.47455638  1
  C  C62  1  0.72218312  0.36270548  0.16011750  1
  C  C63  1  0.22218312  0.13729452  0.66011750  1
  C  C64  1  0.27781688  0.63729452  0.83988250  1
  C  C65  1  0.77781688  0.86270548  0.33988250  1
  C  C66  1  0.57123673  0.06637739  0.41758440  1
  C  C67  1  0.07123673  0.43362261  0.91758440  1
  C  C68  1  0.42876327  0.93362261  0.58241560  1
  C  C69  1  0.92876327  0.56637739  0.08241560  1
  C  C70  1  0.27927580  0.15836888  0.37003765  1
  C  C71  1  0.77927580  0.34163112  0.87003765  1
  C  C72  1  0.72072420  0.84163112  0.62996235  1
  C  C73  1  0.22072420  0.65836888  0.12996235  1
  C  C74  1  0.31341177  0.03337444  0.29551420  1
  C  C75  1  0.81341177  0.46662556  0.79551420  1
  C  C76  1  0.68658823  0.96662556  0.70448580  1
  C  C77  1  0.18658823  0.53337444  0.20448580  1
