# generated using pymatgen
data_CuNi
_symmetry_space_group_name_H-M   'P 1'
_cell_length_a   18.13953925
_cell_length_b   18.13953925
_cell_length_c   18.13953921
_cell_angle_alpha   15.60852847
_cell_angle_beta   15.60852847
_cell_angle_gamma   15.60853172
_symmetry_Int_Tables_number   1
_chemical_formula_structural   CuNi
_chemical_formula_sum   'Cu13 Ni13'
_cell_volume   376.52629258
_cell_formula_units_Z   13
loop_
 _symmetry_equiv_pos_site_id
 _symmetry_equiv_pos_as_xyz
  1  'x, y, z'
loop_
 _atom_site_type_symbol
 _atom_site_label
 _atom_site_symmetry_multiplicity
 _atom_site_fract_x
 _atom_site_fract_y
 _atom_site_fract_z
 _atom_site_occupancy
  Ni  Ni0  1  0.82556500  0.82556500  0.82556500  1
  Ni  Ni1  1  0.32614900  0.32614900  0.32614900  1
  Ni  Ni2  1  0.67385100  0.67385100  0.67385100  1
  Ni  Ni3  1  0.17443500  0.17443500  0.17443500  1
  Ni  Ni4  1  0.77354500  0.77354500  0.77354500  1
  Ni  Ni5  1  0.27549400  0.27549400  0.27549400  1
  Ni  Ni6  1  0.72450600  0.72450600  0.72450600  1
  Ni  Ni7  1  0.22645500  0.22645500  0.22645500  1
  Ni  Ni8  1  0.41554600  0.41554600  0.41554600  1
  Ni  Ni9  1  0.91769400  0.91769400  0.91769400  1
  Ni  Ni10  1  0.08230600  0.08230600  0.08230600  1
  Ni  Ni11  1  0.58445400  0.58445400  0.58445400  1
  Ni  Ni12  1  0.50000000  0.50000000  0.50000000  1
  Cu  Cu13  1  0.20356800  0.20356800  0.70341900  1
  Cu  Cu14  1  0.70999800  0.70999800  0.19847900  1
  Cu  Cu15  1  0.70341900  0.20356800  0.20356800  1
  Cu  Cu16  1  0.19847900  0.70999800  0.70999800  1
  Cu  Cu17  1  0.20356800  0.70341900  0.20356800  1
  Cu  Cu18  1  0.70999800  0.19847900  0.70999800  1
  Cu  Cu19  1  0.29000200  0.29000200  0.80152100  1
  Cu  Cu20  1  0.79643200  0.79643200  0.29658100  1
  Cu  Cu21  1  0.80152100  0.29000200  0.29000200  1
  Cu  Cu22  1  0.29658100  0.79643200  0.79643200  1
  Cu  Cu23  1  0.29000200  0.80152100  0.29000200  1
  Cu  Cu24  1  0.79643200  0.29658100  0.79643200  1
  Cu  Cu25  1  0.00000000  0.00000000  0.00000000  1
