# generated using pymatgen
data_Cu15(NiC)2
_symmetry_space_group_name_H-M   'P 1'
_cell_length_a   6.26364374
_cell_length_b   8.82590507
_cell_length_c   11.48911900
_cell_angle_alpha   90.00000000
_cell_angle_beta   90.00000000
_cell_angle_gamma   89.21554742
_symmetry_Int_Tables_number   1
_chemical_formula_structural   Cu15(NiC)2
_chemical_formula_sum   'Cu30 Ni4 C4'
_cell_volume   635.08568243
_cell_formula_units_Z   2
loop_
 _symmetry_equiv_pos_site_id
 _symmetry_equiv_pos_as_xyz
  1  'x, y, z'
loop_
 _atom_site_type_symbol
 _atom_site_label
 _atom_site_symmetry_multiplicity
 _atom_site_fract_x
 _atom_site_fract_y
 _atom_site_fract_z
 _atom_site_occupancy
  C  C0  1  0.00457600  0.38960000  0.22906600  1
  C  C1  1  0.99542400  0.61040000  0.72906600  1
  C  C2  1  0.50308800  0.17528700  0.88417300  1
  C  C3  1  0.49691200  0.82471300  0.38417300  1
  Ni  Ni4  1  0.02489300  0.73659600  0.03746400  1
  Ni  Ni5  1  0.97510700  0.26340400  0.53746400  1
  Ni  Ni6  1  0.00270100  0.25285400  0.91673200  1
  Ni  Ni7  1  0.99729900  0.74714600  0.41673200  1
  Cu  Cu8  1  0.27576600  0.33662300  0.25963100  1
  Cu  Cu9  1  0.72423400  0.66337700  0.75963100  1
  Cu  Cu10  1  0.73278100  0.44316300  0.19974300  1
  Cu  Cu11  1  0.26721900  0.55683700  0.69974300  1
  Cu  Cu12  1  0.10339100  0.60853800  0.10982300  1
  Cu  Cu13  1  0.89660900  0.39146200  0.60982300  1
  Cu  Cu14  1  0.10077600  0.70409100  0.91595200  1
  Cu  Cu15  1  0.89922400  0.29590900  0.41595200  1
  Cu  Cu16  1  0.10492500  0.88461000  0.07834700  1
  Cu  Cu17  1  0.89507500  0.11539000  0.57834700  1
  Cu  Cu18  1  0.79036000  0.75797100  0.04400200  1
  Cu  Cu19  1  0.20964000  0.24202900  0.54400200  1
  Cu  Cu20  1  0.95174900  0.39924400  0.86107000  1
  Cu  Cu21  1  0.04825100  0.60075600  0.36107000  1
  Cu  Cu22  1  0.04838800  0.27678800  0.04186200  1
  Cu  Cu23  1  0.95161200  0.72321200  0.54186200  1
  Cu  Cu24  1  0.82532600  0.14330500  0.90102800  1
  Cu  Cu25  1  0.17467400  0.85669500  0.40102800  1
  Cu  Cu26  1  0.18900500  0.17563100  0.85821400  1
  Cu  Cu27  1  0.81099500  0.82436900  0.35821400  1
  Cu  Cu28  1  0.89195900  0.14005300  0.23563200  1
  Cu  Cu29  1  0.10804100  0.85994700  0.73563200  1
  Cu  Cu30  1  0.50004400  0.06534200  0.12660100  1
  Cu  Cu31  1  0.49995600  0.93465800  0.62660100  1
  Cu  Cu32  1  0.48834000  0.01048800  0.96100900  1
  Cu  Cu33  1  0.51166000  0.98951200  0.46100900  1
  Cu  Cu34  1  0.53293200  0.17764100  0.74446700  1
  Cu  Cu35  1  0.46706800  0.82235900  0.24446700  1
  Cu  Cu36  1  0.50189400  0.32775300  0.96078300  1
  Cu  Cu37  1  0.49810600  0.67224700  0.46078300  1
