# generated using pymatgen
data_CuNi2C
_symmetry_space_group_name_H-M   'P 1'
_cell_length_a   4.35009600
_cell_length_b   5.88350506
_cell_length_c   7.66668000
_cell_angle_alpha   90.00000000
_cell_angle_beta   90.00000000
_cell_angle_gamma   111.69623819
_symmetry_Int_Tables_number   1
_chemical_formula_structural   CuNi2C
_chemical_formula_sum   'Cu2 Ni4 C2'
_cell_volume   182.31875222
_cell_formula_units_Z   2
loop_
 _symmetry_equiv_pos_site_id
 _symmetry_equiv_pos_as_xyz
  1  'x, y, z'
loop_
 _atom_site_type_symbol
 _atom_site_label
 _atom_site_symmetry_multiplicity
 _atom_site_fract_x
 _atom_site_fract_y
 _atom_site_fract_z
 _atom_site_occupancy
  C  C0  1  0.06777200  0.13554400  0.75000000  1
  C  C1  1  0.93222800  0.86445600  0.25000000  1
  Ni  Ni2  1  0.35575300  0.71150600  0.95346000  1
  Ni  Ni3  1  0.35575300  0.71150600  0.54654000  1
  Ni  Ni4  1  0.64424700  0.28849400  0.04654000  1
  Ni  Ni5  1  0.64424700  0.28849400  0.45346000  1
  Cu  Cu6  1  0.78772600  0.57545200  0.75000000  1
  Cu  Cu7  1  0.21227400  0.42454800  0.25000000  1
