# generated using pymatgen
data_Cu6Ni3C2
_symmetry_space_group_name_H-M   'P 1'
_cell_length_a   10.44709119
_cell_length_b   4.89697552
_cell_length_c   30.28499769
_cell_angle_alpha   89.99999740
_cell_angle_beta   163.82139351
_cell_angle_gamma   76.44549419
_symmetry_Int_Tables_number   1
_chemical_formula_structural   Cu6Ni3C2
_chemical_formula_sum   'Cu12 Ni6 C4'
_cell_volume   233.46794525
_cell_formula_units_Z   2
loop_
 _symmetry_equiv_pos_site_id
 _symmetry_equiv_pos_as_xyz
  1  'x, y, z'
loop_
 _atom_site_type_symbol
 _atom_site_label
 _atom_site_symmetry_multiplicity
 _atom_site_fract_x
 _atom_site_fract_y
 _atom_site_fract_z
 _atom_site_occupancy
  C  C0  1  0.90518000  0.04234200  0.13412300  1
  C  C1  1  0.90518000  0.05247800  0.63412300  1
  C  C2  1  0.09476000  0.95766300  0.86587600  1
  C  C3  1  0.09476000  0.94757600  0.36587600  1
  Ni  Ni4  1  0.96799800  0.68029100  0.06693500  1
  Ni  Ni5  1  0.00004500  0.66922600  0.75002400  1
  Ni  Ni6  1  0.03198400  0.64829800  0.43307600  1
  Ni  Ni7  1  0.96799800  0.35171100  0.56693500  1
  Ni  Ni8  1  0.03198400  0.31971800  0.93307600  1
  Ni  Ni9  1  0.00004500  0.33073000  0.25002400  1
  Cu  Cu10  1  0.90823600  0.72731500  0.08763900  1
  Cu  Cu11  1  0.11227400  0.61894500  0.82747300  1
  Cu  Cu12  1  0.99179300  0.64265100  0.46069100  1
  Cu  Cu13  1  0.90823600  0.36444900  0.58763900  1
  Cu  Cu14  1  0.99179300  0.36555600  0.96069100  1
  Cu  Cu15  1  0.11227400  0.26878100  0.32747300  1
  Cu  Cu16  1  0.09176100  0.27267300  0.91238000  1
  Cu  Cu17  1  0.88778600  0.38100700  0.17256100  1
  Cu  Cu18  1  0.00818300  0.35733100  0.53932200  1
  Cu  Cu19  1  0.09176100  0.63556600  0.41238000  1
  Cu  Cu20  1  0.00818300  0.63448800  0.03932200  1
  Cu  Cu21  1  0.88778600  0.73120700  0.67256100  1
