# generated using pymatgen
data_CuNi2C
_symmetry_space_group_name_H-M   'P 1'
_cell_length_a   4.54708200
_cell_length_b   6.00973961
_cell_length_c   8.45713100
_cell_angle_alpha   90.00000000
_cell_angle_beta   90.00000000
_cell_angle_gamma   112.22900240
_symmetry_Int_Tables_number   1
_chemical_formula_structural   CuNi2C
_chemical_formula_sum   'Cu2 Ni4 C2'
_cell_volume   213.93015610
_cell_formula_units_Z   2
loop_
 _symmetry_equiv_pos_site_id
 _symmetry_equiv_pos_as_xyz
  1  'x, y, z'
loop_
 _atom_site_type_symbol
 _atom_site_label
 _atom_site_symmetry_multiplicity
 _atom_site_fract_x
 _atom_site_fract_y
 _atom_site_fract_z
 _atom_site_occupancy
  C  C0  1  0.43487300  0.86974600  0.75000000  1
  C  C1  1  0.56512700  0.13025400  0.25000000  1
  Ni  Ni2  1  0.14765500  0.29531000  0.94912400  1
  Ni  Ni3  1  0.85234500  0.70469000  0.05087600  1
  Ni  Ni4  1  0.14765500  0.29531000  0.55087600  1
  Ni  Ni5  1  0.85234500  0.70469000  0.44912400  1
  Cu  Cu6  1  0.28076000  0.56152000  0.25000000  1
  Cu  Cu7  1  0.71924000  0.43848000  0.75000000  1
