# generated using pymatgen
data_Cu2NiC5
_symmetry_space_group_name_H-M   'P 1'
_cell_length_a   6.28604400
_cell_length_b   6.55691200
_cell_length_c   7.41774400
_cell_angle_alpha   90.00000000
_cell_angle_beta   90.00000000
_cell_angle_gamma   90.00000000
_symmetry_Int_Tables_number   1
_chemical_formula_structural   Cu2NiC5
_chemical_formula_sum   'Cu4 Ni2 C10'
_cell_volume   305.73743140
_cell_formula_units_Z   2
loop_
 _symmetry_equiv_pos_site_id
 _symmetry_equiv_pos_as_xyz
  1  'x, y, z'
loop_
 _atom_site_type_symbol
 _atom_site_label
 _atom_site_symmetry_multiplicity
 _atom_site_fract_x
 _atom_site_fract_y
 _atom_site_fract_z
 _atom_site_occupancy
  C  C0  1  0.52735200  0.83321000  0.50000000  1
  C  C1  1  0.02735200  0.16679000  0.00000000  1
  C  C2  1  0.48732900  0.34061000  0.24566600  1
  C  C3  1  0.48732900  0.34061000  0.75433400  1
  C  C4  1  0.98732900  0.65939000  0.25433400  1
  C  C5  1  0.98732900  0.65939000  0.74566600  1
  Ni  Ni6  1  0.01996000  0.18344500  0.50000000  1
  Ni  Ni7  1  0.51996000  0.81655500  0.00000000  1
  Cu  Cu8  1  0.65833800  0.18019600  0.50000000  1
  Cu  Cu9  1  0.15833800  0.81980400  0.00000000  1
  Cu  Cu10  1  0.13988700  0.85779800  0.50000000  1
  Cu  Cu11  1  0.63988700  0.14220200  0.00000000  1
  C  C12  1  0.12790300  0.33836200  0.26434800  1
  C  C13  1  0.12790300  0.33836200  0.73565200  1
  C  C14  1  0.62790300  0.66163800  0.23565200  1
  C  C15  1  0.62790300  0.66163800  0.76434800  1
