# generated using pymatgen
data_Cu6Ni2C
_symmetry_space_group_name_H-M   'P 1'
_cell_length_a   7.48471400
_cell_length_b   8.57399400
_cell_length_c   20.00188500
_cell_angle_alpha   90.00000000
_cell_angle_beta   90.00000000
_cell_angle_gamma   90.00000000
_symmetry_Int_Tables_number   1
_chemical_formula_structural   Cu6Ni2C
_chemical_formula_sum   'Cu48 Ni16 C8'
_cell_volume   1283.59882634
_cell_formula_units_Z   8
loop_
 _symmetry_equiv_pos_site_id
 _symmetry_equiv_pos_as_xyz
  1  'x, y, z'
loop_
 _atom_site_type_symbol
 _atom_site_label
 _atom_site_symmetry_multiplicity
 _atom_site_fract_x
 _atom_site_fract_y
 _atom_site_fract_z
 _atom_site_occupancy
  C  C0  1  0.52123400  0.51487700  0.85337200  1
  C  C1  1  0.47876600  0.48512300  0.35337200  1
  C  C2  1  0.52123400  0.98512300  0.35337200  1
  C  C3  1  0.47876600  0.01487700  0.85337200  1
  C  C4  1  0.99045100  0.53672200  0.65730700  1
  C  C5  1  0.00954900  0.46327800  0.15730700  1
  C  C6  1  0.99045100  0.96327800  0.15730700  1
  C  C7  1  0.00954900  0.03672200  0.65730700  1
  Ni  Ni8  1  0.81467600  0.82321000  0.50381500  1
  Ni  Ni9  1  0.18532400  0.17679000  0.00381500  1
  Ni  Ni10  1  0.81467600  0.67679000  0.00381500  1
  Ni  Ni11  1  0.18532400  0.32321000  0.50381500  1
  Ni  Ni12  1  0.31347600  0.73551300  0.50461400  1
  Ni  Ni13  1  0.68652400  0.26448700  0.00461400  1
  Ni  Ni14  1  0.31347600  0.76448700  0.00461400  1
  Ni  Ni15  1  0.68652400  0.23551300  0.50461400  1
  Ni  Ni16  1  0.96028300  0.81590800  0.83275600  1
  Ni  Ni17  1  0.03971700  0.18409200  0.33275600  1
  Ni  Ni18  1  0.96028300  0.68409200  0.33275600  1
  Ni  Ni19  1  0.03971700  0.31590800  0.83275600  1
  Ni  Ni20  1  0.52564100  0.75681000  0.69058400  1
  Ni  Ni21  1  0.47435900  0.24319000  0.19058400  1
  Ni  Ni22  1  0.52564100  0.74319000  0.19058400  1
  Ni  Ni23  1  0.47435900  0.25681000  0.69058400  1
  Cu  Cu24  1  0.72860900  0.64050600  0.46314700  1
  Cu  Cu25  1  0.27139100  0.35949400  0.96314700  1
  Cu  Cu26  1  0.72860900  0.85949400  0.96314700  1
  Cu  Cu27  1  0.27139100  0.14050600  0.46314700  1
  Cu  Cu28  1  0.60447200  0.93176600  0.48694000  1
  Cu  Cu29  1  0.39552800  0.06823400  0.98694000  1
  Cu  Cu30  1  0.60447200  0.56823400  0.98694000  1
  Cu  Cu31  1  0.39552800  0.43176600  0.48694000  1
  Cu  Cu32  1  0.78358800  0.78662100  0.59312100  1
  Cu  Cu33  1  0.21641200  0.21337900  0.09312100  1
  Cu  Cu34  1  0.78358800  0.71337900  0.09312100  1
  Cu  Cu35  1  0.21641200  0.28662100  0.59312100  1
  Cu  Cu36  1  0.10506600  0.62788400  0.52614600  1
  Cu  Cu37  1  0.89493400  0.37211600  0.02614600  1
  Cu  Cu38  1  0.10506600  0.87211600  0.02614600  1
  Cu  Cu39  1  0.89493400  0.12788400  0.52614600  1
  Cu  Cu40  1  0.20082300  0.92139900  0.53263100  1
  Cu  Cu41  1  0.79917700  0.07860100  0.03263100  1
  Cu  Cu42  1  0.20082300  0.57860100  0.03263100  1
  Cu  Cu43  1  0.79917700  0.42139900  0.53263100  1
  Cu  Cu44  1  0.28139400  0.75023500  0.41437200  1
  Cu  Cu45  1  0.71860600  0.24976500  0.91437200  1
  Cu  Cu46  1  0.28139400  0.74976500  0.91437200  1
  Cu  Cu47  1  0.71860600  0.25023500  0.41437200  1
  Cu  Cu48  1  0.08603500  0.77439700  0.75410900  1
  Cu  Cu49  1  0.91396500  0.22560300  0.25410900  1
  Cu  Cu50  1  0.08603500  0.72560300  0.25410900  1
  Cu  Cu51  1  0.91396500  0.27439700  0.75410900  1
  Cu  Cu52  1  0.88439800  0.62142900  0.85808200  1
  Cu  Cu53  1  0.11560200  0.37857100  0.35808200  1
  Cu  Cu54  1  0.88439800  0.87857100  0.35808200  1
  Cu  Cu55  1  0.11560200  0.12142900  0.85808200  1
  Cu  Cu56  1  0.76408700  0.88635400  0.78708200  1
  Cu  Cu57  1  0.23591300  0.11364600  0.28708200  1
  Cu  Cu58  1  0.76408700  0.61364600  0.28708200  1
  Cu  Cu59  1  0.23591300  0.38635400  0.78708200  1
  Cu  Cu60  1  0.34830100  0.69356700  0.63405000  1
  Cu  Cu61  1  0.65169900  0.30643300  0.13405000  1
  Cu  Cu62  1  0.34830100  0.80643300  0.13405000  1
  Cu  Cu63  1  0.65169900  0.19356700  0.63405000  1
  Cu  Cu64  1  0.39631500  0.75453300  0.77129600  1
  Cu  Cu65  1  0.60368500  0.24546700  0.27129600  1
  Cu  Cu66  1  0.39631500  0.74546700  0.27129600  1
  Cu  Cu67  1  0.60368500  0.25453300  0.77129600  1
  Cu  Cu68  1  0.64131000  0.57249500  0.70497600  1
  Cu  Cu69  1  0.35869000  0.42750500  0.20497600  1
  Cu  Cu70  1  0.64131000  0.92750500  0.20497600  1
  Cu  Cu71  1  0.35869000  0.07249500  0.70497600  1
