# generated using pymatgen
data_Cu(NiC2)2
_symmetry_space_group_name_H-M   'P 1'
_cell_length_a   3.38653136
_cell_length_b   3.38653136
_cell_length_c   13.23894000
_cell_angle_alpha   90.00000000
_cell_angle_beta   90.00000000
_cell_angle_gamma   119.99998743
_symmetry_Int_Tables_number   1
_chemical_formula_structural   Cu(NiC2)2
_chemical_formula_sum   'Cu1 Ni2 C4'
_cell_volume   131.49041710
_cell_formula_units_Z   1
loop_
 _symmetry_equiv_pos_site_id
 _symmetry_equiv_pos_as_xyz
  1  'x, y, z'
loop_
 _atom_site_type_symbol
 _atom_site_label
 _atom_site_symmetry_multiplicity
 _atom_site_fract_x
 _atom_site_fract_y
 _atom_site_fract_z
 _atom_site_occupancy
  Ni  Ni0  1  0.33333300  0.66666700  0.75191200  1
  Ni  Ni1  1  0.00000000  0.00000000  0.24860200  1
  Cu  Cu2  1  0.33333300  0.66666700  0.53439200  1
  C  C3  1  0.33333300  0.66666700  0.36747500  1
  C  C4  1  0.00000000  0.00000000  0.63019200  1
  C  C5  1  0.00000000  0.00000000  0.86714800  1
  C  C6  1  0.33333300  0.66666700  0.13427900  1
