# generated using pymatgen
data_Cu17Ni5C2
_symmetry_space_group_name_H-M   'P 1'
_cell_length_a   13.18861600
_cell_length_b   10.07443600
_cell_length_c   13.35947390
_cell_angle_alpha   52.63662464
_cell_angle_beta   90.00000000
_cell_angle_gamma   90.00000000
_symmetry_Int_Tables_number   1
_chemical_formula_structural   Cu17Ni5C2
_chemical_formula_sum   'Cu68 Ni20 C8'
_cell_volume   1410.81041923
_cell_formula_units_Z   4
loop_
 _symmetry_equiv_pos_site_id
 _symmetry_equiv_pos_as_xyz
  1  'x, y, z'
loop_
 _atom_site_type_symbol
 _atom_site_label
 _atom_site_symmetry_multiplicity
 _atom_site_fract_x
 _atom_site_fract_y
 _atom_site_fract_z
 _atom_site_occupancy
  C  C0  1  0.40442200  0.92762100  0.19783300  1
  C  C1  1  0.59557800  0.07237900  0.80216700  1
  C  C2  1  0.90442200  0.07237900  0.30216700  1
  C  C3  1  0.09557800  0.92762100  0.69783300  1
  C  C4  1  0.83636400  0.64764300  0.24730400  1
  C  C5  1  0.16363600  0.35235700  0.75269600  1
  C  C6  1  0.33636400  0.35235700  0.25269600  1
  C  C7  1  0.66363600  0.64764300  0.74730400  1
  Ni  Ni8  1  0.44990500  0.68819500  0.10060800  1
  Ni  Ni9  1  0.55009500  0.31180500  0.89939200  1
  Ni  Ni10  1  0.94990500  0.31180500  0.39939200  1
  Ni  Ni11  1  0.05009500  0.68819500  0.60060800  1
  Ni  Ni12  1  0.73745200  0.42829700  0.01936700  1
  Ni  Ni13  1  0.26254800  0.57170300  0.98063300  1
  Ni  Ni14  1  0.23745200  0.57170300  0.48063300  1
  Ni  Ni15  1  0.76254800  0.42829700  0.51936700  1
  Ni  Ni16  1  0.68209800  0.99356500  0.48780200  1
  Ni  Ni17  1  0.31790200  0.00643500  0.51219800  1
  Ni  Ni18  1  0.18209800  0.00643500  0.01219800  1
  Ni  Ni19  1  0.81790200  0.99356500  0.98780200  1
  Ni  Ni20  1  0.67819000  0.86184600  0.25999300  1
  Ni  Ni21  1  0.32181000  0.13815400  0.74000700  1
  Ni  Ni22  1  0.17819000  0.13815400  0.24000700  1
  Ni  Ni23  1  0.82181000  0.86184600  0.75999300  1
  Ni  Ni24  1  0.97623100  0.66727800  0.05557300  1
  Ni  Ni25  1  0.02376900  0.33272200  0.94442700  1
  Ni  Ni26  1  0.47623100  0.33272200  0.44442700  1
  Ni  Ni27  1  0.52376900  0.66727800  0.55557300  1
  Cu  Cu28  1  0.65313300  0.72716000  0.27573100  1
  Cu  Cu29  1  0.34686700  0.27284000  0.72426900  1
  Cu  Cu30  1  0.15313300  0.27284000  0.22426900  1
  Cu  Cu31  1  0.84686700  0.72716000  0.77573100  1
  Cu  Cu32  1  0.74133100  0.89334400  0.03994400  1
  Cu  Cu33  1  0.25866900  0.10665600  0.96005600  1
  Cu  Cu34  1  0.24133100  0.10665600  0.46005600  1
  Cu  Cu35  1  0.75866900  0.89334400  0.53994400  1
  Cu  Cu36  1  0.74953900  0.38902600  0.44455900  1
  Cu  Cu37  1  0.25046100  0.61097400  0.55544100  1
  Cu  Cu38  1  0.24953900  0.61097400  0.05544100  1
  Cu  Cu39  1  0.75046100  0.38902600  0.94455900  1
  Cu  Cu40  1  0.48844700  0.82895400  0.03820200  1
  Cu  Cu41  1  0.51155300  0.17104600  0.96179800  1
  Cu  Cu42  1  0.98844700  0.17104600  0.46179800  1
  Cu  Cu43  1  0.01155300  0.82895400  0.53820200  1
  Cu  Cu44  1  0.77444900  0.89155400  0.25240700  1
  Cu  Cu45  1  0.22555100  0.10844600  0.74759300  1
  Cu  Cu46  1  0.27444900  0.10844600  0.24759300  1
  Cu  Cu47  1  0.72555100  0.89155400  0.75240700  1
  Cu  Cu48  1  0.69070300  0.54388300  0.18813900  1
  Cu  Cu49  1  0.30929700  0.45611700  0.81186100  1
  Cu  Cu50  1  0.19070300  0.45611700  0.31186100  1
  Cu  Cu51  1  0.80929700  0.54388300  0.68813900  1
  Cu  Cu52  1  0.97230700  0.32131900  0.02589200  1
  Cu  Cu53  1  0.02769300  0.67868100  0.97410800  1
  Cu  Cu54  1  0.47230700  0.67868100  0.47410800  1
  Cu  Cu55  1  0.52769300  0.32131900  0.52589200  1
  Cu  Cu56  1  0.89306500  0.36236200  0.30345400  1
  Cu  Cu57  1  0.10693500  0.63763800  0.69654600  1
  Cu  Cu58  1  0.39306500  0.63763800  0.19654600  1
  Cu  Cu59  1  0.60693500  0.36236200  0.80345400  1
  Cu  Cu60  1  0.61520400  0.95872300  0.25070300  1
  Cu  Cu61  1  0.38479600  0.04127700  0.74929700  1
  Cu  Cu62  1  0.11520400  0.04127700  0.24929700  1
  Cu  Cu63  1  0.88479600  0.95872300  0.75070300  1
  Cu  Cu64  1  0.80767500  0.56738300  0.47230300  1
  Cu  Cu65  1  0.19232500  0.43261700  0.52769700  1
  Cu  Cu66  1  0.30767500  0.43261700  0.02769700  1
  Cu  Cu67  1  0.69232500  0.56738300  0.97230300  1
  Cu  Cu68  1  0.46271600  0.58673100  0.07472800  1
  Cu  Cu69  1  0.53728400  0.41326900  0.92527200  1
  Cu  Cu70  1  0.96271600  0.41326900  0.42527200  1
  Cu  Cu71  1  0.03728400  0.58673100  0.57472800  1
  Cu  Cu72  1  0.96675000  0.75676300  0.29737100  1
  Cu  Cu73  1  0.03325000  0.24323700  0.70262900  1
  Cu  Cu74  1  0.46675000  0.24323700  0.20262900  1
  Cu  Cu75  1  0.53325000  0.75676300  0.79737100  1
  Cu  Cu76  1  0.87822000  0.67397000  0.04946700  1
  Cu  Cu77  1  0.12178000  0.32603000  0.95053300  1
  Cu  Cu78  1  0.37822000  0.32603000  0.45053300  1
  Cu  Cu79  1  0.62178000  0.67397000  0.54946700  1
  Cu  Cu80  1  0.89824000  0.95028100  0.05572900  1
  Cu  Cu81  1  0.10176000  0.04971900  0.94427100  1
  Cu  Cu82  1  0.39824000  0.04971900  0.44427100  1
  Cu  Cu83  1  0.60176000  0.95028100  0.55572900  1
  Cu  Cu84  1  0.51523000  0.35157100  0.34872800  1
  Cu  Cu85  1  0.48477000  0.64842900  0.65127200  1
  Cu  Cu86  1  0.01523000  0.64842900  0.15127200  1
  Cu  Cu87  1  0.98477000  0.35157100  0.84872800  1
  Cu  Cu88  1  0.76640300  0.33723300  0.12971600  1
  Cu  Cu89  1  0.23359700  0.66276700  0.87028400  1
  Cu  Cu90  1  0.26640300  0.66276700  0.37028400  1
  Cu  Cu91  1  0.73359700  0.33723300  0.62971600  1
  Cu  Cu92  1  0.18602100  0.87863100  0.12090900  1
  Cu  Cu93  1  0.81397900  0.12136900  0.87909100  1
  Cu  Cu94  1  0.68602100  0.12136900  0.37909100  1
  Cu  Cu95  1  0.31397900  0.87863100  0.62090900  1
