# generated using pymatgen
data_Cu13(NiC3)4
_symmetry_space_group_name_H-M   'P 1'
_cell_length_a   11.51839900
_cell_length_b   6.76698400
_cell_length_c   8.04980540
_cell_angle_alpha   84.87087810
_cell_angle_beta   90.00000000
_cell_angle_gamma   90.00000000
_symmetry_Int_Tables_number   1
_chemical_formula_structural   Cu13(NiC3)4
_chemical_formula_sum   'Cu26 Ni8 C24'
_cell_volume   624.92822032
_cell_formula_units_Z   2
loop_
 _symmetry_equiv_pos_site_id
 _symmetry_equiv_pos_as_xyz
  1  'x, y, z'
loop_
 _atom_site_type_symbol
 _atom_site_label
 _atom_site_symmetry_multiplicity
 _atom_site_fract_x
 _atom_site_fract_y
 _atom_site_fract_z
 _atom_site_occupancy
  C  C0  1  0.25000000  0.95329500  0.71666200  1
  C  C1  1  0.75000000  0.04670500  0.28333800  1
  C  C2  1  0.75000000  0.34218200  0.77597100  1
  C  C3  1  0.25000000  0.65781800  0.22402900  1
  C  C4  1  0.67886300  0.66129500  0.56884900  1
  C  C5  1  0.17886300  0.33870500  0.43115100  1
  C  C6  1  0.32113700  0.33870500  0.43115100  1
  C  C7  1  0.82113700  0.66129500  0.56884900  1
  C  C8  1  0.67770000  0.96626300  0.86844800  1
  C  C9  1  0.17770000  0.03373700  0.13155200  1
  C  C10  1  0.32230000  0.03373700  0.13155200  1
  C  C11  1  0.82230000  0.96626300  0.86844800  1
  C  C12  1  0.68126900  0.53005300  0.05803400  1
  C  C13  1  0.18126900  0.46994700  0.94196600  1
  C  C14  1  0.31873100  0.46994700  0.94196600  1
  C  C15  1  0.81873100  0.53005300  0.05803400  1
  C  C16  1  0.53625900  0.82655800  0.72455700  1
  C  C17  1  0.03625900  0.17344200  0.27544300  1
  C  C18  1  0.46374100  0.17344200  0.27544300  1
  C  C19  1  0.96374100  0.82655800  0.72455700  1
  C  C20  1  0.52193200  0.76083600  0.91630500  1
  C  C21  1  0.02193200  0.23916400  0.08369500  1
  C  C22  1  0.47806800  0.23916400  0.08369500  1
  C  C23  1  0.97806800  0.76083600  0.91630500  1
  Ni  Ni24  1  0.49054700  0.34076500  0.75873100  1
  Ni  Ni25  1  0.99054700  0.65923500  0.24126900  1
  Ni  Ni26  1  0.50945300  0.65923500  0.24126900  1
  Ni  Ni27  1  0.00945300  0.34076500  0.75873100  1
  Ni  Ni28  1  0.53039600  0.27316600  0.59223000  1
  Ni  Ni29  1  0.03039600  0.72683400  0.40777000  1
  Ni  Ni30  1  0.46960400  0.72683400  0.40777000  1
  Ni  Ni31  1  0.96960400  0.27316600  0.59223000  1
  Cu  Cu32  1  0.75000000  0.61706100  0.63258400  1
  Cu  Cu33  1  0.25000000  0.38293900  0.36741600  1
  Cu  Cu34  1  0.75000000  0.04726400  0.88271400  1
  Cu  Cu35  1  0.25000000  0.95273600  0.11728600  1
  Cu  Cu36  1  0.75000000  0.47208400  0.00272700  1
  Cu  Cu37  1  0.25000000  0.52791600  0.99727300  1
  Cu  Cu38  1  0.57611800  0.37763000  0.85476500  1
  Cu  Cu39  1  0.07611800  0.62237000  0.14523500  1
  Cu  Cu40  1  0.42388200  0.62237000  0.14523500  1
  Cu  Cu41  1  0.92388200  0.37763000  0.85476500  1
  Cu  Cu42  1  0.64062800  0.25052800  0.58279600  1
  Cu  Cu43  1  0.14062800  0.74947200  0.41720400  1
  Cu  Cu44  1  0.35937200  0.74947200  0.41720400  1
  Cu  Cu45  1  0.85937200  0.25052800  0.58279600  1
  Cu  Cu46  1  0.38504500  0.35383100  0.79257400  1
  Cu  Cu47  1  0.88504500  0.64616900  0.20742600  1
  Cu  Cu48  1  0.61495500  0.64616900  0.20742600  1
  Cu  Cu49  1  0.11495500  0.35383100  0.79257400  1
  Cu  Cu50  1  0.45829100  0.24436000  0.47845700  1
  Cu  Cu51  1  0.95829100  0.75564000  0.52154300  1
  Cu  Cu52  1  0.54170900  0.75564000  0.52154300  1
  Cu  Cu53  1  0.04170900  0.24436000  0.47845700  1
  Cu  Cu54  1  0.54188800  0.87441500  0.83758500  1
  Cu  Cu55  1  0.04188800  0.12558500  0.16241500  1
  Cu  Cu56  1  0.45811200  0.12558500  0.16241500  1
  Cu  Cu57  1  0.95811200  0.87441500  0.83758500  1
