# generated using pymatgen
data_Cu2NiC7
_symmetry_space_group_name_H-M   'P 1'
_cell_length_a   7.56481500
_cell_length_b   22.69408000
_cell_length_c   7.33274915
_cell_angle_alpha   90.00000000
_cell_angle_beta   95.27527899
_cell_angle_gamma   90.00000000
_symmetry_Int_Tables_number   1
_chemical_formula_structural   Cu2NiC7
_chemical_formula_sum   'Cu16 Ni8 C56'
_cell_volume   1253.52887759
_cell_formula_units_Z   8
loop_
 _symmetry_equiv_pos_site_id
 _symmetry_equiv_pos_as_xyz
  1  'x, y, z'
loop_
 _atom_site_type_symbol
 _atom_site_label
 _atom_site_symmetry_multiplicity
 _atom_site_fract_x
 _atom_site_fract_y
 _atom_site_fract_z
 _atom_site_occupancy
  C  C0  1  0.40379700  0.93718500  0.91507700  1
  C  C1  1  0.59620300  0.43718500  0.58492300  1
  C  C2  1  0.59620300  0.06281500  0.08492300  1
  C  C3  1  0.40379700  0.56281500  0.41507700  1
  C  C4  1  0.85423800  0.82168400  0.69553400  1
  C  C5  1  0.14576200  0.32168400  0.80446600  1
  C  C6  1  0.14576200  0.17831600  0.30446600  1
  C  C7  1  0.85423800  0.67831600  0.19553400  1
  C  C8  1  0.75667400  0.81114200  0.87316800  1
  C  C9  1  0.24332600  0.31114200  0.62683200  1
  C  C10  1  0.24332600  0.18885800  0.12683200  1
  C  C11  1  0.75667400  0.68885800  0.37316800  1
  C  C12  1  0.01725600  0.59817400  0.04711300  1
  C  C13  1  0.98274400  0.09817400  0.45288700  1
  C  C14  1  0.98274400  0.40182600  0.95288700  1
  C  C15  1  0.01725600  0.90182600  0.54711300  1
  C  C16  1  0.85534700  0.61496600  0.90512900  1
  C  C17  1  0.14465300  0.11496600  0.59487100  1
  C  C18  1  0.14465300  0.38503400  0.09487100  1
  C  C19  1  0.85534700  0.88503400  0.40512900  1
  C  C20  1  0.03596400  0.68920300  0.94267400  1
  C  C21  1  0.96403600  0.18920300  0.55732600  1
  C  C22  1  0.96403600  0.31079700  0.05732600  1
  C  C23  1  0.03596400  0.81079700  0.44267400  1
  C  C24  1  0.97714200  0.75816600  0.86502100  1
  C  C25  1  0.02285800  0.25816600  0.63497900  1
  C  C26  1  0.02285800  0.24183400  0.13497900  1
  C  C27  1  0.97714200  0.74183400  0.36502100  1
  C  C28  1  0.42696100  0.71259400  0.74182100  1
  C  C29  1  0.57303900  0.21259400  0.75817900  1
  C  C30  1  0.57303900  0.28740600  0.25817900  1
  C  C31  1  0.42696100  0.78740600  0.24182100  1
  C  C32  1  0.40828500  0.78089700  0.77481300  1
  C  C33  1  0.59171500  0.28089700  0.72518700  1
  C  C34  1  0.59171500  0.21910300  0.22518700  1
  C  C35  1  0.40828500  0.71910300  0.27481300  1
  C  C36  1  0.20209300  0.73509800  0.87647200  1
  C  C37  1  0.79790700  0.23509800  0.62352800  1
  C  C38  1  0.79790700  0.26490200  0.12352800  1
  C  C39  1  0.20209300  0.76490200  0.37647200  1
  Ni  Ni40  1  0.44845300  0.97769100  0.23655900  1
  Ni  Ni41  1  0.55154700  0.47769100  0.26344100  1
  Ni  Ni42  1  0.55154700  0.02230900  0.76344100  1
  Ni  Ni43  1  0.44845300  0.52230900  0.73655900  1
  Ni  Ni44  1  0.27761600  0.02506900  0.07343100  1
  Ni  Ni45  1  0.72238400  0.52506900  0.42656900  1
  Ni  Ni46  1  0.72238400  0.97493100  0.92656900  1
  Ni  Ni47  1  0.27761600  0.47493100  0.57343100  1
  Cu  Cu48  1  0.16073300  0.97563500  0.67861800  1
  Cu  Cu49  1  0.83926700  0.47563500  0.82138200  1
  Cu  Cu50  1  0.83926700  0.02436500  0.32138200  1
  Cu  Cu51  1  0.16073300  0.52436500  0.17861800  1
  Cu  Cu52  1  0.46477000  0.87540900  0.66249900  1
  Cu  Cu53  1  0.53523000  0.37540900  0.83750100  1
  Cu  Cu54  1  0.53523000  0.12459100  0.33750100  1
  Cu  Cu55  1  0.46477000  0.62459100  0.16249900  1
  Cu  Cu56  1  0.59397700  0.85718000  0.09413400  1
  Cu  Cu57  1  0.40602300  0.35718000  0.40586600  1
  Cu  Cu58  1  0.40602300  0.14282000  0.90586600  1
  Cu  Cu59  1  0.59397700  0.64282000  0.59413400  1
  Cu  Cu60  1  0.16454300  0.88090500  0.01355500  1
  Cu  Cu61  1  0.83545700  0.38090500  0.48644500  1
  Cu  Cu62  1  0.83545700  0.11909500  0.98644500  1
  Cu  Cu63  1  0.16454300  0.61909500  0.51355500  1
  C  C64  1  0.82534500  0.79116800  0.78326000  1
  C  C65  1  0.17465500  0.29116800  0.71674000  1
  C  C66  1  0.17465500  0.20883200  0.21674000  1
  C  C67  1  0.82534500  0.70883200  0.28326000  1
  C  C68  1  0.93954400  0.63126200  0.00140600  1
  C  C69  1  0.06045600  0.13126200  0.49859400  1
  C  C70  1  0.06045600  0.36873800  0.99859400  1
  C  C71  1  0.93954400  0.86873800  0.50140600  1
  C  C72  1  0.07838400  0.73141500  0.93019800  1
  C  C73  1  0.92161600  0.23141500  0.56980200  1
  C  C74  1  0.92161600  0.26858500  0.06980200  1
  C  C75  1  0.07838400  0.76858500  0.43019800  1
  C  C76  1  0.38303900  0.74203200  0.82535100  1
  C  C77  1  0.61696100  0.24203200  0.67464900  1
  C  C78  1  0.61696100  0.25796800  0.17464900  1
  C  C79  1  0.38303900  0.75796800  0.32535200  1
