# generated using pymatgen
data_Cu6Ni4C
_symmetry_space_group_name_H-M   'P 1'
_cell_length_a   8.26395048
_cell_length_b   8.26395089
_cell_length_c   8.26395118
_cell_angle_alpha   88.67468655
_cell_angle_beta   88.67468089
_cell_angle_gamma   88.67468518
_symmetry_Int_Tables_number   1
_chemical_formula_structural   Cu6Ni4C
_chemical_formula_sum   'Cu18 Ni12 C3'
_cell_volume   563.92297375
_cell_formula_units_Z   3
loop_
 _symmetry_equiv_pos_site_id
 _symmetry_equiv_pos_as_xyz
  1  'x, y, z'
loop_
 _atom_site_type_symbol
 _atom_site_label
 _atom_site_symmetry_multiplicity
 _atom_site_fract_x
 _atom_site_fract_y
 _atom_site_fract_z
 _atom_site_occupancy
  C  C0  1  0.00014700  0.00016400  0.49972700  1
  C  C1  1  0.00016400  0.49972700  0.00014700  1
  C  C2  1  0.49972700  0.00014700  0.00016400  1
  Ni  Ni3  1  0.38024100  0.00708400  0.45878900  1
  Ni  Ni4  1  0.00708400  0.45878900  0.38024100  1
  Ni  Ni5  1  0.45878900  0.38024100  0.00708400  1
  Ni  Ni6  1  0.61976000  0.99306800  0.54127800  1
  Ni  Ni7  1  0.99306800  0.54127800  0.61976000  1
  Ni  Ni8  1  0.54127800  0.61976000  0.99306800  1
  Ni  Ni9  1  0.00468700  0.37911400  0.54386200  1
  Ni  Ni10  1  0.37911400  0.54386200  0.00468700  1
  Ni  Ni11  1  0.54386200  0.00468700  0.37911400  1
  Ni  Ni12  1  0.99540000  0.62099000  0.45603900  1
  Ni  Ni13  1  0.62099000  0.45603900  0.99540000  1
  Ni  Ni14  1  0.45603900  0.99540000  0.62099000  1
  Cu  Cu15  1  0.07238400  0.91916400  0.67346400  1
  Cu  Cu16  1  0.91916400  0.67346400  0.07238400  1
  Cu  Cu17  1  0.67346400  0.07238400  0.91916400  1
  Cu  Cu18  1  0.92763000  0.08087200  0.32593200  1
  Cu  Cu19  1  0.08087200  0.32593200  0.92763000  1
  Cu  Cu20  1  0.32593200  0.92763000  0.08087200  1
  Cu  Cu21  1  0.24219100  0.01693200  0.40387600  1
  Cu  Cu22  1  0.01693200  0.40387600  0.24219100  1
  Cu  Cu23  1  0.40387600  0.24219100  0.01693200  1
  Cu  Cu24  1  0.75787500  0.98338600  0.59597600  1
  Cu  Cu25  1  0.98338600  0.59597600  0.75787500  1
  Cu  Cu26  1  0.59597600  0.75787500  0.98338600  1
  Cu  Cu27  1  0.01074900  0.23895500  0.59971600  1
  Cu  Cu28  1  0.23895500  0.59971600  0.01074900  1
  Cu  Cu29  1  0.59971600  0.01074900  0.23895500  1
  Cu  Cu30  1  0.98928900  0.76109300  0.40006200  1
  Cu  Cu31  1  0.76109300  0.40006200  0.98928900  1
  Cu  Cu32  1  0.40006200  0.98928900  0.76109300  1
