# generated using pymatgen
data_Cu2Ni
_symmetry_space_group_name_H-M   'P 1'
_cell_length_a   9.71250500
_cell_length_b   9.71250500
_cell_length_c   5.00467700
_cell_angle_alpha   90.00000000
_cell_angle_beta   90.00000000
_cell_angle_gamma   90.00000000
_symmetry_Int_Tables_number   1
_chemical_formula_structural   Cu2Ni
_chemical_formula_sum   'Cu20 Ni10'
_cell_volume   472.10496116
_cell_formula_units_Z   10
loop_
 _symmetry_equiv_pos_site_id
 _symmetry_equiv_pos_as_xyz
  1  'x, y, z'
loop_
 _atom_site_type_symbol
 _atom_site_label
 _atom_site_symmetry_multiplicity
 _atom_site_fract_x
 _atom_site_fract_y
 _atom_site_fract_z
 _atom_site_occupancy
  Ni  Ni0  1  0.50000000  0.50000000  0.50000000  1
  Ni  Ni1  1  0.00000000  0.00000000  0.00000000  1
  Ni  Ni2  1  0.43138600  0.23608900  0.50000000  1
  Ni  Ni3  1  0.56861400  0.76391100  0.50000000  1
  Ni  Ni4  1  0.06861400  0.73608900  0.00000000  1
  Ni  Ni5  1  0.93138600  0.26391100  0.00000000  1
  Ni  Ni6  1  0.23608900  0.43138600  0.50000000  1
  Ni  Ni7  1  0.76391100  0.56861400  0.50000000  1
  Ni  Ni8  1  0.73608900  0.06861400  0.00000000  1
  Ni  Ni9  1  0.26391100  0.93138600  0.00000000  1
  Cu  Cu10  1  0.10362600  0.89637400  0.50000000  1
  Cu  Cu11  1  0.89637400  0.10362600  0.50000000  1
  Cu  Cu12  1  0.39637400  0.39637400  0.00000000  1
  Cu  Cu13  1  0.60362600  0.60362600  0.00000000  1
  Cu  Cu14  1  0.36901800  0.96268800  0.50000000  1
  Cu  Cu15  1  0.63098200  0.03731200  0.50000000  1
  Cu  Cu16  1  0.13098200  0.46268800  0.00000000  1
  Cu  Cu17  1  0.86901800  0.53731200  0.00000000  1
  Cu  Cu18  1  0.96268800  0.36901800  0.50000000  1
  Cu  Cu19  1  0.03731200  0.63098200  0.50000000  1
  Cu  Cu20  1  0.46268800  0.13098200  0.00000000  1
  Cu  Cu21  1  0.53731200  0.86901800  0.00000000  1
  Cu  Cu22  1  0.31934900  0.68065100  0.24980100  1
  Cu  Cu23  1  0.68065100  0.31934900  0.24980100  1
  Cu  Cu24  1  0.18065100  0.18065100  0.74980100  1
  Cu  Cu25  1  0.81934900  0.81934900  0.74980100  1
  Cu  Cu26  1  0.68065100  0.31934900  0.75019900  1
  Cu  Cu27  1  0.31934900  0.68065100  0.75019900  1
  Cu  Cu28  1  0.81934900  0.81934900  0.25019900  1
  Cu  Cu29  1  0.18065100  0.18065100  0.25019900  1
