# generated using pymatgen
data_Cu5Ni7C30
_symmetry_space_group_name_H-M   'P 1'
_cell_length_a   12.78023803
_cell_length_b   12.45065104
_cell_length_c   12.55601501
_cell_angle_alpha   89.81855587
_cell_angle_beta   89.65777434
_cell_angle_gamma   88.31662309
_symmetry_Int_Tables_number   1
_chemical_formula_structural   Cu5Ni7C30
_chemical_formula_sum   'Cu10 Ni14 C60'
_cell_volume   1997.03495718
_cell_formula_units_Z   2
loop_
 _symmetry_equiv_pos_site_id
 _symmetry_equiv_pos_as_xyz
  1  'x, y, z'
loop_
 _atom_site_type_symbol
 _atom_site_label
 _atom_site_symmetry_multiplicity
 _atom_site_fract_x
 _atom_site_fract_y
 _atom_site_fract_z
 _atom_site_occupancy
  C  C0  1  0.21936139  0.20613886  0.79031187  1
  C  C1  1  0.41129366  0.44927437  0.00538308  1
  Ni  Ni2  1  0.01319902  0.63484610  0.19171894  1
  Ni  Ni3  1  0.00563877  0.83188807  0.37670757  1
  Ni  Ni4  1  0.02102306  0.63764504  0.81419089  1
  Ni  Ni5  1  0.37734752  0.18563330  0.00668100  1
  Ni  Ni6  1  0.37717684  0.99412847  0.81623919  1
  Ni  Ni7  1  0.37928207  0.81104818  0.01001318  1
  Ni  Ni8  1  0.62026933  0.01221802  0.19506066  1
  Ni  Ni9  1  0.61505821  0.21025055  0.00092414  1
  Ni  Ni10  1  0.62130307  0.01682313  0.81535497  1
  Ni  Ni11  1  0.63283554  0.83394350  0.01032717  1
  Ni  Ni12  1  0.82188390  0.02225641  0.37422525  1
  Ni  Ni13  1  0.82672643  0.01789003  0.62801636  1
  Ni  Ni14  1  0.82644037  0.37972281  0.00785854  1
  Ni  Ni15  1  0.83838155  0.64027906  0.00471801  1
  C  C16  1  0.27369820  0.25018761  0.26813188  1
  C  C17  1  0.61003421  0.58782268  0.04498141  1
  C  C18  1  0.58090074  0.05765065  0.56015672  1
  C  C19  1  0.65558610  0.25315603  0.26193306  1
  C  C20  1  0.14405656  0.87354117  0.86970874  1
  C  C21  1  0.13067651  0.86063179  0.15328395  1
  C  C22  1  0.86416867  0.13051287  0.13279488  1
  C  C23  1  0.82571897  0.14344173  0.86240990  1
  C  C24  1  0.86007565  0.86539288  0.14604083  1
  C  C25  1  0.85486072  0.86617089  0.86348408  1
  Cu  Cu26  1  0.01338798  0.20063402  0.38049298  1
  Cu  Cu27  1  0.00713079  0.38051253  0.19254351  1
  Cu  Cu28  1  0.00691418  0.20012770  0.62563394  1
  Cu  Cu29  1  0.00367012  0.38058723  0.81778479  1
  Cu  Cu30  1  0.01101419  0.82915071  0.62704800  1
  Cu  Cu31  1  0.18750772  0.01052981  0.62331508  1
  Cu  Cu32  1  0.19523266  0.62930657  0.99970905  1
  Cu  Cu33  1  0.19109792  0.01577913  0.38038274  1
  Cu  Cu34  1  0.17358965  0.37265309  0.00390633  1
  Cu  Cu35  1  0.37508261  0.00134299  0.19421703  1
  C  C36  1  0.02431188  0.29865685  0.29489952  1
  C  C37  1  0.02683534  0.29367981  0.71732040  1
  C  C38  1  0.01143879  0.78722617  0.50719203  1
  C  C39  1  0.02256327  0.49999576  0.77790571  1
  C  C40  1  0.02885985  0.73420562  0.71353137  1
  C  C41  1  0.11794153  0.12637697  0.64121116  1
  C  C42  1  0.12272966  0.64570734  0.10293904  1
  C  C43  1  0.12926303  0.13544278  0.36675523  1
  C  C44  1  0.11503884  0.35304488  0.11622358  1
  C  C45  1  0.13965158  0.66071816  0.88761439  1
  C  C46  1  0.11578005  0.90863942  0.64505604  1
  C  C47  1  0.10808256  0.34185138  0.89635094  1
  C  C48  1  0.11347155  0.92171784  0.35607908  1
  C  C49  1  0.23727719  0.01280772  0.50303167  1
  C  C50  1  0.22380704  0.49334256  0.99335182  1
  C  C51  1  0.30909934  0.68392296  0.01229013  1
  C  C52  1  0.27485325  0.02310509  0.71570309  1
  C  C53  1  0.28907554  0.02020711  0.29618427  1
  C  C54  1  0.27946464  0.29654370  0.99685564  1
  C  C55  1  0.35221362  0.11531894  0.12559553  1
  C  C56  1  0.34966414  0.11566513  0.89087709  1
  C  C57  1  0.34553629  0.89608443  0.12447117  1
  C  C58  1  0.33910081  0.88322818  0.89360572  1
  C  C59  1  0.49066683  0.99962415  0.24520924  1
  C  C60  1  0.48506366  0.27364430  0.00504800  1
  C  C61  1  0.51051044  0.77373881  0.01341911  1
  C  C62  1  0.49882585  -0.00007322  0.75586228  1
  C  C63  1  0.61502108  0.13064196  0.11651112  1
  C  C64  1  0.63167989  0.14213248  0.88117766  1
  C  C65  1  0.66535922  0.89661293  0.13100378  1
  C  C66  1  0.66081666  0.91213189  0.89946801  1
  C  C67  1  0.72024836  0.71949946  0.00315006  1
  C  C68  1  0.71871998  0.02809702  0.71390860  1
  C  C69  1  0.71833037  0.05727030  0.28560796  1
  C  C70  1  0.72223366  0.29350994  0.01914117  1
  C  C71  1  0.78533510  0.51238183  0.00910878  1
  C  C72  1  0.77238762  0.02719249  0.50260617  1
  C  C73  1  0.90570383  0.13339099  0.65225356  1
  C  C74  1  0.89880833  0.67169341  0.12460845  1
  C  C75  1  0.91468806  0.12946589  0.35323041  1
  C  C76  1  0.90874816  0.34648256  0.12046938  1
  C  C77  1  0.90085090  0.35396024  0.88638351  1
  C  C78  1  0.91223797  0.66860145  0.89205107  1
  C  C79  1  0.88965882  0.90264496  0.34104345  1
  C  C80  1  0.90810825  0.90467626  0.65617905  1
  C  C81  1  0.01018933  0.24818040  0.50380803  1
  C  C82  1  0.01041749  0.50066093  0.23408302  1
  C  C83  1  0.03900250  0.73493278  0.28253383  1
