# generated using pymatgen
data_CuNiC11
_symmetry_space_group_name_H-M   'P 1'
_cell_length_a   6.31003100
_cell_length_b   10.28391400
_cell_length_c   10.99559400
_cell_angle_alpha   90.00000000
_cell_angle_beta   90.00000000
_cell_angle_gamma   90.00000000
_symmetry_Int_Tables_number   1
_chemical_formula_structural   CuNiC11
_chemical_formula_sum   'Cu4 Ni4 C44'
_cell_volume   713.52406421
_cell_formula_units_Z   4
loop_
 _symmetry_equiv_pos_site_id
 _symmetry_equiv_pos_as_xyz
  1  'x, y, z'
loop_
 _atom_site_type_symbol
 _atom_site_label
 _atom_site_symmetry_multiplicity
 _atom_site_fract_x
 _atom_site_fract_y
 _atom_site_fract_z
 _atom_site_occupancy
  Ni  Ni0  1  0.49339400  0.50244400  0.83617400  1
  Ni  Ni1  1  0.50660600  0.00244400  0.16382600  1
  Ni  Ni2  1  0.99339400  0.00244400  0.66382600  1
  Ni  Ni3  1  0.00660600  0.50244400  0.33617400  1
  Cu  Cu4  1  0.50280400  0.12733200  0.83008600  1
  Cu  Cu5  1  0.49719600  0.62733200  0.16991400  1
  Cu  Cu6  1  0.00280400  0.62733200  0.66991400  1
  Cu  Cu7  1  0.99719600  0.12733200  0.33008600  1
  C  C8  1  0.50048000  0.06081500  0.50068300  1
  C  C9  1  0.49952000  0.56081500  0.49931700  1
  C  C10  1  0.00048000  0.56081500  0.99931700  1
  C  C11  1  0.99952000  0.06081500  0.00068300  1
  C  C12  1  0.75768200  0.32007900  0.58299600  1
  C  C13  1  0.24231800  0.82007900  0.41700400  1
  C  C14  1  0.25768200  0.82007900  0.91700400  1
  C  C15  1  0.74231800  0.32007900  0.08299600  1
  C  C16  1  0.75473000  0.81538900  0.41090100  1
  C  C17  1  0.24527000  0.31538900  0.58909900  1
  C  C18  1  0.25473000  0.31538900  0.08909900  1
  C  C19  1  0.74527000  0.81538900  0.91090100  1
  C  C20  1  0.50148000  0.31720000  0.32729100  1
  C  C21  1  0.49852000  0.81720000  0.67270900  1
  C  C22  1  0.00148000  0.81720000  0.17270900  1
  C  C23  1  0.99852000  0.31720000  0.82729100  1
  C  C24  1  0.27519000  0.22120800  0.24435600  1
  C  C25  1  0.72481000  0.72120800  0.75564400  1
  C  C26  1  0.77519000  0.72120800  0.25564400  1
  C  C27  1  0.22481000  0.22120800  0.74435600  1
  C  C28  1  0.21883100  0.77896800  0.75270600  1
  C  C29  1  0.78116900  0.27896800  0.24729400  1
  C  C30  1  0.71883100  0.27896800  0.74729400  1
  C  C31  1  0.28116900  0.77896800  0.25270600  1
  C  C32  1  0.48985700  0.75927300  0.00639200  1
  C  C33  1  0.51014300  0.25927300  0.99360800  1
  C  C34  1  0.98985700  0.25927300  0.49360800  1
  C  C35  1  0.01014300  0.75927300  0.50639200  1
  C  C36  1  0.49300900  0.75653600  0.49892000  1
  C  C37  1  0.50699100  0.25653600  0.50108000  1
  C  C38  1  0.99300900  0.25653600  0.00108000  1
  C  C39  1  0.00699100  0.75653600  0.99892000  1
  C  C40  1  0.73619500  0.00525400  0.39963300  1
  C  C41  1  0.26380500  0.50525400  0.60036700  1
  C  C42  1  0.23619500  0.50525400  0.10036700  1
  C  C43  1  0.76380500  0.00525400  0.89963300  1
  C  C44  1  0.45429000  0.50454600  0.33134700  1
  C  C45  1  0.54571000  0.00454600  0.66865300  1
  C  C46  1  0.95429000  0.00454600  0.16865300  1
  C  C47  1  0.04571000  0.50454600  0.83134700  1
  C  C48  1  0.77629200  0.50295500  0.56584400  1
  C  C49  1  0.22370800  0.00295500  0.43415600  1
  C  C50  1  0.27629200  0.00295500  0.93415600  1
  C  C51  1  0.72370800  0.50295500  0.06584400  1
