# generated using pymatgen
data_Cu3(NiC4)4
_symmetry_space_group_name_H-M   'P 1'
_cell_length_a   8.56656900
_cell_length_b   11.92000200
_cell_length_c   8.98045000
_cell_angle_alpha   90.00000000
_cell_angle_beta   90.00000000
_cell_angle_gamma   90.00000000
_symmetry_Int_Tables_number   1
_chemical_formula_structural   Cu3(NiC4)4
_chemical_formula_sum   'Cu12 Ni16 C64'
_cell_volume   917.02535721
_cell_formula_units_Z   4
loop_
 _symmetry_equiv_pos_site_id
 _symmetry_equiv_pos_as_xyz
  1  'x, y, z'
loop_
 _atom_site_type_symbol
 _atom_site_label
 _atom_site_symmetry_multiplicity
 _atom_site_fract_x
 _atom_site_fract_y
 _atom_site_fract_z
 _atom_site_occupancy
  C  C0  1  0.25372200  0.75000000  0.25000000  1
  C  C1  1  0.24627800  0.25000000  0.25000000  1
  C  C2  1  0.74627800  0.25000000  0.75000000  1
  C  C3  1  0.75372200  0.75000000  0.75000000  1
  C  C4  1  0.25000000  0.50000000  0.17633600  1
  C  C5  1  0.25000000  0.00000000  0.32366400  1
  C  C6  1  0.75000000  0.50000000  0.82366400  1
  C  C7  1  0.75000000  0.00000000  0.67633600  1
  C  C8  1  0.59007700  0.71415300  0.42835700  1
  C  C9  1  0.90992300  0.28584700  0.42835700  1
  C  C10  1  0.59007700  0.78584700  0.07164300  1
  C  C11  1  0.90992300  0.21415300  0.07164300  1
  C  C12  1  0.40992300  0.28584700  0.57164300  1
  C  C13  1  0.09007700  0.71415300  0.57164300  1
  C  C14  1  0.40992300  0.21415300  0.92835700  1
  C  C15  1  0.09007700  0.78584700  0.92835700  1
  C  C16  1  0.33151600  0.57722100  0.56858400  1
  C  C17  1  0.16848400  0.42277900  0.56858400  1
  C  C18  1  0.33151600  0.92277900  0.93141600  1
  C  C19  1  0.16848400  0.07722100  0.93141600  1
  C  C20  1  0.66848400  0.42277900  0.43141600  1
  C  C21  1  0.83151600  0.57722100  0.43141600  1
  C  C22  1  0.66848400  0.07722100  0.06858400  1
  C  C23  1  0.83151600  0.92277900  0.06858400  1
  C  C24  1  0.41403500  0.62414900  0.74037600  1
  C  C25  1  0.08596500  0.37585100  0.74037600  1
  C  C26  1  0.41403500  0.87585100  0.75962400  1
  C  C27  1  0.08596500  0.12414900  0.75962400  1
  C  C28  1  0.58596500  0.37585100  0.25962400  1
  C  C29  1  0.91403500  0.62414900  0.25962400  1
  C  C30  1  0.58596500  0.12414900  0.24037600  1
  C  C31  1  0.91403500  0.87585100  0.24037600  1
  C  C32  1  0.31379500  0.55876700  0.96248700  1
  C  C33  1  0.18620500  0.44123300  0.96248700  1
  C  C34  1  0.31379500  0.94123300  0.53751300  1
  C  C35  1  0.18620500  0.05876700  0.53751300  1
  C  C36  1  0.68620500  0.44123300  0.03751300  1
  C  C37  1  0.81379500  0.55876700  0.03751300  1
  C  C38  1  0.68620500  0.05876700  0.46248700  1
  C  C39  1  0.81379500  0.94123300  0.46248700  1
  Ni  Ni40  1  0.25000000  0.50000000  0.29884000  1
  Ni  Ni41  1  0.25000000  0.00000000  0.20116000  1
  Ni  Ni42  1  0.75000000  0.50000000  0.70116000  1
  Ni  Ni43  1  0.75000000  0.00000000  0.79884000  1
  Ni  Ni44  1  0.51821400  0.77771600  0.48705200  1
  Ni  Ni45  1  0.98178600  0.22228400  0.48705200  1
  Ni  Ni46  1  0.51821400  0.72228400  0.01294800  1
  Ni  Ni47  1  0.98178600  0.27771600  0.01294800  1
  Ni  Ni48  1  0.48178600  0.22228400  0.51294800  1
  Ni  Ni49  1  0.01821400  0.77771600  0.51294800  1
  Ni  Ni50  1  0.48178600  0.27771600  0.98705200  1
  Ni  Ni51  1  0.01821400  0.72228400  0.98705200  1
  Ni  Ni52  1  0.25000000  0.50000000  0.75680700  1
  Ni  Ni53  1  0.25000000  0.00000000  0.74319300  1
  Ni  Ni54  1  0.75000000  0.50000000  0.24319300  1
  Ni  Ni55  1  0.75000000  0.00000000  0.25680700  1
  Cu  Cu56  1  0.33969800  0.57303500  0.68215300  1
  Cu  Cu57  1  0.16030200  0.42696500  0.68215300  1
  Cu  Cu58  1  0.33969800  0.92696500  0.81784700  1
  Cu  Cu59  1  0.16030200  0.07303500  0.81784700  1
  Cu  Cu60  1  0.66030200  0.42696500  0.31784700  1
  Cu  Cu61  1  0.83969800  0.57303500  0.31784700  1
  Cu  Cu62  1  0.66030200  0.07303500  0.18215300  1
  Cu  Cu63  1  0.83969800  0.92696500  0.18215300  1
  Cu  Cu64  1  0.25000000  0.50000000  0.90518400  1
  Cu  Cu65  1  0.25000000  0.00000000  0.59481600  1
  Cu  Cu66  1  0.75000000  0.50000000  0.09481600  1
  Cu  Cu67  1  0.75000000  0.00000000  0.40518400  1
  C  C68  1  0.25860700  0.59383200  0.36555500  1
  C  C69  1  0.24139300  0.40616800  0.36555500  1
  C  C70  1  0.25860700  0.90616800  0.13444500  1
  C  C71  1  0.24139300  0.09383200  0.13444500  1
  C  C72  1  0.74139300  0.40616800  0.63444500  1
  C  C73  1  0.75860700  0.59383200  0.63444500  1
  C  C74  1  0.74139300  0.09383200  0.86555500  1
  C  C75  1  0.75860700  0.90616800  0.86555500  1
  C  C76  1  0.39763900  0.81605100  0.42194200  1
  C  C77  1  0.10236100  0.18394900  0.42194200  1
  C  C78  1  0.39763900  0.68394900  0.07805800  1
  C  C79  1  0.10236100  0.31605100  0.07805800  1
  C  C80  1  0.60236100  0.18394900  0.57805800  1
  C  C81  1  0.89763900  0.81605100  0.57805800  1
  C  C82  1  0.60236100  0.31605100  0.92194200  1
  C  C83  1  0.89763900  0.68394900  0.92194200  1
  C  C84  1  0.56017100  0.80837400  0.61631400  1
  C  C85  1  0.93982900  0.19162600  0.61631400  1
  C  C86  1  0.56017100  0.69162600  0.88368600  1
  C  C87  1  0.93982900  0.30837400  0.88368600  1
  C  C88  1  0.43982900  0.19162600  0.38368600  1
  C  C89  1  0.06017100  0.80837400  0.38368600  1
  C  C90  1  0.43982900  0.30837400  0.11631400  1
  C  C91  1  0.06017100  0.69162600  0.11631400  1
