# generated using pymatgen
data_Cu11Ni2C9
_symmetry_space_group_name_H-M   'P 1'
_cell_length_a   3.89056496
_cell_length_b   7.57171482
_cell_length_c   10.00125722
_cell_angle_alpha   75.75338859
_cell_angle_beta   88.29855168
_cell_angle_gamma   76.39050574
_symmetry_Int_Tables_number   1
_chemical_formula_structural   Cu11Ni2C9
_chemical_formula_sum   'Cu11 Ni2 C9'
_cell_volume   277.41620306
_cell_formula_units_Z   1
loop_
 _symmetry_equiv_pos_site_id
 _symmetry_equiv_pos_as_xyz
  1  'x, y, z'
loop_
 _atom_site_type_symbol
 _atom_site_label
 _atom_site_symmetry_multiplicity
 _atom_site_fract_x
 _atom_site_fract_y
 _atom_site_fract_z
 _atom_site_occupancy
  C  C0  1  0.52943000  0.95404300  0.55646200  1
  C  C1  1  0.44412800  0.10138600  0.18943100  1
  C  C2  1  0.74333200  0.90880500  0.89671600  1
  C  C3  1  0.15291100  0.74578200  0.14333500  1
  C  C4  1  0.18645300  0.62013200  0.43500600  1
  C  C5  1  0.23562700  0.55581700  0.77398000  1
  C  C6  1  0.77272500  0.46775500  0.24551500  1
  C  C7  1  0.81695200  0.30882300  0.58886200  1
  C  C8  1  0.86690500  0.28064900  0.94156700  1
  Ni  Ni9  1  0.25857600  0.49117700  0.28568600  1
  Ni  Ni10  1  0.83880100  0.33258200  0.11185900  1
  Cu  Cu11  1  0.07694100  0.86406200  0.29817000  1
  Cu  Cu12  1  0.12983200  0.74199400  0.60331400  1
  Cu  Cu13  1  0.17450500  0.70585300  0.89194800  1
  Cu  Cu14  1  0.65716400  0.73886300  0.11007700  1
  Cu  Cu15  1  0.69774900  0.59261000  0.45231900  1
  Cu  Cu16  1  0.76348200  0.48945800  0.76361600  1
  Cu  Cu17  1  0.28807700  0.36989300  0.59370900  1
  Cu  Cu18  1  0.36158900  0.28685400  0.90726400  1
  Cu  Cu19  1  0.87939000  0.20984400  0.43843400  1
  Cu  Cu20  1  0.83578700  0.08680900  0.71836400  1
  Cu  Cu21  1  0.99697100  0.01515500  0.01620500  1
