# generated using pymatgen
data_Cu2Ni2C15
_symmetry_space_group_name_H-M   'P 1'
_cell_length_a   7.14326281
_cell_length_b   8.15582962
_cell_length_c   9.89356207
_cell_angle_alpha   89.15961405
_cell_angle_beta   95.91884504
_cell_angle_gamma   111.82405073
_symmetry_Int_Tables_number   1
_chemical_formula_structural   Cu2Ni2C15
_chemical_formula_sum   'Cu4 Ni4 C30'
_cell_volume   532.05388639
_cell_formula_units_Z   2
loop_
 _symmetry_equiv_pos_site_id
 _symmetry_equiv_pos_as_xyz
  1  'x, y, z'
loop_
 _atom_site_type_symbol
 _atom_site_label
 _atom_site_symmetry_multiplicity
 _atom_site_fract_x
 _atom_site_fract_y
 _atom_site_fract_z
 _atom_site_occupancy
  C  C0  1  0.88815300  0.27505600  0.60108800  1
  C  C1  1  0.11184700  0.72494400  0.39891200  1
  C  C2  1  0.84152300  0.78777800  0.09084000  1
  C  C3  1  0.15847700  0.21222200  0.90916000  1
  C  C4  1  0.53624100  0.91821800  0.81838600  1
  C  C5  1  0.46375900  0.08178200  0.18161400  1
  C  C6  1  0.91257000  0.72882600  0.74205600  1
  C  C7  1  0.08743000  0.27117400  0.25794400  1
  Ni  Ni8  1  0.48282000  0.67522400  0.59510100  1
  Ni  Ni9  1  0.51718000  0.32477600  0.40489900  1
  Ni  Ni10  1  0.43385000  0.51352100  0.69324500  1
  Ni  Ni11  1  0.56615000  0.48647900  0.30675500  1
  Cu  Cu12  1  0.71903800  0.31508900  0.95201100  1
  Cu  Cu13  1  0.28096200  0.68491100  0.04798900  1
  Cu  Cu14  1  0.70493900  0.87141500  0.41322600  1
  Cu  Cu15  1  0.29506100  0.12858500  0.58677400  1
  C  C16  1  0.92491200  0.57372800  0.61316900  1
  C  C17  1  0.07508800  0.42627200  0.38683100  1
  C  C18  1  0.90155400  0.89294300  0.86475300  1
  C  C19  1  0.09844600  0.10705700  0.13524700  1
  C  C20  1  0.84012000  0.23836000  0.84903900  1
  C  C21  1  0.15988000  0.76164000  0.15096100  1
  C  C22  1  0.82218600  0.92020600  0.57331900  1
  C  C23  1  0.17781400  0.07979400  0.42668100  1
  C  C24  1  0.78582400  0.73766500  0.32964700  1
  C  C25  1  0.21417600  0.26233500  0.67035300  1
  C  C26  1  0.73561100  0.52105400  0.91168300  1
  C  C27  1  0.26438900  0.47894600  0.08831700  1
  C  C28  1  0.52183500  0.63828000  0.68630000  1
  C  C29  1  0.47816500  0.36172000  0.31370000  1
  C  C30  1  0.47698300  0.17780400  0.94303600  1
  C  C31  1  0.52301700  0.82219600  0.05696400  1
  C  C32  1  0.45906700  0.77338200  0.42718200  1
  C  C33  1  0.54093300  0.22661800  0.57281800  1
  C  C34  1  0.24720600  0.93540100  0.66605500  1
  C  C35  1  0.75279400  0.06459900  0.33394500  1
  C  C36  1  0.18827200  0.67977100  0.88361700  1
  C  C37  1  0.81172800  0.32022900  0.11638300  1
