# generated using pymatgen
data_Cu(NiC5)6
_symmetry_space_group_name_H-M   'P 1'
_cell_length_a   3.67834700
_cell_length_b   11.03246600
_cell_length_c   12.74075100
_cell_angle_alpha   90.00000000
_cell_angle_beta   90.00000000
_cell_angle_gamma   90.00000000
_symmetry_Int_Tables_number   1
_chemical_formula_structural   Cu(NiC5)6
_chemical_formula_sum   'Cu1 Ni6 C30'
_cell_volume   517.03545135
_cell_formula_units_Z   1
loop_
 _symmetry_equiv_pos_site_id
 _symmetry_equiv_pos_as_xyz
  1  'x, y, z'
loop_
 _atom_site_type_symbol
 _atom_site_label
 _atom_site_symmetry_multiplicity
 _atom_site_fract_x
 _atom_site_fract_y
 _atom_site_fract_z
 _atom_site_occupancy
  Ni  Ni0  1  0.50000000  0.16596300  0.79298600  1
  Ni  Ni1  1  0.50000000  0.50000000  0.79397800  1
  Ni  Ni2  1  0.50000000  0.83403700  0.79298600  1
  Ni  Ni3  1  0.50000000  0.16596300  0.20701400  1
  Ni  Ni4  1  0.50000000  0.50000000  0.20602200  1
  Ni  Ni5  1  0.50000000  0.83403700  0.20701400  1
  Cu  Cu6  1  0.50000000  0.50000000  0.50000000  1
  C  C7  1  0.00000000  0.00000000  0.00000000  1
  C  C8  1  0.00000000  0.33192900  0.00000000  1
  C  C9  1  0.00000000  0.66807100  0.00000000  1
  C  C10  1  0.00000000  0.00000000  0.61071000  1
  C  C11  1  0.00000000  0.31982100  0.62175000  1
  C  C12  1  0.00000000  0.68017900  0.62175000  1
  C  C13  1  0.00000000  0.00000000  0.38929000  1
  C  C14  1  0.00000000  0.31982100  0.37825000  1
  C  C15  1  0.00000000  0.68017900  0.37825000  1
  C  C16  1  0.50000000  0.00000000  0.63774700  1
  C  C17  1  0.50000000  0.34472800  0.62851400  1
  C  C18  1  0.50000000  0.65527200  0.62851400  1
  C  C19  1  0.00000000  0.15980700  0.65303300  1
  C  C20  1  0.00000000  0.50000000  0.61215200  1
  C  C21  1  0.00000000  0.84019300  0.65303300  1
  C  C22  1  0.50000000  0.00000000  0.36225300  1
  C  C23  1  0.50000000  0.34472800  0.37148600  1
  C  C24  1  0.50000000  0.65527200  0.37148600  1
  C  C25  1  0.00000000  0.15980700  0.34696700  1
  C  C26  1  0.00000000  0.50000000  0.38784800  1
  C  C27  1  0.00000000  0.84019300  0.34696700  1
  C  C28  1  0.00000000  0.00000000  0.83895100  1
  C  C29  1  0.00000000  0.33586100  0.83351300  1
  C  C30  1  0.00000000  0.66413900  0.83351300  1
  C  C31  1  0.00000000  0.00000000  0.16104900  1
  C  C32  1  0.00000000  0.33586100  0.16648700  1
  C  C33  1  0.00000000  0.66413900  0.16648700  1
  C  C34  1  0.50000000  0.17280300  0.00000000  1
  C  C35  1  0.50000000  0.50000000  0.00000000  1
  C  C36  1  0.50000000  0.82719700  0.00000000  1
