# generated using pymatgen
data_Cu2NiC6
_symmetry_space_group_name_H-M   'P 1'
_cell_length_a   6.74945246
_cell_length_b   6.74945246
_cell_length_c   6.74945246
_cell_angle_alpha   147.48103529
_cell_angle_beta   128.82549322
_cell_angle_gamma   61.95505321
_symmetry_Int_Tables_number   1
_chemical_formula_structural   Cu2NiC6
_chemical_formula_sum   'Cu2 Ni1 C6'
_cell_volume   127.50905006
_cell_formula_units_Z   1
loop_
 _symmetry_equiv_pos_site_id
 _symmetry_equiv_pos_as_xyz
  1  'x, y, z'
loop_
 _atom_site_type_symbol
 _atom_site_label
 _atom_site_symmetry_multiplicity
 _atom_site_fract_x
 _atom_site_fract_y
 _atom_site_fract_z
 _atom_site_occupancy
  Ni  Ni0  1  0.50000000  0.50000000  0.00000000  1
  Cu  Cu1  1  0.79654300  0.29654300  0.50000000  1
  Cu  Cu2  1  0.20345700  0.70345700  0.50000000  1
  C  C3  1  0.00000000  0.00000000  0.00000000  1
  C  C4  1  0.90983700  0.15133100  0.75850700  1
  C  C5  1  0.60717600  0.84866900  0.75850700  1
  C  C6  1  0.09016300  0.84866900  0.24149300  1
  C  C7  1  0.39282400  0.15133100  0.24149300  1
  C  C8  1  0.00000000  0.50000000  0.50000000  1
