# generated using pymatgen
data_Cu14NiC16
_symmetry_space_group_name_H-M   'P 1'
_cell_length_a   9.05683367
_cell_length_b   8.97704788
_cell_length_c   4.32907217
_cell_angle_alpha   90.00000000
_cell_angle_beta   90.00000000
_cell_angle_gamma   90.00000000
_symmetry_Int_Tables_number   1
_chemical_formula_structural   Cu14NiC16
_chemical_formula_sum   'Cu14 Ni1 C16'
_cell_volume   351.96927977
_cell_formula_units_Z   1
loop_
 _symmetry_equiv_pos_site_id
 _symmetry_equiv_pos_as_xyz
  1  'x, y, z'
loop_
 _atom_site_type_symbol
 _atom_site_label
 _atom_site_symmetry_multiplicity
 _atom_site_fract_x
 _atom_site_fract_y
 _atom_site_fract_z
 _atom_site_occupancy
  C  C0  1  0.06442373  -0.00000000  -0.00000000  1
  Ni  Ni1  1  0.50928708  0.50000000  -0.00000000  1
  Cu  Cu2  1  0.98287340  0.50000000  -0.00000000  1
  Cu  Cu3  1  0.50001198  -0.00000000  -0.00000000  1
  Cu  Cu4  1  0.98599157  0.25385100  0.50000000  1
  Cu  Cu5  1  0.98599157  0.74614900  0.50000000  1
  Cu  Cu6  1  0.50781079  0.24353952  0.50000000  1
  Cu  Cu7  1  0.50781079  0.75646048  0.50000000  1
  Cu  Cu8  1  0.29036327  -0.00000000  0.50000000  1
  Cu  Cu9  1  0.23140700  0.50000000  0.50000000  1
  Cu  Cu10  1  0.73966336  -0.00000000  0.50000000  1
  Cu  Cu11  1  0.75790958  0.50000000  0.50000000  1
  Cu  Cu12  1  0.25171783  0.26650395  0.00000000  1
  Cu  Cu13  1  0.25171783  0.73349605  -0.00000000  1
  Cu  Cu14  1  0.75762723  0.23530718  0.00000000  1
  Cu  Cu15  1  0.75762723  0.76469282  -0.00000000  1
  C  C16  1  0.26344813  0.50000000  -0.00000000  1
  C  C17  1  0.72072380  -0.00000000  -0.00000000  1
  C  C18  1  0.74320877  0.50000000  -0.00000000  1
  C  C19  1  0.24747260  0.25660357  0.50000000  1
  C  C20  1  0.24747260  0.74339643  0.50000000  1
  C  C21  1  0.74351227  0.25806250  0.50000000  1
  C  C22  1  0.74351227  0.74193750  0.50000000  1
  C  C23  1  0.95075785  -0.00000000  0.50000000  1
  C  C24  1  0.99502545  0.50000000  0.50000000  1
  C  C25  1  0.51283475  -0.00000000  0.50000000  1
  C  C26  1  0.50585595  0.50000000  0.50000000  1
  C  C27  1  0.98862850  0.28197911  0.00000000  1
  C  C28  1  0.98862850  0.71802089  -0.00000000  1
  C  C29  1  0.50834216  0.26604223  -0.00000000  1
  C  C30  1  0.50834216  0.73395777  -0.00000000  1
