# generated using pymatgen
data_CuNiC6
_symmetry_space_group_name_H-M   'P 1'
_cell_length_a   5.38166100
_cell_length_b   12.25845300
_cell_length_c   6.30058300
_cell_angle_alpha   90.00006909
_cell_angle_beta   90.00000909
_cell_angle_gamma   90.00003402
_symmetry_Int_Tables_number   1
_chemical_formula_structural   CuNiC6
_chemical_formula_sum   'Cu4 Ni4 C24'
_cell_volume   415.65474311
_cell_formula_units_Z   4
loop_
 _symmetry_equiv_pos_site_id
 _symmetry_equiv_pos_as_xyz
  1  'x, y, z'
loop_
 _atom_site_type_symbol
 _atom_site_label
 _atom_site_symmetry_multiplicity
 _atom_site_fract_x
 _atom_site_fract_y
 _atom_site_fract_z
 _atom_site_occupancy
  C  C0  1  0.49827700  0.41558100  0.74807600  1
  C  C1  1  0.49828000  0.91558600  0.74807100  1
  C  C2  1  0.99827300  0.08442500  0.75193100  1
  C  C3  1  0.99827200  0.58441000  0.75192100  1
  C  C4  1  0.99827500  0.08442000  0.24806300  1
  C  C5  1  0.99826900  0.58442000  0.24807700  1
  C  C6  1  0.49826600  0.41557000  0.25193100  1
  C  C7  1  0.49827000  0.91558200  0.25192600  1
  Ni  Ni8  1  0.50563800  0.67848500  0.00000200  1
  Ni  Ni9  1  0.00563700  0.82151600  0.50000100  1
  Ni  Ni10  1  0.50563200  0.17848600  0.00000100  1
  Ni  Ni11  1  0.00562900  0.32151400  0.50000000  1
  Cu  Cu12  1  0.00762600  0.32858700  0.00000200  1
  Cu  Cu13  1  0.00762400  0.82859400  0.99999900  1
  Cu  Cu14  1  0.50763000  0.17141300  0.50000100  1
  Cu  Cu15  1  0.50762700  0.67140900  0.50000000  1
  C  C16  1  0.86982300  0.20829500  0.99999900  1
  C  C17  1  0.86982500  0.70830300  0.99999600  1
  C  C18  1  0.36982600  0.29170500  0.50000200  1
  C  C19  1  0.36982500  0.79169900  0.49999900  1
  C  C20  1  0.31164600  0.31350200  0.00000000  1
  C  C21  1  0.31164200  0.81349300  0.99999800  1
  C  C22  1  0.81164700  0.18649900  0.49999900  1
  C  C23  1  0.81164200  0.68650800  0.50000100  1
  C  C24  1  0.93060300  0.39879700  0.78213400  1
  C  C25  1  0.93062100  0.89880000  0.78213400  1
  C  C26  1  0.43060300  0.10120300  0.71786800  1
  C  C27  1  0.43062000  0.60119700  0.71786900  1
  C  C28  1  0.43060400  0.10120300  0.28213200  1
  C  C29  1  0.43062200  0.60119900  0.28213200  1
  C  C30  1  0.93060400  0.39879800  0.21786600  1
  C  C31  1  0.93062000  0.89880100  0.21786700  1
