# generated using pymatgen
data_Cu(NiC6)3
_symmetry_space_group_name_H-M   'P 1'
_cell_length_a   9.92235569
_cell_length_b   9.92235569
_cell_length_c   7.00853100
_cell_angle_alpha   90.00000000
_cell_angle_beta   90.00000000
_cell_angle_gamma   119.99999791
_symmetry_Int_Tables_number   1
_chemical_formula_structural   Cu(NiC6)3
_chemical_formula_sum   'Cu2 Ni6 C36'
_cell_volume   597.56784724
_cell_formula_units_Z   2
loop_
 _symmetry_equiv_pos_site_id
 _symmetry_equiv_pos_as_xyz
  1  'x, y, z'
loop_
 _atom_site_type_symbol
 _atom_site_label
 _atom_site_symmetry_multiplicity
 _atom_site_fract_x
 _atom_site_fract_y
 _atom_site_fract_z
 _atom_site_occupancy
  C  C0  1  0.33333300  0.66666700  0.49873000  1
  C  C1  1  0.66666700  0.33333300  0.99873000  1
  C  C2  1  0.66666700  0.33333300  0.50196500  1
  C  C3  1  0.33333300  0.66666700  0.00196500  1
  C  C4  1  0.75812800  0.74981400  0.25087000  1
  C  C5  1  0.99168600  0.24187200  0.25087000  1
  C  C6  1  0.25018600  0.00831400  0.25087000  1
  C  C7  1  0.24187200  0.25018600  0.75087000  1
  C  C8  1  0.00831400  0.75812800  0.75087000  1
  C  C9  1  0.74981400  0.99168600  0.75087000  1
  Ni  Ni10  1  0.97291900  0.60179000  0.25141700  1
  Ni  Ni11  1  0.62887000  0.02708100  0.25141700  1
  Ni  Ni12  1  0.39821000  0.37113000  0.25141700  1
  Ni  Ni13  1  0.02708100  0.39821000  0.75141700  1
  Ni  Ni14  1  0.37113000  0.97291900  0.75141700  1
  Ni  Ni15  1  0.60179000  0.62887000  0.75141700  1
  Cu  Cu16  1  0.00000000  0.00000000  0.42528100  1
  Cu  Cu17  1  0.00000000  0.00000000  0.92528100  1
  C  C18  1  0.86853300  0.40014700  0.24926700  1
  C  C19  1  0.53161400  0.13146700  0.24926700  1
  C  C20  1  0.59985300  0.46838600  0.24926700  1
  C  C21  1  0.13146700  0.59985300  0.74926700  1
  C  C22  1  0.46838600  0.86853300  0.74926700  1
  C  C23  1  0.40014700  0.53161400  0.74926700  1
  C  C24  1  0.16963900  0.67406000  0.25122300  1
  C  C25  1  0.50442100  0.83036100  0.25122300  1
  C  C26  1  0.32594000  0.49557900  0.25122300  1
  C  C27  1  0.83036100  0.32594000  0.75122300  1
  C  C28  1  0.49557900  0.16963900  0.75122300  1
  C  C29  1  0.67406000  0.50442100  0.75122300  1
  C  C30  1  0.90827400  0.65869700  0.44629000  1
  C  C31  1  0.75042300  0.09172600  0.44629000  1
  C  C32  1  0.34130300  0.24957700  0.44629000  1
  C  C33  1  0.09172600  0.34130300  0.94629000  1
  C  C34  1  0.24957700  0.90827400  0.94629000  1
  C  C35  1  0.65869700  0.75042300  0.94629000  1
  C  C36  1  0.08949000  0.33636500  0.55870100  1
  C  C37  1  0.24687500  0.91051000  0.55870100  1
  C  C38  1  0.66363500  0.75312500  0.55870100  1
  C  C39  1  0.91051000  0.66363500  0.05870100  1
  C  C40  1  0.75312500  0.08949000  0.05870100  1
  C  C41  1  0.33636500  0.24687500  0.05870100  1
  C  C42  1  0.00000000  0.00000000  0.28582700  1
  C  C43  1  0.00000000  0.00000000  0.78582700  1
