# generated using pymatgen
data_Cu9NiC8
_symmetry_space_group_name_H-M   'P 1'
_cell_length_a   8.97479137
_cell_length_b   8.97479137
_cell_length_c   8.20737200
_cell_angle_alpha   90.00000000
_cell_angle_beta   90.00000000
_cell_angle_gamma   107.13240349
_symmetry_Int_Tables_number   1
_chemical_formula_structural   Cu9NiC8
_chemical_formula_sum   'Cu18 Ni2 C16'
_cell_volume   631.74389944
_cell_formula_units_Z   2
loop_
 _symmetry_equiv_pos_site_id
 _symmetry_equiv_pos_as_xyz
  1  'x, y, z'
loop_
 _atom_site_type_symbol
 _atom_site_label
 _atom_site_symmetry_multiplicity
 _atom_site_fract_x
 _atom_site_fract_y
 _atom_site_fract_z
 _atom_site_occupancy
  C  C0  1  0.76088500  0.76088500  0.00000000  1
  C  C1  1  0.23911500  0.23911500  0.50000000  1
  C  C2  1  0.64719000  0.35281000  0.25000000  1
  C  C3  1  0.35281000  0.64719000  0.75000000  1
  C  C4  1  0.64969400  0.35030600  0.75000000  1
  C  C5  1  0.35030600  0.64969400  0.25000000  1
  C  C6  1  0.37932600  0.37932600  0.00000000  1
  C  C7  1  0.62067400  0.62067400  0.50000000  1
  C  C8  1  0.42602500  0.99323500  0.45904100  1
  C  C9  1  0.99323500  0.42602500  0.54095900  1
  C  C10  1  0.57397500  0.00676500  0.95904100  1
  C  C11  1  0.00676500  0.57397500  0.04095900  1
  C  C12  1  0.27069400  0.02935900  0.08191800  1
  C  C13  1  0.02935900  0.27069400  0.91808200  1
  C  C14  1  0.72930600  0.97064100  0.58191800  1
  C  C15  1  0.97064100  0.72930600  0.41808200  1
  Ni  Ni16  1  0.08012000  0.91988000  0.75000000  1
  Ni  Ni17  1  0.91988000  0.08012000  0.25000000  1
  Cu  Cu18  1  0.53737400  0.13976700  0.01218300  1
  Cu  Cu19  1  0.13976700  0.53737400  0.98781700  1
  Cu  Cu20  1  0.46262600  0.86023300  0.51218300  1
  Cu  Cu21  1  0.86023300  0.46262600  0.48781700  1
  Cu  Cu22  1  0.85983000  0.48240900  0.99352900  1
  Cu  Cu23  1  0.48240900  0.85983000  0.00647100  1
  Cu  Cu24  1  0.14017000  0.51759100  0.49352900  1
  Cu  Cu25  1  0.51759100  0.14017000  0.50647100  1
  Cu  Cu26  1  0.50946500  0.50946500  0.00000000  1
  Cu  Cu27  1  0.49053500  0.49053500  0.50000000  1
  Cu  Cu28  1  0.32118100  0.31063300  0.14977400  1
  Cu  Cu29  1  0.31063300  0.32118100  0.85022600  1
  Cu  Cu30  1  0.67881900  0.68936700  0.64977400  1
  Cu  Cu31  1  0.68936700  0.67881900  0.35022600  1
  Cu  Cu32  1  0.29673100  0.97461700  0.35809800  1
  Cu  Cu33  1  0.97461700  0.29673100  0.64190200  1
  Cu  Cu34  1  0.70326900  0.02538300  0.85809800  1
  Cu  Cu35  1  0.02538300  0.70326900  0.14190200  1
