# generated using pymatgen
data_CuNi3C10
_symmetry_space_group_name_H-M   'P 1'
_cell_length_a   8.17501200
_cell_length_b   8.57567900
_cell_length_c   8.62005300
_cell_angle_alpha   90.00000000
_cell_angle_beta   90.00000000
_cell_angle_gamma   90.00000000
_symmetry_Int_Tables_number   1
_chemical_formula_structural   CuNi3C10
_chemical_formula_sum   'Cu4 Ni12 C40'
_cell_volume   604.31983831
_cell_formula_units_Z   4
loop_
 _symmetry_equiv_pos_site_id
 _symmetry_equiv_pos_as_xyz
  1  'x, y, z'
loop_
 _atom_site_type_symbol
 _atom_site_label
 _atom_site_symmetry_multiplicity
 _atom_site_fract_x
 _atom_site_fract_y
 _atom_site_fract_z
 _atom_site_occupancy
  C  C0  1  0.49783700  0.99338900  0.50253100  1
  C  C1  1  0.75476300  0.24812000  0.74907500  1
  C  C2  1  0.24523700  0.74812000  0.75092500  1
  C  C3  1  0.50216300  0.49338900  0.99746900  1
  C  C4  1  0.00216300  0.00661100  0.00253100  1
  C  C5  1  0.74523700  0.75188000  0.24907500  1
  C  C6  1  0.25476300  0.25188000  0.25092500  1
  C  C7  1  0.99783700  0.50661100  0.49746900  1
  Ni  Ni8  1  0.62229000  0.62511000  0.63122900  1
  Ni  Ni9  1  0.87543500  0.86795800  0.61850500  1
  Ni  Ni10  1  0.12664200  0.12128300  0.62121800  1
  Ni  Ni11  1  0.87335800  0.62128300  0.87878200  1
  Ni  Ni12  1  0.12456500  0.36795800  0.88149500  1
  Ni  Ni13  1  0.37771000  0.12511000  0.86877100  1
  Ni  Ni14  1  0.87771000  0.37489000  0.13122900  1
  Ni  Ni15  1  0.62456500  0.13204200  0.11850500  1
  Ni  Ni16  1  0.37335800  0.87871700  0.12121800  1
  Ni  Ni17  1  0.62664200  0.37871700  0.37878200  1
  Ni  Ni18  1  0.37543500  0.63204200  0.38149500  1
  Ni  Ni19  1  0.12229000  0.87489000  0.36877100  1
  Cu  Cu20  1  0.36778800  0.37872400  0.62588000  1
  Cu  Cu21  1  0.63221200  0.87872400  0.87412000  1
  Cu  Cu22  1  0.13221200  0.62127600  0.12588000  1
  Cu  Cu23  1  0.86778800  0.12127600  0.37412000  1
  C  C24  1  0.61375800  0.39636100  0.61725100  1
  C  C25  1  0.38873900  0.60848500  0.63183100  1
  C  C26  1  0.11040000  0.87122800  0.59441000  1
  C  C27  1  0.63413400  0.85320700  0.64066100  1
  C  C28  1  0.89102300  0.10629500  0.60592300  1
  C  C29  1  0.86103100  0.63597500  0.64323300  1
  C  C30  1  0.14787100  0.37419600  0.62375100  1
  C  C31  1  0.36569200  0.13867000  0.63953900  1
  C  C32  1  0.63430800  0.63867000  0.86046100  1
  C  C33  1  0.85212900  0.87419600  0.87624900  1
  C  C34  1  0.13896900  0.13597500  0.85676700  1
  C  C35  1  0.10897700  0.60629500  0.89407700  1
  C  C36  1  0.36586600  0.35320700  0.85933900  1
  C  C37  1  0.88960000  0.37122800  0.90559000  1
  C  C38  1  0.61126100  0.10848500  0.86816900  1
  C  C39  1  0.38624200  0.89636100  0.88274900  1
  C  C40  1  0.88624200  0.60363900  0.11725100  1
  C  C41  1  0.11126100  0.39151500  0.13183100  1
  C  C42  1  0.38960000  0.12877200  0.09441000  1
  C  C43  1  0.86586600  0.14679300  0.14066100  1
  C  C44  1  0.60897700  0.89370500  0.10592300  1
  C  C45  1  0.63896900  0.36402500  0.14323300  1
  C  C46  1  0.35212900  0.62580400  0.12375100  1
  C  C47  1  0.13430800  0.86133000  0.13953900  1
  C  C48  1  0.86569200  0.36133000  0.36046100  1
  C  C49  1  0.64787100  0.12580400  0.37624900  1
  C  C50  1  0.36103100  0.86402500  0.35676700  1
  C  C51  1  0.39102300  0.39370500  0.39407700  1
  C  C52  1  0.13413400  0.64679300  0.35933900  1
  C  C53  1  0.61040000  0.62877200  0.40559000  1
  C  C54  1  0.88873900  0.89151500  0.36816900  1
  C  C55  1  0.11375800  0.10363900  0.38274900  1
