# generated using pymatgen
data_Cu4Ni4C9
_symmetry_space_group_name_H-M   'P 1'
_cell_length_a   3.48060105
_cell_length_b   9.28262876
_cell_length_c   9.71862203
_cell_angle_alpha   103.30896695
_cell_angle_beta   79.70365006
_cell_angle_gamma   90.66267676
_symmetry_Int_Tables_number   1
_chemical_formula_structural   Cu4Ni4C9
_chemical_formula_sum   'Cu4 Ni4 C9'
_cell_volume   300.50281569
_cell_formula_units_Z   1
loop_
 _symmetry_equiv_pos_site_id
 _symmetry_equiv_pos_as_xyz
  1  'x, y, z'
loop_
 _atom_site_type_symbol
 _atom_site_label
 _atom_site_symmetry_multiplicity
 _atom_site_fract_x
 _atom_site_fract_y
 _atom_site_fract_z
 _atom_site_occupancy
  C  C0  1  0.50739700  0.46216800  0.49863200  1
  Ni  Ni1  1  0.58374900  0.02183900  0.33254800  1
  Ni  Ni2  1  0.39584700  0.94105900  0.69552000  1
  Ni  Ni3  1  0.20245400  0.79443700  0.06434300  1
  Ni  Ni4  1  0.78137500  0.15501200  0.94978600  1
  Cu  Cu5  1  0.92594200  0.25443700  0.65436200  1
  Cu  Cu6  1  0.15522500  0.29952100  0.21185100  1
  Cu  Cu7  1  0.83194600  0.65505500  0.79228100  1
  Cu  Cu8  1  0.04878800  0.73255900  0.38693000  1
  C  C9  1  0.50257900  0.85530600  0.48590900  1
  C  C10  1  0.26371200  0.25178800  0.99084500  1
  C  C11  1  0.72465600  0.70134200  0.01500400  1
  C  C12  1  0.49823100  0.19553100  0.50814000  1
  C  C13  1  0.87908800  0.05865000  0.73702000  1
  C  C14  1  0.66736100  0.15020500  0.17912600  1
  C  C15  1  0.11130200  0.90622800  0.27012300  1
  C  C16  1  0.31719400  0.81045000  0.83176400  1
