# generated using pymatgen
data_Cu2Ni2C15
_symmetry_space_group_name_H-M   'P 1'
_cell_length_a   9.99009321
_cell_length_b   9.99009321
_cell_length_c   9.99009290
_cell_angle_alpha   34.00630162
_cell_angle_beta   34.00630162
_cell_angle_gamma   34.00630223
_symmetry_Int_Tables_number   1
_chemical_formula_structural   Cu2Ni2C15
_chemical_formula_sum   'Cu2 Ni2 C15'
_cell_volume   277.99634368
_cell_formula_units_Z   1
loop_
 _symmetry_equiv_pos_site_id
 _symmetry_equiv_pos_as_xyz
  1  'x, y, z'
loop_
 _atom_site_type_symbol
 _atom_site_label
 _atom_site_symmetry_multiplicity
 _atom_site_fract_x
 _atom_site_fract_y
 _atom_site_fract_z
 _atom_site_occupancy
  C  C0  1  0.75134500  0.75134500  0.75134500  1
  C  C1  1  0.00000000  0.00000000  0.00000000  1
  C  C2  1  0.24865500  0.24865500  0.24865500  1
  Ni  Ni3  1  0.37768400  0.37768400  0.37768400  1
  Ni  Ni4  1  0.62231600  0.62231600  0.62231600  1
  Cu  Cu5  1  0.87308300  0.87308300  0.87308300  1
  Cu  Cu6  1  0.12691700  0.12691700  0.12691700  1
  C  C7  1  0.76011500  0.76011500  0.23020600  1
  C  C8  1  0.50000000  0.50000000  0.00000000  1
  C  C9  1  0.23988500  0.23988500  0.76979400  1
  C  C10  1  0.00000000  0.00000000  0.50000000  1
  C  C11  1  0.76979400  0.23988500  0.23988500  1
  C  C12  1  0.50000000  0.00000000  0.00000000  1
  C  C13  1  0.23020600  0.76011500  0.76011500  1
  C  C14  1  0.00000000  0.50000000  0.50000000  1
  C  C15  1  0.23988500  0.76979400  0.23988500  1
  C  C16  1  0.00000000  0.50000000  0.00000000  1
  C  C17  1  0.76011500  0.23020600  0.76011500  1
  C  C18  1  0.50000000  0.00000000  0.50000000  1
