# generated using pymatgen
data_Cu8NiC4
_symmetry_space_group_name_H-M   'P 1'
_cell_length_a   4.73087600
_cell_length_b   6.40213993
_cell_length_c   6.40213993
_cell_angle_alpha   97.92320087
_cell_angle_beta   111.68331360
_cell_angle_gamma   68.31668640
_symmetry_Int_Tables_number   1
_chemical_formula_structural   Cu8NiC4
_chemical_formula_sum   'Cu8 Ni1 C4'
_cell_volume   167.43543109
_cell_formula_units_Z   1
loop_
 _symmetry_equiv_pos_site_id
 _symmetry_equiv_pos_as_xyz
  1  'x, y, z'
loop_
 _atom_site_type_symbol
 _atom_site_label
 _atom_site_symmetry_multiplicity
 _atom_site_fract_x
 _atom_site_fract_y
 _atom_site_fract_z
 _atom_site_occupancy
  C  C0  1  0.00537700  0.99462300  0.00537700  1
  Ni  Ni1  1  0.62591800  0.37408200  0.62591800  1
  Cu  Cu2  1  0.73008600  0.76991400  0.23008600  1
  Cu  Cu3  1  0.27917800  0.22082200  0.77917800  1
  Cu  Cu4  1  0.49957700  0.78354000  0.78269400  1
  Cu  Cu5  1  0.49957700  0.21730600  0.21646000  1
  Cu  Cu6  1  0.50147900  0.99698300  0.49935200  1
  Cu  Cu7  1  0.00089000  0.99698300  0.49935200  1
  Cu  Cu8  1  0.50147900  0.50064800  0.00301700  1
  Cu  Cu9  1  0.00089000  0.50064800  0.00301700  1
  C  C10  1  0.35147200  0.64852800  0.35147200  1
  C  C11  1  0.00203800  0.35554100  0.35961700  1
  C  C12  1  0.00203800  0.64038300  0.64445900  1
