# generated using pymatgen
data_Cu6Ni8C
_symmetry_space_group_name_H-M   'P 1'
_cell_length_a   5.68887300
_cell_length_b   8.06940800
_cell_length_c   11.26608400
_cell_angle_alpha   90.00000000
_cell_angle_beta   90.00000000
_cell_angle_gamma   90.00000000
_symmetry_Int_Tables_number   1
_chemical_formula_structural   Cu6Ni8C
_chemical_formula_sum   'Cu12 Ni16 C2'
_cell_volume   517.17901908
_cell_formula_units_Z   2
loop_
 _symmetry_equiv_pos_site_id
 _symmetry_equiv_pos_as_xyz
  1  'x, y, z'
loop_
 _atom_site_type_symbol
 _atom_site_label
 _atom_site_symmetry_multiplicity
 _atom_site_fract_x
 _atom_site_fract_y
 _atom_site_fract_z
 _atom_site_occupancy
  C  C0  1  0.00000000  0.50000000  0.50000000  1
  C  C1  1  0.00000000  0.00000000  0.00000000  1
  Ni  Ni2  1  0.58627000  0.00000000  0.65983700  1
  Ni  Ni3  1  0.58627000  0.50000000  0.84016300  1
  Ni  Ni4  1  0.41373000  0.00000000  0.34016300  1
  Ni  Ni5  1  0.41373000  0.50000000  0.15983700  1
  Ni  Ni6  1  0.68516300  0.14862200  0.61913300  1
  Ni  Ni7  1  0.68516300  0.35137800  0.88086700  1
  Ni  Ni8  1  0.31483700  0.14862200  0.38086700  1
  Ni  Ni9  1  0.68516300  0.64862200  0.88086700  1
  Ni  Ni10  1  0.31483700  0.85137800  0.38086700  1
  Ni  Ni11  1  0.31483700  0.64862200  0.11913300  1
  Ni  Ni12  1  0.68516300  0.85137800  0.61913300  1
  Ni  Ni13  1  0.31483700  0.35137800  0.11913300  1
  Ni  Ni14  1  0.40360600  0.00000000  0.74356500  1
  Ni  Ni15  1  0.40360600  0.50000000  0.75643500  1
  Ni  Ni16  1  0.59639400  0.00000000  0.25643500  1
  Ni  Ni17  1  0.59639400  0.50000000  0.24356500  1
  Cu  Cu18  1  0.77209500  0.27027100  0.58313100  1
  Cu  Cu19  1  0.77209500  0.22972900  0.91686900  1
  Cu  Cu20  1  0.22790500  0.27027100  0.41686900  1
  Cu  Cu21  1  0.77209500  0.77027100  0.91686900  1
  Cu  Cu22  1  0.22790500  0.72972900  0.41686900  1
  Cu  Cu23  1  0.22790500  0.77027100  0.08313100  1
  Cu  Cu24  1  0.77209500  0.72972900  0.58313100  1
  Cu  Cu25  1  0.22790500  0.22972900  0.08313100  1
  Cu  Cu26  1  0.25318700  0.00000000  0.81480600  1
  Cu  Cu27  1  0.25318700  0.50000000  0.68519400  1
  Cu  Cu28  1  0.74681300  0.00000000  0.18519400  1
  Cu  Cu29  1  0.74681300  0.50000000  0.31480600  1
