# generated using pymatgen
data_Cu2NiC8
_symmetry_space_group_name_H-M   'P 1'
_cell_length_a   6.56403600
_cell_length_b   7.31865300
_cell_length_c   12.86804388
_cell_angle_alpha   62.76843759
_cell_angle_beta   90.00000000
_cell_angle_gamma   90.00000000
_symmetry_Int_Tables_number   1
_chemical_formula_structural   Cu2NiC8
_chemical_formula_sum   'Cu8 Ni4 C32'
_cell_volume   549.66328428
_cell_formula_units_Z   4
loop_
 _symmetry_equiv_pos_site_id
 _symmetry_equiv_pos_as_xyz
  1  'x, y, z'
loop_
 _atom_site_type_symbol
 _atom_site_label
 _atom_site_symmetry_multiplicity
 _atom_site_fract_x
 _atom_site_fract_y
 _atom_site_fract_z
 _atom_site_occupancy
  C  C0  1  0.35425800  0.74381200  0.52625100  1
  C  C1  1  0.64574200  0.25618800  0.47374900  1
  C  C2  1  0.85425800  0.25618800  0.97374900  1
  C  C3  1  0.14574200  0.74381200  0.02625100  1
  Ni  Ni4  1  0.39884800  0.71139000  0.27053300  1
  Ni  Ni5  1  0.60115200  0.28861000  0.72946700  1
  Ni  Ni6  1  0.89884800  0.28861000  0.22946700  1
  Ni  Ni7  1  0.10115200  0.71139000  0.77053300  1
  Cu  Cu8  1  0.65749000  0.70830600  0.05002600  1
  Cu  Cu9  1  0.34251000  0.29169400  0.94997400  1
  Cu  Cu10  1  0.15749000  0.29169400  0.44997400  1
  Cu  Cu11  1  0.84251000  0.70830600  0.55002600  1
  Cu  Cu12  1  0.90904500  0.80445600  0.28132400  1
  Cu  Cu13  1  0.09095500  0.19554400  0.71867600  1
  Cu  Cu14  1  0.40904500  0.19554400  0.21867600  1
  Cu  Cu15  1  0.59095500  0.80445600  0.78132400  1
  C  C16  1  0.37693200  0.92749100  0.30123200  1
  C  C17  1  0.62306800  0.07250900  0.69876800  1
  C  C18  1  0.87693200  0.07250900  0.19876800  1
  C  C19  1  0.12306800  0.92749100  0.80123200  1
  C  C20  1  0.82460500  0.90749400  0.02299700  1
  C  C21  1  0.17539500  0.09250600  0.97700300  1
  C  C22  1  0.32460500  0.09250600  0.47700300  1
  C  C23  1  0.67539500  0.90749400  0.52299700  1
  C  C24  1  0.61481000  0.27305700  0.27772000  1
  C  C25  1  0.38519000  0.72694300  0.72228000  1
  C  C26  1  0.11481000  0.72694300  0.22228000  1
  C  C27  1  0.88519000  0.27305700  0.77772000  1
  C  C28  1  0.99732500  0.74752900  0.42717300  1
  C  C29  1  0.00267500  0.25247100  0.57282700  1
  C  C30  1  0.49732500  0.25247100  0.07282700  1
  C  C31  1  0.50267500  0.74752900  0.92717300  1
  C  C32  1  0.44754200  0.70337900  0.13520700  1
  C  C33  1  0.55245800  0.29662100  0.86479300  1
  C  C34  1  0.94754200  0.29662100  0.36479300  1
  C  C35  1  0.05245800  0.70337900  0.63520700  1
  C  C36  1  0.83920000  0.50622000  0.08752300  1
  C  C37  1  0.16080000  0.49378000  0.91247700  1
  C  C38  1  0.33920000  0.49378000  0.41247700  1
  C  C39  1  0.66080000  0.50622000  0.58752300  1
  C  C40  1  0.68135900  0.66355100  0.31108400  1
  C  C41  1  0.31864100  0.33644900  0.68891600  1
  C  C42  1  0.18135900  0.33644900  0.18891600  1
  C  C43  1  0.81864100  0.66355100  0.81108400  1
