# generated using pymatgen
data_CuNiC3
_symmetry_space_group_name_H-M   'P 1'
_cell_length_a   3.98247800
_cell_length_b   7.41457100
_cell_length_c   15.35940600
_cell_angle_alpha   90.00000000
_cell_angle_beta   90.00000000
_cell_angle_gamma   90.00000000
_symmetry_Int_Tables_number   1
_chemical_formula_structural   CuNiC3
_chemical_formula_sum   'Cu4 Ni4 C12'
_cell_volume   453.53816017
_cell_formula_units_Z   4
loop_
 _symmetry_equiv_pos_site_id
 _symmetry_equiv_pos_as_xyz
  1  'x, y, z'
loop_
 _atom_site_type_symbol
 _atom_site_label
 _atom_site_symmetry_multiplicity
 _atom_site_fract_x
 _atom_site_fract_y
 _atom_site_fract_z
 _atom_site_occupancy
  Ni  Ni0  1  0.25000000  0.14246800  0.79617100  1
  Ni  Ni1  1  0.25000000  0.64246800  0.70382900  1
  Ni  Ni2  1  0.75000000  0.85753200  0.20382900  1
  Ni  Ni3  1  0.75000000  0.35753200  0.29617100  1
  Cu  Cu4  1  0.25000000  0.76784600  0.45672000  1
  Cu  Cu5  1  0.25000000  0.26784600  0.04328000  1
  Cu  Cu6  1  0.75000000  0.23215400  0.54328000  1
  Cu  Cu7  1  0.75000000  0.73215400  0.95672000  1
  C  C8  1  0.25000000  0.14841900  0.21744100  1
  C  C9  1  0.25000000  0.64841900  0.28255900  1
  C  C10  1  0.75000000  0.85158100  0.78255900  1
  C  C11  1  0.75000000  0.35158100  0.71744100  1
  C  C12  1  0.25000000  0.01092300  0.60716700  1
  C  C13  1  0.25000000  0.51092300  0.89283300  1
  C  C14  1  0.75000000  0.98907700  0.39283300  1
  C  C15  1  0.75000000  0.48907700  0.10716700  1
  C  C16  1  0.25000000  0.37474300  0.43435700  1
  C  C17  1  0.25000000  0.87474300  0.06564300  1
  C  C18  1  0.75000000  0.62525700  0.56564300  1
  C  C19  1  0.75000000  0.12525700  0.93435700  1
