# generated using pymatgen
data_CuNi3C8
_symmetry_space_group_name_H-M   'P 1'
_cell_length_a   7.35218941
_cell_length_b   7.35218941
_cell_length_c   7.35218941
_cell_angle_alpha   122.95139246
_cell_angle_beta   119.91592992
_cell_angle_gamma   87.55524450
_symmetry_Int_Tables_number   1
_chemical_formula_structural   CuNi3C8
_chemical_formula_sum   'Cu2 Ni6 C16'
_cell_volume   274.40310407
_cell_formula_units_Z   2
loop_
 _symmetry_equiv_pos_site_id
 _symmetry_equiv_pos_as_xyz
  1  'x, y, z'
loop_
 _atom_site_type_symbol
 _atom_site_label
 _atom_site_symmetry_multiplicity
 _atom_site_fract_x
 _atom_site_fract_y
 _atom_site_fract_z
 _atom_site_occupancy
  Ni  Ni0  1  0.02715100  0.76658200  0.26056900  1
  Ni  Ni1  1  0.49398700  0.73341800  0.76056900  1
  Ni  Ni2  1  0.50000000  0.75000000  0.25000000  1
  Ni  Ni3  1  0.50000000  0.25000000  0.75000000  1
  Ni  Ni4  1  0.50601300  0.26658200  0.23943100  1
  Ni  Ni5  1  0.97284900  0.23341800  0.73943100  1
  Cu  Cu6  1  0.00000000  0.25000000  0.25000000  1
  Cu  Cu7  1  0.00000000  0.75000000  0.75000000  1
  C  C8  1  0.16478400  0.55927500  0.01478700  1
  C  C9  1  0.45551200  0.94072500  0.10550900  1
  C  C10  1  0.16478400  0.14999700  0.60550900  1
  C  C11  1  0.45551200  0.35000300  0.51478700  1
  C  C12  1  0.31491200  0.93354200  0.38137100  1
  C  C13  1  0.44782900  0.56645800  0.88137100  1
  C  C14  1  0.16915000  0.17684500  0.99230500  1
  C  C15  1  0.81546000  0.32315500  0.49230500  1
  C  C16  1  0.18454000  0.67684500  0.50769500  1
  C  C17  1  0.83085000  0.82315500  0.00769500  1
  C  C18  1  0.55217100  0.43354200  0.11862900  1
  C  C19  1  0.68508800  0.06645800  0.61862900  1
  C  C20  1  0.54448800  0.05927500  0.89449100  1
  C  C21  1  0.54448800  0.64999700  0.48521300  1
  C  C22  1  0.83521600  0.85000300  0.39449100  1
  C  C23  1  0.83521600  0.44072500  0.98521300  1
