# generated using pymatgen
data_Cu12Ni3C4
_symmetry_space_group_name_H-M   'P 1'
_cell_length_a   11.48170486
_cell_length_b   11.48170486
_cell_length_c   11.48170466
_cell_angle_alpha   114.72970502
_cell_angle_beta   114.72970502
_cell_angle_gamma   114.72970087
_symmetry_Int_Tables_number   1
_chemical_formula_structural   Cu12Ni3C4
_chemical_formula_sum   'Cu24 Ni6 C8'
_cell_volume   867.60859104
_cell_formula_units_Z   2
loop_
 _symmetry_equiv_pos_site_id
 _symmetry_equiv_pos_as_xyz
  1  'x, y, z'
loop_
 _atom_site_type_symbol
 _atom_site_label
 _atom_site_symmetry_multiplicity
 _atom_site_fract_x
 _atom_site_fract_y
 _atom_site_fract_z
 _atom_site_occupancy
  C  C0  1  0.50226200  0.50226200  0.50226200  1
  C  C1  1  0.00226200  0.00226200  0.00226200  1
  C  C2  1  0.06828500  0.29344500  0.52805700  1
  C  C3  1  0.29344500  0.52805700  0.06828500  1
  C  C4  1  0.52805700  0.06828500  0.29344500  1
  C  C5  1  0.56828500  0.02805700  0.79344500  1
  C  C6  1  0.02805700  0.79344500  0.56828500  1
  C  C7  1  0.79344500  0.56828500  0.02805700  1
  Ni  Ni8  1  0.36050900  0.14746700  0.53305100  1
  Ni  Ni9  1  0.14746700  0.53305100  0.36050900  1
  Ni  Ni10  1  0.53305100  0.36050900  0.14746700  1
  Ni  Ni11  1  0.86050900  0.03305100  0.64746700  1
  Ni  Ni12  1  0.03305100  0.64746700  0.86050900  1
  Ni  Ni13  1  0.64746700  0.86050900  0.03305100  1
  Cu  Cu14  1  0.10679400  0.18087600  0.71510000  1
  Cu  Cu15  1  0.18087600  0.71510000  0.10679400  1
  Cu  Cu16  1  0.71510000  0.10679400  0.18087600  1
  Cu  Cu17  1  0.60679400  0.21510000  0.68087600  1
  Cu  Cu18  1  0.21510000  0.68087600  0.60679400  1
  Cu  Cu19  1  0.68087600  0.60679400  0.21510000  1
  Cu  Cu20  1  0.31277000  0.12695500  0.31834500  1
  Cu  Cu21  1  0.12695500  0.31834500  0.31277000  1
  Cu  Cu22  1  0.31834500  0.31277000  0.12695500  1
  Cu  Cu23  1  0.81277000  0.81834500  0.62695500  1
  Cu  Cu24  1  0.81834500  0.62695500  0.81277000  1
  Cu  Cu25  1  0.62695500  0.81277000  0.81834500  1
  Cu  Cu26  1  0.41331800  0.37865200  0.69843600  1
  Cu  Cu27  1  0.37865200  0.69843600  0.41331800  1
  Cu  Cu28  1  0.69843600  0.41331800  0.37865200  1
  Cu  Cu29  1  0.91331800  0.19843600  0.87865200  1
  Cu  Cu30  1  0.19843600  0.87865200  0.91331800  1
  Cu  Cu31  1  0.87865200  0.91331800  0.19843600  1
  Cu  Cu32  1  0.65363700  0.92240300  0.38664000  1
  Cu  Cu33  1  0.92240300  0.38664000  0.65363700  1
  Cu  Cu34  1  0.38664000  0.65363700  0.92240300  1
  Cu  Cu35  1  0.15363700  0.88664000  0.42240300  1
  Cu  Cu36  1  0.88664000  0.42240300  0.15363700  1
  Cu  Cu37  1  0.42240300  0.15363700  0.88664000  1
