# generated using pymatgen
data_Cu2NiC6
_symmetry_space_group_name_H-M   'P 1'
_cell_length_a   8.72053886
_cell_length_b   8.72053886
_cell_length_c   8.72053886
_cell_angle_alpha   126.71675485
_cell_angle_beta   126.71675485
_cell_angle_gamma   78.71326173
_symmetry_Int_Tables_number   1
_chemical_formula_structural   Cu2NiC6
_chemical_formula_sum   'Cu4 Ni2 C12'
_cell_volume   412.41768699
_cell_formula_units_Z   2
loop_
 _symmetry_equiv_pos_site_id
 _symmetry_equiv_pos_as_xyz
  1  'x, y, z'
loop_
 _atom_site_type_symbol
 _atom_site_label
 _atom_site_symmetry_multiplicity
 _atom_site_fract_x
 _atom_site_fract_y
 _atom_site_fract_z
 _atom_site_occupancy
  Ni  Ni0  1  0.25000000  0.25000000  0.00000000  1
  Ni  Ni1  1  0.75000000  0.75000000  0.00000000  1
  Cu  Cu2  1  0.33813000  0.16187000  0.50000000  1
  Cu  Cu3  1  0.16187000  0.66187000  0.82374000  1
  Cu  Cu4  1  0.83813000  0.33813000  0.17626000  1
  Cu  Cu5  1  0.66187000  0.83813000  0.50000000  1
  C  C6  1  0.75000000  0.25000000  0.50000000  1
  C  C7  1  0.25000000  0.75000000  0.50000000  1
  C  C8  1  0.48624000  0.98624000  0.20473500  1
  C  C9  1  0.21849500  0.71849500  0.20473500  1
  C  C10  1  0.51376000  0.01376000  0.79526500  1
  C  C11  1  0.01376000  0.21849500  0.50000000  1
  C  C12  1  0.71849500  0.51376000  0.50000000  1
  C  C13  1  0.98624000  0.78150500  0.50000000  1
  C  C14  1  0.28150500  0.48624000  0.50000000  1
  C  C15  1  0.78150500  0.28150500  0.79526500  1
  C  C16  1  0.50000000  0.50000000  0.00000000  1
  C  C17  1  0.00000000  0.00000000  0.00000000  1
