# generated using pymatgen
data_Cu8Ni4C
_symmetry_space_group_name_H-M   'P 1'
_cell_length_a   6.03414200
_cell_length_b   10.64541000
_cell_length_c   14.84385300
_cell_angle_alpha   90.00000000
_cell_angle_beta   90.00000000
_cell_angle_gamma   90.00000000
_symmetry_Int_Tables_number   1
_chemical_formula_structural   Cu8Ni4C
_chemical_formula_sum   'Cu32 Ni16 C4'
_cell_volume   953.50848831
_cell_formula_units_Z   4
loop_
 _symmetry_equiv_pos_site_id
 _symmetry_equiv_pos_as_xyz
  1  'x, y, z'
loop_
 _atom_site_type_symbol
 _atom_site_label
 _atom_site_symmetry_multiplicity
 _atom_site_fract_x
 _atom_site_fract_y
 _atom_site_fract_z
 _atom_site_occupancy
  C  C0  1  0.75000000  0.62597200  0.75000000  1
  C  C1  1  0.25000000  0.87402800  0.25000000  1
  C  C2  1  0.25000000  0.37402800  0.25000000  1
  C  C3  1  0.75000000  0.12597200  0.75000000  1
  Ni  Ni4  1  0.27789700  0.81508300  0.92898200  1
  Ni  Ni5  1  0.22210300  0.81508300  0.57101800  1
  Ni  Ni6  1  0.77789700  0.68491700  0.07101800  1
  Ni  Ni7  1  0.72210300  0.68491700  0.42898200  1
  Ni  Ni8  1  0.72210300  0.18491700  0.07101800  1
  Ni  Ni9  1  0.77789700  0.18491700  0.42898200  1
  Ni  Ni10  1  0.22210300  0.31508300  0.92898200  1
  Ni  Ni11  1  0.27789700  0.31508300  0.57101800  1
  Ni  Ni12  1  0.20745900  0.90873300  0.91154300  1
  Ni  Ni13  1  0.29254100  0.90873300  0.58845700  1
  Ni  Ni14  1  0.70745900  0.59126700  0.08845700  1
  Ni  Ni15  1  0.79254100  0.59126700  0.41154300  1
  Ni  Ni16  1  0.79254100  0.09126700  0.08845700  1
  Ni  Ni17  1  0.70745900  0.09126700  0.41154300  1
  Ni  Ni18  1  0.29254100  0.40873300  0.91154300  1
  Ni  Ni19  1  0.20745900  0.40873300  0.58845700  1
  Cu  Cu20  1  0.68012500  0.62377600  0.88224600  1
  Cu  Cu21  1  0.81987500  0.62377600  0.61775400  1
  Cu  Cu22  1  0.18012500  0.87622400  0.11775400  1
  Cu  Cu23  1  0.31987500  0.87622400  0.38224600  1
  Cu  Cu24  1  0.31987500  0.37622400  0.11775400  1
  Cu  Cu25  1  0.18012500  0.37622400  0.38224600  1
  Cu  Cu26  1  0.81987500  0.12377600  0.88224600  1
  Cu  Cu27  1  0.68012500  0.12377600  0.61775400  1
  Cu  Cu28  1  0.98835700  0.49696000  0.77188800  1
  Cu  Cu29  1  0.51164300  0.49696000  0.72811200  1
  Cu  Cu30  1  0.48835700  0.00304000  0.22811200  1
  Cu  Cu31  1  0.01164300  0.00304000  0.27188800  1
  Cu  Cu32  1  0.01164300  0.50304000  0.22811200  1
  Cu  Cu33  1  0.48835700  0.50304000  0.27188800  1
  Cu  Cu34  1  0.51164300  0.99696000  0.77188800  1
  Cu  Cu35  1  0.98835700  0.99696000  0.72811200  1
  Cu  Cu36  1  0.98423500  0.75540600  0.77331600  1
  Cu  Cu37  1  0.51576500  0.75540600  0.72668400  1
  Cu  Cu38  1  0.48423500  0.74459400  0.22668400  1
  Cu  Cu39  1  0.01576500  0.74459400  0.27331600  1
  Cu  Cu40  1  0.01576500  0.24459400  0.22668400  1
  Cu  Cu41  1  0.48423500  0.24459400  0.27331600  1
  Cu  Cu42  1  0.51576500  0.25540600  0.77331600  1
  Cu  Cu43  1  0.98423500  0.25540600  0.72668400  1
  Cu  Cu44  1  0.75383600  0.84907600  0.01445000  1
  Cu  Cu45  1  0.74616400  0.84907600  0.48555000  1
  Cu  Cu46  1  0.25383600  0.65092400  0.98555000  1
  Cu  Cu47  1  0.24616400  0.65092400  0.51445000  1
  Cu  Cu48  1  0.24616400  0.15092400  0.98555000  1
  Cu  Cu49  1  0.25383600  0.15092400  0.51445000  1
  Cu  Cu50  1  0.74616400  0.34907600  0.01445000  1
  Cu  Cu51  1  0.75383600  0.34907600  0.48555000  1
