# generated using pymatgen
data_CuNi6C
_symmetry_space_group_name_H-M   'P 1'
_cell_length_a   7.14538801
_cell_length_b   7.14538801
_cell_length_c   4.86562800
_cell_angle_alpha   90.00000000
_cell_angle_beta   90.00000000
_cell_angle_gamma   119.50086393
_symmetry_Int_Tables_number   1
_chemical_formula_structural   CuNi6C
_chemical_formula_sum   'Cu1 Ni6 C1'
_cell_volume   216.21389808
_cell_formula_units_Z   1
loop_
 _symmetry_equiv_pos_site_id
 _symmetry_equiv_pos_as_xyz
  1  'x, y, z'
loop_
 _atom_site_type_symbol
 _atom_site_label
 _atom_site_symmetry_multiplicity
 _atom_site_fract_x
 _atom_site_fract_y
 _atom_site_fract_z
 _atom_site_occupancy
  C  C0  1  0.67450300  0.32549700  0.50000000  1
  Ni  Ni1  1  0.85874800  0.73703700  0.00000000  1
  Ni  Ni2  1  0.26296300  0.14125200  0.00000000  1
  Ni  Ni3  1  0.33437600  0.66562400  0.00000000  1
  Ni  Ni4  1  0.69869000  0.85848900  0.50000000  1
  Ni  Ni5  1  0.14151100  0.30131000  0.50000000  1
  Ni  Ni6  1  0.16020800  0.83979200  0.50000000  1
  Cu  Cu7  1  0.86900000  0.13100000  0.00000000  1
