# generated using pymatgen
data_Cu2Ni2C13
_symmetry_space_group_name_H-M   'P 1'
_cell_length_a   5.49973700
_cell_length_b   5.81426300
_cell_length_c   14.94543283
_cell_angle_alpha   68.65583756
_cell_angle_beta   90.00000000
_cell_angle_gamma   90.00000000
_symmetry_Int_Tables_number   1
_chemical_formula_structural   Cu2Ni2C13
_chemical_formula_sum   'Cu4 Ni4 C26'
_cell_volume   445.12956165
_cell_formula_units_Z   2
loop_
 _symmetry_equiv_pos_site_id
 _symmetry_equiv_pos_as_xyz
  1  'x, y, z'
loop_
 _atom_site_type_symbol
 _atom_site_label
 _atom_site_symmetry_multiplicity
 _atom_site_fract_x
 _atom_site_fract_y
 _atom_site_fract_z
 _atom_site_occupancy
  C  C0  1  0.73016200  0.06854600  0.88571100  1
  C  C1  1  0.77125200  0.93669100  0.11113300  1
  C  C2  1  0.76629600  0.62147200  0.40746900  1
  C  C3  1  0.22874800  0.93669100  0.61113300  1
  C  C4  1  0.23370400  0.62147200  0.90746900  1
  C  C5  1  0.26983800  0.06854600  0.38571100  1
  Ni  Ni6  1  0.81278700  0.33579100  0.24846400  1
  Ni  Ni7  1  0.18721300  0.33579100  0.74846400  1
  Ni  Ni8  1  0.30745600  0.65407000  0.24603300  1
  Ni  Ni9  1  0.69254400  0.65407000  0.74603300  1
  Cu  Cu10  1  0.73948100  0.50281600  0.00529900  1
  Cu  Cu11  1  0.74687000  0.01198100  0.50258700  1
  Cu  Cu12  1  0.26051900  0.50281600  0.50529900  1
  Cu  Cu13  1  0.25313000  0.01198100  0.00258700  1
  C  C14  1  0.85345900  0.37227700  0.75282700  1
  C  C15  1  0.02699400  0.73522200  0.51419500  1
  C  C16  1  0.97300600  0.73522200  0.01419500  1
  C  C17  1  0.72957200  0.29464400  0.13647700  1
  C  C18  1  0.49438800  0.76634300  0.01524800  1
  C  C19  1  0.51282300  0.27953000  0.97840900  1
  C  C20  1  0.50561200  0.76634300  0.51524800  1
  C  C21  1  0.27851500  0.06306000  0.85784100  1
  C  C22  1  0.34606800  0.62245400  0.75282200  1
  C  C23  1  0.14654100  0.37227700  0.25282700  1
  C  C24  1  0.48717700  0.27953000  0.47840900  1
  C  C25  1  0.77032000  0.70025500  0.86181700  1
  C  C26  1  0.72148500  0.06306000  0.35784100  1
  C  C27  1  0.65393200  0.62245400  0.25282200  1
  C  C28  1  0.99985600  0.24537100  0.47642900  1
  C  C29  1  0.27042800  0.29464400  0.63647700  1
  C  C30  1  0.21435800  0.92466100  0.13914900  1
  C  C31  1  0.00014400  0.24537100  0.97642900  1
  C  C32  1  0.78564200  0.92466100  0.63914900  1
  C  C33  1  0.22968000  0.70025500  0.36181700  1
