# generated using pymatgen
data_Cu2(NiC8)3
_symmetry_space_group_name_H-M   'P 1'
_cell_length_a   9.65189454
_cell_length_b   9.65189454
_cell_length_c   9.31313445
_cell_angle_alpha   82.39699758
_cell_angle_beta   82.39699758
_cell_angle_gamma   55.98535722
_symmetry_Int_Tables_number   1
_chemical_formula_structural   Cu2(NiC8)3
_chemical_formula_sum   'Cu4 Ni6 C48'
_cell_volume   711.03256643
_cell_formula_units_Z   2
loop_
 _symmetry_equiv_pos_site_id
 _symmetry_equiv_pos_as_xyz
  1  'x, y, z'
loop_
 _atom_site_type_symbol
 _atom_site_label
 _atom_site_symmetry_multiplicity
 _atom_site_fract_x
 _atom_site_fract_y
 _atom_site_fract_z
 _atom_site_occupancy
  Ni  Ni0  1  0.65733500  0.69853400  0.10515200  1
  Ni  Ni1  1  0.34266500  0.30146600  0.89484800  1
  Ni  Ni2  1  0.30146600  0.34266500  0.39484800  1
  Ni  Ni3  1  0.69853400  0.65733500  0.60515200  1
  Ni  Ni4  1  0.60484000  0.39516000  0.25000000  1
  Ni  Ni5  1  0.39516000  0.60484000  0.75000000  1
  Cu  Cu6  1  0.24808600  0.12251600  0.18974800  1
  Cu  Cu7  1  0.75191400  0.87748400  0.81025200  1
  Cu  Cu8  1  0.87748400  0.75191400  0.31025200  1
  Cu  Cu9  1  0.12251600  0.24808600  0.68974800  1
  C  C10  1  0.58783600  0.09787700  0.14888000  1
  C  C11  1  0.41216400  0.90212300  0.85112000  1
  C  C12  1  0.90212300  0.41216400  0.35112000  1
  C  C13  1  0.09787700  0.58783600  0.64888000  1
  C  C14  1  0.39297200  0.76527700  0.37678200  1
  C  C15  1  0.60702800  0.23472300  0.62321800  1
  C  C16  1  0.23472300  0.60702800  0.12321800  1
  C  C17  1  0.76527700  0.39297200  0.87678200  1
  C  C18  1  0.52891100  0.29614500  0.47399100  1
  C  C19  1  0.47108900  0.70385500  0.52600900  1
  C  C20  1  0.70385500  0.47108900  0.02600900  1
  C  C21  1  0.29614500  0.52891100  0.97399100  1
  C  C22  1  0.91712200  0.88905900  0.34201900  1
  C  C23  1  0.08287800  0.11094100  0.65798100  1
  C  C24  1  0.11094100  0.08287800  0.15798100  1
  C  C25  1  0.88905900  0.91712200  0.84201900  1
  C  C26  1  0.53008300  0.63261300  0.26243700  1
  C  C27  1  0.46991700  0.36738700  0.73756300  1
  C  C28  1  0.36738700  0.46991700  0.23756300  1
  C  C29  1  0.63261300  0.53008300  0.76243700  1
  C  C30  1  0.72834100  0.79794300  0.46067700  1
  C  C31  1  0.27165900  0.20205700  0.53932300  1
  C  C32  1  0.20205700  0.27165900  0.03932300  1
  C  C33  1  0.79794300  0.72834100  0.96067700  1
  C  C34  1  0.37736400  0.93048000  0.31703200  1
  C  C35  1  0.62263600  0.06952000  0.68296800  1
  C  C36  1  0.06952000  0.62263600  0.18296800  1
  C  C37  1  0.93048000  0.37736400  0.81703200  1
  C  C38  1  0.67567800  0.17963500  0.18576000  1
  C  C39  1  0.32432200  0.82036500  0.81424000  1
  C  C40  1  0.82036500  0.32432200  0.31424000  1
  C  C41  1  0.17963500  0.67567800  0.68576000  1
  C  C42  1  0.23246400  0.76651500  0.11470600  1
  C  C43  1  0.76753600  0.23348500  0.88529400  1
  C  C44  1  0.23348500  0.76753600  0.38529400  1
  C  C45  1  0.76651500  0.23246400  0.61470600  1
  C  C46  1  0.45522300  0.87198500  0.01200200  1
  C  C47  1  0.54477700  0.12801500  0.98799800  1
  C  C48  1  0.12801500  0.54477700  0.48799800  1
  C  C49  1  0.87198500  0.45522300  0.51200200  1
  C  C50  1  0.69816500  0.90559700  0.17680000  1
  C  C51  1  0.30183500  0.09440300  0.82320000  1
  C  C52  1  0.09440300  0.30183500  0.32320000  1
  C  C53  1  0.90559700  0.69816500  0.67680000  1
  C  C54  1  0.41597500  0.16975000  0.24357000  1
  C  C55  1  0.58402500  0.83025000  0.75643000  1
  C  C56  1  0.83025000  0.58402500  0.25643000  1
  C  C57  1  0.16975000  0.41597500  0.74357000  1
