# generated using pymatgen
data_CuNiC12
_symmetry_space_group_name_H-M   'P 1'
_cell_length_a   10.15163100
_cell_length_b   10.89338800
_cell_length_c   14.17462600
_cell_angle_alpha   90.00000000
_cell_angle_beta   90.00000000
_cell_angle_gamma   90.00000000
_symmetry_Int_Tables_number   1
_chemical_formula_structural   CuNiC12
_chemical_formula_sum   'Cu8 Ni8 C96'
_cell_volume   1567.51030507
_cell_formula_units_Z   8
loop_
 _symmetry_equiv_pos_site_id
 _symmetry_equiv_pos_as_xyz
  1  'x, y, z'
loop_
 _atom_site_type_symbol
 _atom_site_label
 _atom_site_symmetry_multiplicity
 _atom_site_fract_x
 _atom_site_fract_y
 _atom_site_fract_z
 _atom_site_occupancy
  Ni  Ni0  1  0.50000000  0.00000000  0.50000000  1
  Ni  Ni1  1  0.50000000  0.00000000  0.00000000  1
  Ni  Ni2  1  0.00000000  0.00000000  0.50000000  1
  Ni  Ni3  1  0.00000000  0.00000000  0.00000000  1
  Ni  Ni4  1  0.03267900  0.50000000  0.25000000  1
  Ni  Ni5  1  0.46732100  0.50000000  0.75000000  1
  Ni  Ni6  1  0.96732100  0.50000000  0.75000000  1
  Ni  Ni7  1  0.53267900  0.50000000  0.25000000  1
  Cu  Cu8  1  0.47824400  0.75196200  0.12363000  1
  Cu  Cu9  1  0.47824400  0.24803800  0.37637000  1
  Cu  Cu10  1  0.02175600  0.75196200  0.87637000  1
  Cu  Cu11  1  0.02175600  0.24803800  0.62363000  1
  Cu  Cu12  1  0.52175600  0.24803800  0.87637000  1
  Cu  Cu13  1  0.52175600  0.75196200  0.62363000  1
  Cu  Cu14  1  0.97824400  0.24803800  0.12363000  1
  Cu  Cu15  1  0.97824400  0.75196200  0.37637000  1
  C  C16  1  0.28502200  0.52842100  0.39901600  1
  C  C17  1  0.28502200  0.47157900  0.10098400  1
  C  C18  1  0.21497800  0.52842100  0.60098400  1
  C  C19  1  0.21497800  0.47157900  0.89901600  1
  C  C20  1  0.71497800  0.47157900  0.60098400  1
  C  C21  1  0.71497800  0.52842100  0.89901600  1
  C  C22  1  0.78502200  0.47157900  0.39901600  1
  C  C23  1  0.78502200  0.52842100  0.10098400  1
  C  C24  1  0.44898600  0.74836000  0.37395200  1
  C  C25  1  0.44898600  0.25164000  0.12604800  1
  C  C26  1  0.05101400  0.74836000  0.62604800  1
  C  C27  1  0.05101400  0.25164000  0.87395200  1
  C  C28  1  0.55101400  0.25164000  0.62604800  1
  C  C29  1  0.55101400  0.74836000  0.87395200  1
  C  C30  1  0.94898600  0.25164000  0.37395200  1
  C  C31  1  0.94898600  0.74836000  0.12604800  1
  C  C32  1  0.26191500  0.95439100  0.35136400  1
  C  C33  1  0.26191500  0.04560900  0.14863600  1
  C  C34  1  0.23808500  0.95439100  0.64863600  1
  C  C35  1  0.23808500  0.04560900  0.85136400  1
  C  C36  1  0.73808500  0.04560900  0.64863600  1
  C  C37  1  0.73808500  0.95439100  0.85136400  1
  C  C38  1  0.76191500  0.04560900  0.35136400  1
  C  C39  1  0.76191500  0.95439100  0.14863600  1
  C  C40  1  0.25000000  0.53169600  0.00000000  1
  C  C41  1  0.25000000  0.46830400  0.50000000  1
  C  C42  1  0.75000000  0.46830400  0.00000000  1
  C  C43  1  0.75000000  0.53169600  0.50000000  1
  C  C44  1  0.16108800  0.56643700  0.34974000  1
  C  C45  1  0.16108800  0.43356300  0.15026000  1
  C  C46  1  0.33891200  0.56643700  0.65026000  1
  C  C47  1  0.33891200  0.43356300  0.84974000  1
  C  C48  1  0.83891200  0.43356300  0.65026000  1
  C  C49  1  0.83891200  0.56643700  0.84974000  1
  C  C50  1  0.66108800  0.43356300  0.34974000  1
  C  C51  1  0.66108800  0.56643700  0.15026000  1
  C  C52  1  0.37930200  0.55691300  0.15026000  1
  C  C53  1  0.37930200  0.44308700  0.34974000  1
  C  C54  1  0.12069800  0.55691300  0.84974000  1
  C  C55  1  0.12069800  0.44308700  0.65026000  1
  C  C56  1  0.62069800  0.44308700  0.84974000  1
  C  C57  1  0.62069800  0.55691300  0.65026000  1
  C  C58  1  0.87930200  0.44308700  0.15026000  1
  C  C59  1  0.87930200  0.55691300  0.34974000  1
  C  C60  1  0.36226400  0.65102900  0.43343400  1
  C  C61  1  0.36226400  0.34897100  0.06656600  1
  C  C62  1  0.13773600  0.65102900  0.56656600  1
  C  C63  1  0.13773600  0.34897100  0.93343400  1
  C  C64  1  0.63773600  0.34897100  0.56656600  1
  C  C65  1  0.63773600  0.65102900  0.93343400  1
  C  C66  1  0.86226400  0.34897100  0.43343400  1
  C  C67  1  0.97583100  0.31709000  0.79784200  1
  C  C68  1  0.86226400  0.65102900  0.06656600  1
  C  C69  1  0.52310000  0.17665300  0.05458000  1
  C  C70  1  0.97690000  0.82334700  0.55458000  1
  C  C71  1  0.97690000  0.17665300  0.94542000  1
  C  C72  1  0.47690000  0.17665300  0.55458000  1
  C  C73  1  0.47690000  0.82334700  0.94542000  1
  C  C74  1  0.02310000  0.17665300  0.44542000  1
  C  C75  1  0.02310000  0.82334700  0.05458000  1
  C  C76  1  0.02416900  0.68291000  0.20215800  1
  C  C77  1  0.02416900  0.31709000  0.29784200  1
  C  C78  1  0.47583100  0.68291000  0.79784200  1
  C  C79  1  0.47583100  0.31709000  0.70215800  1
  C  C80  1  0.71016100  0.00000000  0.25000000  1
  C  C81  1  0.78983900  0.00000000  0.75000000  1
  C  C82  1  0.28983900  0.00000000  0.75000000  1
  C  C83  1  0.21016100  0.00000000  0.25000000  1
  C  C84  1  0.64130800  0.91816400  0.09353900  1
  C  C85  1  0.64130800  0.08183600  0.40646100  1
  C  C86  1  0.85869200  0.91816400  0.90646100  1
  C  C87  1  0.85869200  0.08183600  0.59353900  1
  C  C88  1  0.35869200  0.08183600  0.90646100  1
  C  C89  1  0.35869200  0.91816400  0.59353900  1
  C  C90  1  0.14130800  0.08183600  0.09353900  1
  C  C91  1  0.14130800  0.91816400  0.40646100  1
  C  C92  1  0.85765900  0.95571600  0.39389200  1
  C  C93  1  0.85765900  0.04428400  0.10610800  1
  C  C94  1  0.64234100  0.95571600  0.60610800  1
  C  C95  1  0.64234100  0.04428400  0.89389200  1
  C  C96  1  0.14234100  0.04428400  0.60610800  1
  C  C97  1  0.14234100  0.95571600  0.89389200  1
  C  C98  1  0.35765900  0.04428400  0.39389200  1
  C  C99  1  0.35765900  0.95571600  0.10610800  1
  C  C100  1  0.83962500  0.83071200  0.17976100  1
  C  C101  1  0.83962500  0.16928800  0.32023900  1
  C  C102  1  0.66037500  0.83071200  0.82023900  1
  C  C103  1  0.66037500  0.16928800  0.67976100  1
  C  C104  1  0.16037500  0.16928800  0.82023900  1
  C  C105  1  0.16037500  0.83071200  0.67976100  1
  C  C106  1  0.33962500  0.16928800  0.17976100  1
  C  C107  1  0.33962500  0.83071200  0.32023900  1
  C  C108  1  0.52416900  0.68291000  0.29784200  1
  C  C109  1  0.52416900  0.31709000  0.20215800  1
  C  C110  1  0.97583100  0.68291000  0.70215800  1
  C  C111  1  0.52310000  0.82334700  0.44542000  1
