# generated using pymatgen
data_Cu5(Ni12C19)3
_symmetry_space_group_name_H-M   'P 1'
_cell_length_a   9.54478336
_cell_length_b   9.66792986
_cell_length_c   10.02290018
_cell_angle_alpha   89.92689357
_cell_angle_beta   90.05424367
_cell_angle_gamma   89.81817558
_symmetry_Int_Tables_number   1
_chemical_formula_structural   Cu5(Ni12C19)3
_chemical_formula_sum   'Cu5 Ni36 C57'
_cell_volume   924.89032194
_cell_formula_units_Z   1
loop_
 _symmetry_equiv_pos_site_id
 _symmetry_equiv_pos_as_xyz
  1  'x, y, z'
loop_
 _atom_site_type_symbol
 _atom_site_label
 _atom_site_symmetry_multiplicity
 _atom_site_fract_x
 _atom_site_fract_y
 _atom_site_fract_z
 _atom_site_occupancy
  C  C0  1  0.10283800  0.25901600  0.35994700  1
  C  C1  1  0.15542300  0.47093400  0.82562500  1
  C  C2  1  0.34340500  0.53513500  0.32362900  1
  C  C3  1  0.39063600  0.73672100  0.86244500  1
  C  C4  1  0.60789500  0.23798900  0.63300400  1
  C  C5  1  0.65455300  0.03146300  0.17335200  1
  C  C6  1  0.84660500  0.97449400  0.67083000  1
  C  C7  1  0.89027800  0.76564100  0.13649600  1
  C  C8  1  0.07277600  0.79203800  0.85470800  1
  C  C9  1  0.07687500  0.48913700  0.14020000  1
  C  C10  1  0.41489000  0.51369600  0.64093700  1
  C  C11  1  0.42501900  0.21907900  0.35291700  1
  C  C12  1  0.57055600  0.71844500  0.14437000  1
  C  C13  1  0.57871500  0.01597300  0.85508400  1
  C  C14  1  0.92120500  0.98428400  0.35888200  1
  C  C15  1  0.92619600  0.29198800  0.64177300  1
  C  C16  1  0.00173400  0.10157500  0.03690900  1
  C  C17  1  0.01210400  0.27138500  0.99703200  1
  C  C18  1  0.06380200  0.65345000  0.63319300  1
  C  C19  1  0.11790700  0.69139000  0.47023300  1
  C  C20  1  0.15128400  0.02607600  0.69921100  1
  C  C21  1  0.17184400  0.98622200  0.22615500  1
  C  C22  1  0.24304200  0.89582700  0.09591400  1
  C  C23  1  0.23855700  0.16890300  0.74973400  1
  C  C24  1  0.25464900  0.83441100  0.25473800  1
  C  C25  1  0.25909800  0.10984600  0.59112100  1
  C  C26  1  0.28980900  0.56411900  0.00981900  1
  C  C27  1  0.32691200  0.01920800  0.72308600  1
  C  C28  1  0.34837400  0.97606000  0.20798000  1
  C  C29  1  0.36051100  0.30715700  0.95864400  1
  C  C30  1  0.44440200  0.34843200  0.10580600  1
  C  C31  1  0.49658200  0.71887100  0.49262400  1
  C  C32  1  0.49461500  0.88531700  0.54272900  1
  C  C33  1  0.51158300  0.38868300  0.95245400  1
  C  C34  1  0.50808600  0.22237500  0.00519000  1
  C  C35  1  0.56077700  0.84332900  0.38992000  1
  C  C36  1  0.64542300  0.80284100  0.53800400  1
  C  C37  1  0.65092300  0.48204000  0.30037100  1
  C  C38  1  0.67217200  0.52042200  0.76583800  1
  C  C39  1  0.70795400  0.06247300  0.48799300  1
  C  C40  1  0.74076100  0.60567400  0.90003700  1
  C  C41  1  0.74033100  0.33944200  0.25262500  1
  C  C42  1  0.76367900  0.66947200  0.74309400  1
  C  C43  1  0.76005200  0.40263500  0.41021800  1
  C  C44  1  0.79080500  0.94069000  0.98911600  1
  C  C45  1  0.82607500  0.49130400  0.27661300  1
  C  C46  1  0.84748500  0.52207800  0.79058300  1
  C  C47  1  0.85834500  0.19589300  0.03771900  1
  C  C48  1  0.94050500  0.15959300  0.88710800  1
  C  C49  1  0.09981600  0.53820100  0.51374900  1
  C  C50  1  0.24441000  0.08062300  0.68912300  1
  C  C51  1  0.25447700  0.92339100  0.19474400  1
  C  C52  1  0.45695800  0.31759700  0.00680500  1
  C  C53  1  0.54881600  0.81300300  0.48929100  1
  C  C54  1  0.74474800  0.42889400  0.31133400  1
  C  C55  1  0.75553500  0.57921800  0.80158300  1
  C  C56  1  0.95378300  0.18183500  0.98850200  1
  Ni  Ni57  1  0.00647400  0.90533000  0.76839600  1
  Ni  Ni58  1  0.99635600  0.77119900  0.98744200  1
  Ni  Ni59  1  0.02503200  0.09346900  0.29988500  1
  Ni  Ni60  1  0.05673800  0.63155300  0.52759100  1
  Ni  Ni61  1  0.04920800  0.34770900  0.21081500  1
  Ni  Ni62  1  0.05390000  0.46505800  0.98959300  1
  Ni  Ni63  1  0.07327300  0.65330500  0.77389100  1
  Ni  Ni64  1  0.22672000  0.83489000  0.88621600  1
  Ni  Ni65  1  0.23039000  0.53570600  0.16599700  1
  Ni  Ni66  1  0.26397500  0.46729300  0.66971900  1
  Ni  Ni67  1  0.27085600  0.17435300  0.38408700  1
  Ni  Ni68  1  0.30256200  0.56769300  0.91166800  1
  Ni  Ni69  1  0.42281400  0.35983500  0.27916600  1
  Ni  Ni70  1  0.43673800  0.53897300  0.48973600  1
  Ni  Ni71  1  0.44633000  0.65560000  0.70952500  1
  Ni  Ni72  1  0.47384800  0.90691300  0.80110000  1
  Ni  Ni73  1  0.50153300  0.23113700  0.48647700  1
  Ni  Ni74  1  0.49132500  0.10848100  0.26285300  1
  Ni  Ni75  1  0.49952300  0.61139700  0.23558500  1
  Ni  Ni76  1  0.49898500  0.72766400  0.00773300  1
  Ni  Ni77  1  0.52582500  0.40871000  0.69338800  1
  Ni  Ni78  1  0.54571000  0.15591400  0.78382100  1
  Ni  Ni79  1  0.55480000  0.04109300  0.00579100  1
  Ni  Ni80  1  0.56732300  0.85968100  0.21648500  1
  Ni  Ni81  1  0.69513900  0.06836200  0.58619500  1
  Ni  Ni82  1  0.72444000  0.67053700  0.12025300  1
  Ni  Ni83  1  0.73404800  0.97415700  0.83166300  1
  Ni  Ni84  1  0.76605300  0.02804500  0.33292900  1
  Ni  Ni85  1  0.77167600  0.33599700  0.61254700  1
  Ni  Ni86  1  0.80410700  0.93578000  0.08735800  1
  Ni  Ni87  1  0.92936100  0.15142400  0.71487700  1
  Ni  Ni88  1  0.94791500  0.96911300  0.50868400  1
  Ni  Ni89  1  0.95351500  0.84500500  0.28791100  1
  Ni  Ni90  1  0.96927700  0.59430600  0.19434900  1
  Ni  Ni91  1  0.00160600  0.28447300  0.50620300  1
  Ni  Ni92  1  0.99217800  0.40270800  0.73235100  1
  Cu  Cu93  1  0.19411500  0.43514800  0.40512600  1
  Cu  Cu94  1  0.21571100  0.29409000  0.86572300  1
  Cu  Cu95  1  0.26184000  0.70269400  0.36867200  1
  Cu  Cu96  1  0.71902200  0.20726800  0.13840100  1
  Cu  Cu97  1  0.78316900  0.79894800  0.63766000  1
