# generated using pymatgen
data_Cu13NiC6
_symmetry_space_group_name_H-M   'P 1'
_cell_length_a   8.00579500
_cell_length_b   8.00579500
_cell_length_c   12.90163745
_cell_angle_alpha   108.07506333
_cell_angle_beta   108.07506333
_cell_angle_gamma   90.00000000
_symmetry_Int_Tables_number   1
_chemical_formula_structural   Cu13NiC6
_chemical_formula_sum   'Cu26 Ni2 C12'
_cell_volume   743.05004520
_cell_formula_units_Z   2
loop_
 _symmetry_equiv_pos_site_id
 _symmetry_equiv_pos_as_xyz
  1  'x, y, z'
loop_
 _atom_site_type_symbol
 _atom_site_label
 _atom_site_symmetry_multiplicity
 _atom_site_fract_x
 _atom_site_fract_y
 _atom_site_fract_z
 _atom_site_occupancy
  C  C0  1  0.60422300  0.60422300  0.20844600  1
  C  C1  1  0.10422300  0.10422300  0.20844600  1
  C  C2  1  0.39577700  0.39577700  0.79155400  1
  C  C3  1  0.89577700  0.89577700  0.79155400  1
  C  C4  1  0.97879200  0.47879200  0.63125200  1
  C  C5  1  0.65246000  0.15246000  0.63125200  1
  C  C6  1  0.15246000  0.97879200  0.63125200  1
  C  C7  1  0.47879200  0.65246000  0.63125200  1
  C  C8  1  0.02120800  0.52120800  0.36874800  1
  C  C9  1  0.34754000  0.84754000  0.36874800  1
  C  C10  1  0.84754000  0.02120800  0.36874800  1
  C  C11  1  0.52120800  0.34754000  0.36874800  1
  Ni  Ni12  1  0.25000000  0.25000000  0.50000000  1
  Ni  Ni13  1  0.75000000  0.75000000  0.50000000  1
  Cu  Cu14  1  0.00000000  0.50000000  0.00000000  1
  Cu  Cu15  1  0.50000000  0.00000000  0.00000000  1
  Cu  Cu16  1  0.71006200  0.56631400  0.00000000  1
  Cu  Cu17  1  0.28993800  0.43368600  0.00000000  1
  Cu  Cu18  1  0.78993800  0.06631400  0.00000000  1
  Cu  Cu19  1  0.21006200  0.93368600  0.00000000  1
  Cu  Cu20  1  0.56631400  0.28993800  0.00000000  1
  Cu  Cu21  1  0.43368600  0.71006200  0.00000000  1
  Cu  Cu22  1  0.06631400  0.21006200  0.00000000  1
  Cu  Cu23  1  0.93368600  0.78993800  0.00000000  1
  Cu  Cu24  1  0.11985400  0.61985400  0.88161700  1
  Cu  Cu25  1  0.76176200  0.26176200  0.88161700  1
  Cu  Cu26  1  0.26176200  0.11985400  0.88161700  1
  Cu  Cu27  1  0.61985400  0.76176200  0.88161700  1
  Cu  Cu28  1  0.88014600  0.38014600  0.11838300  1
  Cu  Cu29  1  0.23823800  0.73823800  0.11838300  1
  Cu  Cu30  1  0.73823800  0.88014600  0.11838300  1
  Cu  Cu31  1  0.38014600  0.23823800  0.11838300  1
  Cu  Cu32  1  0.29173100  0.79173100  0.81036100  1
  Cu  Cu33  1  0.51862900  0.01862900  0.81036100  1
  Cu  Cu34  1  0.01862900  0.29173100  0.81036100  1
  Cu  Cu35  1  0.79173100  0.51862900  0.81036100  1
  Cu  Cu36  1  0.70826900  0.20826900  0.18963900  1
  Cu  Cu37  1  0.48137100  0.98137100  0.18963900  1
  Cu  Cu38  1  0.98137100  0.70826900  0.18963900  1
  Cu  Cu39  1  0.20826900  0.48137100  0.18963900  1
