# generated using pymatgen
data_CuNiC11
_symmetry_space_group_name_H-M   'P 1'
_cell_length_a   11.70444322
_cell_length_b   11.70444322
_cell_length_c   5.64540121
_cell_angle_alpha   83.53736627
_cell_angle_beta   83.53736627
_cell_angle_gamma   25.54936303
_symmetry_Int_Tables_number   1
_chemical_formula_structural   CuNiC11
_chemical_formula_sum   'Cu2 Ni2 C22'
_cell_volume   331.32365538
_cell_formula_units_Z   2
loop_
 _symmetry_equiv_pos_site_id
 _symmetry_equiv_pos_as_xyz
  1  'x, y, z'
loop_
 _atom_site_type_symbol
 _atom_site_label
 _atom_site_symmetry_multiplicity
 _atom_site_fract_x
 _atom_site_fract_y
 _atom_site_fract_z
 _atom_site_occupancy
  C  C0  1  0.84467800  0.34985300  0.25261500  1
  C  C1  1  0.15528500  0.63968500  0.74641000  1
  C  C2  1  0.34985300  0.84467800  0.75261500  1
  C  C3  1  0.63968500  0.15528500  0.24641000  1
  Ni  Ni4  1  0.49899000  0.99578800  0.49970000  1
  Ni  Ni5  1  0.99578800  0.49899000  0.99970000  1
  Cu  Cu6  1  0.30113100  0.68979200  0.20655900  1
  Cu  Cu7  1  0.68979200  0.30113100  0.70655900  1
  C  C8  1  0.07210400  0.53639700  0.36479600  1
  C  C9  1  0.45823800  0.92221800  0.13749000  1
  C  C10  1  0.53639700  0.07210400  0.86479600  1
  C  C11  1  0.92221800  0.45823800  0.63749000  1
  C  C12  1  0.28169100  0.15398000  0.82586500  1
  C  C13  1  0.36532400  0.62204500  0.87488800  1
  C  C14  1  0.15398000  0.28169100  0.32586500  1
  C  C15  1  0.72431200  0.11417000  0.80929100  1
  C  C16  1  0.41496200  0.22198300  0.52941200  1
  C  C17  1  0.22198300  0.41496200  0.02941200  1
  C  C18  1  0.62204500  0.36532400  0.37488800  1
  C  C19  1  0.71159100  0.84087900  0.17684100  1
  C  C20  1  0.84087900  0.71159100  0.67684100  1
  C  C21  1  0.11417000  0.72431200  0.30929100  1
  C  C22  1  0.28357500  0.86492800  0.21146700  1
  C  C23  1  0.86492800  0.28357500  0.71146700  1
  C  C24  1  0.77115700  0.58074200  0.97174200  1
  C  C25  1  0.58074200  0.77115700  0.47174200  1
