# generated using pymatgen
data_Cu4Ni4C3
_symmetry_space_group_name_H-M   'P 1'
_cell_length_a   8.45167483
_cell_length_b   8.45167483
_cell_length_c   8.45167483
_cell_angle_alpha   149.17550021
_cell_angle_beta   131.22488160
_cell_angle_gamma   58.81808367
_symmetry_Int_Tables_number   1
_chemical_formula_structural   Cu4Ni4C3
_chemical_formula_sum   'Cu4 Ni4 C3'
_cell_volume   230.84455500
_cell_formula_units_Z   1
loop_
 _symmetry_equiv_pos_site_id
 _symmetry_equiv_pos_as_xyz
  1  'x, y, z'
loop_
 _atom_site_type_symbol
 _atom_site_label
 _atom_site_symmetry_multiplicity
 _atom_site_fract_x
 _atom_site_fract_y
 _atom_site_fract_z
 _atom_site_occupancy
  C  C0  1  0.50000000  0.00000000  0.50000000  1
  C  C1  1  0.86948200  0.86948200  0.00000000  1
  C  C2  1  0.13051800  0.13051800  0.00000000  1
  Ni  Ni3  1  0.48388600  0.67174100  0.81214400  1
  Ni  Ni4  1  0.85959700  0.67174100  0.18785600  1
  Ni  Ni5  1  0.14040300  0.32825900  0.81214400  1
  Ni  Ni6  1  0.51611400  0.32825900  0.18785600  1
  Cu  Cu7  1  0.28387600  0.78387600  0.50000000  1
  Cu  Cu8  1  0.71612400  0.21612400  0.50000000  1
  Cu  Cu9  1  0.79647200  0.50000000  0.29647200  1
  Cu  Cu10  1  0.20352800  0.50000000  0.70352800  1
