# generated using pymatgen
data_Cu3NiC9
_symmetry_space_group_name_H-M   'P 1'
_cell_length_a   5.55597800
_cell_length_b   7.47524828
_cell_length_c   9.75232998
_cell_angle_alpha   86.08723094
_cell_angle_beta   83.19012237
_cell_angle_gamma   83.37536830
_symmetry_Int_Tables_number   1
_chemical_formula_structural   Cu3NiC9
_chemical_formula_sum   'Cu6 Ni2 C18'
_cell_volume   398.88244189
_cell_formula_units_Z   2
loop_
 _symmetry_equiv_pos_site_id
 _symmetry_equiv_pos_as_xyz
  1  'x, y, z'
loop_
 _atom_site_type_symbol
 _atom_site_label
 _atom_site_symmetry_multiplicity
 _atom_site_fract_x
 _atom_site_fract_y
 _atom_site_fract_z
 _atom_site_occupancy
  Ni  Ni0  1  0.06618800  0.27635900  0.24136300  1
  Ni  Ni1  1  0.93381200  0.72364100  0.75863700  1
  C  C2  1  0.24829500  0.91701400  0.11074200  1
  C  C3  1  0.75170500  0.08298600  0.88925800  1
  C  C4  1  0.70450000  0.23958700  0.02222400  1
  C  C5  1  0.29550000  0.76041300  0.97777600  1
  Cu  Cu6  1  0.36188700  0.64636600  0.36223500  1
  Cu  Cu7  1  0.63811300  0.35363400  0.63776500  1
  Cu  Cu8  1  0.30999000  0.10080100  0.66510400  1
  Cu  Cu9  1  0.69001000  0.89919900  0.33489600  1
  Cu  Cu10  1  0.54569800  0.68046500  0.14425900  1
  Cu  Cu11  1  0.45430200  0.31953500  0.85574100  1
  C  C12  1  0.35046100  0.80881700  0.06395900  1
  C  C13  1  0.64953900  0.19118300  0.93604100  1
  C  C14  1  0.52121600  0.19332700  0.57610400  1
  C  C15  1  0.47878400  0.80667300  0.42389600  1
  C  C16  1  0.25716200  0.19532700  0.80971200  1
  C  C17  1  0.74283800  0.80467300  0.19028800  1
  C  C18  1  0.84575500  0.29727500  0.17758700  1
  C  C19  1  0.15424500  0.70272500  0.82241300  1
  C  C20  1  0.17292700  0.09271800  0.23056400  1
  C  C21  1  0.82707300  0.90728200  0.76943600  1
  C  C22  1  0.23059600  0.39233100  0.17111500  1
  C  C23  1  0.76940400  0.60766900  0.82888500  1
  C  C24  1  0.01779400  0.31527700  0.38113900  1
  C  C25  1  0.98220600  0.68472300  0.61886100  1
