# generated using pymatgen
data_CuNiC12
_symmetry_space_group_name_H-M   'P 1'
_cell_length_a   8.52135200
_cell_length_b   8.52135200
_cell_length_c   13.67468000
_cell_angle_alpha   90.00000000
_cell_angle_beta   90.00000000
_cell_angle_gamma   90.00000000
_symmetry_Int_Tables_number   1
_chemical_formula_structural   CuNiC12
_chemical_formula_sum   'Cu4 Ni4 C48'
_cell_volume   992.96555444
_cell_formula_units_Z   4
loop_
 _symmetry_equiv_pos_site_id
 _symmetry_equiv_pos_as_xyz
  1  'x, y, z'
loop_
 _atom_site_type_symbol
 _atom_site_label
 _atom_site_symmetry_multiplicity
 _atom_site_fract_x
 _atom_site_fract_y
 _atom_site_fract_z
 _atom_site_occupancy
  C  C0  1  0.51628600  0.24530500  0.16806800  1
  C  C1  1  0.48371400  0.75469500  0.83193200  1
  C  C2  1  0.48371400  0.75469500  0.16806800  1
  C  C3  1  0.75469500  0.51628600  0.66806800  1
  C  C4  1  0.51628600  0.24530500  0.83193200  1
  C  C5  1  0.24530500  0.48371400  0.33193200  1
  C  C6  1  0.24530500  0.48371400  0.66806800  1
  C  C7  1  0.75469500  0.51628600  0.33193200  1
  C  C8  1  0.24472400  0.01302500  0.33232100  1
  C  C9  1  0.75527600  0.98697500  0.66767900  1
  C  C10  1  0.75527600  0.98697500  0.33232100  1
  C  C11  1  0.98697500  0.24472400  0.83232100  1
  C  C12  1  0.24472400  0.01302500  0.66767900  1
  C  C13  1  0.01302500  0.75527600  0.16767900  1
  C  C14  1  0.01302500  0.75527600  0.83232100  1
  C  C15  1  0.98697500  0.24472400  0.16767900  1
  Ni  Ni16  1  0.25203800  0.04255100  0.00000000  1
  Ni  Ni17  1  0.74796200  0.95744900  0.00000000  1
  Ni  Ni18  1  0.95744900  0.25203800  0.50000000  1
  Ni  Ni19  1  0.04255100  0.74796200  0.50000000  1
  Cu  Cu20  1  0.25278700  0.55527900  0.00000000  1
  Cu  Cu21  1  0.74721300  0.44472100  0.00000000  1
  Cu  Cu22  1  0.44472100  0.25278700  0.50000000  1
  Cu  Cu23  1  0.55527900  0.74721300  0.50000000  1
  C  C24  1  0.08746200  0.16278700  0.00000000  1
  C  C25  1  0.91253800  0.83721300  0.00000000  1
  C  C26  1  0.83721300  0.08746200  0.50000000  1
  C  C27  1  0.16278700  0.91253800  0.50000000  1
  C  C28  1  0.25696000  0.24974600  0.23030300  1
  C  C29  1  0.74304000  0.75025400  0.76969700  1
  C  C30  1  0.74304000  0.75025400  0.23030300  1
  C  C31  1  0.75025400  0.25696000  0.73030300  1
  C  C32  1  0.25696000  0.24974600  0.76969700  1
  C  C33  1  0.24974600  0.74304000  0.26969700  1
  C  C34  1  0.24974600  0.74304000  0.73030300  1
  C  C35  1  0.75025400  0.25696000  0.26969700  1
  C  C36  1  0.41606200  0.16328500  0.00000000  1
  C  C37  1  0.58393800  0.83671500  0.00000000  1
  C  C38  1  0.83671500  0.41606200  0.50000000  1
  C  C39  1  0.16328500  0.58393800  0.50000000  1
  C  C40  1  0.00000000  0.50000000  0.23875300  1
  C  C41  1  0.00000000  0.50000000  0.76124700  1
  C  C42  1  0.50000000  0.00000000  0.73875300  1
  C  C43  1  0.50000000  0.00000000  0.26124700  1
  C  C44  1  0.07050100  0.25212400  0.39600900  1
  C  C45  1  0.92949900  0.74787600  0.60399100  1
  C  C46  1  0.92949900  0.74787600  0.39600900  1
  C  C47  1  0.74787600  0.07050100  0.89600900  1
  C  C48  1  0.07050100  0.25212400  0.60399100  1
  C  C49  1  0.25212400  0.92949900  0.10399100  1
  C  C50  1  0.25212400  0.92949900  0.89600900  1
  C  C51  1  0.74787600  0.07050100  0.10399100  1
  C  C52  1  0.00000000  0.00000000  0.25000000  1
  C  C53  1  0.00000000  0.00000000  0.75000000  1
  C  C54  1  0.50000000  0.50000000  0.25000000  1
  C  C55  1  0.50000000  0.50000000  0.75000000  1
