# generated using pymatgen
data_Cu17Ni4C3
_symmetry_space_group_name_H-M   'P 1'
_cell_length_a   10.94524456
_cell_length_b   10.94524456
_cell_length_c   12.01182100
_cell_angle_alpha   90.00000000
_cell_angle_beta   90.00000000
_cell_angle_gamma   120.00000338
_symmetry_Int_Tables_number   1
_chemical_formula_structural   Cu17Ni4C3
_chemical_formula_sum   'Cu51 Ni12 C9'
_cell_volume   1246.20763676
_cell_formula_units_Z   3
loop_
 _symmetry_equiv_pos_site_id
 _symmetry_equiv_pos_as_xyz
  1  'x, y, z'
loop_
 _atom_site_type_symbol
 _atom_site_label
 _atom_site_symmetry_multiplicity
 _atom_site_fract_x
 _atom_site_fract_y
 _atom_site_fract_z
 _atom_site_occupancy
  C  C0  1  0.19591900  0.53218500  0.66317200  1
  C  C1  1  0.46781500  0.66373400  0.99650500  1
  C  C2  1  0.33626600  0.80408100  0.32983900  1
  C  C3  1  0.92647700  0.76861600  0.39997000  1
  C  C4  1  0.23138400  0.15786100  0.73330400  1
  C  C5  1  0.84213900  0.07352300  0.06663700  1
  C  C6  1  0.74611000  0.18254200  0.26560200  1
  C  C7  1  0.81745800  0.56356800  0.59893500  1
  C  C8  1  0.43643200  0.25389000  0.93226900  1
  Ni  Ni9  1  0.56773700  0.65801200  0.66611300  1
  Ni  Ni10  1  0.34198800  0.90972500  0.99944700  1
  Ni  Ni11  1  0.09027500  0.43226300  0.33278000  1
  Ni  Ni12  1  0.09735700  0.42221200  0.00184100  1
  Ni  Ni13  1  0.57778800  0.67514500  0.33517400  1
  Ni  Ni14  1  0.32485500  0.90264300  0.66850700  1
  Ni  Ni15  1  0.75651400  0.60591500  0.16041800  1
  Ni  Ni16  1  0.39408500  0.15059900  0.49375100  1
  Ni  Ni17  1  0.84940100  0.24348600  0.82708500  1
  Ni  Ni18  1  0.91114600  0.18247600  0.50814000  1
  Ni  Ni19  1  0.81752400  0.72867000  0.84147300  1
  Ni  Ni20  1  0.27133000  0.08885400  0.17480700  1
  Cu  Cu21  1  0.66226300  0.62532500  0.65894000  1
  Cu  Cu22  1  0.37467500  0.03693800  0.99227400  1
  Cu  Cu23  1  0.96306200  0.33773700  0.32560700  1
  Cu  Cu24  1  0.00547300  0.29445200  0.00512500  1
  Cu  Cu25  1  0.70554800  0.71102100  0.33845800  1
  Cu  Cu26  1  0.28897900  0.99452700  0.67179200  1
  Cu  Cu27  1  0.98487600  0.58352500  0.62590700  1
  Cu  Cu28  1  0.41647500  0.40135100  0.95924100  1
  Cu  Cu29  1  0.59864900  0.01512400  0.29257400  1
  Cu  Cu30  1  0.67385100  0.92466100  0.04434800  1
  Cu  Cu31  1  0.07533900  0.74919000  0.37768100  1
  Cu  Cu32  1  0.25081000  0.32614900  0.71101400  1
  Cu  Cu33  1  0.70467300  0.39586500  0.64934700  1
  Cu  Cu34  1  0.60413500  0.30880800  0.98268000  1
  Cu  Cu35  1  0.69119200  0.29532700  0.31601400  1
  Cu  Cu36  1  0.95375400  0.02138300  0.00901100  1
  Cu  Cu37  1  0.97861700  0.93237100  0.34234400  1
  Cu  Cu38  1  0.06762900  0.04624600  0.67567800  1
  Cu  Cu39  1  0.79341400  0.54522500  0.45025300  1
  Cu  Cu40  1  0.45477500  0.24818900  0.78358700  1
  Cu  Cu41  1  0.75181100  0.20658600  0.11692000  1
  Cu  Cu42  1  0.87317800  0.08200900  0.21407200  1
  Cu  Cu43  1  0.91799100  0.79116900  0.54740600  1
  Cu  Cu44  1  0.20883100  0.12682200  0.88073900  1
  Cu  Cu45  1  0.89506400  0.70170100  0.79404600  1
  Cu  Cu46  1  0.29829900  0.19336300  0.12738000  1
  Cu  Cu47  1  0.80663700  0.10493600  0.46071300  1
  Cu  Cu48  1  0.77108000  0.13964600  0.87502600  1
  Cu  Cu49  1  0.86035400  0.63143400  0.20836000  1
  Cu  Cu50  1  0.36856600  0.22892000  0.54169300  1
  Cu  Cu51  1  0.92507300  0.34495700  0.77620100  1
  Cu  Cu52  1  0.65504300  0.58011600  0.10953400  1
  Cu  Cu53  1  0.41988400  0.07492700  0.44286700  1
  Cu  Cu54  1  0.74151400  0.75510600  0.89114500  1
  Cu  Cu55  1  0.24489400  0.98640900  0.22447900  1
  Cu  Cu56  1  0.01359100  0.25848600  0.55781200  1
  Cu  Cu57  1  0.48027100  0.63310200  0.74144100  1
  Cu  Cu58  1  0.36689800  0.84716900  0.07477500  1
  Cu  Cu59  1  0.15283100  0.51972900  0.40810800  1
  Cu  Cu60  1  0.18882300  0.49043300  0.93039600  1
  Cu  Cu61  1  0.50956700  0.69839000  0.26372900  1
  Cu  Cu62  1  0.30161000  0.81117700  0.59706300  1
  Cu  Cu63  1  0.25271600  0.82098900  0.90768800  1
  Cu  Cu64  1  0.17901100  0.43172700  0.24102200  1
  Cu  Cu65  1  0.56827300  0.74728400  0.57435500  1
  Cu  Cu66  1  0.41770800  0.91217200  0.76202600  1
  Cu  Cu67  1  0.08782800  0.50553600  0.09535900  1
  Cu  Cu68  1  0.49446400  0.58229200  0.42869200  1
  Cu  Cu69  1  0.44982400  0.65966400  0.49976200  1
  Cu  Cu70  1  0.34033600  0.79016000  0.83309500  1
  Cu  Cu71  1  0.20984000  0.55017600  0.16642900  1
