# generated using pymatgen
data_CuNiC7
_symmetry_space_group_name_H-M   'P 1'
_cell_length_a   14.78512600
_cell_length_b   5.24596500
_cell_length_c   5.64002291
_cell_angle_alpha   89.33672828
_cell_angle_beta   90.00000000
_cell_angle_gamma   90.00000000
_symmetry_Int_Tables_number   1
_chemical_formula_structural   CuNiC7
_chemical_formula_sum   'Cu4 Ni4 C28'
_cell_volume   437.42357523
_cell_formula_units_Z   4
loop_
 _symmetry_equiv_pos_site_id
 _symmetry_equiv_pos_as_xyz
  1  'x, y, z'
loop_
 _atom_site_type_symbol
 _atom_site_label
 _atom_site_symmetry_multiplicity
 _atom_site_fract_x
 _atom_site_fract_y
 _atom_site_fract_z
 _atom_site_occupancy
  C  C0  1  0.00051300  0.74461500  0.76220200  1
  C  C1  1  0.50051300  0.25538500  0.73779800  1
  C  C2  1  0.99948700  0.25538500  0.23779800  1
  C  C3  1  0.49948700  0.74461500  0.26220200  1
  Ni  Ni4  1  0.16343000  0.31600600  0.68786000  1
  Ni  Ni5  1  0.66342900  0.68399400  0.81214000  1
  Ni  Ni6  1  0.83657000  0.68399400  0.31214000  1
  Ni  Ni7  1  0.33657000  0.31600600  0.18786000  1
  Cu  Cu8  1  0.33069000  0.82317400  0.81476400  1
  Cu  Cu9  1  0.83069000  0.17682600  0.68523600  1
  Cu  Cu10  1  0.66931000  0.17682600  0.18523600  1
  Cu  Cu11  1  0.16931000  0.82317400  0.31476400  1
  C  C12  1  0.09220600  0.03799600  0.56536000  1
  C  C13  1  0.40818000  0.53701900  0.94257000  1
  C  C14  1  0.59220600  0.96200400  0.93464000  1
  C  C15  1  0.90818000  0.46298100  0.55743000  1
  C  C16  1  0.90779400  0.96200400  0.43464000  1
  C  C17  1  0.59182000  0.46298100  0.05743000  1
  C  C18  1  0.40779400  0.03799600  0.06536000  1
  C  C19  1  0.09182000  0.53701900  0.44257000  1
  C  C20  1  0.08659400  0.41581100  0.91118200  1
  C  C21  1  0.41513000  0.91795100  0.58742500  1
  C  C22  1  0.58659400  0.58418900  0.58881800  1
  C  C23  1  0.91513000  0.08204900  0.91257500  1
  C  C24  1  0.91340600  0.58418900  0.08881800  1
  C  C25  1  0.58487000  0.08204900  0.41257500  1
  C  C26  1  0.41340600  0.41581100  0.41118200  1
  C  C27  1  0.08487000  0.91795100  0.08742500  1
  C  C28  1  0.25740600  0.14205000  0.85841300  1
  C  C29  1  0.23956100  0.64232000  0.63968400  1
  C  C30  1  0.75740600  0.85795000  0.64158700  1
  C  C31  1  0.73956100  0.35768000  0.86031600  1
  C  C32  1  0.74259400  0.85795000  0.14158700  1
  C  C33  1  0.76043900  0.35768000  0.36031600  1
  C  C34  1  0.24259400  0.14205000  0.35841300  1
  C  C35  1  0.26043900  0.64232000  0.13968400  1
