# generated using pymatgen
data_Cu2NiC
_symmetry_space_group_name_H-M   'P 1'
_cell_length_a   5.31204396
_cell_length_b   5.31204396
_cell_length_c   7.93887400
_cell_angle_alpha   90.00000000
_cell_angle_beta   90.00000000
_cell_angle_gamma   119.99999946
_symmetry_Int_Tables_number   1
_chemical_formula_structural   Cu2NiC
_chemical_formula_sum   'Cu6 Ni3 C3'
_cell_volume   194.00497344
_cell_formula_units_Z   3
loop_
 _symmetry_equiv_pos_site_id
 _symmetry_equiv_pos_as_xyz
  1  'x, y, z'
loop_
 _atom_site_type_symbol
 _atom_site_label
 _atom_site_symmetry_multiplicity
 _atom_site_fract_x
 _atom_site_fract_y
 _atom_site_fract_z
 _atom_site_occupancy
  C  C0  1  0.50000000  0.50000000  0.16666700  1
  C  C1  1  0.00000000  0.50000000  0.50000000  1
  C  C2  1  0.50000000  0.00000000  0.83333300  1
  Ni  Ni3  1  0.50000000  0.50000000  0.66666700  1
  Ni  Ni4  1  0.00000000  0.50000000  0.00000000  1
  Ni  Ni5  1  0.50000000  0.00000000  0.33333300  1
  Cu  Cu6  1  0.15160000  0.84840000  0.16666700  1
  Cu  Cu7  1  0.69680100  0.84840000  0.50000000  1
  Cu  Cu8  1  0.15160000  0.30319900  0.83333300  1
  Cu  Cu9  1  0.84840000  0.15160000  0.16666700  1
  Cu  Cu10  1  0.30319900  0.15160000  0.50000000  1
  Cu  Cu11  1  0.84840000  0.69680100  0.83333300  1
