# generated using pymatgen
data_Cu7Ni5C7
_symmetry_space_group_name_H-M   'P 1'
_cell_length_a   6.62131857
_cell_length_b   6.26350170
_cell_length_c   6.26533990
_cell_angle_alpha   63.09599230
_cell_angle_beta   79.71748781
_cell_angle_gamma   79.71357661
_symmetry_Int_Tables_number   1
_chemical_formula_structural   Cu7Ni5C7
_chemical_formula_sum   'Cu7 Ni5 C7'
_cell_volume   226.57455795
_cell_formula_units_Z   1
loop_
 _symmetry_equiv_pos_site_id
 _symmetry_equiv_pos_as_xyz
  1  'x, y, z'
loop_
 _atom_site_type_symbol
 _atom_site_label
 _atom_site_symmetry_multiplicity
 _atom_site_fract_x
 _atom_site_fract_y
 _atom_site_fract_z
 _atom_site_occupancy
  C  C0  1  0.83335300  0.41408500  0.91918500  1
  C  C1  1  0.83339500  0.89257000  0.44073800  1
  C  C2  1  0.71879000  0.40771000  0.44216800  1
  C  C3  1  0.33326700  0.67967100  0.65395600  1
  C  C4  1  0.19339200  0.28597700  0.34833000  1
  C  C5  1  0.47301700  0.98518700  0.04736200  1
  C  C6  1  0.94768000  0.89113900  0.92564000  1
  Ni  Ni7  1  0.64910000  0.62677900  0.61755900  1
  Ni  Ni8  1  0.93615400  0.21200700  0.28921700  1
  Ni  Ni9  1  0.73078100  0.04422700  0.12139700  1
  Ni  Ni10  1  0.01749200  0.71566400  0.70661500  1
  Ni  Ni11  1  0.33327300  0.96885200  0.36488500  1
  Cu  Cu12  1  0.65487400  0.05594500  0.70565400  1
  Cu  Cu13  1  0.33329100  0.37404400  0.95935300  1
  Cu  Cu14  1  0.28244700  0.87728200  0.90078100  1
  Cu  Cu15  1  0.38417400  0.43226700  0.45584300  1
  Cu  Cu16  1  0.67494000  0.62356000  0.07273400  1
  Cu  Cu17  1  0.99177800  0.26055700  0.70961400  1
  Cu  Cu18  1  0.01213500  0.62747800  0.27730000  1
