# generated using pymatgen
data_Cu2Ni3
_symmetry_space_group_name_H-M   'P 1'
_cell_length_a   10.35983236
_cell_length_b   10.35983236
_cell_length_c   10.35983236
_cell_angle_alpha   109.47122063
_cell_angle_beta   109.47122063
_cell_angle_gamma   109.47122063
_symmetry_Int_Tables_number   1
_chemical_formula_structural   Cu2Ni3
_chemical_formula_sum   'Cu16 Ni24'
_cell_volume   855.92614474
_cell_formula_units_Z   8
loop_
 _symmetry_equiv_pos_site_id
 _symmetry_equiv_pos_as_xyz
  1  'x, y, z'
loop_
 _atom_site_type_symbol
 _atom_site_label
 _atom_site_symmetry_multiplicity
 _atom_site_fract_x
 _atom_site_fract_y
 _atom_site_fract_z
 _atom_site_occupancy
  Ni  Ni0  1  0.47846900  0.22984700  0.46770700  1
  Ni  Ni1  1  0.23786000  0.27015300  0.74862200  1
  Ni  Ni2  1  0.02153100  0.48923800  0.75137800  1
  Ni  Ni3  1  0.26214000  0.01076200  0.03229300  1
  Ni  Ni4  1  0.22984700  0.46770700  0.47846900  1
  Ni  Ni5  1  0.27015300  0.74862200  0.23786000  1
  Ni  Ni6  1  0.48923800  0.75137800  0.02153100  1
  Ni  Ni7  1  0.01076200  0.03229300  0.26214000  1
  Ni  Ni8  1  0.46770700  0.47846900  0.22984700  1
  Ni  Ni9  1  0.74862200  0.23786000  0.27015300  1
  Ni  Ni10  1  0.75137800  0.02153100  0.48923800  1
  Ni  Ni11  1  0.03229300  0.26214000  0.01076200  1
  Ni  Ni12  1  0.52153100  0.77015300  0.53229300  1
  Ni  Ni13  1  0.76214000  0.72984700  0.25137800  1
  Ni  Ni14  1  0.97846900  0.51076200  0.24862200  1
  Ni  Ni15  1  0.73786000  0.98923800  0.96770700  1
  Ni  Ni16  1  0.77015300  0.53229300  0.52153100  1
  Ni  Ni17  1  0.72984700  0.25137800  0.76214000  1
  Ni  Ni18  1  0.51076200  0.24862200  0.97846900  1
  Ni  Ni19  1  0.98923800  0.96770700  0.73786000  1
  Ni  Ni20  1  0.53229300  0.52153100  0.77015300  1
  Ni  Ni21  1  0.25137800  0.76214000  0.72984700  1
  Ni  Ni22  1  0.24862200  0.97846900  0.51076200  1
  Ni  Ni23  1  0.96770700  0.73786000  0.98923800  1
  Cu  Cu24  1  0.50000000  0.00000000  0.50000000  1
  Cu  Cu25  1  0.50000000  0.50000000  0.00000000  1
  Cu  Cu26  1  0.00000000  0.50000000  0.50000000  1
  Cu  Cu27  1  0.00000000  0.00000000  0.00000000  1
  Cu  Cu28  1  0.76026200  0.25000000  0.01026200  1
  Cu  Cu29  1  0.73973800  0.75000000  0.48973800  1
  Cu  Cu30  1  0.25000000  0.01026200  0.76026200  1
  Cu  Cu31  1  0.75000000  0.48973800  0.73973800  1
  Cu  Cu32  1  0.01026200  0.76026200  0.25000000  1
  Cu  Cu33  1  0.48973800  0.73973800  0.75000000  1
  Cu  Cu34  1  0.23973800  0.75000000  0.98973800  1
  Cu  Cu35  1  0.26026200  0.25000000  0.51026200  1
  Cu  Cu36  1  0.75000000  0.98973800  0.23973800  1
  Cu  Cu37  1  0.25000000  0.51026200  0.26026200  1
  Cu  Cu38  1  0.98973800  0.23973800  0.75000000  1
  Cu  Cu39  1  0.51026200  0.26026200  0.25000000  1
