# generated using pymatgen
data_Cu3NiC8
_symmetry_space_group_name_H-M   'P 1'
_cell_length_a   30.20491200
_cell_length_b   5.21499000
_cell_length_c   7.24494895
_cell_angle_alpha   89.92658653
_cell_angle_beta   90.00000000
_cell_angle_gamma   90.00000000
_symmetry_Int_Tables_number   1
_chemical_formula_structural   Cu3NiC8
_chemical_formula_sum   'Cu24 Ni8 C64'
_cell_volume   1141.21120661
_cell_formula_units_Z   8
loop_
 _symmetry_equiv_pos_site_id
 _symmetry_equiv_pos_as_xyz
  1  'x, y, z'
loop_
 _atom_site_type_symbol
 _atom_site_label
 _atom_site_symmetry_multiplicity
 _atom_site_fract_x
 _atom_site_fract_y
 _atom_site_fract_z
 _atom_site_occupancy
  C  C0  1  0.00000000  0.70643000  0.75873800  1
  C  C1  1  0.66661800  0.70613400  0.75996300  1
  C  C2  1  0.33338200  0.70613400  0.75996300  1
  C  C3  1  0.00000000  0.79317400  0.25859900  1
  Ni  Ni4  1  0.66665000  0.78317700  0.25965000  1
  Ni  Ni5  1  0.33335000  0.78317700  0.25965000  1
  Ni  Ni6  1  0.16663400  0.28438500  0.24036500  1
  Ni  Ni7  1  0.83336600  0.28438500  0.24036500  1
  Ni  Ni8  1  0.50000000  0.28466600  0.24051700  1
  Ni  Ni9  1  0.16673700  0.21768000  0.74061600  1
  Ni  Ni10  1  0.83326300  0.21768000  0.74061600  1
  Ni  Ni11  1  0.50000000  0.21778900  0.74076700  1
  Cu  Cu12  1  0.10265600  0.75104700  0.91895800  1
  Cu  Cu13  1  0.76942900  0.75120200  0.91927600  1
  Cu  Cu14  1  0.43610800  0.75100700  0.91937100  1
  Cu  Cu15  1  0.22980300  0.74993400  0.42057500  1
  Cu  Cu16  1  0.89718600  0.74965900  0.41949200  1
  Cu  Cu17  1  0.56316600  0.75028800  0.42067600  1
  Cu  Cu18  1  0.93701900  0.24972900  0.08064500  1
  Cu  Cu19  1  0.60328500  0.24889300  0.08043400  1
  Cu  Cu20  1  0.26993700  0.24908300  0.08041800  1
  Cu  Cu21  1  0.06295900  0.25015100  0.58083000  1
  Cu  Cu22  1  0.72955700  0.24903600  0.57961400  1
  Cu  Cu23  1  0.39621900  0.24910500  0.57960800  1
  Cu  Cu24  1  0.06298100  0.24972900  0.08064500  1
  Cu  Cu25  1  0.73006300  0.24908300  0.08041800  1
  Cu  Cu26  1  0.39671500  0.24889300  0.08043400  1
  Cu  Cu27  1  0.93704100  0.25015100  0.58083000  1
  Cu  Cu28  1  0.60378100  0.24910500  0.57960800  1
  Cu  Cu29  1  0.27044300  0.24903600  0.57961400  1
  Cu  Cu30  1  0.23057100  0.75120200  0.91927600  1
  Cu  Cu31  1  0.89734400  0.75104700  0.91895800  1
  Cu  Cu32  1  0.56389200  0.75100700  0.91937100  1
  Cu  Cu33  1  0.10281400  0.74965900  0.41949200  1
  Cu  Cu34  1  0.77019700  0.74993400  0.42057500  1
  Cu  Cu35  1  0.43683400  0.75028800  0.42067600  1
  C  C36  1  0.10050400  0.56517300  0.16685400  1
  C  C37  1  0.76666600  0.56680300  0.16740200  1
  C  C38  1  0.43335200  0.56652500  0.16735300  1
  C  C39  1  0.23273500  0.93309900  0.66727900  1
  C  C40  1  0.89953200  0.93437400  0.66679400  1
  C  C41  1  0.56608900  0.93328700  0.66735500  1
  C  C42  1  0.93560200  0.43701100  0.83179700  1
  C  C43  1  0.60202100  0.43615400  0.83172800  1
  C  C44  1  0.26873900  0.43641600  0.83160200  1
  C  C45  1  0.06433900  0.06286700  0.33196900  1
  C  C46  1  0.73284200  0.06614900  0.33217400  1
  C  C47  1  0.39950400  0.06612300  0.33221600  1
  C  C48  1  0.06439800  0.43701100  0.83179700  1
  C  C49  1  0.73126100  0.43641600  0.83160200  1
  C  C50  1  0.39797900  0.43615400  0.83172800  1
  C  C51  1  0.93566100  0.06286700  0.33196900  1
  C  C52  1  0.60049600  0.06612300  0.33221600  1
  C  C53  1  0.26715800  0.06614900  0.33217400  1
  C  C54  1  0.23333400  0.56680300  0.16740200  1
  C  C55  1  0.89949600  0.56517300  0.16685400  1
  C  C56  1  0.56664800  0.56652500  0.16735300  1
  C  C57  1  0.10046800  0.93437400  0.66679400  1
  C  C58  1  0.76726500  0.93309900  0.66727900  1
  C  C59  1  0.43391100  0.93328700  0.66735500  1
  C  C60  1  0.12244400  0.09586500  0.01743100  1
  C  C61  1  0.78935500  0.09567000  0.01739700  1
  C  C62  1  0.45599600  0.09564100  0.01755900  1
  C  C63  1  0.21085500  0.40261700  0.51869700  1
  C  C64  1  0.87751300  0.40363200  0.51794800  1
  C  C65  1  0.54414100  0.40269100  0.51857400  1
  C  C66  1  0.95759000  0.90237400  0.98187500  1
  C  C67  1  0.62351100  0.90659300  0.97779500  1
  C  C68  1  0.29020800  0.90665300  0.97785500  1
  C  C69  1  0.04248300  0.59767200  0.48215300  1
  C  C70  1  0.71011600  0.60029700  0.48494500  1
  C  C71  1  0.37680300  0.60014600  0.48491200  1
  C  C72  1  0.04241000  0.90237400  0.98187500  1
  C  C73  1  0.70979200  0.90665300  0.97785500  1
  C  C74  1  0.37648900  0.90659300  0.97779500  1
  C  C75  1  0.95751700  0.59767200  0.48215300  1
  C  C76  1  0.62319700  0.60014600  0.48491200  1
  C  C77  1  0.28988400  0.60029700  0.48494500  1
  C  C78  1  0.21064500  0.09567000  0.01739700  1
  C  C79  1  0.87755600  0.09586500  0.01743100  1
  C  C80  1  0.54400400  0.09564100  0.01755900  1
  C  C81  1  0.12248700  0.40363200  0.51794800  1
  C  C82  1  0.78914500  0.40261700  0.51869700  1
  C  C83  1  0.45585900  0.40269100  0.51857400  1
  C  C84  1  0.16654300  0.59987800  0.88317000  1
  C  C85  1  0.83345700  0.59987800  0.88317000  1
  C  C86  1  0.50000000  0.59978500  0.88332200  1
  C  C87  1  0.16636600  0.89892500  0.38159400  1
  C  C88  1  0.83363400  0.89892500  0.38159400  1
  C  C89  1  0.50000000  0.89857100  0.38049800  1
  C  C90  1  0.00000000  0.41583100  0.12194200  1
  C  C91  1  0.66665900  0.40570000  0.11558700  1
  C  C92  1  0.33334100  0.40570000  0.11558700  1
  C  C93  1  0.00000000  0.08388000  0.62184500  1
  C  C94  1  0.66666500  0.09109100  0.62438000  1
  C  C95  1  0.33333500  0.09109100  0.62438000  1
