# generated using pymatgen
data_Cu5(NiC5)4
_symmetry_space_group_name_H-M   'P 1'
_cell_length_a   2.95840758
_cell_length_b   2.95840758
_cell_length_c   37.49781200
_cell_angle_alpha   90.00000000
_cell_angle_beta   90.00000000
_cell_angle_gamma   119.99999065
_symmetry_Int_Tables_number   1
_chemical_formula_structural   Cu5(NiC5)4
_chemical_formula_sum   'Cu5 Ni4 C20'
_cell_volume   284.21867708
_cell_formula_units_Z   1
loop_
 _symmetry_equiv_pos_site_id
 _symmetry_equiv_pos_as_xyz
  1  'x, y, z'
loop_
 _atom_site_type_symbol
 _atom_site_label
 _atom_site_symmetry_multiplicity
 _atom_site_fract_x
 _atom_site_fract_y
 _atom_site_fract_z
 _atom_site_occupancy
  C  C0  1  0.33333300  0.66666700  0.14136500  1
  C  C1  1  0.33333300  0.66666700  0.94465900  1
  C  C2  1  0.33333300  0.66666700  0.74098200  1
  C  C3  1  0.33333300  0.66666700  0.54117100  1
  C  C4  1  0.33333300  0.66666700  0.34111900  1
  C  C5  1  0.00000000  0.00000000  0.95666500  1
  C  C6  1  0.00000000  0.00000000  0.75951500  1
  C  C7  1  0.00000000  0.00000000  0.55910600  1
  C  C8  1  0.00000000  0.00000000  0.35945200  1
  C  C9  1  0.00000000  0.00000000  0.15861200  1
  C  C10  1  0.00000000  0.00000000  0.04333500  1
  C  C11  1  0.00000000  0.00000000  0.84138800  1
  C  C12  1  0.00000000  0.00000000  0.64054800  1
  C  C13  1  0.00000000  0.00000000  0.44089400  1
  C  C14  1  0.00000000  0.00000000  0.24048500  1
  C  C15  1  0.33333300  0.66666700  0.05534100  1
  C  C16  1  0.33333300  0.66666700  0.85863500  1
  C  C17  1  0.33333300  0.66666700  0.65888100  1
  C  C18  1  0.33333300  0.66666700  0.45882900  1
  C  C19  1  0.33333300  0.66666700  0.25901800  1
  Ni  Ni20  1  0.33333300  0.66666700  0.79961500  1
  Ni  Ni21  1  0.33333300  0.66666700  0.60012200  1
  Ni  Ni22  1  0.33333300  0.66666700  0.39987800  1
  Ni  Ni23  1  0.33333300  0.66666700  0.20038500  1
  Cu  Cu24  1  0.00000000  0.00000000  0.10010100  1
  Cu  Cu25  1  0.00000000  0.00000000  0.89989900  1
  Cu  Cu26  1  0.00000000  0.00000000  0.70002800  1
  Cu  Cu27  1  0.00000000  0.00000000  0.50000000  1
  Cu  Cu28  1  0.00000000  0.00000000  0.29997200  1
