# generated using pymatgen
data_Cu2Ni8C35
_symmetry_space_group_name_H-M   'P 1'
_cell_length_a   7.74265700
_cell_length_b   9.00519725
_cell_length_c   9.63571066
_cell_angle_alpha   108.45685699
_cell_angle_beta   90.09946794
_cell_angle_gamma   105.85502667
_symmetry_Int_Tables_number   1
_chemical_formula_structural   Cu2Ni8C35
_chemical_formula_sum   'Cu2 Ni8 C35'
_cell_volume   610.16645139
_cell_formula_units_Z   1
loop_
 _symmetry_equiv_pos_site_id
 _symmetry_equiv_pos_as_xyz
  1  'x, y, z'
loop_
 _atom_site_type_symbol
 _atom_site_label
 _atom_site_symmetry_multiplicity
 _atom_site_fract_x
 _atom_site_fract_y
 _atom_site_fract_z
 _atom_site_occupancy
  C  C0  1  0.20225400  0.25677300  0.97720700  1
  C  C1  1  0.79774600  0.74322700  0.02279300  1
  C  C2  1  0.20914900  0.24273100  0.79922700  1
  C  C3  1  0.79085100  0.75726900  0.20077300  1
  C  C4  1  0.12278500  0.38229900  0.91280200  1
  C  C5  1  0.87721500  0.61770100  0.08719800  1
  C  C6  1  0.00968600  0.18210500  0.86391700  1
  C  C7  1  0.99031400  0.81789500  0.13608300  1
  C  C8  1  0.50000000  0.50000000  0.50000000  1
  Ni  Ni9  1  0.66904200  0.35656400  0.70385100  1
  Ni  Ni10  1  0.33095800  0.64343600  0.29614900  1
  Ni  Ni11  1  0.88045800  0.19391300  0.48123100  1
  Ni  Ni12  1  0.11954200  0.80608700  0.51876900  1
  Ni  Ni13  1  0.39440700  0.15854200  0.22535400  1
  Ni  Ni14  1  0.60559300  0.84145800  0.77464600  1
  Ni  Ni15  1  0.78959400  0.22838300  0.19921500  1
  Ni  Ni16  1  0.21040600  0.77161700  0.80078500  1
  Cu  Cu17  1  0.13562700  0.26622000  0.88858400  1
  Cu  Cu18  1  0.86437300  0.73378000  0.11141600  1
  C  C19  1  0.70399300  0.18685700  0.56431400  1
  C  C20  1  0.29600700  0.81314300  0.43568600  1
  C  C21  1  0.69645400  0.48166500  0.62794900  1
  C  C22  1  0.30354600  0.51833500  0.37205100  1
  C  C23  1  0.81142600  0.40528700  0.81895900  1
  C  C24  1  0.18857400  0.59471300  0.18104100  1
  C  C25  1  0.85295300  0.30367500  0.37682300  1
  C  C26  1  0.14704700  0.69632500  0.62317700  1
  C  C27  1  0.03720800  0.29534200  0.57775100  1
  C  C28  1  0.96279200  0.70465800  0.42224900  1
  C  C29  1  0.48667300  0.28521000  0.72639300  1
  C  C30  1  0.51332700  0.71479000  0.27360700  1
  C  C31  1  0.86435700  0.03075600  0.38925200  1
  C  C32  1  0.13564300  0.96924400  0.61074800  1
  C  C33  1  0.43036600  0.25584000  0.38462000  1
  C  C34  1  0.56963400  0.74416000  0.61538000  1
  C  C35  1  0.59754900  0.10409500  0.18917000  1
  C  C36  1  0.40245100  0.89590500  0.81083000  1
  C  C37  1  0.77964800  0.36846300  0.16447300  1
  C  C38  1  0.22035200  0.63153700  0.83552700  1
  C  C39  1  0.90318300  0.13136100  0.12882100  1
  C  C40  1  0.09681700  0.86863900  0.87117900  1
  C  C41  1  0.37832900  0.24570200  0.12640700  1
  C  C42  1  0.62167100  0.75429800  0.87359300  1
  C  C43  1  0.27524100  0.99832100  0.20187500  1
  C  C44  1  0.72475900  0.00167900  0.79812500  1
