# generated using pymatgen
data_CuNi3C
_symmetry_space_group_name_H-M   'P 1'
_cell_length_a   4.23413000
_cell_length_b   4.23413000
_cell_length_c   5.74890503
_cell_angle_alpha   111.60806001
_cell_angle_beta   111.60806001
_cell_angle_gamma   90.00000000
_symmetry_Int_Tables_number   1
_chemical_formula_structural   CuNi3C
_chemical_formula_sum   'Cu1 Ni3 C1'
_cell_volume   87.98538571
_cell_formula_units_Z   1
loop_
 _symmetry_equiv_pos_site_id
 _symmetry_equiv_pos_as_xyz
  1  'x, y, z'
loop_
 _atom_site_type_symbol
 _atom_site_label
 _atom_site_symmetry_multiplicity
 _atom_site_fract_x
 _atom_site_fract_y
 _atom_site_fract_z
 _atom_site_occupancy
  C  C0  1  0.99892700  0.99892700  0.99785400  1
  Ni  Ni1  1  0.41627300  0.41627300  0.83254600  1
  Ni  Ni2  1  0.76811200  0.26811200  0.53622400  1
  Ni  Ni3  1  0.26811200  0.76811200  0.53622400  1
  Cu  Cu4  1  0.65757600  0.65757600  0.31515200  1
