# generated using pymatgen
data_CuNi2C9
_symmetry_space_group_name_H-M   'P 1'
_cell_length_a   11.01415900
_cell_length_b   13.78104000
_cell_length_c   15.25456700
_cell_angle_alpha   90.00000000
_cell_angle_beta   90.00000000
_cell_angle_gamma   90.00000000
_symmetry_Int_Tables_number   1
_chemical_formula_structural   CuNi2C9
_chemical_formula_sum   'Cu8 Ni16 C72'
_cell_volume   2315.43833686
_cell_formula_units_Z   8
loop_
 _symmetry_equiv_pos_site_id
 _symmetry_equiv_pos_as_xyz
  1  'x, y, z'
loop_
 _atom_site_type_symbol
 _atom_site_label
 _atom_site_symmetry_multiplicity
 _atom_site_fract_x
 _atom_site_fract_y
 _atom_site_fract_z
 _atom_site_occupancy
  Ni  Ni0  1  0.09996700  0.22836200  0.16838000  1
  Ni  Ni1  1  0.90003300  0.77163800  0.83162000  1
  Ni  Ni2  1  0.40003300  0.72836200  0.33162000  1
  Ni  Ni3  1  0.09996700  0.27163800  0.83162000  1
  Ni  Ni4  1  0.59996700  0.27163800  0.66838000  1
  Ni  Ni5  1  0.90003300  0.72836200  0.16838000  1
  Ni  Ni6  1  0.40003300  0.77163800  0.66838000  1
  Ni  Ni7  1  0.59996700  0.22836200  0.33162000  1
  Ni  Ni8  1  0.22919000  0.36349700  0.06668800  1
  Ni  Ni9  1  0.77081000  0.63650300  0.93331200  1
  Ni  Ni10  1  0.27081000  0.86349700  0.43331200  1
  Ni  Ni11  1  0.22919000  0.13650300  0.93331200  1
  Ni  Ni12  1  0.72919000  0.13650300  0.56668800  1
  Ni  Ni13  1  0.77081000  0.86349700  0.06668800  1
  Ni  Ni14  1  0.27081000  0.63650300  0.56668800  1
  Ni  Ni15  1  0.72919000  0.36349700  0.43331200  1
  Cu  Cu16  1  0.41200100  0.01860700  0.16992700  1
  Cu  Cu17  1  0.58799900  0.98139300  0.83007300  1
  Cu  Cu18  1  0.08799900  0.51860700  0.33007300  1
  Cu  Cu19  1  0.41200100  0.48139300  0.83007300  1
  Cu  Cu20  1  0.91200100  0.48139300  0.66992700  1
  Cu  Cu21  1  0.58799900  0.51860700  0.16992700  1
  Cu  Cu22  1  0.08799900  0.98139300  0.66992700  1
  Cu  Cu23  1  0.91200100  0.01860700  0.33007300  1
  C  C24  1  0.27340000  0.21019500  0.43058300  1
  C  C25  1  0.72660000  0.78980500  0.56941700  1
  C  C26  1  0.22660000  0.71019500  0.06941700  1
  C  C27  1  0.27340000  0.28980500  0.56941700  1
  C  C28  1  0.77340000  0.28980500  0.93058300  1
  C  C29  1  0.72660000  0.71019500  0.43058300  1
  C  C30  1  0.22660000  0.78980500  0.93058300  1
  C  C31  1  0.77340000  0.21019500  0.06941700  1
  C  C32  1  0.38570200  0.31300800  0.34206000  1
  C  C33  1  0.61429800  0.68699200  0.65794000  1
  C  C34  1  0.11429800  0.81300800  0.15794000  1
  C  C35  1  0.38570200  0.18699200  0.65794000  1
  C  C36  1  0.88570200  0.18699200  0.84206000  1
  C  C37  1  0.61429800  0.81300800  0.34206000  1
  C  C38  1  0.11429800  0.68699200  0.84206000  1
  C  C39  1  0.88570200  0.31300800  0.15794000  1
  C  C40  1  0.06352700  0.10242100  0.04004800  1
  C  C41  1  0.93647300  0.89757900  0.95995200  1
  C  C42  1  0.43647300  0.60242100  0.45995200  1
  C  C43  1  0.06352700  0.39757900  0.95995200  1
  C  C44  1  0.56352700  0.39757900  0.54004800  1
  C  C45  1  0.93647300  0.60242100  0.04004800  1
  C  C46  1  0.43647300  0.89757900  0.54004800  1
  C  C47  1  0.56352700  0.10242100  0.45995200  1
  C  C48  1  0.26190600  0.02043600  0.21249700  1
  C  C49  1  0.73809400  0.97956400  0.78750300  1
  C  C50  1  0.23809400  0.52043600  0.28750300  1
  C  C51  1  0.26190600  0.47956400  0.78750300  1
  C  C52  1  0.76190600  0.47956400  0.71249700  1
  C  C53  1  0.73809400  0.52043600  0.21249700  1
  C  C54  1  0.23809400  0.97956400  0.71249700  1
  C  C55  1  0.76190600  0.02043600  0.28750300  1
  C  C56  1  0.06229900  0.01579200  0.36955500  1
  C  C57  1  0.93770100  0.98420800  0.63044500  1
  C  C58  1  0.43770100  0.51579200  0.13044500  1
  C  C59  1  0.06229900  0.48420800  0.63044500  1
  C  C60  1  0.56229900  0.48420800  0.86955500  1
  C  C61  1  0.93770100  0.51579200  0.36955500  1
  C  C62  1  0.43770100  0.98420800  0.86955500  1
  C  C63  1  0.56229900  0.01579200  0.13044500  1
  C  C64  1  0.39923000  0.14365200  0.14258200  1
  C  C65  1  0.60077000  0.85634800  0.85741800  1
  C  C66  1  0.10077000  0.64365200  0.35741800  1
  C  C67  1  0.39923000  0.35634800  0.85741800  1
  C  C68  1  0.89923000  0.35634800  0.64258200  1
  C  C69  1  0.60077000  0.64365200  0.14258200  1
  C  C70  1  0.10077000  0.85634800  0.64258200  1
  C  C71  1  0.89923000  0.14365200  0.35741800  1
  C  C72  1  0.07556200  0.39321100  0.30040900  1
  C  C73  1  0.92443800  0.60678900  0.69959100  1
  C  C74  1  0.42443800  0.89321100  0.19959100  1
  C  C75  1  0.07556200  0.10678900  0.69959100  1
  C  C76  1  0.57556200  0.10678900  0.80040900  1
  C  C77  1  0.92443800  0.89321100  0.30040900  1
  C  C78  1  0.42443800  0.60678900  0.80040900  1
  C  C79  1  0.57556200  0.39321100  0.19959100  1
  C  C80  1  0.46686000  0.05138300  0.27660200  1
  C  C81  1  0.53314000  0.94861700  0.72339800  1
  C  C82  1  0.03314000  0.55138300  0.22339800  1
  C  C83  1  0.46686000  0.44861700  0.72339800  1
  C  C84  1  0.96686000  0.44861700  0.77660200  1
  C  C85  1  0.53314000  0.55138300  0.27660200  1
  C  C86  1  0.03314000  0.94861700  0.77660200  1
  C  C87  1  0.96686000  0.05138300  0.22339800  1
  C  C88  1  0.14465800  0.01458300  0.56517000  1
  C  C89  1  0.85534200  0.98541700  0.43483000  1
  C  C90  1  0.35534200  0.51458300  0.93483000  1
  C  C91  1  0.14465800  0.48541700  0.43483000  1
  C  C92  1  0.64465800  0.48541700  0.06517000  1
  C  C93  1  0.85534200  0.51458300  0.56517000  1
  C  C94  1  0.35534200  0.98541700  0.06517000  1
  C  C95  1  0.64465800  0.01458300  0.93483000  1
