# generated using pymatgen
data_CuNi5C3
_symmetry_space_group_name_H-M   'P 1'
_cell_length_a   3.59249400
_cell_length_b   10.18687800
_cell_length_c   16.98133400
_cell_angle_alpha   90.00000000
_cell_angle_beta   90.00000000
_cell_angle_gamma   90.00000000
_symmetry_Int_Tables_number   1
_chemical_formula_structural   CuNi5C3
_chemical_formula_sum   'Cu4 Ni20 C12'
_cell_volume   621.45396109
_cell_formula_units_Z   4
loop_
 _symmetry_equiv_pos_site_id
 _symmetry_equiv_pos_as_xyz
  1  'x, y, z'
loop_
 _atom_site_type_symbol
 _atom_site_label
 _atom_site_symmetry_multiplicity
 _atom_site_fract_x
 _atom_site_fract_y
 _atom_site_fract_z
 _atom_site_occupancy
  Ni  Ni0  1  0.25000000  0.12185400  0.47626200  1
  Ni  Ni1  1  0.75000000  0.87814600  0.52373800  1
  Ni  Ni2  1  0.75000000  0.62185400  0.02373800  1
  Ni  Ni3  1  0.25000000  0.37814600  0.97626200  1
  Ni  Ni4  1  0.25000000  0.06151200  0.07589100  1
  Ni  Ni5  1  0.75000000  0.93848800  0.92410900  1
  Ni  Ni6  1  0.75000000  0.56151200  0.42410900  1
  Ni  Ni7  1  0.25000000  0.43848800  0.57589100  1
  Ni  Ni8  1  0.25000000  0.48823100  0.27257600  1
  Ni  Ni9  1  0.75000000  0.51176900  0.72742400  1
  Ni  Ni10  1  0.75000000  0.98823100  0.22742400  1
  Ni  Ni11  1  0.25000000  0.01176900  0.77257600  1
  Ni  Ni12  1  0.25000000  0.81500700  0.36811100  1
  Ni  Ni13  1  0.75000000  0.18499300  0.63188900  1
  Ni  Ni14  1  0.75000000  0.31500700  0.13188900  1
  Ni  Ni15  1  0.25000000  0.68499300  0.86811100  1
  Ni  Ni16  1  0.25000000  0.75363600  0.16772800  1
  Ni  Ni17  1  0.75000000  0.24636400  0.83227200  1
  Ni  Ni18  1  0.75000000  0.25363600  0.33227200  1
  Ni  Ni19  1  0.25000000  0.74636400  0.66772800  1
  Cu  Cu20  1  0.25000000  0.36749900  0.41213900  1
  Cu  Cu21  1  0.75000000  0.63250100  0.58786100  1
  Cu  Cu22  1  0.75000000  0.86749900  0.08786100  1
  Cu  Cu23  1  0.25000000  0.13250100  0.91213900  1
  C  C24  1  0.25000000  0.81100500  0.00932900  1
  C  C25  1  0.75000000  0.18899500  0.99067100  1
  C  C26  1  0.75000000  0.31100500  0.49067100  1
  C  C27  1  0.25000000  0.68899500  0.50932900  1
  C  C28  1  0.25000000  0.50532400  0.11614000  1
  C  C29  1  0.75000000  0.49467600  0.88386000  1
  C  C30  1  0.75000000  0.00532400  0.38386000  1
  C  C31  1  0.25000000  0.99467600  0.61614000  1
  C  C32  1  0.25000000  0.18524200  0.21806000  1
  C  C33  1  0.75000000  0.81475800  0.78194000  1
  C  C34  1  0.75000000  0.68524200  0.28194000  1
  C  C35  1  0.25000000  0.31475800  0.71806000  1
