# generated using pymatgen
data_Cu2NiC4
_symmetry_space_group_name_H-M   'P 1'
_cell_length_a   3.90903400
_cell_length_b   13.03352500
_cell_length_c   13.17933000
_cell_angle_alpha   90.00000000
_cell_angle_beta   90.00000000
_cell_angle_gamma   90.00000000
_symmetry_Int_Tables_number   1
_chemical_formula_structural   Cu2NiC4
_chemical_formula_sum   'Cu8 Ni4 C16'
_cell_volume   671.46699388
_cell_formula_units_Z   4
loop_
 _symmetry_equiv_pos_site_id
 _symmetry_equiv_pos_as_xyz
  1  'x, y, z'
loop_
 _atom_site_type_symbol
 _atom_site_label
 _atom_site_symmetry_multiplicity
 _atom_site_fract_x
 _atom_site_fract_y
 _atom_site_fract_z
 _atom_site_occupancy
  Ni  Ni0  1  0.75000000  0.62971900  0.41872300  1
  Ni  Ni1  1  0.25000000  0.37028100  0.58127700  1
  Ni  Ni2  1  0.75000000  0.12971900  0.08127700  1
  Ni  Ni3  1  0.25000000  0.87028100  0.91872300  1
  Cu  Cu4  1  0.75000000  0.89206700  0.58341400  1
  Cu  Cu5  1  0.25000000  0.10793300  0.41658600  1
  Cu  Cu6  1  0.75000000  0.39206700  0.91658600  1
  Cu  Cu7  1  0.25000000  0.60793300  0.08341400  1
  Cu  Cu8  1  0.25000000  0.64635000  0.70305700  1
  Cu  Cu9  1  0.75000000  0.35365000  0.29694300  1
  Cu  Cu10  1  0.25000000  0.14635000  0.79694300  1
  Cu  Cu11  1  0.75000000  0.85365000  0.20305700  1
  C  C12  1  0.25000000  0.97118500  0.11755100  1
  C  C13  1  0.75000000  0.02881500  0.88244900  1
  C  C14  1  0.25000000  0.47118500  0.38244900  1
  C  C15  1  0.75000000  0.52881500  0.61755100  1
  C  C16  1  0.75000000  0.74395000  0.02534600  1
  C  C17  1  0.25000000  0.25605000  0.97465400  1
  C  C18  1  0.75000000  0.24395000  0.47465400  1
  C  C19  1  0.25000000  0.75605000  0.52534600  1
  C  C20  1  0.25000000  0.53322100  0.88278100  1
  C  C21  1  0.75000000  0.46677900  0.11721900  1
  C  C22  1  0.25000000  0.03322100  0.61721900  1
  C  C23  1  0.75000000  0.96677900  0.38278100  1
  C  C24  1  0.75000000  0.78228500  0.76320600  1
  C  C25  1  0.25000000  0.21771500  0.23679400  1
  C  C26  1  0.75000000  0.28228500  0.73679400  1
  C  C27  1  0.25000000  0.71771500  0.26320600  1
