# generated using pymatgen
data_Cu2NiC
_symmetry_space_group_name_H-M   'P 1'
_cell_length_a   7.02939300
_cell_length_b   13.69166600
_cell_length_c   11.89607266
_cell_angle_alpha   90.00000000
_cell_angle_beta   93.71561830
_cell_angle_gamma   90.00000000
_symmetry_Int_Tables_number   1
_chemical_formula_structural   Cu2NiC
_chemical_formula_sum   'Cu32 Ni16 C16'
_cell_volume   1142.52017297
_cell_formula_units_Z   16
loop_
 _symmetry_equiv_pos_site_id
 _symmetry_equiv_pos_as_xyz
  1  'x, y, z'
loop_
 _atom_site_type_symbol
 _atom_site_label
 _atom_site_symmetry_multiplicity
 _atom_site_fract_x
 _atom_site_fract_y
 _atom_site_fract_z
 _atom_site_occupancy
  C  C0  1  0.73538300  0.47875300  0.30288500  1
  C  C1  1  0.26461700  0.97875300  0.19711500  1
  C  C2  1  0.26461700  0.52124700  0.69711500  1
  C  C3  1  0.73538300  0.02124700  0.80288500  1
  C  C4  1  0.95585600  0.35420500  0.08145300  1
  C  C5  1  0.04414400  0.85420500  0.41854700  1
  C  C6  1  0.04414400  0.64579500  0.91854700  1
  C  C7  1  0.95585600  0.14579500  0.58145300  1
  C  C8  1  0.49318100  0.34995200  0.08326600  1
  C  C9  1  0.50681900  0.84995200  0.41673400  1
  C  C10  1  0.50681900  0.65004800  0.91673400  1
  C  C11  1  0.49318100  0.15004800  0.58326600  1
  C  C12  1  0.24690200  0.44109200  0.39358400  1
  C  C13  1  0.75309800  0.94109200  0.10641600  1
  C  C14  1  0.75309800  0.55890800  0.60641600  1
  C  C15  1  0.24690200  0.05890800  0.89358400  1
  Ni  Ni16  1  0.03140300  0.30820200  0.99150600  1
  Ni  Ni17  1  0.96859700  0.80820200  0.50849400  1
  Ni  Ni18  1  0.96859700  0.69179800  0.00849400  1
  Ni  Ni19  1  0.03140300  0.19179800  0.49150600  1
  Ni  Ni20  1  0.96443400  0.25374000  0.07215200  1
  Ni  Ni21  1  0.03556600  0.75374000  0.42784800  1
  Ni  Ni22  1  0.03556600  0.74626000  0.92784800  1
  Ni  Ni23  1  0.96443400  0.24626000  0.57215200  1
  Ni  Ni24  1  0.43251100  0.26813100  0.12831000  1
  Ni  Ni25  1  0.56748900  0.76813100  0.37169000  1
  Ni  Ni26  1  0.56748900  0.73186900  0.87169000  1
  Ni  Ni27  1  0.43251100  0.23186900  0.62831000  1
  Ni  Ni28  1  0.53223100  0.35681800  0.97524400  1
  Ni  Ni29  1  0.46776900  0.85681800  0.52475600  1
  Ni  Ni30  1  0.46776900  0.64318200  0.02475600  1
  Ni  Ni31  1  0.53223100  0.14318200  0.47524400  1
  Cu  Cu32  1  0.22656800  0.45689300  0.51735500  1
  Cu  Cu33  1  0.77343200  0.95689300  0.98264500  1
  Cu  Cu34  1  0.77343200  0.54310700  0.48264500  1
  Cu  Cu35  1  0.22656800  0.04310700  0.01735500  1
  Cu  Cu36  1  0.41926900  0.49683700  0.36222600  1
  Cu  Cu37  1  0.58073100  0.99683700  0.13777400  1
  Cu  Cu38  1  0.58073100  0.50316300  0.63777400  1
  Cu  Cu39  1  0.41926900  0.00316300  0.86222600  1
  Cu  Cu40  1  0.07729900  0.48723700  0.33285600  1
  Cu  Cu41  1  0.92270100  0.98723700  0.16714400  1
  Cu  Cu42  1  0.92270100  0.51276300  0.66714400  1
  Cu  Cu43  1  0.07729900  0.01276300  0.83285600  1
  Cu  Cu44  1  0.26183100  0.33744500  0.36862100  1
  Cu  Cu45  1  0.73816900  0.83744500  0.13137900  1
  Cu  Cu46  1  0.73816900  0.66255500  0.63137900  1
  Cu  Cu47  1  0.26183100  0.16255500  0.86862100  1
  Cu  Cu48  1  0.74083600  0.59831000  0.24277900  1
  Cu  Cu49  1  0.25916400  0.09831000  0.25722100  1
  Cu  Cu50  1  0.25916400  0.40169000  0.75722100  1
  Cu  Cu51  1  0.74083600  0.90169000  0.74277900  1
  Cu  Cu52  1  0.74282000  0.35420600  0.35043900  1
  Cu  Cu53  1  0.25718000  0.85420600  0.14956100  1
  Cu  Cu54  1  0.25718000  0.64579400  0.64956100  1
  Cu  Cu55  1  0.74282000  0.14579400  0.85043900  1
  Cu  Cu56  1  0.91461100  0.42905900  0.12782700  1
  Cu  Cu57  1  0.08538900  0.92905900  0.37217300  1
  Cu  Cu58  1  0.08538900  0.57094100  0.87217300  1
  Cu  Cu59  1  0.91461100  0.07094100  0.62782700  1
  Cu  Cu60  1  0.52363100  0.42934100  0.14508400  1
  Cu  Cu61  1  0.47636900  0.92934100  0.35491600  1
  Cu  Cu62  1  0.47636900  0.57065900  0.85491600  1
  Cu  Cu63  1  0.52363100  0.07065900  0.64508400  1
