# generated using pymatgen
data_Cu3Ni2C9
_symmetry_space_group_name_H-M   'P 1'
_cell_length_a   7.38105774
_cell_length_b   7.38870976
_cell_length_c   7.37328947
_cell_angle_alpha   59.40831423
_cell_angle_beta   59.38679584
_cell_angle_gamma   59.44338595
_symmetry_Int_Tables_number   1
_chemical_formula_structural   Cu3Ni2C9
_chemical_formula_sum   'Cu3 Ni2 C9'
_cell_volume   280.53796065
_cell_formula_units_Z   1
loop_
 _symmetry_equiv_pos_site_id
 _symmetry_equiv_pos_as_xyz
  1  'x, y, z'
loop_
 _atom_site_type_symbol
 _atom_site_label
 _atom_site_symmetry_multiplicity
 _atom_site_fract_x
 _atom_site_fract_y
 _atom_site_fract_z
 _atom_site_occupancy
  Ni  Ni0  1  0.87251200  0.87274000  0.87230200  1
  Ni  Ni1  1  0.12748300  0.12726300  0.12768200  1
  Cu  Cu2  1  0.50001600  0.49999600  0.99999300  1
  Cu  Cu3  1  0.00002700  0.50001700  0.50002600  1
  Cu  Cu4  1  0.49995000  0.99998700  0.50003700  1
  C  C5  1  0.50001200  0.49999600  0.49998900  1
  C  C6  1  0.73623300  0.73625600  0.73618000  1
  C  C7  1  0.26213700  0.26209600  0.71845900  1
  C  C8  1  0.26200200  0.71874400  0.26209200  1
  C  C9  1  0.71860900  0.26201100  0.26216200  1
  C  C10  1  0.73799900  0.28125200  0.73788800  1
  C  C11  1  0.28138800  0.73798600  0.73783300  1
  C  C12  1  0.26377100  0.26373800  0.26381900  1
  C  C13  1  0.73786600  0.73791400  0.28153800  1
