# generated using pymatgen
data_CuNi2C
_symmetry_space_group_name_H-M   'P 1'
_cell_length_a   12.91445200
_cell_length_b   10.64542200
_cell_length_c   8.33953200
_cell_angle_alpha   90.00000000
_cell_angle_beta   90.00000000
_cell_angle_gamma   90.00000000
_symmetry_Int_Tables_number   1
_chemical_formula_structural   CuNi2C
_chemical_formula_sum   'Cu8 Ni16 C8'
_cell_volume   1146.51712006
_cell_formula_units_Z   8
loop_
 _symmetry_equiv_pos_site_id
 _symmetry_equiv_pos_as_xyz
  1  'x, y, z'
loop_
 _atom_site_type_symbol
 _atom_site_label
 _atom_site_symmetry_multiplicity
 _atom_site_fract_x
 _atom_site_fract_y
 _atom_site_fract_z
 _atom_site_occupancy
  C  C0  1  0.51996200  0.25000000  0.91222100  1
  C  C1  1  0.01996200  0.25000000  0.58777900  1
  C  C2  1  0.48003800  0.75000000  0.08777900  1
  C  C3  1  0.98003800  0.75000000  0.41222100  1
  C  C4  1  0.57225300  0.25000000  0.46981000  1
  C  C5  1  0.07225300  0.25000000  0.03019000  1
  C  C6  1  0.42774700  0.75000000  0.53019000  1
  C  C7  1  0.92774700  0.75000000  0.96981000  1
  Ni  Ni8  1  0.71953900  0.25000000  0.31203400  1
  Ni  Ni9  1  0.21953900  0.25000000  0.18796600  1
  Ni  Ni10  1  0.28046100  0.75000000  0.68796600  1
  Ni  Ni11  1  0.78046100  0.75000000  0.81203400  1
  Ni  Ni12  1  0.46652400  0.25000000  0.24480700  1
  Ni  Ni13  1  0.96652400  0.25000000  0.25519300  1
  Ni  Ni14  1  0.53347600  0.75000000  0.75519300  1
  Ni  Ni15  1  0.03347600  0.75000000  0.74480700  1
  Ni  Ni16  1  0.42279900  0.25000000  0.62858000  1
  Ni  Ni17  1  0.92279900  0.25000000  0.87142000  1
  Ni  Ni18  1  0.57720100  0.75000000  0.37142000  1
  Ni  Ni19  1  0.07720100  0.75000000  0.12858000  1
  Ni  Ni20  1  0.67727400  0.25000000  0.69684800  1
  Ni  Ni21  1  0.17727400  0.25000000  0.80315200  1
  Ni  Ni22  1  0.32272600  0.75000000  0.30315200  1
  Ni  Ni23  1  0.82272600  0.75000000  0.19684800  1
  Cu  Cu24  1  0.54725900  0.50091300  0.01149300  1
  Cu  Cu25  1  0.04725900  0.99908700  0.48850700  1
  Cu  Cu26  1  0.45274100  0.00091300  0.98850700  1
  Cu  Cu27  1  0.95274100  0.49908700  0.51149300  1
  Cu  Cu28  1  0.45274100  0.49908700  0.98850700  1
  Cu  Cu29  1  0.95274100  0.00091300  0.51149300  1
  Cu  Cu30  1  0.54725900  0.99908700  0.01149300  1
  Cu  Cu31  1  0.04725900  0.50091300  0.48850700  1
