# generated using pymatgen
data_Cu3Ni4
_symmetry_space_group_name_H-M   'P 1'
_cell_length_a   3.73721100
_cell_length_b   5.83717500
_cell_length_c   19.03078600
_cell_angle_alpha   90.00000000
_cell_angle_beta   90.00000000
_cell_angle_gamma   90.00000000
_symmetry_Int_Tables_number   1
_chemical_formula_structural   Cu3Ni4
_chemical_formula_sum   'Cu12 Ni16'
_cell_volume   415.15192680
_cell_formula_units_Z   4
loop_
 _symmetry_equiv_pos_site_id
 _symmetry_equiv_pos_as_xyz
  1  'x, y, z'
loop_
 _atom_site_type_symbol
 _atom_site_label
 _atom_site_symmetry_multiplicity
 _atom_site_fract_x
 _atom_site_fract_y
 _atom_site_fract_z
 _atom_site_occupancy
  Ni  Ni0  1  0.25000000  0.97263100  0.45032600  1
  Ni  Ni1  1  0.75000000  0.02736900  0.54967400  1
  Ni  Ni2  1  0.75000000  0.47263100  0.04967400  1
  Ni  Ni3  1  0.25000000  0.52736900  0.95032600  1
  Ni  Ni4  1  0.25000000  0.07473500  0.90918700  1
  Ni  Ni5  1  0.75000000  0.92526500  0.09081300  1
  Ni  Ni6  1  0.75000000  0.57473500  0.59081300  1
  Ni  Ni7  1  0.25000000  0.42526500  0.40918700  1
  Ni  Ni8  1  0.25000000  0.71544600  0.26977100  1
  Ni  Ni9  1  0.75000000  0.28455400  0.73022900  1
  Ni  Ni10  1  0.75000000  0.21544600  0.23022900  1
  Ni  Ni11  1  0.25000000  0.78455400  0.76977100  1
  Ni  Ni12  1  0.25000000  0.38895900  0.14387500  1
  Ni  Ni13  1  0.75000000  0.61104100  0.85612500  1
  Ni  Ni14  1  0.75000000  0.88895900  0.35612500  1
  Ni  Ni15  1  0.25000000  0.11104100  0.64387500  1
  Cu  Cu16  1  0.25000000  0.39233700  0.82618400  1
  Cu  Cu17  1  0.75000000  0.60766300  0.17381600  1
  Cu  Cu18  1  0.75000000  0.89233700  0.67381600  1
  Cu  Cu19  1  0.25000000  0.10766300  0.32618400  1
  Cu  Cu20  1  0.25000000  0.49987600  0.67617100  1
  Cu  Cu21  1  0.75000000  0.50012400  0.32382900  1
  Cu  Cu22  1  0.75000000  0.99987600  0.82382900  1
  Cu  Cu23  1  0.25000000  0.00012400  0.17617100  1
  Cu  Cu24  1  0.25000000  0.30416100  0.53130400  1
  Cu  Cu25  1  0.75000000  0.69583900  0.46869600  1
  Cu  Cu26  1  0.75000000  0.80416100  0.96869600  1
  Cu  Cu27  1  0.25000000  0.19583900  0.03130400  1
