# generated using pymatgen
data_Cu12NiC
_symmetry_space_group_name_H-M   'P 1'
_cell_length_a   10.27967900
_cell_length_b   6.71806100
_cell_length_c   8.14377338
_cell_angle_alpha   66.29533298
_cell_angle_beta   90.00000000
_cell_angle_gamma   90.00000000
_symmetry_Int_Tables_number   1
_chemical_formula_structural   Cu12NiC
_chemical_formula_sum   'Cu24 Ni2 C2'
_cell_volume   514.95480949
_cell_formula_units_Z   2
loop_
 _symmetry_equiv_pos_site_id
 _symmetry_equiv_pos_as_xyz
  1  'x, y, z'
loop_
 _atom_site_type_symbol
 _atom_site_label
 _atom_site_symmetry_multiplicity
 _atom_site_fract_x
 _atom_site_fract_y
 _atom_site_fract_z
 _atom_site_occupancy
  C  C0  1  0.56690400  0.56210400  0.32032300  1
  C  C1  1  0.43309600  0.56210400  0.82032300  1
  Ni  Ni2  1  0.71406600  0.53051400  0.74608000  1
  Ni  Ni3  1  0.28593400  0.53051400  0.24608000  1
  Cu  Cu4  1  0.85664000  0.70946800  0.63135400  1
  Cu  Cu5  1  0.14336000  0.70946800  0.13135400  1
  Cu  Cu6  1  0.85252100  0.32770500  0.78174600  1
  Cu  Cu7  1  0.14747900  0.32770500  0.28174600  1
  Cu  Cu8  1  0.58308300  0.32718600  0.86522200  1
  Cu  Cu9  1  0.41691700  0.32718600  0.36522200  1
  Cu  Cu10  1  0.59323300  0.75738000  0.69625300  1
  Cu  Cu11  1  0.40676700  0.75738000  0.19625300  1
  Cu  Cu12  1  0.68124400  0.48967700  0.53440400  1
  Cu  Cu13  1  0.31875600  0.48967700  0.03440400  1
  Cu  Cu14  1  0.77269800  0.53665800  0.96319200  1
  Cu  Cu15  1  0.22730200  0.53665800  0.46319200  1
  Cu  Cu16  1  0.87381700  0.50117400  0.31727600  1
  Cu  Cu17  1  0.12618300  0.50117400  0.81727600  1
  Cu  Cu18  1  0.86128200  0.70336900  0.22795700  1
  Cu  Cu19  1  0.13871800  0.70336900  0.72795700  1
  Cu  Cu20  1  0.55049200  0.55646800  0.05792700  1
  Cu  Cu21  1  0.44950800  0.55646800  0.55792700  1
  Cu  Cu22  1  0.60943000  0.03920800  0.30081800  1
  Cu  Cu23  1  0.39057000  0.03920800  0.80081800  1
  Cu  Cu24  1  0.67586200  0.15122800  0.35547400  1
  Cu  Cu25  1  0.32413800  0.15122800  0.85547400  1
  Cu  Cu26  1  0.74198700  0.77976500  0.18607300  1
  Cu  Cu27  1  0.25801300  0.77976500  0.68607300  1
