# generated using pymatgen
data_Cu10Ni4C5
_symmetry_space_group_name_H-M   'P 1'
_cell_length_a   10.70445100
_cell_length_b   8.74338900
_cell_length_c   15.70339778
_cell_angle_alpha   88.49490489
_cell_angle_beta   90.00000000
_cell_angle_gamma   90.00000000
_symmetry_Int_Tables_number   1
_chemical_formula_structural   Cu10Ni4C5
_chemical_formula_sum   'Cu40 Ni16 C20'
_cell_volume   1469.22385403
_cell_formula_units_Z   4
loop_
 _symmetry_equiv_pos_site_id
 _symmetry_equiv_pos_as_xyz
  1  'x, y, z'
loop_
 _atom_site_type_symbol
 _atom_site_label
 _atom_site_symmetry_multiplicity
 _atom_site_fract_x
 _atom_site_fract_y
 _atom_site_fract_z
 _atom_site_occupancy
  C  C0  1  0.09083000  0.13696400  0.23822200  1
  C  C1  1  0.90917000  0.86303600  0.76177800  1
  C  C2  1  0.59083000  0.36303600  0.76177800  1
  C  C3  1  0.40917000  0.63696400  0.23822200  1
  C  C4  1  0.31242900  0.32012600  0.08642500  1
  C  C5  1  0.68757100  0.67987400  0.91357500  1
  C  C6  1  0.81242900  0.17987400  0.91357500  1
  C  C7  1  0.18757100  0.82012600  0.08642500  1
  C  C8  1  0.40925200  0.02283000  0.34863100  1
  C  C9  1  0.59074800  0.97717000  0.65136900  1
  C  C10  1  0.90925200  0.47717000  0.65136900  1
  C  C11  1  0.09074800  0.52283000  0.34863100  1
  C  C12  1  0.82827600  0.28686100  0.18358800  1
  C  C13  1  0.17172400  0.71313900  0.81641200  1
  C  C14  1  0.32827600  0.21313900  0.81641200  1
  C  C15  1  0.67172400  0.78686100  0.18358800  1
  C  C16  1  0.05870300  0.06256200  0.60708500  1
  C  C17  1  0.94129700  0.93743800  0.39291500  1
  C  C18  1  0.55870300  0.43743800  0.39291500  1
  C  C19  1  0.44129700  0.56256200  0.60708500  1
  Ni  Ni20  1  0.72560900  0.37231700  0.15956500  1
  Ni  Ni21  1  0.27439100  0.62768300  0.84043500  1
  Ni  Ni22  1  0.22560900  0.12768300  0.84043500  1
  Ni  Ni23  1  0.77439100  0.87231700  0.15956500  1
  Ni  Ni24  1  0.32646300  0.50766000  0.58139400  1
  Ni  Ni25  1  0.67353700  0.49234000  0.41860600  1
  Ni  Ni26  1  0.82646300  0.99234000  0.41860600  1
  Ni  Ni27  1  0.17353700  0.00766000  0.58139400  1
  Ni  Ni28  1  0.83793600  0.41928400  0.13417300  1
  Ni  Ni29  1  0.16206400  0.58071600  0.86582700  1
  Ni  Ni30  1  0.33793600  0.08071600  0.86582700  1
  Ni  Ni31  1  0.66206400  0.91928400  0.13417300  1
  Ni  Ni32  1  0.12193300  0.12224800  0.53690100  1
  Ni  Ni33  1  0.87806700  0.87775200  0.46309900  1
  Ni  Ni34  1  0.62193300  0.37775200  0.46309900  1
  Ni  Ni35  1  0.37806700  0.62224800  0.53690100  1
  Cu  Cu36  1  0.15957900  0.29118900  0.12858400  1
  Cu  Cu37  1  0.84042100  0.70881100  0.87141600  1
  Cu  Cu38  1  0.65957900  0.20881100  0.87141600  1
  Cu  Cu39  1  0.34042100  0.79118900  0.12858400  1
  Cu  Cu40  1  0.29210500  0.09754100  0.27980500  1
  Cu  Cu41  1  0.70789500  0.90245900  0.72019500  1
  Cu  Cu42  1  0.79210500  0.40245900  0.72019500  1
  Cu  Cu43  1  0.20789500  0.59754100  0.27980500  1
  Cu  Cu44  1  0.37243600  0.06662600  0.45268700  1
  Cu  Cu45  1  0.62756400  0.93337400  0.54731300  1
  Cu  Cu46  1  0.87243600  0.43337400  0.54731300  1
  Cu  Cu47  1  0.12756400  0.56662600  0.45268700  1
  Cu  Cu48  1  0.40334300  0.43687500  0.15334200  1
  Cu  Cu49  1  0.59665700  0.56312500  0.84665800  1
  Cu  Cu50  1  0.90334300  0.06312500  0.84665800  1
  Cu  Cu51  1  0.09665700  0.93687500  0.15334200  1
  Cu  Cu52  1  0.05230400  0.39410500  0.67831600  1
  Cu  Cu53  1  0.94769600  0.60589500  0.32168400  1
  Cu  Cu54  1  0.55230400  0.10589500  0.32168400  1
  Cu  Cu55  1  0.44769600  0.89410500  0.67831600  1
  Cu  Cu56  1  0.80415200  0.09882800  0.01570000  1
  Cu  Cu57  1  0.19584800  0.90117200  0.98430000  1
  Cu  Cu58  1  0.30415200  0.40117200  0.98430000  1
  Cu  Cu59  1  0.69584800  0.59882800  0.01570000  1
  Cu  Cu60  1  0.87305000  0.17878500  0.22275400  1
  Cu  Cu61  1  0.12695000  0.82121500  0.77724600  1
  Cu  Cu62  1  0.37305000  0.32121500  0.77724600  1
  Cu  Cu63  1  0.62695000  0.67878500  0.22275400  1
  Cu  Cu64  1  0.38631300  0.14485900  0.07895600  1
  Cu  Cu65  1  0.61368700  0.85514100  0.92104400  1
  Cu  Cu66  1  0.88631300  0.35514100  0.92104400  1
  Cu  Cu67  1  0.11368700  0.64485900  0.07895600  1
  Cu  Cu68  1  0.08013100  0.32087300  0.33964400  1
  Cu  Cu69  1  0.91986900  0.67912700  0.66035600  1
  Cu  Cu70  1  0.58013100  0.17912700  0.66035600  1
  Cu  Cu71  1  0.41986900  0.82087300  0.33964400  1
  Cu  Cu72  1  0.46753500  0.44259800  0.34750000  1
  Cu  Cu73  1  0.53246500  0.55740200  0.65250000  1
  Cu  Cu74  1  0.96753500  0.05740200  0.65250000  1
  Cu  Cu75  1  0.03246500  0.94259800  0.34750000  1
