# generated using pymatgen
data_Cu2NiC8
_symmetry_space_group_name_H-M   'P 1'
_cell_length_a   6.61465400
_cell_length_b   7.26935700
_cell_length_c   12.85657057
_cell_angle_alpha   61.85612667
_cell_angle_beta   90.00000000
_cell_angle_gamma   90.00000000
_symmetry_Int_Tables_number   1
_chemical_formula_structural   Cu2NiC8
_chemical_formula_sum   'Cu8 Ni4 C32'
_cell_volume   545.10678243
_cell_formula_units_Z   4
loop_
 _symmetry_equiv_pos_site_id
 _symmetry_equiv_pos_as_xyz
  1  'x, y, z'
loop_
 _atom_site_type_symbol
 _atom_site_label
 _atom_site_symmetry_multiplicity
 _atom_site_fract_x
 _atom_site_fract_y
 _atom_site_fract_z
 _atom_site_occupancy
  C  C0  1  0.35728000  0.74479100  0.52859400  1
  C  C1  1  0.64272000  0.25520900  0.47140600  1
  C  C2  1  0.85728000  0.25520900  0.97140600  1
  C  C3  1  0.14272000  0.74479100  0.02859400  1
  Ni  Ni4  1  0.40096900  0.71181000  0.27043800  1
  Ni  Ni5  1  0.59903100  0.28819000  0.72956200  1
  Ni  Ni6  1  0.90096900  0.28819000  0.22956200  1
  Ni  Ni7  1  0.09903100  0.71181000  0.77043800  1
  Cu  Cu8  1  0.65704700  0.71759000  0.04230800  1
  Cu  Cu9  1  0.34295300  0.28241000  0.95769200  1
  Cu  Cu10  1  0.15704700  0.28241000  0.45769200  1
  Cu  Cu11  1  0.84295300  0.71759000  0.54230800  1
  Cu  Cu12  1  0.91096800  0.80023300  0.27718400  1
  Cu  Cu13  1  0.08903200  0.19976700  0.72281600  1
  Cu  Cu14  1  0.41096800  0.19976700  0.22281600  1
  Cu  Cu15  1  0.58903200  0.80023300  0.77718400  1
  C  C16  1  0.37608200  0.92682500  0.31304800  1
  C  C17  1  0.62391800  0.07317500  0.68695200  1
  C  C18  1  0.87608200  0.07317500  0.18695200  1
  C  C19  1  0.12391800  0.92682500  0.81304800  1
  C  C20  1  0.82797400  0.91277900  0.01990900  1
  C  C21  1  0.17202600  0.08722100  0.98009100  1
  C  C22  1  0.32797400  0.08722100  0.48009100  1
  C  C23  1  0.67202600  0.91277900  0.51990900  1
  C  C24  1  0.61074200  0.28146700  0.28162700  1
  C  C25  1  0.38925800  0.71853300  0.71837300  1
  C  C26  1  0.11074200  0.71853300  0.21837300  1
  C  C27  1  0.88925800  0.28146700  0.78162700  1
  C  C28  1  0.00248200  0.75662800  0.42091700  1
  C  C29  1  0.99751800  0.24337200  0.57908300  1
  C  C30  1  0.50248200  0.24337200  0.07908300  1
  C  C31  1  0.49751800  0.75662800  0.92091700  1
  C  C32  1  0.44385300  0.71028300  0.12644800  1
  C  C33  1  0.55614700  0.28971700  0.87355200  1
  C  C34  1  0.94385300  0.28971700  0.37355200  1
  C  C35  1  0.05614700  0.71028300  0.62644800  1
  C  C36  1  0.84445200  0.51760600  0.07586500  1
  C  C37  1  0.15554800  0.48239400  0.92413500  1
  C  C38  1  0.34445200  0.48239400  0.42413500  1
  C  C39  1  0.65554800  0.51760600  0.57586500  1
  C  C40  1  0.68937000  0.64819000  0.31522000  1
  C  C41  1  0.31063000  0.35181000  0.68478000  1
  C  C42  1  0.18937000  0.35181000  0.18478000  1
  C  C43  1  0.81063000  0.64819000  0.81522000  1
