# generated using pymatgen
data_Cu13(Ni2C)2
_symmetry_space_group_name_H-M   'P 1'
_cell_length_a   7.25603783
_cell_length_b   7.25603783
_cell_length_c   16.91647216
_cell_angle_alpha   77.02007723
_cell_angle_beta   77.02007723
_cell_angle_gamma   53.59381646
_symmetry_Int_Tables_number   1
_chemical_formula_structural   Cu13(Ni2C)2
_chemical_formula_sum   'Cu26 Ni8 C4'
_cell_volume   693.75924971
_cell_formula_units_Z   2
loop_
 _symmetry_equiv_pos_site_id
 _symmetry_equiv_pos_as_xyz
  1  'x, y, z'
loop_
 _atom_site_type_symbol
 _atom_site_label
 _atom_site_symmetry_multiplicity
 _atom_site_fract_x
 _atom_site_fract_y
 _atom_site_fract_z
 _atom_site_occupancy
  C  C0  1  0.62720200  0.16615400  0.37978000  1
  C  C1  1  0.83384600  0.37279800  0.12022000  1
  C  C2  1  0.37279800  0.83384600  0.62022000  1
  C  C3  1  0.16615400  0.62720200  0.87978000  1
  Ni  Ni4  1  0.99372500  0.41869700  0.64755300  1
  Ni  Ni5  1  0.58130300  0.00627500  0.85244700  1
  Ni  Ni6  1  0.00627500  0.58130300  0.35244700  1
  Ni  Ni7  1  0.41869700  0.99372500  0.14755300  1
  Ni  Ni8  1  0.33116100  0.84576800  0.39529100  1
  Ni  Ni9  1  0.15423200  0.66883900  0.10470900  1
  Ni  Ni10  1  0.66883900  0.15423200  0.60470900  1
  Ni  Ni11  1  0.84576800  0.33116100  0.89529100  1
  Cu  Cu12  1  0.62589200  0.61236300  0.36117500  1
  Cu  Cu13  1  0.38763700  0.37410800  0.13882500  1
  Cu  Cu14  1  0.37410800  0.38763700  0.63882500  1
  Cu  Cu15  1  0.61236300  0.62589200  0.86117500  1
  Cu  Cu16  1  0.85195500  0.14804500  0.25000000  1
  Cu  Cu17  1  0.14804500  0.85195500  0.75000000  1
  Cu  Cu18  1  0.29386300  0.52093700  0.34504700  1
  Cu  Cu19  1  0.47906300  0.70613700  0.15495300  1
  Cu  Cu20  1  0.70613700  0.47906300  0.65495300  1
  Cu  Cu21  1  0.52093700  0.29386300  0.84504700  1
  Cu  Cu22  1  0.89401200  0.80808200  0.26367400  1
  Cu  Cu23  1  0.19191800  0.10598800  0.23632600  1
  Cu  Cu24  1  0.10598800  0.19191800  0.73632600  1
  Cu  Cu25  1  0.80808200  0.89401200  0.76367400  1
  Cu  Cu26  1  0.86984900  0.76747600  0.43313200  1
  Cu  Cu27  1  0.23252400  0.13015100  0.06686800  1
  Cu  Cu28  1  0.13015100  0.23252400  0.56686800  1
  Cu  Cu29  1  0.76747600  0.86984900  0.93313200  1
  Cu  Cu30  1  0.36008200  0.08412400  0.38758700  1
  Cu  Cu31  1  0.91587600  0.63991800  0.11241300  1
  Cu  Cu32  1  0.63991800  0.91587600  0.61241300  1
  Cu  Cu33  1  0.08412400  0.36008200  0.88758700  1
  Cu  Cu34  1  0.68906400  0.22826800  0.49443600  1
  Cu  Cu35  1  0.77173200  0.31093600  0.00556400  1
  Cu  Cu36  1  0.31093600  0.77173200  0.50556400  1
  Cu  Cu37  1  0.22826800  0.68906400  0.99443600  1
