# generated using pymatgen
data_CuNiC3
_symmetry_space_group_name_H-M   'P 1'
_cell_length_a   6.33067884
_cell_length_b   6.33067884
_cell_length_c   6.49943180
_cell_angle_alpha   76.01281178
_cell_angle_beta   76.01281178
_cell_angle_gamma   71.64017286
_symmetry_Int_Tables_number   1
_chemical_formula_structural   CuNiC3
_chemical_formula_sum   'Cu4 Ni4 C12'
_cell_volume   235.98283105
_cell_formula_units_Z   4
loop_
 _symmetry_equiv_pos_site_id
 _symmetry_equiv_pos_as_xyz
  1  'x, y, z'
loop_
 _atom_site_type_symbol
 _atom_site_label
 _atom_site_symmetry_multiplicity
 _atom_site_fract_x
 _atom_site_fract_y
 _atom_site_fract_z
 _atom_site_occupancy
  C  C0  1  0.18259000  0.18446900  0.00432100  1
  C  C1  1  0.81553100  0.81741000  0.99567900  1
  Ni  Ni2  1  0.39337700  0.45423800  0.61685400  1
  Ni  Ni3  1  0.54576200  0.60662300  0.38314600  1
  Ni  Ni4  1  0.69707100  0.71253700  0.48121800  1
  Ni  Ni5  1  0.28746300  0.30292900  0.51878200  1
  Cu  Cu6  1  0.60627200  0.39372800  0.00000000  1
  Cu  Cu7  1  0.39426400  0.60573600  0.00000000  1
  Cu  Cu8  1  0.92631000  0.94298500  0.46264700  1
  Cu  Cu9  1  0.05701500  0.07369000  0.53735300  1
  C  C10  1  0.68089700  0.65714600  0.35522300  1
  C  C11  1  0.34285400  0.31910300  0.64477700  1
  C  C12  1  0.80714700  0.83560900  0.61098400  1
  C  C13  1  0.16439100  0.19285300  0.38901600  1
  C  C14  1  0.95159800  0.95211900  0.26136100  1
  C  C15  1  0.04788100  0.04840200  0.73863900  1
  C  C16  1  0.42659900  0.79201500  0.00656000  1
  C  C17  1  0.20798500  0.57340100  0.99344000  1
  C  C18  1  0.57144200  0.20644700  0.00180200  1
  C  C19  1  0.79355300  0.42855800  0.99819800  1
