# generated using pymatgen
data_Cu9(NiC)14
_symmetry_space_group_name_H-M   'P 1'
_cell_length_a   7.69264000
_cell_length_b   29.93499400
_cell_length_c   6.91152397
_cell_angle_alpha   90.00000000
_cell_angle_beta   103.85898722
_cell_angle_gamma   90.00000000
_symmetry_Int_Tables_number   1
_chemical_formula_structural   Cu9(NiC)14
_chemical_formula_sum   'Cu18 Ni28 C28'
_cell_volume   1545.24597584
_cell_formula_units_Z   2
loop_
 _symmetry_equiv_pos_site_id
 _symmetry_equiv_pos_as_xyz
  1  'x, y, z'
loop_
 _atom_site_type_symbol
 _atom_site_label
 _atom_site_symmetry_multiplicity
 _atom_site_fract_x
 _atom_site_fract_y
 _atom_site_fract_z
 _atom_site_occupancy
  C  C0  1  0.60237300  0.61279900  0.02124100  1
  C  C1  1  0.60237300  0.38720100  0.52124100  1
  C  C2  1  0.22939000  0.60385300  0.28001100  1
  C  C3  1  0.22939000  0.39614700  0.78001100  1
  C  C4  1  0.59583100  0.81873900  0.50739900  1
  C  C5  1  0.59583100  0.18126100  0.00739900  1
  C  C6  1  0.52785000  0.68543200  0.51579400  1
  C  C7  1  0.52785000  0.31456800  0.01579400  1
  C  C8  1  0.15207000  0.67123400  0.79215900  1
  C  C9  1  0.15207000  0.32876600  0.29215900  1
  C  C10  1  0.30546800  0.53119400  0.78218200  1
  C  C11  1  0.30546800  0.46880600  0.28218200  1
  C  C12  1  0.68042800  0.54386500  0.51010800  1
  C  C13  1  0.68042800  0.45613500  0.01010800  1
  C  C14  1  0.66992500  0.88476600  0.99287400  1
  C  C15  1  0.66992500  0.11523400  0.49287400  1
  C  C16  1  0.29582200  0.89797900  0.25785000  1
  C  C17  1  0.29582200  0.10202100  0.75785000  1
  C  C18  1  0.22006100  0.83008300  0.76959300  1
  C  C19  1  0.22006100  0.16991700  0.26959300  1
  C  C20  1  0.37276500  0.96840900  0.75203700  1
  C  C21  1  0.37276500  0.03159100  0.25203700  1
  C  C22  1  0.74341400  0.95525200  0.47809000  1
  C  C23  1  0.74341400  0.04474800  0.97809000  1
  C  C24  1  0.14826100  0.75932300  0.28803600  1
  C  C25  1  0.14826100  0.24067700  0.78803700  1
  C  C26  1  0.52250500  0.74760400  0.01383600  1
  C  C27  1  0.52250500  0.25239600  0.51383600  1
  Ni  Ni28  1  0.35764900  0.62133500  0.67798200  1
  Ni  Ni29  1  0.35764900  0.37866500  0.17798200  1
  Ni  Ni30  1  0.42097400  0.88006400  0.65954200  1
  Ni  Ni31  1  0.42097400  0.11993600  0.15954200  1
  Ni  Ni32  1  0.42613600  0.55127400  0.17433900  1
  Ni  Ni33  1  0.42613600  0.44872600  0.67433900  1
  Ni  Ni34  1  0.54100800  0.90596200  0.59756300  1
  Ni  Ni35  1  0.54100800  0.09403800  0.09756300  1
  Ni  Ni36  1  0.34741300  0.80941800  0.16846900  1
  Ni  Ni37  1  0.34741300  0.19058200  0.66846900  1
  Ni  Ni38  1  0.46558400  0.83542300  0.10547200  1
  Ni  Ni39  1  0.46558400  0.16457700  0.60547200  1
  Ni  Ni40  1  0.39943400  0.76702700  0.62221800  1
  Ni  Ni41  1  0.39943400  0.23297300  0.12221800  1
  Ni  Ni42  1  0.49744900  0.94883600  0.14231100  1
  Ni  Ni43  1  0.49744900  0.05116400  0.64231100  1
  Ni  Ni44  1  0.53436200  0.48041600  0.62614400  1
  Ni  Ni45  1  0.53436200  0.51958400  0.12614400  1
  Ni  Ni46  1  0.40422700  0.66521500  0.12698600  1
  Ni  Ni47  1  0.40422700  0.33478500  0.62698600  1
  Ni  Ni48  1  0.29497100  0.69661900  0.17505000  1
  Ni  Ni49  1  0.29497100  0.30338100  0.67505000  1
  Ni  Ni50  1  0.47856400  0.59538400  0.62162200  1
  Ni  Ni51  1  0.47856400  0.40461600  0.12162200  1
  Ni  Ni52  1  0.60107600  0.98066900  0.08942800  1
  Ni  Ni53  1  0.60107600  0.01933100  0.58942800  1
  Ni  Ni54  1  0.29298200  0.73575900  0.67472000  1
  Ni  Ni55  1  0.29298200  0.26424100  0.17472000  1
  Cu  Cu56  1  0.79422100  0.74439500  0.39978600  1
  Cu  Cu57  1  0.79422100  0.25560500  0.89978600  1
  Cu  Cu58  1  0.03978200  0.52698100  0.39630400  1
  Cu  Cu59  1  0.03978200  0.47301900  0.89630400  1
  Cu  Cu60  1  0.86415300  0.63216400  0.40829800  1
  Cu  Cu61  1  0.86415300  0.36783600  0.90829800  1
  Cu  Cu62  1  0.96944200  0.58411700  0.89073200  1
  Cu  Cu63  1  0.96944200  0.41588300  0.39073200  1
  Cu  Cu64  1  0.86033400  0.80252600  0.89989900  1
  Cu  Cu65  1  0.86033400  0.19747400  0.39989900  1
  Cu  Cu66  1  0.03167700  0.91259100  0.86572100  1
  Cu  Cu67  1  0.03167700  0.08740900  0.36572100  1
  Cu  Cu68  1  0.79243400  0.68996200  0.90405100  1
  Cu  Cu69  1  0.79243400  0.31003800  0.40405100  1
  Cu  Cu70  1  0.09688600  0.97339500  0.36557700  1
  Cu  Cu71  1  0.09688600  0.02660500  0.86557700  1
  Cu  Cu72  1  0.94607700  0.85767600  0.38177900  1
  Cu  Cu73  1  0.94607700  0.14232400  0.88177900  1
