# generated using pymatgen
data_Cu2NiC10
_symmetry_space_group_name_H-M   'P 1'
_cell_length_a   5.13339983
_cell_length_b   8.13033599
_cell_length_c   8.88274230
_cell_angle_alpha   116.92922772
_cell_angle_beta   106.34481139
_cell_angle_gamma   90.94356048
_symmetry_Int_Tables_number   1
_chemical_formula_structural   Cu2NiC10
_chemical_formula_sum   'Cu4 Ni2 C20'
_cell_volume   312.65446381
_cell_formula_units_Z   2
loop_
 _symmetry_equiv_pos_site_id
 _symmetry_equiv_pos_as_xyz
  1  'x, y, z'
loop_
 _atom_site_type_symbol
 _atom_site_label
 _atom_site_symmetry_multiplicity
 _atom_site_fract_x
 _atom_site_fract_y
 _atom_site_fract_z
 _atom_site_occupancy
  C  C0  1  0.11321200  0.30111200  0.76006000  1
  C  C1  1  0.35315200  0.54105200  0.23994000  1
  C  C2  1  0.36604900  0.04448600  0.24109300  1
  C  C3  1  0.12495700  0.80339300  0.75890700  1
  Ni  Ni4  1  0.54733000  0.92493000  0.58554400  1
  Ni  Ni5  1  0.96178600  0.33938500  0.41445600  1
  Cu  Cu6  1  0.78773600  0.16230200  0.00000000  1
  Cu  Cu7  1  0.97095900  0.88862700  0.42116100  1
  Cu  Cu8  1  0.54979800  0.46746600  0.57883900  1
  Cu  Cu9  1  0.68762800  0.66655800  0.00000000  1
  C  C10  1  0.17335800  0.09699800  0.46912400  1
  C  C11  1  0.70423400  0.62787400  0.53087600  1
  C  C12  1  0.47847400  0.06259600  0.81218100  1
  C  C13  1  0.66629200  0.25041400  0.18781900  1
  C  C14  1  0.47785300  0.49076100  0.00000000  1
  C  C15  1  0.19562600  0.74393900  0.48241700  1
  C  C16  1  0.71320900  0.26152200  0.51758300  1
  C  C17  1  0.00501200  0.75726800  0.18414300  1
  C  C18  1  0.82086900  0.57312600  0.81585700  1
  C  C19  1  0.00125300  0.33839400  0.00000000  1
  C  C20  1  0.47816800  0.83730100  0.00000000  1
  C  C21  1  0.59490200  0.83866000  0.33819600  1
  C  C22  1  0.25670600  0.50046400  0.66180400  1
  C  C23  1  0.01058900  0.99537300  0.00000000  1
  C  C24  1  0.93470400  0.00488000  0.65935900  1
  C  C25  1  0.27534500  0.34552100  0.34064100  1
