# generated using pymatgen
data_CuNiC16
_symmetry_space_group_name_H-M   'P 1'
_cell_length_a   4.97914821
_cell_length_b   4.97914821
_cell_length_c   7.04927164
_cell_angle_alpha   90.00000000
_cell_angle_beta   90.00000000
_cell_angle_gamma   90.00000000
_symmetry_Int_Tables_number   1
_chemical_formula_structural   CuNiC16
_chemical_formula_sum   'Cu1 Ni1 C16'
_cell_volume   174.76495668
_cell_formula_units_Z   1
loop_
 _symmetry_equiv_pos_site_id
 _symmetry_equiv_pos_as_xyz
  1  'x, y, z'
loop_
 _atom_site_type_symbol
 _atom_site_label
 _atom_site_symmetry_multiplicity
 _atom_site_fract_x
 _atom_site_fract_y
 _atom_site_fract_z
 _atom_site_occupancy
  Ni  Ni0  1  0.00000000  0.00000000  0.50000000  1
  Cu  Cu1  1  0.50000000  0.50000000  0.00000000  1
  C  C2  1  0.00000000  0.50000000  0.75000556  1
  C  C3  1  -0.00000000  0.50000000  0.24999444  1
  C  C4  1  0.50000000  0.00000000  0.75000556  1
  C  C5  1  0.50000000  -0.00000000  0.24999444  1
  C  C6  1  0.25382236  0.25382236  0.75534113  1
  C  C7  1  0.25382236  0.25382236  0.24465887  1
  C  C8  1  0.74617764  0.74617764  0.75534113  1
  C  C9  1  0.74617764  0.74617764  0.24465887  1
  C  C10  1  0.74617764  0.25382236  0.75534113  1
  C  C11  1  0.74617764  0.25382236  0.24465887  1
  C  C12  1  0.25382236  0.74617764  0.24465887  1
  C  C13  1  0.25382236  0.74617764  0.75534113  1
  C  C14  1  -0.00000000  0.50000000  0.50000000  1
  C  C15  1  -0.00000000  0.50000000  0.00000000  1
  C  C16  1  0.50000000  0.00000000  0.50000000  1
  C  C17  1  0.50000000  0.00000000  0.00000000  1
