# generated using pymatgen
data_Cu4NiC
_symmetry_space_group_name_H-M   'P 1'
_cell_length_a   5.05424200
_cell_length_b   16.50866300
_cell_length_c   16.62034846
_cell_angle_alpha   60.09623780
_cell_angle_beta   90.00000000
_cell_angle_gamma   90.00000000
_symmetry_Int_Tables_number   1
_chemical_formula_structural   Cu4NiC
_chemical_formula_sum   'Cu32 Ni8 C8'
_cell_volume   1202.15103455
_cell_formula_units_Z   8
loop_
 _symmetry_equiv_pos_site_id
 _symmetry_equiv_pos_as_xyz
  1  'x, y, z'
loop_
 _atom_site_type_symbol
 _atom_site_label
 _atom_site_symmetry_multiplicity
 _atom_site_fract_x
 _atom_site_fract_y
 _atom_site_fract_z
 _atom_site_occupancy
  C  C0  1  0.04119900  0.10970000  0.55073900  1
  C  C1  1  0.95880100  0.10970000  0.05073900  1
  C  C2  1  0.97968800  0.53952200  0.33471800  1
  C  C3  1  0.02031200  0.53952200  0.83471800  1
  C  C4  1  0.45657500  0.75634300  0.51762100  1
  C  C5  1  0.54342500  0.75634300  0.01762100  1
  C  C6  1  0.52080100  0.32654100  0.73461100  1
  C  C7  1  0.47919900  0.32654100  0.23461100  1
  Ni  Ni8  1  0.10998800  0.10510700  0.80230900  1
  Ni  Ni9  1  0.89001200  0.10510700  0.30230900  1
  Ni  Ni10  1  0.95234300  0.53776400  0.58212500  1
  Ni  Ni11  1  0.04765700  0.53776400  0.08212500  1
  Ni  Ni12  1  0.38896300  0.74486400  0.28483900  1
  Ni  Ni13  1  0.61103700  0.74486400  0.78483900  1
  Ni  Ni14  1  0.55171700  0.32247900  0.49349600  1
  Ni  Ni15  1  0.44828300  0.32247900  0.99349600  1
  Cu  Cu16  1  0.13302200  0.03264400  0.64155600  1
  Cu  Cu17  1  0.86697800  0.03264400  0.14155600  1
  Cu  Cu18  1  0.00803700  0.18846900  0.56800400  1
  Cu  Cu19  1  0.99196300  0.18846900  0.06800400  1
  Cu  Cu20  1  0.79445900  0.08500800  0.51987300  1
  Cu  Cu21  1  0.20554100  0.08500800  0.01987300  1
  Cu  Cu22  1  0.22821700  0.13011800  0.47411800  1
  Cu  Cu23  1  0.77178300  0.13011800  0.97411800  1
  Cu  Cu24  1  0.04948400  0.46370000  0.42927900  1
  Cu  Cu25  1  0.95051600  0.46370000  0.92927900  1
  Cu  Cu26  1  0.87155500  0.61262100  0.35237800  1
  Cu  Cu27  1  0.12844500  0.61262100  0.85237800  1
  Cu  Cu28  1  0.78735900  0.50942300  0.28776400  1
  Cu  Cu29  1  0.21264100  0.50942300  0.78776400  1
  Cu  Cu30  1  0.20974700  0.57164000  0.27135600  1
  Cu  Cu31  1  0.79025300  0.57164000  0.77135600  1
  Cu  Cu32  1  0.37082900  0.84269100  0.43327300  1
  Cu  Cu33  1  0.62917100  0.84269100  0.93327300  1
  Cu  Cu34  1  0.44389600  0.67295000  0.50662500  1
  Cu  Cu35  1  0.55610400  0.67295000  0.00662500  1
  Cu  Cu36  1  0.73751700  0.75905200  0.54100000  1
  Cu  Cu37  1  0.26248300  0.75905200  0.04100000  1
  Cu  Cu38  1  0.27540900  0.75014500  0.59066300  1
  Cu  Cu39  1  0.72459100  0.75014500  0.09066300  1
  Cu  Cu40  1  0.43811500  0.40342300  0.64224100  1
  Cu  Cu41  1  0.56188500  0.40342300  0.14224100  1
  Cu  Cu42  1  0.61898100  0.25446400  0.71393300  1
  Cu  Cu43  1  0.38101900  0.25446400  0.21393300  1
  Cu  Cu44  1  0.72327300  0.35531700  0.77972500  1
  Cu  Cu45  1  0.27672700  0.35531700  0.27972500  1
  Cu  Cu46  1  0.30027800  0.29201500  0.80275500  1
  Cu  Cu47  1  0.69972200  0.29201500  0.30275500  1
