# generated using pymatgen
data_Cu2Ni4C3
_symmetry_space_group_name_H-M   'P 1'
_cell_length_a   3.42545248
_cell_length_b   3.42545248
_cell_length_c   31.75964600
_cell_angle_alpha   90.00000000
_cell_angle_beta   90.00000000
_cell_angle_gamma   120.00000918
_symmetry_Int_Tables_number   1
_chemical_formula_structural   Cu2Ni4C3
_chemical_formula_sum   'Cu2 Ni4 C3'
_cell_volume   322.73208039
_cell_formula_units_Z   1
loop_
 _symmetry_equiv_pos_site_id
 _symmetry_equiv_pos_as_xyz
  1  'x, y, z'
loop_
 _atom_site_type_symbol
 _atom_site_label
 _atom_site_symmetry_multiplicity
 _atom_site_fract_x
 _atom_site_fract_y
 _atom_site_fract_z
 _atom_site_occupancy
  Ni  Ni0  1  0.00000000  0.00000000  0.40573300  1
  Ni  Ni1  1  0.33333300  0.66666700  0.51953900  1
  Ni  Ni2  1  0.33333300  0.66666700  0.63740300  1
  Ni  Ni3  1  0.00000000  0.00000000  0.28786600  1
  C  C4  1  0.00000000  0.00000000  0.11565500  1
  C  C5  1  0.00000000  0.00000000  0.57850200  1
  C  C6  1  0.33333300  0.66666700  0.34679300  1
  Cu  Cu7  1  0.33333300  0.66666700  0.06853800  1
  Cu  Cu8  1  0.33333300  0.66666700  0.16281200  1
