# generated using pymatgen
data_Cu7Ni3C
_symmetry_space_group_name_H-M   'P 1'
_cell_length_a   7.59999458
_cell_length_b   7.23826120
_cell_length_c   8.13253290
_cell_angle_alpha   89.05039863
_cell_angle_beta   100.84271216
_cell_angle_gamma   82.72926496
_symmetry_Int_Tables_number   1
_chemical_formula_structural   Cu7Ni3C
_chemical_formula_sum   'Cu14 Ni6 C2'
_cell_volume   435.48223720
_cell_formula_units_Z   2
loop_
 _symmetry_equiv_pos_site_id
 _symmetry_equiv_pos_as_xyz
  1  'x, y, z'
loop_
 _atom_site_type_symbol
 _atom_site_label
 _atom_site_symmetry_multiplicity
 _atom_site_fract_x
 _atom_site_fract_y
 _atom_site_fract_z
 _atom_site_occupancy
  C  C0  1  0.12849200  0.25765400  0.28757100  1
  C  C1  1  0.87150800  0.74234600  0.71242900  1
  Ni  Ni2  1  0.71293000  0.21426400  0.48868200  1
  Ni  Ni3  1  0.28707000  0.78573600  0.51131800  1
  Ni  Ni4  1  0.67838200  0.39023500  0.91095600  1
  Ni  Ni5  1  0.32161800  0.60976500  0.08904400  1
  Ni  Ni6  1  0.22218400  0.32270100  0.73328500  1
  Ni  Ni7  1  0.77781600  0.67729900  0.26671500  1
  Cu  Cu8  1  0.47708500  0.99577100  0.06863900  1
  Cu  Cu9  1  0.52291500  0.00422900  0.93136100  1
  Cu  Cu10  1  0.32215300  0.39656100  0.16499800  1
  Cu  Cu11  1  0.67784700  0.60343900  0.83500200  1
  Cu  Cu12  1  0.27873000  0.96149800  0.39349500  1
  Cu  Cu13  1  0.72127000  0.03850200  0.60650500  1
  Cu  Cu14  1  0.26684100  0.36362300  0.55534100  1
  Cu  Cu15  1  0.73315900  0.63637700  0.44465900  1
  Cu  Cu16  1  0.03356300  0.07594000  0.01551600  1
  Cu  Cu17  1  0.96643700  0.92406000  0.98448400  1
  Cu  Cu18  1  0.87403200  0.19184100  0.39213200  1
  Cu  Cu19  1  0.12596800  0.80815900  0.60786800  1
  Cu  Cu20  1  0.96242000  0.56790600  0.24413400  1
  Cu  Cu21  1  0.03758000  0.43209400  0.75586600  1
