# generated using pymatgen
data_Cu2NiC8
_symmetry_space_group_name_H-M   'P 1'
_cell_length_a   8.91759800
_cell_length_b   7.43209400
_cell_length_c   9.17603883
_cell_angle_alpha   60.94490587
_cell_angle_beta   90.00000000
_cell_angle_gamma   90.00000000
_symmetry_Int_Tables_number   1
_chemical_formula_structural   Cu2NiC8
_chemical_formula_sum   'Cu8 Ni4 C32'
_cell_volume   531.62064838
_cell_formula_units_Z   4
loop_
 _symmetry_equiv_pos_site_id
 _symmetry_equiv_pos_as_xyz
  1  'x, y, z'
loop_
 _atom_site_type_symbol
 _atom_site_label
 _atom_site_symmetry_multiplicity
 _atom_site_fract_x
 _atom_site_fract_y
 _atom_site_fract_z
 _atom_site_occupancy
  C  C0  1  0.95566900  0.27262100  0.87114500  1
  C  C1  1  0.45566900  0.72737900  0.62885500  1
  C  C2  1  0.54433100  0.27262100  0.37114500  1
  C  C3  1  0.04433100  0.72737900  0.12885500  1
  Ni  Ni4  1  0.08347500  0.78008200  0.60888200  1
  Ni  Ni5  1  0.91652500  0.21991800  0.39111800  1
  Ni  Ni6  1  0.58347500  0.21991800  0.89111800  1
  Ni  Ni7  1  0.41652500  0.78008200  0.10888200  1
  Cu  Cu8  1  0.71856500  0.94738800  0.23459100  1
  Cu  Cu9  1  0.24119100  0.48625400  0.96176900  1
  Cu  Cu10  1  0.78143500  0.94738800  0.73459100  1
  Cu  Cu11  1  0.25880900  0.48625400  0.46176900  1
  Cu  Cu12  1  0.21856500  0.05261200  0.26540900  1
  Cu  Cu13  1  0.74119100  0.51374600  0.53823100  1
  Cu  Cu14  1  0.75880900  0.51374600  0.03823100  1
  Cu  Cu15  1  0.28143500  0.05261200  0.76540900  1
  C  C16  1  0.17232500  0.26761400  0.10373700  1
  C  C17  1  0.63757000  0.92842300  0.65457600  1
  C  C18  1  0.86243000  0.92842300  0.15457600  1
  C  C19  1  0.38461000  0.45125700  0.89106600  1
  C  C20  1  0.82767500  0.73238600  0.89626300  1
  C  C21  1  0.07763200  0.01296100  0.37948300  1
  C  C22  1  0.61539000  0.54874300  0.10893400  1
  C  C23  1  0.10309900  0.55241900  0.84242400  1
  C  C24  1  0.24192400  0.61905100  0.54736100  1
  C  C25  1  0.92236800  0.98703900  0.62051700  1
  C  C26  1  0.42236800  0.01296100  0.87948300  1
  C  C27  1  0.77663500  0.10091400  0.79964600  1
  C  C28  1  0.27663500  0.89908600  0.70035400  1
  C  C29  1  0.32767500  0.26761400  0.60373700  1
  C  C30  1  0.57763200  0.98703900  0.12051700  1
  C  C31  1  0.13757000  0.07157700  0.84542400  1
  C  C32  1  0.22336500  0.89908600  0.20035400  1
  C  C33  1  0.89690100  0.44758100  0.15757600  1
  C  C34  1  0.25807600  0.61905100  0.04736100  1
  C  C35  1  0.74192400  0.38094900  0.95263900  1
  C  C36  1  0.88461000  0.54874300  0.60893400  1
  C  C37  1  0.39690100  0.55241900  0.34242400  1
  C  C38  1  0.60309900  0.44758100  0.65757600  1
  C  C39  1  0.36243000  0.07157700  0.34542400  1
  C  C40  1  0.72336500  0.10091400  0.29964600  1
  C  C41  1  0.11539000  0.45125700  0.39106600  1
  C  C42  1  0.75807600  0.38094900  0.45263900  1
  C  C43  1  0.67232500  0.73238600  0.39626300  1
