# generated using pymatgen
data_CuNi3C10
_symmetry_space_group_name_H-M   'P 1'
_cell_length_a   9.68739014
_cell_length_b   9.68739014
_cell_length_c   7.84907800
_cell_angle_alpha   90.00000000
_cell_angle_beta   90.00000000
_cell_angle_gamma   120.00000097
_symmetry_Int_Tables_number   1
_chemical_formula_structural   CuNi3C10
_chemical_formula_sum   'Cu3 Ni9 C30'
_cell_volume   637.91505733
_cell_formula_units_Z   3
loop_
 _symmetry_equiv_pos_site_id
 _symmetry_equiv_pos_as_xyz
  1  'x, y, z'
loop_
 _atom_site_type_symbol
 _atom_site_label
 _atom_site_symmetry_multiplicity
 _atom_site_fract_x
 _atom_site_fract_y
 _atom_site_fract_z
 _atom_site_occupancy
  Ni  Ni0  1  0.33409100  0.33352500  0.25569900  1
  Ni  Ni1  1  0.99943400  0.66590900  0.25569900  1
  Ni  Ni2  1  0.66647500  0.00056600  0.25569900  1
  Ni  Ni3  1  0.66590900  0.66647500  0.74430100  1
  Ni  Ni4  1  0.00056600  0.33409100  0.74430100  1
  Ni  Ni5  1  0.33352500  0.99943400  0.74430100  1
  Ni  Ni6  1  0.33333300  0.66666700  0.50455600  1
  Ni  Ni7  1  0.66666700  0.33333300  0.49544400  1
  Ni  Ni8  1  0.00000000  0.00000000  0.50000000  1
  Cu  Cu9  1  0.33333300  0.66666700  0.03286300  1
  Cu  Cu10  1  0.66666700  0.33333300  0.96713700  1
  Cu  Cu11  1  0.00000000  0.00000000  0.00000000  1
  C  C12  1  0.32753200  0.34083600  0.77153000  1
  C  C13  1  0.01330300  0.67246800  0.77153000  1
  C  C14  1  0.65916400  0.98669700  0.77153000  1
  C  C15  1  0.67246800  0.65916400  0.22847000  1
  C  C16  1  0.98669700  0.32753200  0.22847000  1
  C  C17  1  0.34083600  0.01330300  0.22847000  1
  C  C18  1  0.33720700  0.47868600  0.88479800  1
  C  C19  1  0.14147900  0.66279300  0.88479800  1
  C  C20  1  0.52131400  0.85852100  0.88479800  1
  C  C21  1  0.66279300  0.52131400  0.11520200  1
  C  C22  1  0.85852100  0.33720700  0.11520200  1
  C  C23  1  0.47868600  0.14147900  0.11520200  1
  C  C24  1  0.48529000  0.33529000  0.79329900  1
  C  C25  1  0.85000000  0.51471000  0.79329900  1
  C  C26  1  0.66471000  0.15000000  0.79329900  1
  C  C27  1  0.51471000  0.66471000  0.20670100  1
  C  C28  1  0.15000000  0.48529000  0.20670100  1
  C  C29  1  0.33529000  0.85000000  0.20670100  1
  C  C30  1  0.18535200  0.17838400  0.83437800  1
  C  C31  1  0.99303200  0.81464800  0.83437800  1
  C  C32  1  0.82161600  0.00696800  0.83437800  1
  C  C33  1  0.81464800  0.82161600  0.16562200  1
  C  C34  1  0.00696800  0.18535200  0.16562200  1
  C  C35  1  0.17838400  0.99303200  0.16562200  1
  C  C36  1  0.36953700  0.06989000  0.41363000  1
  C  C37  1  0.93011000  0.29964700  0.41363000  1
  C  C38  1  0.70035300  0.63046300  0.41363000  1
  C  C39  1  0.63046300  0.93011000  0.58637000  1
  C  C40  1  0.06989000  0.70035300  0.58637000  1
  C  C41  1  0.29964700  0.36953700  0.58637000  1
