# generated using pymatgen
data_Cu(NiC3)10
_symmetry_space_group_name_H-M   'P 1'
_cell_length_a   7.90683442
_cell_length_b   7.90683442
_cell_length_c   32.89140105
_cell_angle_alpha   80.81886285
_cell_angle_beta   80.81886285
_cell_angle_gamma   70.50229905
_symmetry_Int_Tables_number   1
_chemical_formula_structural   Cu(NiC3)10
_chemical_formula_sum   'Cu2 Ni20 C60'
_cell_volume   1901.02776840
_cell_formula_units_Z   2
loop_
 _symmetry_equiv_pos_site_id
 _symmetry_equiv_pos_as_xyz
  1  'x, y, z'
loop_
 _atom_site_type_symbol
 _atom_site_label
 _atom_site_symmetry_multiplicity
 _atom_site_fract_x
 _atom_site_fract_y
 _atom_site_fract_z
 _atom_site_occupancy
  Ni  Ni0  1  0.00000000  0.50000000  0.00000000  1
  Ni  Ni1  1  0.39968500  0.90003800  0.20011400  1
  Ni  Ni2  1  0.80005200  0.30003200  0.39996900  1
  Ni  Ni3  1  0.19994800  0.69996800  0.60003100  1
  Ni  Ni4  1  0.60031500  0.09996200  0.79988600  1
  Ni  Ni5  1  0.19991600  0.70008500  0.10004800  1
  Ni  Ni6  1  0.60009300  0.09994900  0.29994900  1
  Ni  Ni7  1  0.00000000  0.50000000  0.50000000  1
  Ni  Ni8  1  0.39990700  0.90005100  0.70005100  1
  Ni  Ni9  1  0.80008400  0.29991500  0.89995200  1
  Ni  Ni10  1  0.29991500  0.80008400  0.89995200  1
  Ni  Ni11  1  0.70008500  0.19991600  0.10004800  1
  Ni  Ni12  1  0.09994900  0.60009300  0.29994900  1
  Ni  Ni13  1  0.50000000  0.00000000  0.50000000  1
  Ni  Ni14  1  0.90005100  0.39990700  0.70005100  1
  Ni  Ni15  1  0.50000000  0.00000000  0.00000000  1
  Ni  Ni16  1  0.90003800  0.39968500  0.20011400  1
  Ni  Ni17  1  0.30003200  0.80005200  0.39996900  1
  Ni  Ni18  1  0.69996800  0.19994800  0.60003100  1
  Ni  Ni19  1  0.09996200  0.60031500  0.79988600  1
  Cu  Cu20  1  0.29979900  0.29979900  0.90027800  1
  Cu  Cu21  1  0.70020100  0.70020100  0.09972200  1
  C  C22  1  0.05933100  0.74094500  0.03335600  1
  C  C23  1  0.45927100  0.14085800  0.23334600  1
  C  C24  1  0.85957300  0.54132400  0.43317600  1
  C  C25  1  0.25969400  0.94126900  0.63315400  1
  C  C26  1  0.66059400  0.34122300  0.83299800  1
  C  C27  1  0.94066900  0.25905500  0.96664400  1
  C  C28  1  0.33940600  0.65877700  0.16700200  1
  C  C29  1  0.74030600  0.05873100  0.36684600  1
  C  C30  1  0.14042700  0.45867600  0.56682400  1
  C  C31  1  0.54072900  0.85914200  0.76665400  1
  C  C32  1  0.74094500  0.05933100  0.03335600  1
  C  C33  1  0.14085800  0.45927100  0.23334600  1
  C  C34  1  0.54132400  0.85957300  0.43317600  1
  C  C35  1  0.94126900  0.25969400  0.63315400  1
  C  C36  1  0.34122300  0.66059400  0.83299800  1
  C  C37  1  0.25905500  0.94066900  0.96664400  1
  C  C38  1  0.65877700  0.33940600  0.16700200  1
  C  C39  1  0.05873100  0.74030600  0.36684600  1
  C  C40  1  0.45867600  0.14042700  0.56682400  1
  C  C41  1  0.85914200  0.54072900  0.76665400  1
  C  C42  1  0.03032000  0.69694900  0.93173700  1
  C  C43  1  0.43025700  0.09656100  0.13177900  1
  C  C44  1  0.82963900  0.49767800  0.33186100  1
  C  C45  1  0.22952100  0.89778500  0.53183900  1
  C  C46  1  0.62970700  0.29780600  0.73181000  1
  C  C47  1  0.96968000  0.30305200  0.06826300  1
  C  C48  1  0.37029300  0.70219400  0.26819000  1
  C  C49  1  0.77047900  0.10221500  0.46816100  1
  C  C50  1  0.17036100  0.50232200  0.66813900  1
  C  C51  1  0.56974300  0.90343900  0.86822100  1
  C  C52  1  0.30305200  0.96968000  0.06826300  1
  C  C53  1  0.70219400  0.37029300  0.26819000  1
  C  C54  1  0.10221500  0.77047900  0.46816100  1
  C  C55  1  0.50232200  0.17036100  0.66813900  1
  C  C56  1  0.90343900  0.56974300  0.86822100  1
  C  C57  1  0.69694900  0.03032000  0.93173700  1
  C  C58  1  0.09656100  0.43025700  0.13177900  1
  C  C59  1  0.49767800  0.82963900  0.33186100  1
  C  C60  1  0.89778500  0.22952100  0.53183900  1
  C  C61  1  0.29780600  0.62970700  0.73181000  1
  C  C62  1  0.47127200  0.47127200  0.06508800  1
  C  C63  1  0.87127600  0.87127600  0.26515900  1
  C  C64  1  0.27091100  0.27091100  0.46500200  1
  C  C65  1  0.67085600  0.67085600  0.66499500  1
  C  C66  1  0.07029200  0.07029200  0.86492300  1
  C  C67  1  0.52872800  0.52872800  0.93491200  1
  C  C68  1  0.92970800  0.92970800  0.13507700  1
  C  C69  1  0.32914400  0.32914400  0.33500500  1
  C  C70  1  0.72908900  0.72908900  0.53499800  1
  C  C71  1  0.12872400  0.12872400  0.73484100  1
  C  C72  1  0.66209000  0.66209000  0.00150600  1
  C  C73  1  0.06218300  0.06218300  0.20146700  1
  C  C74  1  0.46183800  0.46183800  0.40134300  1
  C  C75  1  0.86188400  0.86188400  0.60132400  1
  C  C76  1  0.26193400  0.26193400  0.80111500  1
  C  C77  1  0.33791000  0.33791000  0.99849400  1
  C  C78  1  0.73806600  0.73806600  0.19888500  1
  C  C79  1  0.13811600  0.13811600  0.39867600  1
  C  C80  1  0.53816200  0.53816200  0.59865700  1
  C  C81  1  0.93781700  0.93781700  0.79853300  1
