# generated using pymatgen
data_Cu3(Ni5C9)2
_symmetry_space_group_name_H-M   'P 1'
_cell_length_a   5.09981100
_cell_length_b   8.74149100
_cell_length_c   14.10028600
_cell_angle_alpha   90.00000000
_cell_angle_beta   90.00000000
_cell_angle_gamma   90.00000000
_symmetry_Int_Tables_number   1
_chemical_formula_structural   Cu3(Ni5C9)2
_chemical_formula_sum   'Cu6 Ni20 C36'
_cell_volume   628.59007248
_cell_formula_units_Z   2
loop_
 _symmetry_equiv_pos_site_id
 _symmetry_equiv_pos_as_xyz
  1  'x, y, z'
loop_
 _atom_site_type_symbol
 _atom_site_label
 _atom_site_symmetry_multiplicity
 _atom_site_fract_x
 _atom_site_fract_y
 _atom_site_fract_z
 _atom_site_occupancy
  Ni  Ni0  1  0.66613700  0.50000000  0.32883500  1
  Ni  Ni1  1  0.33386300  0.50000000  0.67116500  1
  Ni  Ni2  1  0.16613700  0.00000000  0.17116500  1
  Ni  Ni3  1  0.83386300  0.00000000  0.82883500  1
  Ni  Ni4  1  0.65250500  0.82029800  0.17564200  1
  Ni  Ni5  1  0.34749500  0.82029800  0.82435800  1
  Ni  Ni6  1  0.15250500  0.67970200  0.32435800  1
  Ni  Ni7  1  0.84749500  0.67970200  0.67564200  1
  Ni  Ni8  1  0.34749500  0.17970200  0.82435800  1
  Ni  Ni9  1  0.65250500  0.17970200  0.17564200  1
  Ni  Ni10  1  0.84749500  0.32029800  0.67564200  1
  Ni  Ni11  1  0.15250500  0.32029800  0.32435800  1
  Ni  Ni12  1  0.00000000  0.81700500  0.00000000  1
  Ni  Ni13  1  0.50000000  0.68299500  0.50000000  1
  Ni  Ni14  1  0.00000000  0.18299500  0.00000000  1
  Ni  Ni15  1  0.50000000  0.31700500  0.50000000  1
  Ni  Ni16  1  0.00000000  0.84655000  0.50000000  1
  Ni  Ni17  1  0.50000000  0.65345000  0.00000000  1
  Ni  Ni18  1  0.00000000  0.15345000  0.50000000  1
  Ni  Ni19  1  0.50000000  0.34655000  0.00000000  1
  Cu  Cu20  1  0.00000000  0.50000000  0.50000000  1
  Cu  Cu21  1  0.50000000  0.00000000  0.00000000  1
  Cu  Cu22  1  0.99116700  0.50000000  0.12392800  1
  Cu  Cu23  1  0.00883300  0.50000000  0.87607200  1
  Cu  Cu24  1  0.49116700  0.00000000  0.37607200  1
  Cu  Cu25  1  0.50883300  0.00000000  0.62392800  1
  C  C26  1  0.82908000  0.65837000  0.09019300  1
  C  C27  1  0.17092000  0.65837000  0.90980700  1
  C  C28  1  0.32908000  0.84163000  0.40980700  1
  C  C29  1  0.67092000  0.84163000  0.59019300  1
  C  C30  1  0.17092000  0.34163000  0.90980700  1
  C  C31  1  0.82908000  0.34163000  0.09019300  1
  C  C32  1  0.67092000  0.15837000  0.59019300  1
  C  C33  1  0.32908000  0.15837000  0.40980700  1
  C  C34  1  0.99189300  0.50000000  0.24328700  1
  C  C35  1  0.00810700  0.50000000  0.75671300  1
  C  C36  1  0.49189300  0.00000000  0.25671300  1
  C  C37  1  0.50810700  0.00000000  0.74328700  1
  C  C38  1  0.28643600  0.50000000  0.07951400  1
  C  C39  1  0.71356400  0.50000000  0.92048600  1
  C  C40  1  0.78643600  0.00000000  0.42048600  1
  C  C41  1  0.21356400  0.00000000  0.57951400  1
  C  C42  1  0.85480000  0.64549000  0.42673600  1
  C  C43  1  0.14520000  0.64549000  0.57326400  1
  C  C44  1  0.35480000  0.85451000  0.07326400  1
  C  C45  1  0.64520000  0.85451000  0.92673600  1
  C  C46  1  0.14520000  0.35451000  0.57326400  1
  C  C47  1  0.85480000  0.35451000  0.42673600  1
  C  C48  1  0.64520000  0.14549000  0.92673600  1
  C  C49  1  0.35480000  0.14549000  0.07326400  1
  C  C50  1  0.69183400  0.50000000  0.58070900  1
  C  C51  1  0.30816600  0.50000000  0.41929100  1
  C  C52  1  0.19183400  0.00000000  0.91929100  1
  C  C53  1  0.80816600  0.00000000  0.08070900  1
  C  C54  1  0.49147400  0.66402700  0.25683900  1
  C  C55  1  0.50852600  0.66402700  0.74316100  1
  C  C56  1  0.99147400  0.83597300  0.24316100  1
  C  C57  1  0.00852600  0.83597300  0.75683900  1
  C  C58  1  0.50852600  0.33597300  0.74316100  1
  C  C59  1  0.49147400  0.33597300  0.25683900  1
  C  C60  1  0.00852600  0.16402700  0.75683900  1
  C  C61  1  0.99147400  0.16402700  0.24316100  1
