# generated using pymatgen
data_Cu7Ni3C40
_symmetry_space_group_name_H-M   'P 1'
_cell_length_a   5.46402283
_cell_length_b   5.46402245
_cell_length_c   54.67582888
_cell_angle_alpha   60.86783369
_cell_angle_beta   60.86783592
_cell_angle_gamma   60.69286500
_symmetry_Int_Tables_number   1
_chemical_formula_structural   Cu7Ni3C40
_chemical_formula_sum   'Cu14 Ni6 C80'
_cell_volume   1175.33142686
_cell_formula_units_Z   2
loop_
 _symmetry_equiv_pos_site_id
 _symmetry_equiv_pos_as_xyz
  1  'x, y, z'
loop_
 _atom_site_type_symbol
 _atom_site_label
 _atom_site_symmetry_multiplicity
 _atom_site_fract_x
 _atom_site_fract_y
 _atom_site_fract_z
 _atom_site_occupancy
  Ni  Ni0  1  0.24590356  0.24824956  0.02565888  1
  Ni  Ni1  1  0.25107383  0.24840316  0.12485059  1
  Ni  Ni2  1  0.24972402  0.24800906  0.22529990  1
  Ni  Ni3  1  0.25199094  0.25027598  0.32470010  1
  Ni  Ni4  1  0.25159684  0.24892617  0.42514941  1
  Ni  Ni5  1  0.25175044  0.25409644  0.52434112  1
  Cu  Cu6  1  0.74967241  0.74796528  0.07495157  1
  Cu  Cu7  1  0.75212271  0.74880018  0.17527333  1
  Cu  Cu8  1  0.75379546  0.74620454  0.27500000  1
  Cu  Cu9  1  0.75119982  0.74787729  0.37472667  1
  Cu  Cu10  1  0.24796988  0.25315389  0.62416118  1
  Cu  Cu11  1  0.75203472  0.75032759  0.47504843  1
  Cu  Cu12  1  0.25267102  0.24948654  0.72472263  1
  Cu  Cu13  1  0.75087495  0.75703119  0.57389704  1
  Cu  Cu14  1  0.25051346  0.24732898  0.82527737  1
  Cu  Cu15  1  0.74629602  0.75095960  0.67495685  1
  Cu  Cu16  1  0.24684611  0.25203012  0.92583882  1
  Cu  Cu17  1  0.75383918  0.74616082  0.77500000  1
  Cu  Cu18  1  0.74904040  0.75370398  0.87504315  1
  Cu  Cu19  1  0.74296881  0.74912505  0.97610296  1
  C  C20  1  0.49935824  0.49582328  0.25072721  1
  C  C21  1  0.00417672  0.00064176  0.29927279  1
  C  C22  1  -0.00175512  0.99650526  0.00061406  1
  C  C23  1  0.00131480  0.99848262  0.09999226  1
  C  C24  1  0.99453551  -0.00185618  0.20055116  1
  C  C25  1  0.49866415  0.49864656  0.05025058  1
  C  C26  1  0.49995776  0.49988132  0.15021706  1
  C  C27  1  0.00011868  0.00004224  0.39978294  1
  C  C28  1  0.50185618  0.50546449  0.34944884  1
  C  C29  1  0.50151738  0.49868520  0.45000774  1
  C  C30  1  0.50349474  0.50175512  0.54938594  1
  C  C31  1  0.00135344  0.00133585  0.49974942  1
  C  C32  1  0.00331424  0.99777017  0.79995887  1
  C  C33  1  0.49766706  0.50088654  0.64987617  1
  C  C34  1  0.99274106  0.00250489  0.60025383  1
  C  C35  1  -0.00088654  0.00233294  0.90012383  1
  C  C36  1  0.50222983  0.49668576  0.75004113  1
  C  C37  1  -0.00062625  -0.00000404  0.69994260  1
  C  C38  1  0.50000404  0.50062625  0.85005740  1
  C  C39  1  0.49749511  0.50725894  0.94974617  1
  C  C40  1  0.20109016  0.73914458  0.03101800  1
  C  C41  1  0.31309361  0.20097159  0.07410709  1
  C  C42  1  0.24328261  0.72150623  0.07913324  1
  C  C43  1  0.75844304  0.29136406  0.01916673  1
  C  C44  1  0.19544213  0.74484530  0.13058323  1
  C  C45  1  0.70207624  0.78534536  0.02490821  1
  C  C46  1  0.31322022  0.21793363  0.17288556  1
  C  C47  1  0.78849222  0.26052055  0.06970996  1
  C  C48  1  0.25490461  0.71946440  0.17866288  1
  C  C49  1  0.75992743  0.28838445  0.11858634  1
  C  C50  1  0.19959085  0.75412567  0.22917934  1
  C  C51  1  0.70470046  0.77195547  0.12520738  1
  C  C52  1  0.31410852  0.18589148  0.27500000  1
  C  C53  1  0.79709411  0.24842111  0.17033598  1
  C  C54  1  0.24091977  0.70663691  0.27934663  1
  C  C55  1  0.75845191  0.30201669  0.21814901  1
  C  C56  1  0.19798331  0.74154809  0.33185099  1
  C  C57  1  0.70954027  0.78997873  0.22367401  1
  C  C58  1  0.28206637  0.18677978  0.37711444  1
  C  C59  1  0.79336309  0.25908023  0.27065337  1
  C  C60  1  0.25157889  0.70290589  0.37966402  1
  C  C61  1  0.74587433  0.30040915  0.32082066  1
  C  C62  1  0.21161555  0.74007257  0.43141366  1
  C  C63  1  0.71002127  0.79045973  0.32632599  1
  C  C64  1  0.29902841  0.18690639  0.47589291  1
  C  C65  1  0.78053560  0.24509539  0.37133712  1
  C  C66  1  0.23947945  0.71150778  0.48029004  1
  C  C67  1  0.75515470  0.30455787  0.41941677  1
  C  C68  1  0.20863594  0.74155696  0.53083327  1
  C  C69  1  0.72804453  0.79529954  0.42479262  1
  C  C70  1  0.29791930  0.18839635  0.57694796  1
  C  C71  1  0.77849377  0.25671739  0.47086676  1
  C  C72  1  0.23042408  0.70288975  0.58124628  1
  C  C73  1  0.76085542  0.29890984  0.51898200  1
  C  C74  1  0.18210119  0.75019928  0.63101861  1
  C  C75  1  0.71465464  0.79792376  0.52509179  1
  C  C76  1  0.30703360  0.18651695  0.67558225  1
  C  C77  1  0.77715598  0.25948259  0.57086375  1
  C  C78  1  0.24875169  0.69115718  0.68143023  1
  C  C79  1  0.74644721  0.30903791  0.61870527  1
  C  C80  1  0.18940511  0.75319442  0.73077203  1
  C  C81  1  0.69141738  0.81214885  0.62501944  1
  C  C82  1  0.31213713  0.18786287  0.77500000  1
  C  C83  1  0.81194123  0.24554020  0.66918292  1
  C  C84  1  0.25472668  0.68449934  0.78121989  1
  C  C85  1  0.75022564  0.30806091  0.71863116  1
  C  C86  1  0.19193909  0.74977436  0.83136884  1
  C  C87  1  0.69170478  0.81044628  0.72478077  1
  C  C88  1  0.31348305  0.19296640  0.87441775  1
  C  C89  1  0.81550066  0.24527332  0.76878011  1
  C  C90  1  0.25445980  0.68805877  0.88081708  1
  C  C91  1  0.74680558  0.31059489  0.81922797  1
  C  C92  1  0.19096209  0.75355279  0.93129473  1
  C  C93  1  0.68955372  0.80829522  0.82521923  1
  C  C94  1  0.31160365  0.20208070  0.97305204  1
  C  C95  1  0.80884282  0.25124831  0.86856977  1
  C  C96  1  0.24051741  0.72284402  0.97913625  1
  C  C97  1  0.74980072  0.31789881  0.91898139  1
  C  C98  1  0.68785115  0.80858262  0.92498056  1
  C  C99  1  0.79711025  0.26957592  0.96875372  1
