# generated using pymatgen
data_CuNi14C
_symmetry_space_group_name_H-M   'P 1'
_cell_length_a   6.24348627
_cell_length_b   6.24348578
_cell_length_c   10.09038495
_cell_angle_alpha   90.00000000
_cell_angle_beta   90.00000000
_cell_angle_gamma   120.00000252
_symmetry_Int_Tables_number   1
_chemical_formula_structural   CuNi14C
_chemical_formula_sum   'Cu1 Ni14 C1'
_cell_volume   340.63764675
_cell_formula_units_Z   1
loop_
 _symmetry_equiv_pos_site_id
 _symmetry_equiv_pos_as_xyz
  1  'x, y, z'
loop_
 _atom_site_type_symbol
 _atom_site_label
 _atom_site_symmetry_multiplicity
 _atom_site_fract_x
 _atom_site_fract_y
 _atom_site_fract_z
 _atom_site_occupancy
  Ni  Ni0  1  0.16500658  0.83250279  0.12500000  1
  Ni  Ni1  1  0.17020182  0.83510041  0.62500000  1
  Ni  Ni2  1  0.66749721  0.33499342  0.12500000  1
  Ni  Ni3  1  0.66489959  0.32979818  0.62500000  1
  Ni  Ni4  1  0.66749721  0.83250279  0.12500000  1
  Ni  Ni5  1  0.66489959  0.83510041  0.62500000  1
  Ni  Ni6  1  0.32674327  0.17325673  0.37554245  1
  Ni  Ni7  1  0.32674327  0.17325673  0.87445755  1
  Ni  Ni8  1  0.32674327  0.65348754  0.37554245  1
  Ni  Ni9  1  0.32674327  0.65348754  0.87445755  1
  Ni  Ni10  1  0.84651246  0.17325673  0.37554245  1
  Ni  Ni11  1  0.84651246  0.17325673  0.87445755  1
  Ni  Ni12  1  0.83333300  0.66666700  0.38000583  1
  Ni  Ni13  1  0.83333300  0.66666700  0.86999417  1
  C  C14  1  0.16666700  0.33333300  0.62500000  1
  Cu  Cu15  1  0.16666700  0.33333300  0.12500000  1
