# generated using pymatgen
data_CuNiC5
_symmetry_space_group_name_H-M   'P 1'
_cell_length_a   5.94002800
_cell_length_b   6.93786800
_cell_length_c   13.35321400
_cell_angle_alpha   90.00000000
_cell_angle_beta   90.00000000
_cell_angle_gamma   90.00000000
_symmetry_Int_Tables_number   1
_chemical_formula_structural   CuNiC5
_chemical_formula_sum   'Cu4 Ni4 C20'
_cell_volume   550.30104048
_cell_formula_units_Z   4
loop_
 _symmetry_equiv_pos_site_id
 _symmetry_equiv_pos_as_xyz
  1  'x, y, z'
loop_
 _atom_site_type_symbol
 _atom_site_label
 _atom_site_symmetry_multiplicity
 _atom_site_fract_x
 _atom_site_fract_y
 _atom_site_fract_z
 _atom_site_occupancy
  Ni  Ni0  1  0.50000000  0.25000000  0.25000000  1
  Ni  Ni1  1  0.50000000  0.75000000  0.75000000  1
  Ni  Ni2  1  0.50000000  0.75000000  0.25000000  1
  Ni  Ni3  1  0.50000000  0.25000000  0.75000000  1
  Cu  Cu4  1  0.00026800  0.00000000  0.24841200  1
  Cu  Cu5  1  0.00026800  0.00000000  0.75158800  1
  Cu  Cu6  1  0.99973200  0.50000000  0.25158800  1
  Cu  Cu7  1  0.99973200  0.50000000  0.74841200  1
  C  C8  1  0.33897500  0.00000000  0.00000000  1
  C  C9  1  0.66102500  0.50000000  0.50000000  1
  C  C10  1  0.02226500  0.00000000  0.50000000  1
  C  C11  1  0.97773500  0.50000000  0.00000000  1
  C  C12  1  0.83782200  0.25187000  0.35429000  1
  C  C13  1  0.83782200  0.74813000  0.64571000  1
  C  C14  1  0.16217800  0.75187000  0.14571000  1
  C  C15  1  0.16217800  0.24813000  0.85429000  1
  C  C16  1  0.16217800  0.24813000  0.14571000  1
  C  C17  1  0.16217800  0.75187000  0.85429000  1
  C  C18  1  0.83782200  0.74813000  0.35429000  1
  C  C19  1  0.83782200  0.25187000  0.64571000  1
  C  C20  1  0.66749000  0.00000000  0.14585400  1
  C  C21  1  0.66749000  0.00000000  0.85414600  1
  C  C22  1  0.33251000  0.50000000  0.35414600  1
  C  C23  1  0.33251000  0.50000000  0.64585400  1
  C  C24  1  0.33141200  0.00000000  0.35384900  1
  C  C25  1  0.33141200  0.00000000  0.64615100  1
  C  C26  1  0.66858800  0.50000000  0.14615100  1
  C  C27  1  0.66858800  0.50000000  0.85384900  1
