# generated using pymatgen
data_Cu4Ni3C19
_symmetry_space_group_name_H-M   'P 1'
_cell_length_a   13.75683231
_cell_length_b   21.09175672
_cell_length_c   21.09175672
_cell_angle_alpha   90.00000000
_cell_angle_beta   90.00000000
_cell_angle_gamma   90.00000000
_symmetry_Int_Tables_number   1
_chemical_formula_structural   Cu4Ni3C19
_chemical_formula_sum   'Cu32 Ni24 C152'
_cell_volume   6119.89470758
_cell_formula_units_Z   8
loop_
 _symmetry_equiv_pos_site_id
 _symmetry_equiv_pos_as_xyz
  1  'x, y, z'
loop_
 _atom_site_type_symbol
 _atom_site_label
 _atom_site_symmetry_multiplicity
 _atom_site_fract_x
 _atom_site_fract_y
 _atom_site_fract_z
 _atom_site_occupancy
  C  C0  1  0.42303193  0.74240364  0.97244964  1
  C  C1  1  0.92303193  0.75759636  0.97244964  1
  C  C2  1  0.92303193  0.74240364  0.52755036  1
  C  C3  1  0.42303193  0.75759636  0.52755036  1
  C  C4  1  0.92303193  0.97244964  0.74240364  1
  C  C5  1  0.42303193  0.52755036  0.74240364  1
  C  C6  1  0.42303193  0.97244964  0.75759636  1
  C  C7  1  0.92303193  0.52755036  0.75759636  1
  C  C8  1  0.57696807  0.25759636  0.02755036  1
  C  C9  1  0.07696807  0.24240364  0.02755036  1
  C  C10  1  0.07696807  0.25759636  0.47244964  1
  C  C11  1  0.57696807  0.24240364  0.47244964  1
  C  C12  1  0.07696807  0.02755036  0.25759636  1
  C  C13  1  0.57696807  0.47244964  0.25759636  1
  C  C14  1  0.57696807  0.02755036  0.24240364  1
  C  C15  1  0.07696807  0.47244964  0.24240364  1
  C  C16  1  0.75000000  0.25000000  0.75000000  1
  C  C17  1  0.25000000  0.25000000  0.75000000  1
  C  C18  1  0.25000000  0.75000000  0.25000000  1
  C  C19  1  0.75000000  0.75000000  0.25000000  1
  C  C20  1  0.96943300  0.75000000  0.75000000  1
  C  C21  1  0.46943300  0.75000000  0.75000000  1
  C  C22  1  0.03056700  0.25000000  0.25000000  1
  C  C23  1  0.53056700  0.25000000  0.25000000  1
  Ni  Ni24  1  0.13875808  0.60105087  0.99397240  1
  Ni  Ni25  1  0.63875808  0.89894913  0.99397240  1
  Ni  Ni26  1  0.63875808  0.60105087  0.50602760  1
  Ni  Ni27  1  0.13875808  0.89894913  0.50602760  1
  Ni  Ni28  1  0.63875808  0.99397240  0.60105087  1
  Ni  Ni29  1  0.13875808  0.50602760  0.60105087  1
  Ni  Ni30  1  0.13875808  0.99397240  0.89894913  1
  Ni  Ni31  1  0.63875808  0.50602760  0.89894913  1
  Ni  Ni32  1  0.86124192  0.39894913  0.00602760  1
  Ni  Ni33  1  0.36124192  0.10105087  0.00602760  1
  Ni  Ni34  1  0.36124192  0.39894913  0.49397240  1
  Ni  Ni35  1  0.86124192  0.10105087  0.49397240  1
  Ni  Ni36  1  0.36124192  0.00602760  0.39894913  1
  Ni  Ni37  1  0.86124192  0.49397240  0.39894913  1
  Ni  Ni38  1  0.86124192  0.00602760  0.10105087  1
  Ni  Ni39  1  0.36124192  0.49397240  0.10105087  1
  Ni  Ni40  1  0.25000000  0.39996498  0.89996498  1
  Ni  Ni41  1  0.75000000  0.10003502  0.89996498  1
  Ni  Ni42  1  0.75000000  0.39996498  0.60003502  1
  Ni  Ni43  1  0.25000000  0.10003502  0.60003502  1
  Ni  Ni44  1  0.75000000  0.89996498  0.39996498  1
  Ni  Ni45  1  0.25000000  0.60003502  0.39996498  1
  Ni  Ni46  1  0.25000000  0.89996498  0.10003502  1
  Ni  Ni47  1  0.75000000  0.60003502  0.10003502  1
  Cu  Cu48  1  0.37056140  0.56483520  0.92165009  1
  Cu  Cu49  1  0.87056140  0.93516480  0.92165009  1
  Cu  Cu50  1  0.87056140  0.56483520  0.57834991  1
  Cu  Cu51  1  0.37056140  0.93516480  0.57834991  1
  Cu  Cu52  1  0.87056140  0.92165009  0.56483520  1
  Cu  Cu53  1  0.37056140  0.57834991  0.56483520  1
  Cu  Cu54  1  0.37056140  0.92165009  0.93516480  1
  Cu  Cu55  1  0.87056140  0.57834991  0.93516480  1
  Cu  Cu56  1  0.62943860  0.43516480  0.07834991  1
  Cu  Cu57  1  0.12943860  0.06483520  0.07834991  1
  Cu  Cu58  1  0.12943860  0.43516480  0.42165009  1
  Cu  Cu59  1  0.62943860  0.06483520  0.42165009  1
  Cu  Cu60  1  0.12943860  0.07834991  0.43516480  1
  Cu  Cu61  1  0.62943860  0.42165009  0.43516480  1
  Cu  Cu62  1  0.62943860  0.07834991  0.06483520  1
  Cu  Cu63  1  0.12943860  0.42165009  0.06483520  1
  Cu  Cu64  1  0.16828517  0.74796698  0.06292600  1
  Cu  Cu65  1  0.66828517  0.75203302  0.06292600  1
  Cu  Cu66  1  0.66828517  0.74796698  0.43707400  1
  Cu  Cu67  1  0.16828517  0.75203302  0.43707400  1
  Cu  Cu68  1  0.66828517  0.06292600  0.74796698  1
  Cu  Cu69  1  0.16828517  0.43707400  0.74796698  1
  Cu  Cu70  1  0.16828517  0.06292600  0.75203302  1
  Cu  Cu71  1  0.66828517  0.43707400  0.75203302  1
  Cu  Cu72  1  0.83171483  0.25203302  0.93707400  1
  Cu  Cu73  1  0.33171483  0.24796698  0.93707400  1
  Cu  Cu74  1  0.33171483  0.25203302  0.56292600  1
  Cu  Cu75  1  0.83171483  0.24796698  0.56292600  1
  Cu  Cu76  1  0.33171483  0.93707400  0.25203302  1
  Cu  Cu77  1  0.83171483  0.56292600  0.25203302  1
  Cu  Cu78  1  0.83171483  0.93707400  0.24796698  1
  Cu  Cu79  1  0.33171483  0.56292600  0.24796698  1
  C  C80  1  0.23905527  0.55895322  0.87716565  1
  C  C81  1  0.73905527  0.94104678  0.87716565  1
  C  C82  1  0.73905527  0.55895322  0.62283435  1
  C  C83  1  0.23905527  0.94104678  0.62283435  1
  C  C84  1  0.73905527  0.87716565  0.55895322  1
  C  C85  1  0.23905527  0.62283435  0.55895322  1
  C  C86  1  0.23905527  0.87716565  0.94104678  1
  C  C87  1  0.73905527  0.62283435  0.94104678  1
  C  C88  1  0.76094473  0.44104678  0.12283435  1
  C  C89  1  0.26094473  0.05895322  0.12283435  1
  C  C90  1  0.26094473  0.44104678  0.37716565  1
  C  C91  1  0.76094473  0.05895322  0.37716565  1
  C  C92  1  0.26094473  0.12283435  0.44104678  1
  C  C93  1  0.76094473  0.37716565  0.44104678  1
  C  C94  1  0.76094473  0.12283435  0.05895322  1
  C  C95  1  0.26094473  0.37716565  0.05895322  1
  C  C96  1  0.34073091  0.60351401  0.01160744  1
  C  C97  1  0.84073091  0.89648599  0.01160744  1
  C  C98  1  0.84073091  0.60351401  0.48839256  1
  C  C99  1  0.34073091  0.89648599  0.48839256  1
  C  C100  1  0.84073091  0.01160744  0.60351401  1
  C  C101  1  0.34073091  0.48839256  0.60351401  1
  C  C102  1  0.34073091  0.01160744  0.89648599  1
  C  C103  1  0.84073091  0.48839256  0.89648599  1
  C  C104  1  0.65926909  0.39648599  0.98839256  1
  C  C105  1  0.15926909  0.10351401  0.98839256  1
  C  C106  1  0.15926909  0.39648599  0.51160744  1
  C  C107  1  0.65926909  0.10351401  0.51160744  1
  C  C108  1  0.15926909  0.98839256  0.39648599  1
  C  C109  1  0.65926909  0.51160744  0.39648599  1
  C  C110  1  0.65926909  0.98839256  0.10351401  1
  C  C111  1  0.15926909  0.51160744  0.10351401  1
  C  C112  1  0.97163404  0.62531241  0.88159899  1
  C  C113  1  0.47163404  0.87468759  0.88159899  1
  C  C114  1  0.47163404  0.62531241  0.61840101  1
  C  C115  1  0.97163404  0.87468759  0.61840101  1
  C  C116  1  0.47163404  0.88159899  0.62531241  1
  C  C117  1  0.97163404  0.61840101  0.62531241  1
  C  C118  1  0.97163404  0.88159899  0.87468759  1
  C  C119  1  0.47163404  0.61840101  0.87468759  1
  C  C120  1  0.02836596  0.37468759  0.11840101  1
  C  C121  1  0.52836596  0.12531241  0.11840101  1
  C  C122  1  0.52836596  0.37468759  0.38159899  1
  C  C123  1  0.02836596  0.12531241  0.38159899  1
  C  C124  1  0.52836596  0.11840101  0.37468759  1
  C  C125  1  0.02836596  0.38159899  0.37468759  1
  C  C126  1  0.02836596  0.11840101  0.12531241  1
  C  C127  1  0.52836596  0.38159899  0.12531241  1
  C  C128  1  0.42641689  0.47542526  0.93478242  1
  C  C129  1  0.92641689  0.02457474  0.93478242  1
  C  C130  1  0.92641689  0.47542526  0.56521758  1
  C  C131  1  0.42641689  0.02457474  0.56521758  1
  C  C132  1  0.92641689  0.93478242  0.47542526  1
  C  C133  1  0.42641689  0.56521758  0.47542526  1
  C  C134  1  0.42641689  0.93478242  0.02457474  1
  C  C135  1  0.92641689  0.56521758  0.02457474  1
  C  C136  1  0.57358311  0.52457474  0.06521758  1
  C  C137  1  0.07358311  0.97542526  0.06521758  1
  C  C138  1  0.07358311  0.52457474  0.43478242  1
  C  C139  1  0.57358311  0.97542526  0.43478242  1
  C  C140  1  0.07358311  0.06521758  0.52457474  1
  C  C141  1  0.57358311  0.43478242  0.52457474  1
  C  C142  1  0.57358311  0.06521758  0.97542526  1
  C  C143  1  0.07358311  0.43478242  0.97542526  1
  C  C144  1  0.16524102  0.72659283  0.96571068  1
  C  C145  1  0.66524102  0.77340717  0.96571068  1
  C  C146  1  0.66524102  0.72659283  0.53428932  1
  C  C147  1  0.16524102  0.77340717  0.53428932  1
  C  C148  1  0.66524102  0.96571068  0.72659283  1
  C  C149  1  0.16524102  0.53428932  0.72659283  1
  C  C150  1  0.16524102  0.96571068  0.77340717  1
  C  C151  1  0.66524102  0.53428932  0.77340717  1
  C  C152  1  0.83475898  0.27340717  0.03428932  1
  C  C153  1  0.33475898  0.22659283  0.03428932  1
  C  C154  1  0.33475898  0.27340717  0.46571068  1
  C  C155  1  0.83475898  0.22659283  0.46571068  1
  C  C156  1  0.33475898  0.03428932  0.27340717  1
  C  C157  1  0.83475898  0.46571068  0.27340717  1
  C  C158  1  0.83475898  0.03428932  0.22659283  1
  C  C159  1  0.33475898  0.46571068  0.22659283  1
  C  C160  1  0.30537761  0.40397002  0.77392229  1
  C  C161  1  0.80537761  0.09602998  0.77392229  1
  C  C162  1  0.80537761  0.40397002  0.72607771  1
  C  C163  1  0.30537761  0.09602998  0.72607771  1
  C  C164  1  0.80537761  0.77392229  0.40397002  1
  C  C165  1  0.30537761  0.72607771  0.40397002  1
  C  C166  1  0.30537761  0.77392229  0.09602998  1
  C  C167  1  0.80537761  0.72607771  0.09602998  1
  C  C168  1  0.69462239  0.59602998  0.22607771  1
  C  C169  1  0.19462239  0.90397002  0.22607771  1
  C  C170  1  0.19462239  0.59602998  0.27392229  1
  C  C171  1  0.69462239  0.90397002  0.27392229  1
  C  C172  1  0.19462239  0.22607771  0.59602998  1
  C  C173  1  0.69462239  0.27392229  0.59602998  1
  C  C174  1  0.69462239  0.22607771  0.90397002  1
  C  C175  1  0.19462239  0.27392229  0.90397002  1
  C  C176  1  0.08030875  0.41528317  0.82204624  1
  C  C177  1  0.58030875  0.08471683  0.82204624  1
  C  C178  1  0.58030875  0.41528317  0.67795376  1
  C  C179  1  0.08030875  0.08471683  0.67795376  1
  C  C180  1  0.58030875  0.82204624  0.41528317  1
  C  C181  1  0.08030875  0.67795376  0.41528317  1
  C  C182  1  0.08030875  0.82204624  0.08471683  1
  C  C183  1  0.58030875  0.67795376  0.08471683  1
  C  C184  1  0.91969125  0.58471683  0.17795376  1
  C  C185  1  0.41969125  0.91528317  0.17795376  1
  C  C186  1  0.41969125  0.58471683  0.32204624  1
  C  C187  1  0.91969125  0.91528317  0.32204624  1
  C  C188  1  0.41969125  0.17795376  0.58471683  1
  C  C189  1  0.91969125  0.32204624  0.58471683  1
  C  C190  1  0.91969125  0.17795376  0.91528317  1
  C  C191  1  0.41969125  0.32204624  0.91528317  1
  C  C192  1  0.12351100  0.66658921  0.10651985  1
  C  C193  1  0.62351100  0.83341079  0.10651985  1
  C  C194  1  0.62351100  0.66658921  0.39348015  1
  C  C195  1  0.12351100  0.83341079  0.39348015  1
  C  C196  1  0.62351100  0.10651985  0.66658921  1
  C  C197  1  0.12351100  0.39348015  0.66658921  1
  C  C198  1  0.12351100  0.10651985  0.83341079  1
  C  C199  1  0.62351100  0.39348015  0.83341079  1
  C  C200  1  0.87648900  0.33341079  0.89348015  1
  C  C201  1  0.37648900  0.16658921  0.89348015  1
  C  C202  1  0.37648900  0.33341079  0.60651985  1
  C  C203  1  0.87648900  0.16658921  0.60651985  1
  C  C204  1  0.37648900  0.89348015  0.33341079  1
  C  C205  1  0.87648900  0.60651985  0.33341079  1
  C  C206  1  0.87648900  0.89348015  0.16658921  1
  C  C207  1  0.37648900  0.60651985  0.16658921  1
