# generated using pymatgen
data_Cu(Ni5C4)2
_symmetry_space_group_name_H-M   'P 1'
_cell_length_a   8.80875196
_cell_length_b   3.76808244
_cell_length_c   6.04061004
_cell_angle_alpha   90.00000001
_cell_angle_beta   69.13556531
_cell_angle_gamma   77.65000987
_symmetry_Int_Tables_number   1
_chemical_formula_structural   Cu(Ni5C4)2
_chemical_formula_sum   'Cu1 Ni10 C8'
_cell_volume   182.37899093
_cell_formula_units_Z   1
loop_
 _symmetry_equiv_pos_site_id
 _symmetry_equiv_pos_as_xyz
  1  'x, y, z'
loop_
 _atom_site_type_symbol
 _atom_site_label
 _atom_site_symmetry_multiplicity
 _atom_site_fract_x
 _atom_site_fract_y
 _atom_site_fract_z
 _atom_site_occupancy
  Ni  Ni0  1  0.35970458  0.82014771  0.78802264  1
  Ni  Ni1  1  0.64029542  0.17985229  0.21197736  1
  Ni  Ni2  1  0.04085578  0.97957261  0.75547373  1
  Ni  Ni3  1  0.95914422  0.02042739  0.24452627  1
  Ni  Ni4  1  0.68931068  0.65534516  0.49660544  1
  Ni  Ni5  1  0.31068932  0.34465484  0.50339456  1
  Ni  Ni6  1  0.83866960  0.58066570  0.98606737  1
  Ni  Ni7  1  0.16133040  0.41933430  0.01393263  1
  Ni  Ni8  1  0.60209932  0.19895084  0.80562494  1
  Ni  Ni9  1  0.39790068  0.80104916  0.19437506  1
  Cu  Cu10  1  0.00000000  0.50000000  0.50000000  1
  C  C11  1  0.21062129  0.89468885  0.09158422  1
  C  C12  1  0.78937871  0.10531115  0.90841578  1
  C  C13  1  0.28646396  0.85676752  0.53549195  1
  C  C14  1  0.71353604  0.14323248  0.46450805  1
  C  C15  1  0.55522121  0.72238990  0.82994323  1
  C  C16  1  0.44477879  0.27761010  0.17005677  1
  C  C17  1  0.07246210  0.46376845  0.75500789  1
  C  C18  1  0.92753790  0.53623155  0.24499211  1
