# generated using pymatgen
data_Cu(NiC)3
_symmetry_space_group_name_H-M   'P 1'
_cell_length_a   4.05748800
_cell_length_b   10.25578900
_cell_length_c   11.72495700
_cell_angle_alpha   90.00000000
_cell_angle_beta   90.00000000
_cell_angle_gamma   90.00000000
_symmetry_Int_Tables_number   1
_chemical_formula_structural   Cu(NiC)3
_chemical_formula_sum   'Cu4 Ni12 C12'
_cell_volume   487.90759651
_cell_formula_units_Z   4
loop_
 _symmetry_equiv_pos_site_id
 _symmetry_equiv_pos_as_xyz
  1  'x, y, z'
loop_
 _atom_site_type_symbol
 _atom_site_label
 _atom_site_symmetry_multiplicity
 _atom_site_fract_x
 _atom_site_fract_y
 _atom_site_fract_z
 _atom_site_occupancy
  C  C0  1  0.25000000  0.87624900  0.02131900  1
  C  C1  1  0.25000000  0.62375100  0.52131900  1
  C  C2  1  0.75000000  0.12375100  0.97868100  1
  C  C3  1  0.75000000  0.37624900  0.47868100  1
  C  C4  1  0.25000000  0.91974900  0.59945400  1
  C  C5  1  0.25000000  0.58025100  0.09945400  1
  C  C6  1  0.75000000  0.08025100  0.40054600  1
  C  C7  1  0.75000000  0.41974900  0.90054600  1
  C  C8  1  0.25000000  0.65916200  0.80086500  1
  C  C9  1  0.25000000  0.84083800  0.30086500  1
  C  C10  1  0.75000000  0.34083800  0.19913500  1
  C  C11  1  0.75000000  0.15916200  0.69913500  1
  Ni  Ni12  1  0.25000000  0.01661900  0.82399400  1
  Ni  Ni13  1  0.25000000  0.48338100  0.32399400  1
  Ni  Ni14  1  0.75000000  0.98338100  0.17600600  1
  Ni  Ni15  1  0.75000000  0.51661900  0.67600600  1
  Ni  Ni16  1  0.25000000  0.24705100  0.84413900  1
  Ni  Ni17  1  0.25000000  0.25294900  0.34413900  1
  Ni  Ni18  1  0.75000000  0.75294900  0.15586100  1
  Ni  Ni19  1  0.75000000  0.74705100  0.65586100  1
  Ni  Ni20  1  0.25000000  0.18842400  0.54312000  1
  Ni  Ni21  1  0.25000000  0.31157600  0.04312000  1
  Ni  Ni22  1  0.75000000  0.81157600  0.45688000  1
  Ni  Ni23  1  0.75000000  0.68842400  0.95688000  1
  Cu  Cu24  1  0.25000000  0.38714300  0.67814300  1
  Cu  Cu25  1  0.25000000  0.11285700  0.17814300  1
  Cu  Cu26  1  0.75000000  0.61285700  0.32185700  1
  Cu  Cu27  1  0.75000000  0.88714300  0.82185700  1
