# generated using pymatgen
data_Cu2Ni8C13
_symmetry_space_group_name_H-M   'P 1'
_cell_length_a   8.84712847
_cell_length_b   8.84712847
_cell_length_c   11.68754164
_cell_angle_alpha   72.87119853
_cell_angle_beta   72.87119853
_cell_angle_gamma   92.06784225
_symmetry_Int_Tables_number   1
_chemical_formula_structural   Cu2Ni8C13
_chemical_formula_sum   'Cu4 Ni16 C26'
_cell_volume   827.86094958
_cell_formula_units_Z   2
loop_
 _symmetry_equiv_pos_site_id
 _symmetry_equiv_pos_as_xyz
  1  'x, y, z'
loop_
 _atom_site_type_symbol
 _atom_site_label
 _atom_site_symmetry_multiplicity
 _atom_site_fract_x
 _atom_site_fract_y
 _atom_site_fract_z
 _atom_site_occupancy
  C  C0  1  0.05502400  0.70457600  0.20585900  1
  C  C1  1  0.29542400  0.94497600  0.29414100  1
  C  C2  1  0.94497600  0.29542400  0.79414100  1
  C  C3  1  0.70457600  0.05502400  0.70585900  1
  C  C4  1  0.16674700  0.83325300  0.25000000  1
  C  C5  1  0.83325300  0.16674700  0.75000000  1
  C  C6  1  0.20743400  0.54128300  0.19856700  1
  C  C7  1  0.45871700  0.79256600  0.30143300  1
  C  C8  1  0.79256600  0.45871700  0.80143300  1
  C  C9  1  0.54128300  0.20743400  0.69856700  1
  Ni  Ni10  1  0.98182400  0.85380900  0.37252400  1
  Ni  Ni11  1  0.14619100  0.01817600  0.12747600  1
  Ni  Ni12  1  0.01817600  0.14619100  0.62747600  1
  Ni  Ni13  1  0.85380900  0.98182400  0.87252400  1
  Ni  Ni14  1  0.02727500  0.37635100  0.28571100  1
  Ni  Ni15  1  0.62364900  0.97272500  0.21428900  1
  Ni  Ni16  1  0.97272500  0.62364900  0.71428900  1
  Ni  Ni17  1  0.37635100  0.02727500  0.78571100  1
  Ni  Ni18  1  0.34988700  0.38834700  0.19242600  1
  Ni  Ni19  1  0.61165300  0.65011300  0.30757400  1
  Ni  Ni20  1  0.65011300  0.61165300  0.80757400  1
  Ni  Ni21  1  0.38834700  0.34988700  0.69242600  1
  Ni  Ni22  1  0.18891200  0.55160200  0.03671800  1
  Ni  Ni23  1  0.44839800  0.81108800  0.46328200  1
  Ni  Ni24  1  0.81108800  0.44839800  0.96328200  1
  Ni  Ni25  1  0.55160200  0.18891200  0.53671800  1
  Cu  Cu26  1  0.22351100  0.59036000  0.38976000  1
  Cu  Cu27  1  0.40964000  0.77648900  0.11024000  1
  Cu  Cu28  1  0.77648900  0.40964000  0.61024000  1
  Cu  Cu29  1  0.59036000  0.22351100  0.88976000  1
  C  C30  1  0.86533300  0.86613500  0.44699900  1
  C  C31  1  0.13386500  0.13466700  0.05300100  1
  C  C32  1  0.13466700  0.13386500  0.55300100  1
  C  C33  1  0.86613500  0.86533300  0.94699900  1
  C  C34  1  0.92457300  0.27120000  0.33662200  1
  C  C35  1  0.72880000  0.07542700  0.16337800  1
  C  C36  1  0.07542700  0.72880000  0.66337800  1
  C  C37  1  0.27120000  0.92457300  0.83662200  1
  C  C38  1  0.44037700  0.29660100  0.18837400  1
  C  C39  1  0.70339900  0.55962300  0.31162600  1
  C  C40  1  0.55962300  0.70339900  0.81162600  1
  C  C41  1  0.29660100  0.44037700  0.68837400  1
  C  C42  1  0.18115500  0.55644500  0.93844000  1
  C  C43  1  0.44355500  0.81884500  0.56156000  1
  C  C44  1  0.81884500  0.44355500  0.06156000  1
  C  C45  1  0.55644500  0.18115500  0.43844000  1
