# generated using pymatgen
data_Cu30Ni7C4
_symmetry_space_group_name_H-M   'P 1'
_cell_length_a   12.79656000
_cell_length_b   12.79656000
_cell_length_c   7.10762000
_cell_angle_alpha   90.00000000
_cell_angle_beta   90.00000000
_cell_angle_gamma   90.00000000
_symmetry_Int_Tables_number   1
_chemical_formula_structural   Cu30Ni7C4
_chemical_formula_sum   'Cu60 Ni14 C8'
_cell_volume   1163.88661946
_cell_formula_units_Z   2
loop_
 _symmetry_equiv_pos_site_id
 _symmetry_equiv_pos_as_xyz
  1  'x, y, z'
loop_
 _atom_site_type_symbol
 _atom_site_label
 _atom_site_symmetry_multiplicity
 _atom_site_fract_x
 _atom_site_fract_y
 _atom_site_fract_z
 _atom_site_occupancy
  C  C0  1  0.19856200  0.30143800  0.40769200  1
  C  C1  1  0.30143800  0.80143800  0.59230800  1
  C  C2  1  0.80143800  0.69856200  0.40769200  1
  C  C3  1  0.69856200  0.19856200  0.59230800  1
  C  C4  1  0.36056000  0.13944000  0.02039000  1
  C  C5  1  0.13944000  0.63944000  0.97961000  1
  C  C6  1  0.63944000  0.86056000  0.02039000  1
  C  C7  1  0.86056000  0.36056000  0.97961000  1
  Ni  Ni8  1  0.50000000  0.00000000  0.65391300  1
  Ni  Ni9  1  0.00000000  0.50000000  0.34608700  1
  Ni  Ni10  1  0.62385200  0.12385200  0.10832500  1
  Ni  Ni11  1  0.87614800  0.62385200  0.89167500  1
  Ni  Ni12  1  0.37614800  0.87614800  0.10832500  1
  Ni  Ni13  1  0.12385200  0.37614800  0.89167500  1
  Ni  Ni14  1  0.43594200  0.32290700  0.69706700  1
  Ni  Ni15  1  0.06405800  0.82290700  0.30293300  1
  Ni  Ni16  1  0.56405800  0.67709300  0.69706700  1
  Ni  Ni17  1  0.93594200  0.17709300  0.30293300  1
  Ni  Ni18  1  0.32290700  0.56405800  0.30293300  1
  Ni  Ni19  1  0.17709300  0.06405800  0.69706700  1
  Ni  Ni20  1  0.67709300  0.43594200  0.30293300  1
  Ni  Ni21  1  0.82290700  0.93594200  0.69706700  1
  Cu  Cu22  1  0.29609400  0.20390600  0.20984000  1
  Cu  Cu23  1  0.20390600  0.70390600  0.79016000  1
  Cu  Cu24  1  0.70390600  0.79609400  0.20984000  1
  Cu  Cu25  1  0.79609400  0.29609400  0.79016000  1
  Cu  Cu26  1  0.43204200  0.93204200  0.53948700  1
  Cu  Cu27  1  0.06795800  0.43204200  0.46051300  1
  Cu  Cu28  1  0.56795800  0.06795800  0.53948700  1
  Cu  Cu29  1  0.93204200  0.56795800  0.46051300  1
  Cu  Cu30  1  0.43338400  0.06661600  0.77646900  1
  Cu  Cu31  1  0.06661600  0.56661600  0.22353100  1
  Cu  Cu32  1  0.56661600  0.93338400  0.77646900  1
  Cu  Cu33  1  0.93338400  0.43338400  0.22353100  1
  Cu  Cu34  1  0.65636600  0.15636600  0.92141800  1
  Cu  Cu35  1  0.84363400  0.65636600  0.07858200  1
  Cu  Cu36  1  0.34363400  0.84363400  0.92141800  1
  Cu  Cu37  1  0.15636600  0.34363400  0.07858200  1
  Cu  Cu38  1  0.67711700  0.17711700  0.26256000  1
  Cu  Cu39  1  0.82288300  0.67711700  0.73744000  1
  Cu  Cu40  1  0.32288300  0.82288300  0.26256000  1
  Cu  Cu41  1  0.17711700  0.32288300  0.73744000  1
  Cu  Cu42  1  0.50837100  0.14270000  0.13334900  1
  Cu  Cu43  1  0.99162900  0.64270000  0.86665100  1
  Cu  Cu44  1  0.49162900  0.85730000  0.13334900  1
  Cu  Cu45  1  0.00837100  0.35730000  0.86665100  1
  Cu  Cu46  1  0.14270000  0.49162900  0.86665100  1
  Cu  Cu47  1  0.35730000  0.99162900  0.13334900  1
  Cu  Cu48  1  0.85730000  0.50837100  0.86665100  1
  Cu  Cu49  1  0.64270000  0.00837100  0.13334900  1
  Cu  Cu50  1  0.36806400  0.28784500  0.54200500  1
  Cu  Cu51  1  0.13193600  0.78784500  0.45799500  1
  Cu  Cu52  1  0.63193600  0.71215500  0.54200500  1
  Cu  Cu53  1  0.86806400  0.21215500  0.45799500  1
  Cu  Cu54  1  0.28784500  0.63193600  0.45799500  1
  Cu  Cu55  1  0.21215500  0.13193600  0.54200500  1
  Cu  Cu56  1  0.71215500  0.36806400  0.45799500  1
  Cu  Cu57  1  0.78784500  0.86806400  0.54200500  1
  Cu  Cu58  1  0.54448700  0.28898200  0.66978800  1
  Cu  Cu59  1  0.95551300  0.78898200  0.33021200  1
  Cu  Cu60  1  0.45551300  0.71101800  0.66978800  1
  Cu  Cu61  1  0.04448700  0.21101800  0.33021200  1
  Cu  Cu62  1  0.28898200  0.45551300  0.33021200  1
  Cu  Cu63  1  0.21101800  0.95551300  0.66978800  1
  Cu  Cu64  1  0.71101800  0.54448700  0.33021200  1
  Cu  Cu65  1  0.78898200  0.04448700  0.66978800  1
  Cu  Cu66  1  0.42554700  0.43579200  0.72435200  1
  Cu  Cu67  1  0.07445300  0.93579200  0.27564800  1
  Cu  Cu68  1  0.57445300  0.56420800  0.72435200  1
  Cu  Cu69  1  0.92554700  0.06420800  0.27564800  1
  Cu  Cu70  1  0.43579200  0.57445300  0.27564800  1
  Cu  Cu71  1  0.06420800  0.07445300  0.72435200  1
  Cu  Cu72  1  0.56420800  0.42554700  0.27564800  1
  Cu  Cu73  1  0.93579200  0.92554700  0.72435200  1
  Cu  Cu74  1  0.39495500  0.27065200  0.87834700  1
  Cu  Cu75  1  0.10504500  0.77065200  0.12165300  1
  Cu  Cu76  1  0.60504500  0.72934800  0.87834700  1
  Cu  Cu77  1  0.89495500  0.22934800  0.12165300  1
  Cu  Cu78  1  0.27065200  0.60504500  0.12165300  1
  Cu  Cu79  1  0.22934800  0.10504500  0.87834700  1
  Cu  Cu80  1  0.72934800  0.39495500  0.12165300  1
  Cu  Cu81  1  0.77065200  0.89495500  0.87834700  1
