# generated using pymatgen
data_CuNiC4
_symmetry_space_group_name_H-M   'P 1'
_cell_length_a   3.39913229
_cell_length_b   3.39913229
_cell_length_c   38.78385700
_cell_angle_alpha   90.00000000
_cell_angle_beta   90.00000000
_cell_angle_gamma   120.00000568
_symmetry_Int_Tables_number   1
_chemical_formula_structural   CuNiC4
_chemical_formula_sum   'Cu2 Ni2 C8'
_cell_volume   388.07685174
_cell_formula_units_Z   2
loop_
 _symmetry_equiv_pos_site_id
 _symmetry_equiv_pos_as_xyz
  1  'x, y, z'
loop_
 _atom_site_type_symbol
 _atom_site_label
 _atom_site_symmetry_multiplicity
 _atom_site_fract_x
 _atom_site_fract_y
 _atom_site_fract_z
 _atom_site_occupancy
  C  C0  1  0.00000000  0.00000000  0.33033400  1
  C  C1  1  0.00000000  0.00000000  0.70609100  1
  C  C2  1  0.00000000  0.00000000  0.23322300  1
  C  C3  1  0.00000000  0.00000000  0.60897500  1
  C  C4  1  0.00000000  0.00000000  0.46966900  1
  C  C5  1  0.00000000  0.00000000  0.09393400  1
  C  C6  1  0.33333300  0.66666700  0.28181200  1
  C  C7  1  0.33333300  0.66666700  0.65754500  1
  Ni  Ni8  1  0.33333300  0.66666700  0.42716800  1
  Ni  Ni9  1  0.33333300  0.66666700  0.51214200  1
  Cu  Cu10  1  0.33333300  0.66666700  0.05507300  1
  Cu  Cu11  1  0.33333300  0.66666700  0.13278100  1
