# generated using pymatgen
data_CuNi2C5
_symmetry_space_group_name_H-M   'P 1'
_cell_length_a   3.54663100
_cell_length_b   4.41014100
_cell_length_c   11.67642500
_cell_angle_alpha   90.00000000
_cell_angle_beta   90.00000000
_cell_angle_gamma   90.00000000
_symmetry_Int_Tables_number   1
_chemical_formula_structural   CuNi2C5
_chemical_formula_sum   'Cu2 Ni4 C10'
_cell_volume   182.63263064
_cell_formula_units_Z   2
loop_
 _symmetry_equiv_pos_site_id
 _symmetry_equiv_pos_as_xyz
  1  'x, y, z'
loop_
 _atom_site_type_symbol
 _atom_site_label
 _atom_site_symmetry_multiplicity
 _atom_site_fract_x
 _atom_site_fract_y
 _atom_site_fract_z
 _atom_site_occupancy
  Ni  Ni0  1  0.00000000  0.05335100  0.84832500  1
  Ni  Ni1  1  0.50000000  0.94664900  0.65167500  1
  Ni  Ni2  1  0.50000000  0.94664900  0.34832500  1
  Ni  Ni3  1  0.00000000  0.05335100  0.15167500  1
  Cu  Cu4  1  0.50000000  0.56820400  0.00000000  1
  Cu  Cu5  1  0.00000000  0.43179600  0.50000000  1
  C  C6  1  0.50000000  0.07712000  0.50000000  1
  C  C7  1  0.00000000  0.92288000  0.00000000  1
  C  C8  1  0.50000000  0.95122200  0.82228500  1
  C  C9  1  0.00000000  0.04877800  0.67771500  1
  C  C10  1  0.50000000  0.95122200  0.17771500  1
  C  C11  1  0.00000000  0.04877800  0.32228500  1
  C  C12  1  0.00000000  0.44659600  0.11480700  1
  C  C13  1  0.50000000  0.55340400  0.38519300  1
  C  C14  1  0.50000000  0.55340400  0.61480700  1
  C  C15  1  0.00000000  0.44659600  0.88519300  1
