# generated using pymatgen
data_Cu(NiC)2
_symmetry_space_group_name_H-M   'P 1'
_cell_length_a   8.72729400
_cell_length_b   8.73006954
_cell_length_c   8.73213385
_cell_angle_alpha   109.53915279
_cell_angle_beta   109.34299859
_cell_angle_gamma   109.44867378
_symmetry_Int_Tables_number   1
_chemical_formula_structural   Cu(NiC)2
_chemical_formula_sum   'Cu8 Ni16 C16'
_cell_volume   512.67015972
_cell_formula_units_Z   8
loop_
 _symmetry_equiv_pos_site_id
 _symmetry_equiv_pos_as_xyz
  1  'x, y, z'
loop_
 _atom_site_type_symbol
 _atom_site_label
 _atom_site_symmetry_multiplicity
 _atom_site_fract_x
 _atom_site_fract_y
 _atom_site_fract_z
 _atom_site_occupancy
  C  C0  1  0.71772100  0.96061800  0.25846400  1
  C  C1  1  0.50344900  0.50668700  0.48844300  1
  C  C2  1  0.25064600  0.70572500  0.53782700  1
  C  C3  1  0.75074800  0.78183800  0.96987100  1
  C  C4  1  0.96800800  0.75534000  0.27780000  1
  C  C5  1  0.47054000  0.75621300  0.78317900  1
  C  C6  1  0.49353600  0.99808500  0.99037800  1
  C  C7  1  0.00788500  0.01708200  0.49372200  1
  C  C8  1  0.98496600  0.49055500  0.01243600  1
  C  C9  1  0.21597400  0.46857400  0.25161500  1
  C  C10  1  0.78400400  0.52458600  0.76215000  1
  C  C11  1  0.03363100  0.25144700  0.70945800  1
  C  C12  1  0.53538700  0.25365800  0.21374800  1
  C  C13  1  0.25023600  0.21003600  0.04152200  1
  C  C14  1  0.74953800  0.28465100  0.45932700  1
  C  C15  1  0.28508600  0.03889900  0.74709700  1
  Ni  Ni16  1  0.50957500  0.73893600  0.53601300  1
  Ni  Ni17  1  0.99051400  0.45591100  0.77283200  1
  Ni  Ni18  1  0.47025700  0.72742500  0.04180200  1
  Ni  Ni19  1  0.96524500  0.00989000  0.26530400  1
  Ni  Ni20  1  0.53745600  0.27125000  0.95170700  1
  Ni  Ni21  1  0.76989900  0.22584400  0.23756600  1
  Ni  Ni22  1  0.03306500  0.98664200  0.74109500  1
  Ni  Ni23  1  0.27294700  0.50984400  0.45689300  1
  Ni  Ni24  1  0.01179700  0.54551500  0.22590500  1
  Ni  Ni25  1  0.22822400  0.95752600  0.03213400  1
  Ni  Ni26  1  0.94995400  0.22413800  0.51718700  1
  Ni  Ni27  1  0.76152700  0.53530500  0.00983700  1
  Ni  Ni28  1  0.54538200  0.03094900  0.72617800  1
  Ni  Ni29  1  0.73955600  0.72658400  0.22707800  1
  Ni  Ni30  1  0.48694800  0.26415200  0.46828000  1
  Ni  Ni31  1  0.27153100  0.24052000  0.27046400  1
  Cu  Cu32  1  0.72784200  0.75779500  0.72305700  1
  Cu  Cu33  1  0.26244400  0.27521700  0.77483600  1
  Cu  Cu34  1  0.44730600  0.96081000  0.27520100  1
  Cu  Cu35  1  0.04672200  0.77108200  0.48870100  1
  Cu  Cu36  1  0.23973400  0.46679100  0.98101700  1
  Cu  Cu37  1  0.77168200  0.04776800  0.97116700  1
  Cu  Cu38  1  0.22924300  0.77160600  0.76372400  1
  Cu  Cu39  1  0.72979700  0.49450700  0.54498800  1
