# generated using pymatgen
data_Cu6NiC7
_symmetry_space_group_name_H-M   'P 1'
_cell_length_a   29.84628585
_cell_length_b   31.68119050
_cell_length_c   34.01680712
_cell_angle_alpha   53.69089957
_cell_angle_beta   53.71202719
_cell_angle_gamma   48.70348071
_symmetry_Int_Tables_number   1
_chemical_formula_structural   Cu6NiC7
_chemical_formula_sum   'Cu6 Ni1 C7'
_cell_volume   18368.44753111
_cell_formula_units_Z   1
loop_
 _symmetry_equiv_pos_site_id
 _symmetry_equiv_pos_as_xyz
  1  'x, y, z'
loop_
 _atom_site_type_symbol
 _atom_site_label
 _atom_site_symmetry_multiplicity
 _atom_site_fract_x
 _atom_site_fract_y
 _atom_site_fract_z
 _atom_site_occupancy
  C  C0  1  0.27028098  0.79127408  0.27049087  1
  C  C1  1  0.54090707  0.26610055  0.26611495  1
  C  C2  1  0.36974769  0.37020715  0.89005192  1
  C  C3  1  0.54146363  0.92640386  0.26606134  1
  C  C4  1  0.80590332  0.65433861  0.26985096  1
  C  C5  1  0.92671191  0.26649779  0.54067648  1
  C  C6  1  0.91185513  0.55513791  0.26667336  1
  Ni  Ni7  1  0.75002274  0.75024722  0.74987371  1
  Cu  Cu8  1  0.31110492  0.22975038  0.22970539  1
  Cu  Cu9  1  0.50002001  0.50028060  0.49990363  1
  Cu  Cu10  1  0.39497978  0.86836121  0.86833414  1
  Cu  Cu11  1  0.86842603  0.86823331  0.39464190  1
  Cu  Cu12  1  0.86844748  0.39440583  0.86855546  1
  Cu  Cu13  1  0.86832929  0.86796150  0.86866588  1
