# generated using pymatgen
data_Cu(NiC3)2
_symmetry_space_group_name_H-M   'P 1'
_cell_length_a   9.28383033
_cell_length_b   9.28383033
_cell_length_c   5.09060800
_cell_angle_alpha   90.00000000
_cell_angle_beta   90.00000000
_cell_angle_gamma   120.00000232
_symmetry_Int_Tables_number   1
_chemical_formula_structural   Cu(NiC3)2
_chemical_formula_sum   'Cu3 Ni6 C18'
_cell_volume   379.97468731
_cell_formula_units_Z   3
loop_
 _symmetry_equiv_pos_site_id
 _symmetry_equiv_pos_as_xyz
  1  'x, y, z'
loop_
 _atom_site_type_symbol
 _atom_site_label
 _atom_site_symmetry_multiplicity
 _atom_site_fract_x
 _atom_site_fract_y
 _atom_site_fract_z
 _atom_site_occupancy
  Ni  Ni0  1  0.71182800  0.71182800  0.50000000  1
  Ni  Ni1  1  0.00000000  0.28817200  0.50000000  1
  Ni  Ni2  1  0.28817200  0.00000000  0.50000000  1
  Ni  Ni3  1  0.37444600  0.37444600  0.00000000  1
  Ni  Ni4  1  0.00000000  0.62555400  0.00000000  1
  Ni  Ni5  1  0.62555400  0.00000000  0.00000000  1
  Cu  Cu6  1  0.66666700  0.33333300  0.48547400  1
  Cu  Cu7  1  0.33333300  0.66666700  0.51452600  1
  Cu  Cu8  1  0.00000000  0.00000000  0.00000000  1
  C  C9  1  0.75693500  0.22270600  0.70449200  1
  C  C10  1  0.77729400  0.53422800  0.70449200  1
  C  C11  1  0.46577200  0.24306500  0.70449200  1
  C  C12  1  0.53422800  0.77729400  0.29550800  1
  C  C13  1  0.24306500  0.46577200  0.29550800  1
  C  C14  1  0.22270600  0.75693500  0.29550800  1
  C  C15  1  0.59703100  0.46200400  0.26470500  1
  C  C16  1  0.53799600  0.13502700  0.26470500  1
  C  C17  1  0.86497300  0.40296900  0.26470500  1
  C  C18  1  0.07965700  0.87985300  0.78372700  1
  C  C19  1  0.12014700  0.19980400  0.78372700  1
  C  C20  1  0.80019600  0.92034300  0.78372700  1
  C  C21  1  0.19980400  0.12014700  0.21627300  1
  C  C22  1  0.92034300  0.80019600  0.21627300  1
  C  C23  1  0.87985300  0.07965700  0.21627300  1
  C  C24  1  0.46200400  0.59703100  0.73529500  1
  C  C25  1  0.40296900  0.86497300  0.73529500  1
  C  C26  1  0.13502700  0.53799600  0.73529500  1
