# generated using pymatgen
data_CuNiC12
_symmetry_space_group_name_H-M   'P 1'
_cell_length_a   5.87610000
_cell_length_b   8.47360201
_cell_length_c   8.65975828
_cell_angle_alpha   111.21333849
_cell_angle_beta   90.00000000
_cell_angle_gamma   90.00000000
_symmetry_Int_Tables_number   1
_chemical_formula_structural   CuNiC12
_chemical_formula_sum   'Cu2 Ni2 C24'
_cell_volume   401.96713996
_cell_formula_units_Z   2
loop_
 _symmetry_equiv_pos_site_id
 _symmetry_equiv_pos_as_xyz
  1  'x, y, z'
loop_
 _atom_site_type_symbol
 _atom_site_label
 _atom_site_symmetry_multiplicity
 _atom_site_fract_x
 _atom_site_fract_y
 _atom_site_fract_z
 _atom_site_occupancy
  C  C0  1  0.00000000  0.00000000  0.00000000  1
  C  C1  1  0.50000000  0.00000000  0.00000000  1
  Ni  Ni2  1  0.75000000  0.97352000  0.66197800  1
  Ni  Ni3  1  0.25000000  0.02648000  0.33802200  1
  C  C4  1  0.75000000  0.69415900  0.23428600  1
  C  C5  1  0.25000000  0.30584100  0.76571400  1
  C  C6  1  0.75000000  0.26777100  0.36553900  1
  C  C7  1  0.25000000  0.73222900  0.63446100  1
  Cu  Cu8  1  0.75000000  0.54749100  0.82150800  1
  Cu  Cu9  1  0.25000000  0.45250900  0.17849200  1
  C  C10  1  0.99931000  0.00334700  0.78259700  1
  C  C11  1  0.00069000  0.99665300  0.21740300  1
  C  C12  1  0.49931000  0.99665300  0.21740300  1
  C  C13  1  0.50069000  0.00334700  0.78259700  1
  C  C14  1  0.75000000  0.76444800  0.53642700  1
  C  C15  1  0.25000000  0.23555200  0.46357300  1
  C  C16  1  0.75000000  0.73147500  0.92225200  1
  C  C17  1  0.25000000  0.26852500  0.07774800  1
  C  C18  1  0.75000000  0.13724400  0.05933700  1
  C  C19  1  0.25000000  0.86275600  0.94066300  1
  C  C20  1  0.75000000  0.44583000  0.92992200  1
  C  C21  1  0.25000000  0.55417000  0.07007800  1
  C  C22  1  0.75000000  0.11482300  0.56599000  1
  C  C23  1  0.25000000  0.88517700  0.43401000  1
  C  C24  1  0.95856600  0.50343800  0.71116900  1
  C  C25  1  0.04143400  0.49656200  0.28883100  1
  C  C26  1  0.45856600  0.49656200  0.28883100  1
  C  C27  1  0.54143400  0.50343800  0.71116900  1
