# generated using pymatgen
data_CuNi3C16
_symmetry_space_group_name_H-M   'P 1'
_cell_length_a   7.71702500
_cell_length_b   5.42149300
_cell_length_c   5.63637568
_cell_angle_alpha   89.43228593
_cell_angle_beta   90.00000000
_cell_angle_gamma   90.00000000
_symmetry_Int_Tables_number   1
_chemical_formula_structural   CuNi3C16
_chemical_formula_sum   'Cu1 Ni3 C16'
_cell_volume   235.80196594
_cell_formula_units_Z   1
loop_
 _symmetry_equiv_pos_site_id
 _symmetry_equiv_pos_as_xyz
  1  'x, y, z'
loop_
 _atom_site_type_symbol
 _atom_site_label
 _atom_site_symmetry_multiplicity
 _atom_site_fract_x
 _atom_site_fract_y
 _atom_site_fract_z
 _atom_site_occupancy
  Ni  Ni0  1  0.00000000  0.01170700  0.94789900  1
  Ni  Ni1  1  0.50000000  0.51033600  0.55046300  1
  Ni  Ni2  1  0.50000000  0.98664800  0.05423300  1
  Cu  Cu3  1  0.00000000  0.48600700  0.43561200  1
  C  C4  1  0.24804600  0.99861100  0.50058700  1
  C  C5  1  0.75087200  0.50121700  0.99781400  1
  C  C6  1  0.75195400  0.99861100  0.50058700  1
  C  C7  1  0.24912800  0.50121700  0.99781400  1
  C  C8  1  0.20176100  0.21031700  0.21049700  1
  C  C9  1  0.80071800  0.29711400  0.69431700  1
  C  C10  1  0.70959400  0.79967700  0.79765900  1
  C  C11  1  0.28740900  0.70623200  0.30043400  1
  C  C12  1  0.29040600  0.79967700  0.79765900  1
  C  C13  1  0.71259100  0.70623200  0.30043400  1
  C  C14  1  0.79823900  0.21031700  0.21049700  1
  C  C15  1  0.19928200  0.29711400  0.69431700  1
  C  C16  1  0.00000000  0.57971900  0.02994600  1
  C  C17  1  0.00000000  0.89959700  0.51966000  1
  C  C18  1  0.50000000  0.42070400  0.97911800  1
  C  C19  1  0.50000000  0.07894600  0.48045100  1
