# generated using pymatgen
data_Cu11(NiC2)3
_symmetry_space_group_name_H-M   'P 1'
_cell_length_a   8.15030600
_cell_length_b   8.15030600
_cell_length_c   13.25678280
_cell_angle_alpha   72.09730632
_cell_angle_beta   72.09730632
_cell_angle_gamma   90.00000000
_symmetry_Int_Tables_number   1
_chemical_formula_structural   Cu11(NiC2)3
_chemical_formula_sum   'Cu22 Ni6 C12'
_cell_volume   793.04668990
_cell_formula_units_Z   2
loop_
 _symmetry_equiv_pos_site_id
 _symmetry_equiv_pos_as_xyz
  1  'x, y, z'
loop_
 _atom_site_type_symbol
 _atom_site_label
 _atom_site_symmetry_multiplicity
 _atom_site_fract_x
 _atom_site_fract_y
 _atom_site_fract_z
 _atom_site_occupancy
  C  C0  1  0.35852800  0.85852800  0.62194100  1
  C  C1  1  0.01953100  0.51953100  0.62194100  1
  C  C2  1  0.51953100  0.35852800  0.62194100  1
  C  C3  1  0.85852800  0.01953100  0.62194100  1
  C  C4  1  0.64737100  0.14737100  0.36955200  1
  C  C5  1  0.98307800  0.48307800  0.36955200  1
  C  C6  1  0.48307800  0.64737100  0.36955200  1
  C  C7  1  0.14737100  0.98307800  0.36955200  1
  C  C8  1  0.39465600  0.39465600  0.21068700  1
  C  C9  1  0.89465600  0.89465600  0.21068700  1
  C  C10  1  0.60584400  0.60584400  0.78831300  1
  C  C11  1  0.10584400  0.10584400  0.78831300  1
  Ni  Ni12  1  0.74976300  0.74976300  0.50047400  1
  Ni  Ni13  1  0.24976300  0.24976300  0.50047400  1
  Ni  Ni14  1  0.47320200  0.97320200  0.81744200  1
  Ni  Ni15  1  0.70935700  0.20935700  0.81744200  1
  Ni  Ni16  1  0.20935700  0.47320200  0.81744200  1
  Ni  Ni17  1  0.97320200  0.70935700  0.81744200  1
  Cu  Cu18  1  0.23088600  0.73088600  0.88977900  1
  Cu  Cu19  1  0.87933500  0.37933500  0.88977900  1
  Cu  Cu20  1  0.37933500  0.23088600  0.88977900  1
  Cu  Cu21  1  0.73088600  0.87933500  0.88977900  1
  Cu  Cu22  1  0.76388400  0.26388400  0.11518400  1
  Cu  Cu23  1  0.12093200  0.62093200  0.11518400  1
  Cu  Cu24  1  0.62093200  0.76388400  0.11518400  1
  Cu  Cu25  1  0.26388400  0.12093200  0.11518400  1
  Cu  Cu26  1  0.70994400  0.56823500  0.00120000  1
  Cu  Cu27  1  0.28885700  0.43056500  0.00120000  1
  Cu  Cu28  1  0.78885700  0.06823500  0.00120000  1
  Cu  Cu29  1  0.20994400  0.93056500  0.00120000  1
  Cu  Cu30  1  0.56823500  0.28885700  0.00120000  1
  Cu  Cu31  1  0.43056500  0.70994400  0.00120000  1
  Cu  Cu32  1  0.06823500  0.20994400  0.00120000  1
  Cu  Cu33  1  0.93056500  0.78885700  0.00120000  1
  Cu  Cu34  1  0.99906900  0.49906900  0.00186200  1
  Cu  Cu35  1  0.49906900  0.99906900  0.00186200  1
  Cu  Cu36  1  0.52168000  0.02168000  0.18303600  1
  Cu  Cu37  1  0.29528500  0.79528500  0.18303600  1
  Cu  Cu38  1  0.79528500  0.52168000  0.18303600  1
  Cu  Cu39  1  0.02168000  0.29528500  0.18303600  1
