# generated using pymatgen
data_Cu7NiC28
_symmetry_space_group_name_H-M   'P 1'
_cell_length_a   11.03649078
_cell_length_b   15.45356835
_cell_length_c   11.18800990
_cell_angle_alpha   90.09003678
_cell_angle_beta   92.14380139
_cell_angle_gamma   90.44968769
_symmetry_Int_Tables_number   1
_chemical_formula_structural   Cu7NiC28
_chemical_formula_sum   'Cu28 Ni4 C112'
_cell_volume   1906.75290602
_cell_formula_units_Z   4
loop_
 _symmetry_equiv_pos_site_id
 _symmetry_equiv_pos_as_xyz
  1  'x, y, z'
loop_
 _atom_site_type_symbol
 _atom_site_label
 _atom_site_symmetry_multiplicity
 _atom_site_fract_x
 _atom_site_fract_y
 _atom_site_fract_z
 _atom_site_occupancy
  C  C0  1  0.99540249  0.11071899  0.52357557  1
  C  C1  1  0.98242892  0.12260077  0.02236248  1
  C  C2  1  0.99380205  0.61411534  0.51884210  1
  C  C3  1  0.98734405  0.61445532  0.01847935  1
  C  C4  1  0.54273221  0.13037679  0.47658503  1
  C  C5  1  0.54618067  0.12192508  0.98168526  1
  C  C6  1  0.54556927  0.62884699  0.47979977  1
  C  C7  1  0.54917521  0.62830607  0.97684282  1
  C  C8  1  0.51797092  0.37211106  0.99625491  1
  C  C9  1  0.51687290  0.37307441  0.48218070  1
  C  C10  1  0.52637350  0.87179145  0.98435712  1
  C  C11  1  0.51752649  0.87099011  0.47568767  1
  C  C12  1  0.96038408  0.38375342  0.00946518  1
  C  C13  1  0.95812203  0.38683357  0.51108153  1
  C  C14  1  0.95690709  0.87921454  0.00732299  1
  C  C15  1  0.95378799  0.88046456  0.51514636  1
  C  C16  1  0.24634366  0.39441598  0.25985642  1
  C  C17  1  0.23891013  0.39858869  0.75645861  1
  C  C18  1  0.24387157  0.88496835  0.27968455  1
  C  C19  1  0.23720489  0.89400066  0.75018673  1
  C  C20  1  0.75725058  0.37595254  0.25565112  1
  C  C21  1  0.76516653  0.37792618  0.76462561  1
  C  C22  1  0.74399292  0.86998643  0.25334974  1
  C  C23  1  0.74716220  0.86924316  0.75381349  1
  C  C24  1  0.22631500  0.12576909  0.23910916  1
  C  C25  1  0.22395682  0.11711415  0.73643052  1
  C  C26  1  0.22531663  0.61948271  0.24953500  1
  C  C27  1  0.22594598  0.61832363  0.74132159  1
  C  C28  1  0.77378534  0.11843084  0.25213114  1
  C  C29  1  0.77643780  0.12229573  0.75267798  1
  C  C30  1  0.78009524  0.62232319  0.25509276  1
  C  C31  1  0.78344391  0.62333998  0.75514599  1
  Ni  Ni32  1  0.99278903  0.99227632  0.26874372  1
  Ni  Ni33  1  0.24360152  0.97492281  0.02597157  1
  Ni  Ni34  1  0.26269991  0.24592491  0.94673940  1
  Ni  Ni35  1  0.99454650  0.25299306  0.27875706  1
  Cu  Cu36  1  0.99163223  0.99653159  0.75877871  1
  Cu  Cu37  1  0.99543626  0.49657823  0.26163153  1
  Cu  Cu38  1  0.99777815  0.49724234  0.76016071  1
  Cu  Cu39  1  0.50260264  0.99584057  0.22856952  1
  Cu  Cu40  1  0.50264783  0.98720901  0.72363051  1
  Cu  Cu41  1  0.50532746  0.49498273  0.23307025  1
  Cu  Cu42  1  0.50576217  0.48872361  0.73298902  1
  Cu  Cu43  1  0.24256268  0.00337021  0.51288387  1
  Cu  Cu44  1  0.23640620  0.50982727  0.02351162  1
  Cu  Cu45  1  0.24429240  0.50160460  0.51622775  1
  Cu  Cu46  1  0.74940346  0.00023361  0.99529557  1
  Cu  Cu47  1  0.74053059  0.00196013  0.49869939  1
  Cu  Cu48  1  0.74451789  0.50111220  0.99876039  1
  Cu  Cu49  1  0.74395260  0.50229587  0.50014116  1
  Cu  Cu50  1  0.27090808  0.24662648  0.45711526  1
  Cu  Cu51  1  0.27361643  0.73830260  0.95158123  1
  Cu  Cu52  1  0.27195722  0.74132547  0.46357807  1
  Cu  Cu53  1  0.75430154  0.24701108  0.00381436  1
  Cu  Cu54  1  0.75368198  0.24897751  0.50498162  1
  Cu  Cu55  1  0.75814399  0.74778480  0.00360834  1
  Cu  Cu56  1  0.75545778  0.74797052  0.50368384  1
  Cu  Cu57  1  0.99305505  0.25387463  0.76537623  1
  Cu  Cu58  1  0.99711763  0.75156490  0.26885037  1
  Cu  Cu59  1  0.00148705  0.75497974  0.76608207  1
  Cu  Cu60  1  0.51385597  0.24788116  0.24725627  1
  Cu  Cu61  1  0.50422652  0.25235269  0.75620373  1
  Cu  Cu62  1  0.50758240  0.74530395  0.24530693  1
  Cu  Cu63  1  0.50774637  0.74616922  0.74668852  1
  C  C64  1  0.59337284  0.25139754  0.09339125  1
  C  C65  1  0.55763577  0.25275615  0.59223220  1
  C  C66  1  0.59292892  0.75548024  0.09197034  1
  C  C67  1  0.58807603  0.75746609  0.59123463  1
  C  C68  1  0.39791129  0.18643895  0.34550034  1
  C  C69  1  0.39038786  0.18793026  0.87414130  1
  C  C70  1  0.39881107  0.68119703  0.35346541  1
  C  C71  1  0.40081324  0.67573369  0.84931513  1
  C  C72  1  0.93414409  0.23382697  0.42346330  1
  C  C73  1  0.90326816  0.23818964  0.91926132  1
  C  C74  1  0.90685698  0.73519953  0.42270387  1
  C  C75  1  0.91011405  0.73702031  0.92121777  1
  C  C76  1  0.16273498  0.26020281  0.29690192  1
  C  C77  1  0.17233726  0.25675528  0.80339026  1
  C  C78  1  0.16639454  0.75230363  0.30844092  1
  C  C79  1  0.17479905  0.75615013  0.79334608  1
  C  C80  1  0.66301531  0.22588063  0.35133027  1
  C  C81  1  0.65603012  0.22639620  0.85612586  1
  C  C82  1  0.65818089  0.72880058  0.35319585  1
  C  C83  1  0.65981945  0.72917245  0.85349606  1
  C  C84  1  0.86552527  0.26583781  0.15415917  1
  C  C85  1  0.85510318  0.27296408  0.65344553  1
  C  C86  1  0.85915260  0.77369040  0.15256588  1
  C  C87  1  0.85945871  0.77446868  0.65209863  1
  C  C88  1  0.34655811  0.51297708  0.16217135  1
  C  C89  1  0.35078226  0.51078652  0.66245816  1
  C  C90  1  0.35292193  0.03382750  0.12767159  1
  C  C91  1  0.34695939  0.01291187  0.65605599  1
  C  C92  1  0.84773333  0.48435739  0.14209472  1
  C  C93  1  0.84970809  0.48349365  0.64309972  1
  C  C94  1  0.86483669  0.97932881  0.15697147  1
  C  C95  1  0.83884221  0.98036478  0.64358538  1
  C  C96  1  0.16225922  0.00895697  0.35695757  1
  C  C97  1  0.19656656  0.01206933  0.87805955  1
  C  C98  1  0.15754961  0.50559760  0.36713879  1
  C  C99  1  0.16047156  0.50688447  0.86954805  1
  C  C100  1  0.63897662  0.02379530  0.34746937  1
  C  C101  1  0.62493000  0.02204152  0.83466966  1
  C  C102  1  0.63364485  0.52412366  0.34850437  1
  C  C103  1  0.63492922  0.52152338  0.84272988  1
  C  C104  1  0.89369040  0.01390239  0.40046622  1
  C  C105  1  0.89642595  0.01702174  0.89966908  1
  C  C106  1  0.88779130  0.51821426  0.39718334  1
  C  C107  1  0.88929302  0.51366015  0.89451313  1
  C  C108  1  0.09748050  0.46952713  0.12573250  1
  C  C109  1  0.09922290  0.47407359  0.62509446  1
  C  C110  1  0.10997088  0.96401493  0.11731386  1
  C  C111  1  0.09524342  0.97740724  0.62272400  1
  C  C112  1  0.59150787  0.49779794  0.08320558  1
  C  C113  1  0.58988089  0.49471896  0.58490983  1
  C  C114  1  0.60074374  0.99088226  0.08295457  1
  C  C115  1  0.58450812  0.99502486  0.57540735  1
  C  C116  1  0.97868397  0.37617789  0.30081481  1
  C  C117  1  0.99397829  0.37422020  0.80067147  1
  C  C118  1  0.00242111  0.87432232  0.30625701  1
  C  C119  1  0.00834677  0.87759996  0.80554564  1
  C  C120  1  0.47355810  0.37244109  0.27361494  1
  C  C121  1  0.45806179  0.37816687  0.79641565  1
  C  C122  1  0.46066859  0.87209946  0.27499440  1
  C  C123  1  0.46315517  0.87323626  0.78360448  1
  C  C124  1  0.00237833  0.12397580  0.23382733  1
  C  C125  1  0.00230191  0.12792405  0.73017177  1
  C  C126  1  0.99943796  0.62728587  0.22727119  1
  C  C127  1  0.00155239  0.62983707  0.72852696  1
  C  C128  1  0.18156542  0.17736693  0.04459638  1
  C  C129  1  0.21146293  0.13392778  0.53132291  1
  C  C130  1  0.20578517  0.63644836  0.04020974  1
  C  C131  1  0.21225629  0.63072909  0.53590255  1
  C  C132  1  0.75732808  0.12258226  0.04049617  1
  C  C133  1  0.75355925  0.12566243  0.54157607  1
  C  C134  1  0.75768947  0.62662096  0.03813312  1
  C  C135  1  0.75269057  0.62498245  0.54270957  1
  C  C136  1  0.29931342  0.37821900  0.48627128  1
  C  C137  1  0.29835201  0.35478094  0.00436186  1
  C  C138  1  0.29569336  0.87670345  0.49027419  1
  C  C139  1  0.30456512  0.86537387  0.00641850  1
  C  C140  1  0.74188217  0.37467292  0.46525809  1
  C  C141  1  0.74148815  0.37281268  0.97315032  1
  C  C142  1  0.74087219  0.87617595  0.46341971  1
  C  C143  1  0.74619512  0.87508016  0.96348424  1
