# generated using pymatgen
data_CuNi3C4
_symmetry_space_group_name_H-M   'P 1'
_cell_length_a   3.13255000
_cell_length_b   5.16150700
_cell_length_c   5.81082202
_cell_angle_alpha   89.99576998
_cell_angle_beta   90.00000000
_cell_angle_gamma   90.00000000
_symmetry_Int_Tables_number   1
_chemical_formula_structural   CuNi3C4
_chemical_formula_sum   'Cu1 Ni3 C4'
_cell_volume   93.95331421
_cell_formula_units_Z   1
loop_
 _symmetry_equiv_pos_site_id
 _symmetry_equiv_pos_as_xyz
  1  'x, y, z'
loop_
 _atom_site_type_symbol
 _atom_site_label
 _atom_site_symmetry_multiplicity
 _atom_site_fract_x
 _atom_site_fract_y
 _atom_site_fract_z
 _atom_site_occupancy
  Ni  Ni0  1  0.50000000  0.00631300  0.19331400  1
  Ni  Ni1  1  0.00000000  0.49685100  0.70157100  1
  Ni  Ni2  1  0.00000000  0.99641000  0.80042900  1
  Cu  Cu3  1  0.50000000  0.50510000  0.30531500  1
  C  C4  1  0.50000000  0.68685800  0.93448400  1
  C  C5  1  0.50000000  0.18584800  0.56558300  1
  C  C6  1  0.00000000  0.31200700  0.07381800  1
  C  C7  1  0.00000000  0.81061300  0.42548600  1
