# generated using pymatgen
data_Cu(Ni2C9)2
_symmetry_space_group_name_H-M   'P 1'
_cell_length_a   8.21544379
_cell_length_b   8.68633608
_cell_length_c   7.91020610
_cell_angle_alpha   89.85605741
_cell_angle_beta   82.53012892
_cell_angle_gamma   56.80734748
_symmetry_Int_Tables_number   1
_chemical_formula_structural   Cu(Ni2C9)2
_chemical_formula_sum   'Cu1 Ni4 C18'
_cell_volume   466.76857001
_cell_formula_units_Z   1
loop_
 _symmetry_equiv_pos_site_id
 _symmetry_equiv_pos_as_xyz
  1  'x, y, z'
loop_
 _atom_site_type_symbol
 _atom_site_label
 _atom_site_symmetry_multiplicity
 _atom_site_fract_x
 _atom_site_fract_y
 _atom_site_fract_z
 _atom_site_occupancy
  Ni  Ni0  1  0.12615400  0.60499800  0.29835100  1
  Ni  Ni1  1  0.53475600  0.79415200  0.14675300  1
  Ni  Ni2  1  0.74678200  0.47453800  0.61601600  1
  Ni  Ni3  1  0.63771700  0.18953200  0.00552500  1
  Cu  Cu4  1  0.30826900  0.22892400  0.67560900  1
  C  C5  1  0.67856700  0.10777500  0.44130100  1
  C  C6  1  0.99228800  0.29718900  0.08204100  1
  C  C7  1  0.25660300  0.89438100  0.62239400  1
  C  C8  1  0.08861100  0.68266300  0.83715300  1
  C  C9  1  0.61551900  0.16328600  0.66366300  1
  C  C10  1  0.80667200  0.40308500  0.96539500  1
  C  C11  1  0.36016600  0.72364600  0.47109200  1
  C  C12  1  0.29787800  0.58575400  0.91272600  1
  C  C13  1  0.44132900  0.24320900  0.38821400  1
  C  C14  1  0.92079700  0.43179900  0.26314000  1
  C  C15  1  0.40888000  0.87889200  0.74908300  1
  C  C16  1  0.09265000  0.55690500  0.67666100  1
  C  C17  1  0.72932600  0.89151200  0.41161800  1
  C  C18  1  0.19251900  0.28349300  0.97005300  1
  C  C19  1  0.13601200  0.10597500  0.55836400  1
  C  C20  1  0.88752000  0.78007400  0.97837200  1
  C  C21  1  0.04654600  0.08658200  0.11701100  1
  C  C22  1  0.05277200  0.89163900  0.74113300  1
