# generated using pymatgen
data_Cu3Ni5C13
_symmetry_space_group_name_H-M   'P 1'
_cell_length_a   12.20604140
_cell_length_b   12.20604140
_cell_length_c   12.20604142
_cell_angle_alpha   93.61782943
_cell_angle_beta   93.61782943
_cell_angle_gamma   93.61782674
_symmetry_Int_Tables_number   1
_chemical_formula_structural   Cu3Ni5C13
_chemical_formula_sum   'Cu18 Ni30 C78'
_cell_volume   1807.19310207
_cell_formula_units_Z   6
loop_
 _symmetry_equiv_pos_site_id
 _symmetry_equiv_pos_as_xyz
  1  'x, y, z'
loop_
 _atom_site_type_symbol
 _atom_site_label
 _atom_site_symmetry_multiplicity
 _atom_site_fract_x
 _atom_site_fract_y
 _atom_site_fract_z
 _atom_site_occupancy
  Ni  Ni0  1  0.16744100  0.50117500  0.83205600  1
  Ni  Ni1  1  0.83205600  0.16744100  0.50117500  1
  Ni  Ni2  1  0.50117500  0.83205600  0.16744100  1
  Ni  Ni3  1  0.33541800  0.00023700  0.66499500  1
  Ni  Ni4  1  0.00023700  0.66499500  0.33541800  1
  Ni  Ni5  1  0.66499500  0.33541800  0.00023700  1
  Ni  Ni6  1  0.49882500  0.16794400  0.83255900  1
  Ni  Ni7  1  0.16794400  0.83255900  0.49882500  1
  Ni  Ni8  1  0.83255900  0.49882500  0.16794400  1
  Ni  Ni9  1  0.33500500  0.66458200  0.99976300  1
  Ni  Ni10  1  0.99976300  0.33500500  0.66458200  1
  Ni  Ni11  1  0.66458200  0.99976300  0.33500500  1
  Ni  Ni12  1  0.40900600  0.68749200  0.65097700  1
  Ni  Ni13  1  0.09740900  0.34240900  0.31147600  1
  Ni  Ni14  1  0.74356700  0.02193700  0.98608300  1
  Ni  Ni15  1  0.02193700  0.98608300  0.74356700  1
  Ni  Ni16  1  0.68749200  0.65097700  0.40900600  1
  Ni  Ni17  1  0.34240900  0.31147600  0.09740900  1
  Ni  Ni18  1  0.31147600  0.09740900  0.34240900  1
  Ni  Ni19  1  0.98608300  0.74356700  0.02193700  1
  Ni  Ni20  1  0.65097700  0.40900600  0.68749200  1
  Ni  Ni21  1  0.59099400  0.31250800  0.34902300  1
  Ni  Ni22  1  0.25643300  0.97806300  0.01391700  1
  Ni  Ni23  1  0.90259100  0.65759100  0.68852400  1
  Ni  Ni24  1  0.97806300  0.01391700  0.25643300  1
  Ni  Ni25  1  0.65759100  0.68852400  0.90259100  1
  Ni  Ni26  1  0.31250800  0.34902300  0.59099400  1
  Ni  Ni27  1  0.68852400  0.90259100  0.65759100  1
  Ni  Ni28  1  0.34902300  0.59099400  0.31250800  1
  Ni  Ni29  1  0.01391700  0.25643300  0.97806300  1
  Cu  Cu30  1  0.77413700  0.17616900  0.79670100  1
  Cu  Cu31  1  0.44108700  0.84704800  0.46468800  1
  Cu  Cu32  1  0.10778000  0.51107500  0.13090900  1
  Cu  Cu33  1  0.51107500  0.13090900  0.10778000  1
  Cu  Cu34  1  0.17616900  0.79670100  0.77413700  1
  Cu  Cu35  1  0.84704800  0.46468800  0.44108700  1
  Cu  Cu36  1  0.46468800  0.44108700  0.84704800  1
  Cu  Cu37  1  0.13090900  0.10778000  0.51107500  1
  Cu  Cu38  1  0.79670100  0.77413700  0.17616900  1
  Cu  Cu39  1  0.89222000  0.48892500  0.86909100  1
  Cu  Cu40  1  0.55891300  0.15295200  0.53531200  1
  Cu  Cu41  1  0.22586300  0.82383100  0.20329900  1
  Cu  Cu42  1  0.15295200  0.53531200  0.55891300  1
  Cu  Cu43  1  0.82383100  0.20329900  0.22586300  1
  Cu  Cu44  1  0.48892500  0.86909100  0.89222000  1
  Cu  Cu45  1  0.20329900  0.22586300  0.82383100  1
  Cu  Cu46  1  0.86909100  0.89222000  0.48892500  1
  Cu  Cu47  1  0.53531200  0.55891300  0.15295200  1
  C  C48  1  0.90814600  0.90814600  0.90814600  1
  C  C49  1  0.59198900  0.59198900  0.59198900  1
  C  C50  1  0.40801100  0.40801100  0.40801100  1
  C  C51  1  0.09185400  0.09185400  0.09185400  1
  C  C52  1  0.18572200  0.53965700  0.02387900  1
  C  C53  1  0.85381700  0.20607600  0.69118200  1
  C  C54  1  0.52059000  0.87154200  0.35748400  1
  C  C55  1  0.20607600  0.69118200  0.85381700  1
  C  C56  1  0.87154200  0.35748400  0.52059000  1
  C  C57  1  0.53965700  0.02387900  0.18572200  1
  C  C58  1  0.35748400  0.52059000  0.87154200  1
  C  C59  1  0.02387900  0.18572200  0.53965700  1
  C  C60  1  0.69118200  0.85381700  0.20607600  1
  C  C61  1  0.47941000  0.12845800  0.64251600  1
  C  C62  1  0.14618300  0.79392400  0.30881800  1
  C  C63  1  0.81427800  0.46034300  0.97612100  1
  C  C64  1  0.46034300  0.97612100  0.81427800  1
  C  C65  1  0.12845800  0.64251600  0.47941000  1
  C  C66  1  0.79392400  0.30881800  0.14618300  1
  C  C67  1  0.30881800  0.14618300  0.79392400  1
  C  C68  1  0.97612100  0.81427800  0.46034300  1
  C  C69  1  0.64251600  0.47941000  0.12845800  1
  C  C70  1  0.70672700  0.04672100  0.78848900  1
  C  C71  1  0.37417000  0.71662900  0.45645200  1
  C  C72  1  0.04232400  0.38065100  0.12328300  1
  C  C73  1  0.38065100  0.12328300  0.04232400  1
  C  C74  1  0.04672100  0.78848900  0.70672700  1
  C  C75  1  0.71662900  0.45645200  0.37417000  1
  C  C76  1  0.45645200  0.37417000  0.71662900  1
  C  C77  1  0.12328300  0.04232400  0.38065100  1
  C  C78  1  0.78848900  0.70672700  0.04672100  1
  C  C79  1  0.82172900  0.48347600  0.74114300  1
  C  C80  1  0.48879000  0.14748000  0.40682400  1
  C  C81  1  0.15674500  0.81564000  0.07445600  1
  C  C82  1  0.14748000  0.40682400  0.48879000  1
  C  C83  1  0.81564000  0.07445600  0.15674500  1
  C  C84  1  0.48347600  0.74114300  0.82172900  1
  C  C85  1  0.07445600  0.15674500  0.81564000  1
  C  C86  1  0.74114300  0.82172900  0.48347600  1
  C  C87  1  0.40682400  0.48879000  0.14748000  1
  C  C88  1  0.95767600  0.61934900  0.87671700  1
  C  C89  1  0.62583000  0.28337100  0.54354800  1
  C  C90  1  0.29327300  0.95327900  0.21151100  1
  C  C91  1  0.28337100  0.54354800  0.62583000  1
  C  C92  1  0.95327900  0.21151100  0.29327300  1
  C  C93  1  0.61934900  0.87671700  0.95767600  1
  C  C94  1  0.21151100  0.29327300  0.95327900  1
  C  C95  1  0.87671700  0.95767600  0.61934900  1
  C  C96  1  0.54354800  0.62583000  0.28337100  1
  C  C97  1  0.84325500  0.18436000  0.92554400  1
  C  C98  1  0.51121000  0.85252000  0.59317600  1
  C  C99  1  0.17827100  0.51652400  0.25885700  1
  C  C100  1  0.51652400  0.25885700  0.17827100  1
  C  C101  1  0.18436000  0.92554400  0.84325500  1
  C  C102  1  0.85252000  0.59317600  0.51121000  1
  C  C103  1  0.59317600  0.51121000  0.85252000  1
  C  C104  1  0.25885700  0.17827100  0.51652400  1
  C  C105  1  0.92554400  0.84325500  0.18436000  1
  C  C106  1  0.67074900  0.26845800  0.81026400  1
  C  C107  1  0.33704100  0.93819400  0.47550600  1
  C  C108  1  0.00374200  0.60212600  0.14375400  1
  C  C109  1  0.60212600  0.14375400  0.00374200  1
  C  C110  1  0.26845800  0.81026400  0.67074900  1
  C  C111  1  0.93819400  0.47550600  0.33704100  1
  C  C112  1  0.47550600  0.33704100  0.93819400  1
  C  C113  1  0.14375400  0.00374200  0.60212600  1
  C  C114  1  0.81026400  0.67074900  0.26845800  1
  C  C115  1  0.99625800  0.39787400  0.85624600  1
  C  C116  1  0.66295900  0.06180600  0.52449400  1
  C  C117  1  0.32925100  0.73154200  0.18973600  1
  C  C118  1  0.06180600  0.52449400  0.66295900  1
  C  C119  1  0.73154200  0.18973600  0.32925100  1
  C  C120  1  0.39787400  0.85624600  0.99625800  1
  C  C121  1  0.18973600  0.32925100  0.73154200  1
  C  C122  1  0.85624600  0.99625800  0.39787400  1
  C  C123  1  0.52449400  0.66295900  0.06180600  1
  C  C124  1  0.24999700  0.24999700  0.24999700  1
  C  C125  1  0.75000300  0.75000300  0.75000300  1
