# generated using pymatgen
data_Cu5(NiC)8
_symmetry_space_group_name_H-M   'P 1'
_cell_length_a   17.11739400
_cell_length_b   6.83604300
_cell_length_c   7.71591871
_cell_angle_alpha   76.01102524
_cell_angle_beta   90.00000000
_cell_angle_gamma   90.00000000
_symmetry_Int_Tables_number   1
_chemical_formula_structural   Cu5(NiC)8
_chemical_formula_sum   'Cu10 Ni16 C16'
_cell_volume   876.10270785
_cell_formula_units_Z   2
loop_
 _symmetry_equiv_pos_site_id
 _symmetry_equiv_pos_as_xyz
  1  'x, y, z'
loop_
 _atom_site_type_symbol
 _atom_site_label
 _atom_site_symmetry_multiplicity
 _atom_site_fract_x
 _atom_site_fract_y
 _atom_site_fract_z
 _atom_site_occupancy
  C  C0  1  0.07034200  0.87633400  0.15070700  1
  C  C1  1  0.57034200  0.62366600  0.84929300  1
  C  C2  1  0.92965800  0.12366600  0.84929300  1
  C  C3  1  0.42965800  0.37633400  0.15070700  1
  C  C4  1  0.95136300  0.38328000  0.22506600  1
  C  C5  1  0.45136300  0.11672000  0.77493400  1
  C  C6  1  0.04863700  0.61672000  0.77493400  1
  C  C7  1  0.54863700  0.88328000  0.22506600  1
  C  C8  1  0.19514200  0.37593800  0.07435800  1
  C  C9  1  0.69514200  0.12406200  0.92564200  1
  C  C10  1  0.80485800  0.62406200  0.92564200  1
  C  C11  1  0.30485800  0.87593800  0.07435800  1
  C  C12  1  0.17332000  0.10348300  0.70087900  1
  C  C13  1  0.67332000  0.39651700  0.29912100  1
  C  C14  1  0.82668000  0.89651700  0.29912100  1
  C  C15  1  0.32668000  0.60348300  0.70087900  1
  Ni  Ni16  1  0.03827300  0.27675100  0.02121500  1
  Ni  Ni17  1  0.53827300  0.22324900  0.97878500  1
  Ni  Ni18  1  0.96172700  0.72324900  0.97878500  1
  Ni  Ni19  1  0.46172700  0.77675100  0.02121500  1
  Ni  Ni20  1  0.16006600  0.76447000  0.95208900  1
  Ni  Ni21  1  0.66006600  0.73553000  0.04791100  1
  Ni  Ni22  1  0.83993400  0.23553000  0.04791100  1
  Ni  Ni23  1  0.33993400  0.26447000  0.95208900  1
  Ni  Ni24  1  0.08538000  0.22133100  0.90200600  1
  Ni  Ni25  1  0.58538000  0.27866900  0.09799400  1
  Ni  Ni26  1  0.91462000  0.77866900  0.09799400  1
  Ni  Ni27  1  0.41462000  0.72133100  0.90200600  1
  Ni  Ni28  1  0.28502300  0.21813000  0.84243800  1
  Ni  Ni29  1  0.78502300  0.28187000  0.15756200  1
  Ni  Ni30  1  0.71497700  0.78187000  0.15756200  1
  Ni  Ni31  1  0.21497700  0.71813000  0.84243800  1
  Cu  Cu32  1  0.20263400  0.98353400  0.34970500  1
  Cu  Cu33  1  0.70263400  0.51646600  0.65029500  1
  Cu  Cu34  1  0.79736600  0.01646600  0.65029500  1
  Cu  Cu35  1  0.29736600  0.48353400  0.34970500  1
  Cu  Cu36  1  0.09660400  0.48170900  0.41471100  1
  Cu  Cu37  1  0.59660400  0.01829100  0.58528900  1
  Cu  Cu38  1  0.90339600  0.51829100  0.58528900  1
  Cu  Cu39  1  0.40339600  0.98170900  0.41471100  1
  Cu  Cu40  1  0.00000000  0.00000000  0.50000000  1
  Cu  Cu41  1  0.50000000  0.50000000  0.50000000  1
