# generated using pymatgen
data_Cu3NiC11
_symmetry_space_group_name_H-M   'P 1'
_cell_length_a   6.99269500
_cell_length_b   8.17810900
_cell_length_c   9.55342500
_cell_angle_alpha   90.00000000
_cell_angle_beta   90.00000000
_cell_angle_gamma   90.00000000
_symmetry_Int_Tables_number   1
_chemical_formula_structural   Cu3NiC11
_chemical_formula_sum   'Cu6 Ni2 C22'
_cell_volume   546.33192483
_cell_formula_units_Z   2
loop_
 _symmetry_equiv_pos_site_id
 _symmetry_equiv_pos_as_xyz
  1  'x, y, z'
loop_
 _atom_site_type_symbol
 _atom_site_label
 _atom_site_symmetry_multiplicity
 _atom_site_fract_x
 _atom_site_fract_y
 _atom_site_fract_z
 _atom_site_occupancy
  Ni  Ni0  1  0.67865300  0.50000000  0.50000000  1
  Ni  Ni1  1  0.32134700  0.00000000  0.00000000  1
  Cu  Cu2  1  0.00000000  0.25000000  0.75000000  1
  Cu  Cu3  1  0.00000000  0.25000000  0.25000000  1
  Cu  Cu4  1  0.00000000  0.75000000  0.75000000  1
  Cu  Cu5  1  0.85031100  0.00000000  0.00000000  1
  Cu  Cu6  1  0.14968900  0.50000000  0.50000000  1
  Cu  Cu7  1  0.00000000  0.75000000  0.25000000  1
  C  C8  1  0.54581700  0.00000000  0.69037200  1
  C  C9  1  0.45418300  0.50000000  0.80962800  1
  C  C10  1  0.54581700  0.00000000  0.30962800  1
  C  C11  1  0.45418300  0.50000000  0.19037200  1
  C  C12  1  0.92089900  0.50000000  0.00000000  1
  C  C13  1  0.07910100  0.00000000  0.50000000  1
  C  C14  1  0.86007400  0.50000000  0.63985300  1
  C  C15  1  0.47392900  0.50000000  0.62334700  1
  C  C16  1  0.52607100  0.00000000  0.12334700  1
  C  C17  1  0.69204800  0.16570600  0.66965200  1
  C  C18  1  0.30795200  0.33429400  0.16965200  1
  C  C19  1  0.30795200  0.66570600  0.16965200  1
  C  C20  1  0.13992600  0.00000000  0.86014700  1
  C  C21  1  0.69204800  0.83429400  0.66965200  1
  C  C22  1  0.69204800  0.83429400  0.33034800  1
  C  C23  1  0.30795200  0.66570600  0.83034800  1
  C  C24  1  0.86007400  0.50000000  0.36014700  1
  C  C25  1  0.13992600  0.00000000  0.13985300  1
  C  C26  1  0.30795200  0.33429400  0.83034800  1
  C  C27  1  0.69204800  0.16570600  0.33034800  1
  C  C28  1  0.52607100  0.00000000  0.87665300  1
  C  C29  1  0.47392900  0.50000000  0.37665300  1
