# generated using pymatgen
data_Cu2Ni13C32
_symmetry_space_group_name_H-M   'P 1'
_cell_length_a   6.71452800
_cell_length_b   6.71452800
_cell_length_c   9.45081300
_cell_angle_alpha   90.00000000
_cell_angle_beta   90.00000000
_cell_angle_gamma   90.00000000
_symmetry_Int_Tables_number   1
_chemical_formula_structural   Cu2Ni13C32
_chemical_formula_sum   'Cu2 Ni13 C32'
_cell_volume   426.08882920
_cell_formula_units_Z   1
loop_
 _symmetry_equiv_pos_site_id
 _symmetry_equiv_pos_as_xyz
  1  'x, y, z'
loop_
 _atom_site_type_symbol
 _atom_site_label
 _atom_site_symmetry_multiplicity
 _atom_site_fract_x
 _atom_site_fract_y
 _atom_site_fract_z
 _atom_site_occupancy
  Ni  Ni0  1  0.00000000  0.50000000  0.50000000  1
  Ni  Ni1  1  0.50000000  0.00000000  0.00000000  1
  Ni  Ni2  1  0.74456300  0.25543700  0.24369200  1
  Ni  Ni3  1  0.25543700  0.74456300  0.75630800  1
  Ni  Ni4  1  0.74456300  0.74456300  0.24369200  1
  Ni  Ni5  1  0.25543700  0.25543700  0.75630800  1
  Ni  Ni6  1  0.50000000  0.00000000  0.50000000  1
  Ni  Ni7  1  0.00000000  0.50000000  0.00000000  1
  Ni  Ni8  1  0.25543700  0.74456300  0.24369200  1
  Ni  Ni9  1  0.74456300  0.25543700  0.75630800  1
  Ni  Ni10  1  0.74456300  0.74456300  0.75630800  1
  Ni  Ni11  1  0.25543700  0.25543700  0.24369200  1
  Ni  Ni12  1  0.00000000  0.00000000  0.50000000  1
  Cu  Cu13  1  0.00000000  0.00000000  0.00000000  1
  Cu  Cu14  1  0.50000000  0.50000000  0.50000000  1
  C  C15  1  0.74245200  0.00000000  0.63044300  1
  C  C16  1  0.22029200  0.50000000  0.13696700  1
  C  C17  1  0.00000000  0.25754800  0.36955700  1
  C  C18  1  0.50000000  0.77970800  0.86303300  1
  C  C19  1  0.00000000  0.74245200  0.36955700  1
  C  C20  1  0.50000000  0.22029200  0.86303300  1
  C  C21  1  0.25754800  0.00000000  0.63044300  1
  C  C22  1  0.77970800  0.50000000  0.13696700  1
  C  C23  1  0.25754800  0.00000000  0.36955700  1
  C  C24  1  0.77970800  0.50000000  0.86303300  1
  C  C25  1  0.00000000  0.74245200  0.63044300  1
  C  C26  1  0.50000000  0.22029200  0.13696700  1
  C  C27  1  0.00000000  0.25754800  0.63044300  1
  C  C28  1  0.50000000  0.77970800  0.13696700  1
  C  C29  1  0.74245200  0.00000000  0.36955700  1
  C  C30  1  0.22029200  0.50000000  0.86303300  1
  C  C31  1  0.23313800  0.00000000  0.88119900  1
  C  C32  1  0.73787900  0.50000000  0.38270700  1
  C  C33  1  0.50000000  0.26212100  0.61729300  1
  C  C34  1  0.00000000  0.76686200  0.11880100  1
  C  C35  1  0.50000000  0.73787900  0.61729300  1
  C  C36  1  0.00000000  0.23313800  0.11880100  1
  C  C37  1  0.76686200  0.00000000  0.88119900  1
  C  C38  1  0.26212100  0.50000000  0.38270700  1
  C  C39  1  0.76686200  0.00000000  0.11880100  1
  C  C40  1  0.26212100  0.50000000  0.61729300  1
  C  C41  1  0.50000000  0.73787900  0.38270700  1
  C  C42  1  0.00000000  0.23313800  0.88119900  1
  C  C43  1  0.50000000  0.26212100  0.38270700  1
  C  C44  1  0.00000000  0.76686200  0.88119900  1
  C  C45  1  0.23313800  0.00000000  0.11880100  1
  C  C46  1  0.73787900  0.50000000  0.61729300  1
