# generated using pymatgen
data_Cu2NiC18
_symmetry_space_group_name_H-M   'P 1'
_cell_length_a   8.91937606
_cell_length_b   8.91887705
_cell_length_c   8.62414162
_cell_angle_alpha   58.05015573
_cell_angle_beta   121.95189612
_cell_angle_gamma   119.33195005
_symmetry_Int_Tables_number   1
_chemical_formula_structural   Cu2NiC18
_chemical_formula_sum   'Cu4 Ni2 C36'
_cell_volume   472.48906373
_cell_formula_units_Z   2
loop_
 _symmetry_equiv_pos_site_id
 _symmetry_equiv_pos_as_xyz
  1  'x, y, z'
loop_
 _atom_site_type_symbol
 _atom_site_label
 _atom_site_symmetry_multiplicity
 _atom_site_fract_x
 _atom_site_fract_y
 _atom_site_fract_z
 _atom_site_occupancy
  C  C0  1  0.23198000  0.80938900  0.81001600  1
  C  C1  1  0.19071500  0.76804800  0.31015700  1
  C  C2  1  0.94294300  0.52698800  0.99457800  1
  C  C3  1  0.57857800  0.76551900  0.58552500  1
  C  C4  1  0.23495500  0.42193000  0.08549600  1
  C  C5  1  0.83945500  0.23092200  0.74313000  1
  C  C6  1  0.47302700  0.05717500  0.49438800  1
  C  C7  1  0.76892400  0.16052900  0.24313200  1
  C  C8  1  0.63886300  0.85036700  0.92619300  1
  C  C9  1  0.14983900  0.36107100  0.42606400  1
  C  C10  1  0.86703500  0.63005200  0.58556600  1
  C  C11  1  0.36954400  0.13297100  0.08522400  1
  Ni  Ni12  1  0.26566000  0.54869600  0.74114000  1
  Ni  Ni13  1  0.45141700  0.73440900  0.24125200  1
  Cu  Cu14  1  0.96724700  0.95715100  0.75098100  1
  Cu  Cu15  1  0.56655200  0.25144000  0.77698900  1
  Cu  Cu16  1  0.04272600  0.03272100  0.25099300  1
  Cu  Cu17  1  0.74850300  0.43342000  0.27694700  1
  C  C18  1  0.12888600  0.99550100  0.93207300  1
  C  C19  1  0.00451000  0.87114900  0.43219200  1
  C  C20  1  0.11394600  0.57489500  0.77454400  1
  C  C21  1  0.43572800  0.74530000  0.72082100  1
  C  C22  1  0.31304600  0.36819400  0.93809200  1
  C  C23  1  0.19252200  0.52983800  0.53250200  1
  C  C24  1  0.77796600  0.93479700  0.74096700  1
  C  C25  1  0.42515000  0.88609400  0.27457200  1
  C  C26  1  0.25477800  0.56436000  0.22075700  1
  C  C27  1  0.63190900  0.68689800  0.43813900  1
  C  C28  1  0.47016600  0.80749300  0.03256200  1
  C  C29  1  0.96181800  0.76924500  0.77258200  1
  C  C30  1  0.06542500  0.22226500  0.24082600  1
  C  C31  1  0.55927900  0.17742400  0.98113600  1
  C  C32  1  0.40028600  0.31643000  0.61295800  1
  C  C33  1  0.75897900  0.40374200  0.78825700  1
  C  C34  1  0.57752400  0.10595100  0.73407100  1
  C  C35  1  0.23034800  0.03787600  0.27227600  1
  C  C36  1  0.82237600  0.44043900  0.48126500  1
  C  C37  1  0.68366500  0.59979100  0.11297600  1
  C  C38  1  0.59611300  0.24102800  0.28809100  1
  C  C39  1  0.89401900  0.42226600  0.23417600  1
  C  C40  1  0.98876300  0.11474000  0.55819600  1
  C  C41  1  0.88483600  0.01148300  0.05819000  1
