# generated using pymatgen
data_Cu(Ni3C)8
_symmetry_space_group_name_H-M   'P 1'
_cell_length_a   8.51420000
_cell_length_b   8.51420000
_cell_length_c   8.51420000
_cell_angle_alpha   90.00000000
_cell_angle_beta   90.00000000
_cell_angle_gamma   90.00000000
_symmetry_Int_Tables_number   1
_chemical_formula_structural   Cu(Ni3C)8
_chemical_formula_sum   'Cu1 Ni24 C8'
_cell_volume   617.20799468
_cell_formula_units_Z   1
loop_
 _symmetry_equiv_pos_site_id
 _symmetry_equiv_pos_as_xyz
  1  'x, y, z'
loop_
 _atom_site_type_symbol
 _atom_site_label
 _atom_site_symmetry_multiplicity
 _atom_site_fract_x
 _atom_site_fract_y
 _atom_site_fract_z
 _atom_site_occupancy
  C  C0  1  0.24786200  0.24786200  0.24786200  1
  C  C1  1  0.75213800  0.75213800  0.75213800  1
  C  C2  1  0.75213800  0.75213800  0.24786200  1
  C  C3  1  0.75213800  0.24786200  0.75213800  1
  C  C4  1  0.24786200  0.24786200  0.75213800  1
  C  C5  1  0.24786200  0.75213800  0.24786200  1
  C  C6  1  0.24786200  0.75213800  0.75213800  1
  C  C7  1  0.75213800  0.24786200  0.24786200  1
  Ni  Ni8  1  0.26758400  0.50000000  0.00000000  1
  Ni  Ni9  1  0.73241600  0.50000000  0.00000000  1
  Ni  Ni10  1  0.00000000  0.26758400  0.50000000  1
  Ni  Ni11  1  0.50000000  0.26758400  0.00000000  1
  Ni  Ni12  1  0.00000000  0.73241600  0.50000000  1
  Ni  Ni13  1  0.50000000  0.73241600  0.00000000  1
  Ni  Ni14  1  0.50000000  0.00000000  0.26758400  1
  Ni  Ni15  1  0.26758400  0.00000000  0.50000000  1
  Ni  Ni16  1  0.50000000  0.00000000  0.73241600  1
  Ni  Ni17  1  0.73241600  0.00000000  0.50000000  1
  Ni  Ni18  1  0.00000000  0.50000000  0.26758400  1
  Ni  Ni19  1  0.00000000  0.50000000  0.73241600  1
  Ni  Ni20  1  0.25471500  0.50000000  0.50000000  1
  Ni  Ni21  1  0.74528500  0.50000000  0.50000000  1
  Ni  Ni22  1  0.50000000  0.25471500  0.50000000  1
  Ni  Ni23  1  0.50000000  0.74528500  0.50000000  1
  Ni  Ni24  1  0.50000000  0.50000000  0.25471500  1
  Ni  Ni25  1  0.50000000  0.50000000  0.74528500  1
  Ni  Ni26  1  0.32227300  0.00000000  0.00000000  1
  Ni  Ni27  1  0.67772700  0.00000000  0.00000000  1
  Ni  Ni28  1  0.00000000  0.32227300  0.00000000  1
  Ni  Ni29  1  0.00000000  0.67772700  0.00000000  1
  Ni  Ni30  1  0.00000000  0.00000000  0.32227300  1
  Ni  Ni31  1  0.00000000  0.00000000  0.67772700  1
  Cu  Cu32  1  0.00000000  0.00000000  0.00000000  1
