# generated using pymatgen
data_Cu(Ni2C17)2
_symmetry_space_group_name_H-M   'P 1'
_cell_length_a   7.59795181
_cell_length_b   7.59795181
_cell_length_c   15.19483763
_cell_angle_alpha   89.37204547
_cell_angle_beta   89.37204547
_cell_angle_gamma   42.22358031
_symmetry_Int_Tables_number   1
_chemical_formula_structural   Cu(Ni2C17)2
_chemical_formula_sum   'Cu1 Ni4 C34'
_cell_volume   589.44712972
_cell_formula_units_Z   1
loop_
 _symmetry_equiv_pos_site_id
 _symmetry_equiv_pos_as_xyz
  1  'x, y, z'
loop_
 _atom_site_type_symbol
 _atom_site_label
 _atom_site_symmetry_multiplicity
 _atom_site_fract_x
 _atom_site_fract_y
 _atom_site_fract_z
 _atom_site_occupancy
  Ni  Ni0  1  0.75468800  0.87562500  0.38359700  1
  Ni  Ni1  1  0.87857500  0.73958700  0.86548900  1
  Ni  Ni2  1  0.26041300  0.12142500  0.13451100  1
  Ni  Ni3  1  0.12437500  0.24531200  0.61640300  1
  Cu  Cu4  1  0.59047600  0.40952400  0.00000000  1
  C  C5  1  0.86127100  0.90015800  0.61993800  1
  C  C6  1  0.15069500  0.08997600  0.87716500  1
  C  C7  1  0.91002400  0.84930500  0.12283500  1
  C  C8  1  0.09984200  0.13872900  0.38006200  1
  C  C9  1  0.49787100  0.50119600  0.75052700  1
  C  C10  1  0.49880400  0.50212900  0.24947300  1
  C  C11  1  0.93939000  0.07829100  0.09532300  1
  C  C12  1  0.61494200  0.10946300  0.20291300  1
  C  C13  1  0.38188300  0.88400200  0.29059600  1
  C  C14  1  0.14289400  0.34925000  0.33313200  1
  C  C15  1  0.49729800  0.39812700  0.35393100  1
  C  C16  1  0.60187300  0.50270200  0.64606900  1
  C  C17  1  0.11599800  0.61811700  0.70940400  1
  C  C18  1  0.92170900  0.06061000  0.90467700  1
  C  C19  1  0.01679200  0.63187200  0.53311300  1
  C  C20  1  0.85431500  0.64562000  0.14913000  1
  C  C21  1  0.58594900  0.15509600  0.54145200  1
  C  C22  1  0.65075000  0.85710600  0.66686800  1
  C  C23  1  0.18566600  0.58256700  0.03903300  1
  C  C24  1  0.41743300  0.81433400  0.96096700  1
  C  C25  1  0.39471600  0.50161600  0.86088600  1
  C  C26  1  0.96723300  0.35083500  0.97360700  1
  C  C27  1  0.31128200  0.84900100  0.77170800  1
  C  C28  1  0.04969000  0.93667700  0.39882500  1
  C  C29  1  0.68879500  0.15594400  0.73331400  1
  C  C30  1  0.84405600  0.31120500  0.26668600  1
  C  C31  1  0.89053700  0.38505800  0.79708700  1
  C  C32  1  0.84490400  0.41405100  0.45854800  1
  C  C33  1  0.64916500  0.03276700  0.02639300  1
  C  C34  1  0.15099900  0.68871800  0.22829200  1
  C  C35  1  0.49838400  0.60528400  0.13911400  1
  C  C36  1  0.06332300  0.95031000  0.60117500  1
  C  C37  1  0.36812800  0.98320800  0.46688700  1
  C  C38  1  0.35438000  0.14568500  0.85087000  1
