# generated using pymatgen
data_Cu3Ni2C13
_symmetry_space_group_name_H-M   'P 1'
_cell_length_a   5.34707853
_cell_length_b   5.34707853
_cell_length_c   7.47099900
_cell_angle_alpha   90.00000000
_cell_angle_beta   90.00000000
_cell_angle_gamma   120.00000660
_symmetry_Int_Tables_number   1
_chemical_formula_structural   Cu3Ni2C13
_chemical_formula_sum   'Cu3 Ni2 C13'
_cell_volume   184.98750993
_cell_formula_units_Z   1
loop_
 _symmetry_equiv_pos_site_id
 _symmetry_equiv_pos_as_xyz
  1  'x, y, z'
loop_
 _atom_site_type_symbol
 _atom_site_label
 _atom_site_symmetry_multiplicity
 _atom_site_fract_x
 _atom_site_fract_y
 _atom_site_fract_z
 _atom_site_occupancy
  Ni  Ni0  1  0.33333300  0.66666700  0.10345600  1
  Ni  Ni1  1  0.66666700  0.33333300  0.10345600  1
  Cu  Cu2  1  0.33233600  0.00000000  0.72966100  1
  Cu  Cu3  1  0.00000000  0.33233600  0.72966100  1
  Cu  Cu4  1  0.66766400  0.66766400  0.72966100  1
  C  C5  1  0.64974900  0.00000000  0.46834700  1
  C  C6  1  0.00000000  0.64974900  0.46834700  1
  C  C7  1  0.35025100  0.35025100  0.46834700  1
  C  C8  1  0.00000000  0.00000000  0.99998200  1
  C  C9  1  0.33333300  0.66666700  0.88756400  1
  C  C10  1  0.66666700  0.33333300  0.88756400  1
  C  C11  1  0.66312000  0.00000000  0.59828700  1
  C  C12  1  0.00000000  0.66312000  0.59828700  1
  C  C13  1  0.33688000  0.33688000  0.59828700  1
  C  C14  1  0.48641200  0.48641200  0.18547200  1
  C  C15  1  0.51358800  0.00000000  0.18547200  1
  C  C16  1  0.00000000  0.51358800  0.18547200  1
  C  C17  1  0.00000000  0.00000000  0.87004700  1
