# generated using pymatgen
data_CuNiC8
_symmetry_space_group_name_H-M   'P 1'
_cell_length_a   5.82785007
_cell_length_b   5.84652405
_cell_length_c   7.90994398
_cell_angle_alpha   90.50698688
_cell_angle_beta   89.47396636
_cell_angle_gamma   86.80953663
_symmetry_Int_Tables_number   1
_chemical_formula_structural   CuNiC8
_chemical_formula_sum   'Cu2 Ni2 C16'
_cell_volume   269.07197791
_cell_formula_units_Z   2
loop_
 _symmetry_equiv_pos_site_id
 _symmetry_equiv_pos_as_xyz
  1  'x, y, z'
loop_
 _atom_site_type_symbol
 _atom_site_label
 _atom_site_symmetry_multiplicity
 _atom_site_fract_x
 _atom_site_fract_y
 _atom_site_fract_z
 _atom_site_occupancy
  C  C0  1  0.49953213  0.53095511  0.25071477  1
  C  C1  1  0.50046787  0.46904489  0.74928523  1
  Ni  Ni2  1  0.00000000  0.50000000  -0.00000000  1
  Ni  Ni3  1  0.50000000  0.00000000  0.50000000  1
  Cu  Cu4  1  0.50000000  0.00000000  -0.00000000  1
  Cu  Cu5  1  0.00000000  0.50000000  0.50000000  1
  C  C6  1  0.98018991  -0.00200620  0.24980495  1
  C  C7  1  0.01981009  0.00200620  0.75019505  1
  C  C8  1  0.21626712  0.21054388  0.94953860  1
  C  C9  1  0.27694345  0.68874586  0.54058692  1
  C  C10  1  0.78373288  0.78945612  0.05046140  1
  C  C11  1  0.72305655  0.31125414  0.45941308  1
  C  C12  1  0.31606632  0.72251013  0.95987014  1
  C  C13  1  0.21223157  0.21179045  0.55032873  1
  C  C14  1  0.68393368  0.27748987  0.04012986  1
  C  C15  1  0.78776843  0.78820955  0.44967127  1
  C  C16  1  0.42148045  0.98569061  0.25399183  1
  C  C17  1  0.08689385  0.49376321  0.25114888  1
  C  C18  1  0.57851955  0.01430939  0.74600817  1
  C  C19  1  0.91310615  0.50623679  0.74885112  1
