# generated using pymatgen
data_Cu8NiC19
_symmetry_space_group_name_H-M   'P 1'
_cell_length_a   6.07922500
_cell_length_b   6.07922500
_cell_length_c   8.59727100
_cell_angle_alpha   90.00000000
_cell_angle_beta   90.00000000
_cell_angle_gamma   90.00000000
_symmetry_Int_Tables_number   1
_chemical_formula_structural   Cu8NiC19
_chemical_formula_sum   'Cu8 Ni1 C19'
_cell_volume   317.72914318
_cell_formula_units_Z   1
loop_
 _symmetry_equiv_pos_site_id
 _symmetry_equiv_pos_as_xyz
  1  'x, y, z'
loop_
 _atom_site_type_symbol
 _atom_site_label
 _atom_site_symmetry_multiplicity
 _atom_site_fract_x
 _atom_site_fract_y
 _atom_site_fract_z
 _atom_site_occupancy
  Ni  Ni0  1  0.50000000  0.50000000  0.00000000  1
  C  C1  1  0.00000000  0.00000000  0.50000000  1
  C  C2  1  0.50000000  0.00000000  0.74958900  1
  C  C3  1  0.00000000  0.50000000  0.25041100  1
  Cu  Cu4  1  0.50000000  0.75082800  0.37576000  1
  Cu  Cu5  1  0.00000000  0.24957800  0.87401800  1
  Cu  Cu6  1  0.24957800  0.00000000  0.12598200  1
  Cu  Cu7  1  0.75082800  0.50000000  0.62424000  1
  Cu  Cu8  1  0.75042200  0.00000000  0.12598200  1
  Cu  Cu9  1  0.24917200  0.50000000  0.62424000  1
  Cu  Cu10  1  0.50000000  0.24917200  0.37576000  1
  Cu  Cu11  1  0.00000000  0.75042200  0.87401800  1
  C  C12  1  0.50000000  0.27102400  0.61492200  1
  C  C13  1  0.00000000  0.77022300  0.11442700  1
  C  C14  1  0.27102400  0.50000000  0.38507800  1
  C  C15  1  0.77022300  0.00000000  0.88557300  1
  C  C16  1  0.72897600  0.50000000  0.38507800  1
  C  C17  1  0.22977700  0.00000000  0.88557300  1
  C  C18  1  0.50000000  0.72897600  0.61492200  1
  C  C19  1  0.00000000  0.22977700  0.11442700  1
  C  C20  1  0.50000000  0.22216100  0.13963700  1
  C  C21  1  0.00000000  0.73008700  0.63434500  1
  C  C22  1  0.73008700  0.00000000  0.36565500  1
  C  C23  1  0.22216100  0.50000000  0.86036300  1
  C  C24  1  0.26991300  0.00000000  0.36565500  1
  C  C25  1  0.77783900  0.50000000  0.86036300  1
  C  C26  1  0.50000000  0.77783900  0.13963700  1
  C  C27  1  0.00000000  0.26991300  0.63434500  1
