# generated using pymatgen
data_Cu10Ni2C3
_symmetry_space_group_name_H-M   'P 1'
_cell_length_a   8.15655553
_cell_length_b   8.15655553
_cell_length_c   9.31807875
_cell_angle_alpha   89.54800738
_cell_angle_beta   89.54800738
_cell_angle_gamma   65.46613823
_symmetry_Int_Tables_number   1
_chemical_formula_structural   Cu10Ni2C3
_chemical_formula_sum   'Cu20 Ni4 C6'
_cell_volume   563.93197459
_cell_formula_units_Z   2
loop_
 _symmetry_equiv_pos_site_id
 _symmetry_equiv_pos_as_xyz
  1  'x, y, z'
loop_
 _atom_site_type_symbol
 _atom_site_label
 _atom_site_symmetry_multiplicity
 _atom_site_fract_x
 _atom_site_fract_y
 _atom_site_fract_z
 _atom_site_occupancy
  C  C0  1  0.99998200  0.18595400  0.00737200  1
  C  C1  1  0.81404600  0.00001800  0.49262800  1
  C  C2  1  0.00001800  0.81404600  0.99262800  1
  C  C3  1  0.18595400  0.99998200  0.50737200  1
  C  C4  1  0.69016300  0.30983700  0.75000000  1
  C  C5  1  0.30983700  0.69016300  0.25000000  1
  Ni  Ni6  1  0.22101100  0.38322300  0.55046500  1
  Ni  Ni7  1  0.61677700  0.77898900  0.94953500  1
  Ni  Ni8  1  0.77898900  0.61677700  0.44953500  1
  Ni  Ni9  1  0.38322300  0.22101100  0.05046500  1
  Cu  Cu10  1  0.90482700  0.32147000  0.82938400  1
  Cu  Cu11  1  0.67853000  0.09517300  0.67061600  1
  Cu  Cu12  1  0.09517300  0.67853000  0.17061600  1
  Cu  Cu13  1  0.32147000  0.90482700  0.32938400  1
  Cu  Cu14  1  0.92892700  0.16452000  0.53481900  1
  Cu  Cu15  1  0.83548000  0.07107300  0.96518100  1
  Cu  Cu16  1  0.07107300  0.83548000  0.46518100  1
  Cu  Cu17  1  0.16452000  0.92892700  0.03481900  1
  Cu  Cu18  1  0.61950600  0.47943900  0.62238300  1
  Cu  Cu19  1  0.52056100  0.38049400  0.87761700  1
  Cu  Cu20  1  0.38049400  0.52056100  0.37761700  1
  Cu  Cu21  1  0.47943900  0.61950600  0.12238300  1
  Cu  Cu22  1  0.81485700  0.71076400  0.52623100  1
  Cu  Cu23  1  0.28923600  0.18514300  0.97376900  1
  Cu  Cu24  1  0.18514300  0.28923600  0.47376900  1
  Cu  Cu25  1  0.71076400  0.81485700  0.02623100  1
  Cu  Cu26  1  0.06753000  0.69501900  0.83698700  1
  Cu  Cu27  1  0.30498100  0.93247000  0.66301300  1
  Cu  Cu28  1  0.93247000  0.30498100  0.16301300  1
  Cu  Cu29  1  0.69501900  0.06753000  0.33698700  1
