# generated using pymatgen
data_CuNi14C
_symmetry_space_group_name_H-M   'P 1'
_cell_length_a   6.35519958
_cell_length_b   6.17275801
_cell_length_c   10.10140220
_cell_angle_alpha   90.00000000
_cell_angle_beta   90.00000000
_cell_angle_gamma   119.05482855
_symmetry_Int_Tables_number   1
_chemical_formula_structural   CuNi14C
_chemical_formula_sum   'Cu1 Ni14 C1'
_cell_volume   346.40068394
_cell_formula_units_Z   1
loop_
 _symmetry_equiv_pos_site_id
 _symmetry_equiv_pos_as_xyz
  1  'x, y, z'
loop_
 _atom_site_type_symbol
 _atom_site_label
 _atom_site_symmetry_multiplicity
 _atom_site_fract_x
 _atom_site_fract_y
 _atom_site_fract_z
 _atom_site_occupancy
  Ni  Ni0  1  0.16665842  0.33332871  0.62500000  1
  Ni  Ni1  1  0.16588266  0.83294083  0.62500000  1
  Ni  Ni2  1  0.66270722  0.33154724  0.12500000  1
  Ni  Ni3  1  0.66501802  0.33275716  0.62500000  1
  Ni  Ni4  1  0.66270722  0.83115899  0.12500000  1
  Ni  Ni5  1  0.66501802  0.83225986  0.62500000  1
  Ni  Ni6  1  0.32927063  0.16248503  0.36707254  1
  Ni  Ni7  1  0.32927063  0.16248503  0.88292746  1
  Ni  Ni8  1  0.32927063  0.66678660  0.36707254  1
  Ni  Ni9  1  0.32927063  0.66678660  0.88292746  1
  Ni  Ni10  1  0.84081781  0.17040941  0.37075539  1
  Ni  Ni11  1  0.84081781  0.17040941  0.87924461  1
  Ni  Ni12  1  0.84317644  0.67158872  0.36893183  1
  Ni  Ni13  1  0.84317644  0.67158872  0.88106817  1
  C  C14  1  0.16525496  0.33262698  0.12500000  1
  Cu  Cu15  1  0.16168245  0.83084072  0.12500000  1
