# generated using pymatgen
data_CuNiC16
_symmetry_space_group_name_H-M   'P 1'
_cell_length_a   9.34432241
_cell_length_b   9.34432220
_cell_length_c   9.34432201
_cell_angle_alpha   54.24760739
_cell_angle_beta   54.24760932
_cell_angle_gamma   54.24761319
_symmetry_Int_Tables_number   1
_chemical_formula_structural   CuNiC16
_chemical_formula_sum   'Cu2 Ni2 C32'
_cell_volume   499.49032914
_cell_formula_units_Z   2
loop_
 _symmetry_equiv_pos_site_id
 _symmetry_equiv_pos_as_xyz
  1  'x, y, z'
loop_
 _atom_site_type_symbol
 _atom_site_label
 _atom_site_symmetry_multiplicity
 _atom_site_fract_x
 _atom_site_fract_y
 _atom_site_fract_z
 _atom_site_occupancy
  C  C0  1  0.35087100  0.35087100  0.35087100  1
  C  C1  1  0.85087100  0.85087100  0.85087100  1
  Ni  Ni2  1  0.15088500  0.15088500  0.15088500  1
  Ni  Ni3  1  0.65088500  0.65088500  0.65088500  1
  Cu  Cu4  1  0.00301000  0.00301000  0.00301000  1
  Cu  Cu5  1  0.50301000  0.50301000  0.50301000  1
  C  C6  1  0.02800100  0.46196100  0.75781900  1
  C  C7  1  0.46196100  0.75781900  0.02800100  1
  C  C8  1  0.75781900  0.02800100  0.46196100  1
  C  C9  1  0.25781900  0.96196100  0.52800100  1
  C  C10  1  0.52800100  0.25781900  0.96196100  1
  C  C11  1  0.96196100  0.52800100  0.25781900  1
  C  C12  1  0.14279900  0.50744800  0.25242200  1
  C  C13  1  0.25242200  0.14279900  0.50744800  1
  C  C14  1  0.07230300  0.29656300  0.93311900  1
  C  C15  1  0.50744800  0.25242200  0.14279900  1
  C  C16  1  0.00744800  0.64279900  0.75242200  1
  C  C17  1  0.19479500  0.42778000  0.57231900  1
  C  C18  1  0.29656300  0.93311900  0.07230300  1
  C  C19  1  0.42778000  0.57231900  0.19479500  1
  C  C20  1  0.25966000  0.98905100  0.34919500  1
  C  C21  1  0.57231900  0.19479500  0.42778000  1
  C  C22  1  0.07231900  0.92778000  0.69479500  1
  C  C23  1  0.34919500  0.25966000  0.98905100  1
  C  C24  1  0.64279900  0.75242200  0.00744800  1
  C  C25  1  0.93311900  0.07230300  0.29656300  1
  C  C26  1  0.43311900  0.79656300  0.57230300  1
  C  C27  1  0.75242200  0.00744800  0.64279900  1
  C  C28  1  0.57230300  0.43311900  0.79656300  1
  C  C29  1  0.69479500  0.07231900  0.92778000  1
  C  C30  1  0.79656300  0.57230300  0.43311900  1
  C  C31  1  0.98905100  0.34919500  0.25966000  1
  C  C32  1  0.48905100  0.75966000  0.84919500  1
  C  C33  1  0.92778000  0.69479500  0.07231900  1
  C  C34  1  0.75966000  0.84919500  0.48905100  1
  C  C35  1  0.84919500  0.48905100  0.75966000  1
