# generated using pymatgen
data_CuNi3C14
_symmetry_space_group_name_H-M   'P 1'
_cell_length_a   11.04363607
_cell_length_b   11.13427458
_cell_length_c   17.79772386
_cell_angle_alpha   108.16049836
_cell_angle_beta   108.24166930
_cell_angle_gamma   89.98782774
_symmetry_Int_Tables_number   1
_chemical_formula_structural   CuNi3C14
_chemical_formula_sum   'Cu8 Ni24 C112'
_cell_volume   1963.41753093
_cell_formula_units_Z   8
loop_
 _symmetry_equiv_pos_site_id
 _symmetry_equiv_pos_as_xyz
  1  'x, y, z'
loop_
 _atom_site_type_symbol
 _atom_site_label
 _atom_site_symmetry_multiplicity
 _atom_site_fract_x
 _atom_site_fract_y
 _atom_site_fract_z
 _atom_site_occupancy
  C  C0  1  0.30867100  0.05701100  0.60929100  1
  C  C1  1  0.30878600  0.55812000  0.60956700  1
  C  C2  1  0.80886500  0.05818500  0.60984600  1
  C  C3  1  0.81056600  0.55829200  0.61140900  1
  C  C4  1  0.19627400  0.43974000  0.38614300  1
  C  C5  1  0.20034000  0.44356300  0.89391000  1
  C  C6  1  0.69775100  0.44110100  0.38677900  1
  C  C7  1  0.69811800  0.94094500  0.38655000  1
  C  C8  1  0.70052000  0.94246100  0.89336800  1
  C  C9  1  0.06043000  0.30229200  0.61055700  1
  C  C10  1  0.05989800  0.80243400  0.61086800  1
  C  C11  1  0.55994500  0.30352000  0.61093500  1
  C  C12  1  0.56001800  0.80215200  0.61083300  1
  C  C13  1  0.44742700  0.19699100  0.38684200  1
  C  C14  1  0.45299000  0.20205000  0.89372700  1
  C  C15  1  0.44716200  0.69643100  0.38669200  1
  C  C16  1  0.45085400  0.70166800  0.89409300  1
  C  C17  1  0.94684900  0.19506000  0.38595400  1
  C  C18  1  0.94896600  0.20115200  0.89312900  1
  C  C19  1  0.94723500  0.69728100  0.38621700  1
  C  C20  1  0.30382900  0.06090600  0.10467700  1
  C  C21  1  0.30311100  0.56461400  0.10463100  1
  C  C22  1  0.80384700  0.06200600  0.10383200  1
  C  C23  1  0.80431100  0.56263100  0.10378300  1
  C  C24  1  0.19914600  0.93917900  0.39217000  1
  C  C25  1  0.20297100  0.93884300  0.89824500  1
  C  C26  1  0.70458100  0.44117800  0.89868700  1
  C  C27  1  0.05378100  0.29146500  0.10529900  1
  C  C28  1  0.05634300  0.79273300  0.10634400  1
  C  C29  1  0.55508000  0.29122400  0.10434900  1
  C  C30  1  0.55549900  0.79194100  0.10456100  1
  C  C31  1  0.95454800  0.70930700  0.89943700  1
  Ni  Ni32  1  0.00273600  0.99895800  0.49752400  1
  Ni  Ni33  1  0.00223400  0.49949600  0.49851600  1
  Ni  Ni34  1  0.50303100  0.49943400  0.49881300  1
  Ni  Ni35  1  0.25700600  0.25112400  0.00378800  1
  Ni  Ni36  1  0.25153800  0.24762600  0.49676400  1
  Ni  Ni37  1  0.25183700  0.74871800  0.49779000  1
  Ni  Ni38  1  0.75296400  0.24994600  0.49874500  1
  Ni  Ni39  1  0.75312800  0.74907400  0.49903600  1
  Ni  Ni40  1  0.10544000  0.08936700  0.24379600  1
  Ni  Ni41  1  0.11534000  0.09486200  0.75678500  1
  Ni  Ni42  1  0.10460900  0.59672900  0.24205800  1
  Ni  Ni43  1  0.11103000  0.60428100  0.75646100  1
  Ni  Ni44  1  0.60359600  0.08998600  0.24248800  1
  Ni  Ni45  1  0.61489600  0.10268700  0.75210000  1
  Ni  Ni46  1  0.60477800  0.59154100  0.24223000  1
  Ni  Ni47  1  0.61702200  0.59707900  0.75606100  1
  Ni  Ni48  1  0.35250800  0.40236000  0.24087900  1
  Ni  Ni49  1  0.36572900  0.40576900  0.75408100  1
  Ni  Ni50  1  0.35238400  0.90185700  0.24654600  1
  Ni  Ni51  1  0.36148000  0.90597900  0.75586700  1
  Ni  Ni52  1  0.85548200  0.40159500  0.24260900  1
  Ni  Ni53  1  0.86142800  0.41108200  0.75841000  1
  Ni  Ni54  1  0.85758900  0.89936100  0.24199800  1
  Ni  Ni55  1  0.86850900  0.90110400  0.75481000  1
  Cu  Cu56  1  0.00848000  0.00101500  0.00372900  1
  Cu  Cu57  1  0.00683000  0.50176400  0.00286500  1
  Cu  Cu58  1  0.50691700  0.00177900  0.00441900  1
  Cu  Cu59  1  0.50206600  0.99956900  0.49784000  1
  Cu  Cu60  1  0.50799900  0.50173900  0.00461500  1
  Cu  Cu61  1  0.25683200  0.75350200  0.00471700  1
  Cu  Cu62  1  0.75837400  0.25351600  0.00509000  1
  Cu  Cu63  1  0.75852800  0.75093700  0.00307300  1
  C  C64  1  0.12517000  0.11847700  0.49180300  1
  C  C65  1  0.13095800  0.12301000  0.99473800  1
  C  C66  1  0.12569400  0.62386500  0.49470000  1
  C  C67  1  0.12439600  0.62572400  0.99354400  1
  C  C68  1  0.62604600  0.12491700  0.49658100  1
  C  C69  1  0.62783600  0.12514700  0.99764100  1
  C  C70  1  0.62429400  0.62297600  0.49531100  1
  C  C71  1  0.62947200  0.61985400  0.99384900  1
  C  C72  1  0.13890300  0.37885900  0.01555800  1
  C  C73  1  0.12913300  0.37361200  0.50180700  1
  C  C74  1  0.13677200  0.88104500  0.01309800  1
  C  C75  1  0.12827300  0.87578200  0.49888500  1
  C  C76  1  0.63627600  0.38103600  0.01456400  1
  C  C77  1  0.62756700  0.37528500  0.50046000  1
  C  C78  1  0.63647200  0.87977500  0.01554000  1
  C  C79  1  0.62822800  0.87461800  0.50093700  1
  C  C80  1  0.37088500  0.11887500  0.49141600  1
  C  C81  1  0.37282500  0.12104900  0.99467800  1
  C  C82  1  0.37530600  0.62202400  0.49530300  1
  C  C83  1  0.37817900  0.62317600  0.99891400  1
  C  C84  1  0.87669800  0.12307800  0.49691500  1
  C  C85  1  0.87946200  0.12202900  0.99628200  1
  C  C86  1  0.87418600  0.62367200  0.49518100  1
  C  C87  1  0.87549000  0.61888400  0.98990600  1
  C  C88  1  0.38522700  0.38123100  0.01461300  1
  C  C89  1  0.37904900  0.37588900  0.50122900  1
  C  C90  1  0.38571700  0.88523400  0.01528500  1
  C  C91  1  0.37561700  0.87542100  0.49905800  1
  C  C92  1  0.88571500  0.38533300  0.01403100  1
  C  C93  1  0.87716700  0.37477400  0.50087600  1
  C  C94  1  0.88876400  0.88235200  0.01425900  1
  C  C95  1  0.87835100  0.87689200  0.50099700  1
  C  C96  1  0.08878100  0.09263300  0.13501900  1
  C  C97  1  0.08216000  0.07932100  0.64314800  1
  C  C98  1  0.08308200  0.59533300  0.13222900  1
  C  C99  1  0.07105100  0.58136100  0.64132300  1
  C  C100  1  0.58018700  0.09600000  0.13374900  1
  C  C101  1  0.57157300  0.07777200  0.63359800  1
  C  C102  1  0.58326500  0.59542100  0.13344800  1
  C  C103  1  0.58098500  0.57802600  0.64176100  1
  C  C104  1  0.42993200  0.42064700  0.35432200  1
  C  C105  1  0.44474500  0.41881800  0.86913200  1
  C  C106  1  0.43670500  0.92503100  0.36246500  1
  C  C107  1  0.44460400  0.91970500  0.87097300  1
  C  C108  1  0.93131500  0.42261700  0.35696600  1
  C  C109  1  0.94666800  0.41400200  0.86998600  1
  C  C110  1  0.93422900  0.92252600  0.35674100  1
  C  C111  1  0.95026000  0.91146500  0.87021300  1
  C  C112  1  0.32996300  0.28810400  0.13130700  1
  C  C113  1  0.32644400  0.30718600  0.64021600  1
  C  C114  1  0.32553900  0.79161600  0.13665700  1
  C  C115  1  0.32221300  0.80970400  0.64115700  1
  C  C116  1  0.83586700  0.28836900  0.13419000  1
  C  C117  1  0.82609600  0.31639700  0.64385000  1
  C  C118  1  0.83669700  0.78614300  0.13339400  1
  C  C119  1  0.82611900  0.80749300  0.63959400  1
  C  C120  1  0.18077700  0.18905900  0.35693700  1
  C  C121  1  0.19410600  0.20533400  0.87154300  1
  C  C122  1  0.18130100  0.69303100  0.35619600  1
  C  C123  1  0.19609100  0.70960000  0.87012100  1
  C  C124  1  0.68071500  0.18324200  0.35663900  1
  C  C125  1  0.69167000  0.20878000  0.86803200  1
  C  C126  1  0.68113700  0.68514100  0.35640500  1
  C  C127  1  0.69719400  0.70513900  0.86847900  1
  C  C128  1  0.42655000  0.06203700  0.23866000  1
  C  C129  1  0.43919700  0.06520600  0.75317000  1
  C  C130  1  0.42731600  0.56500500  0.23722600  1
  C  C131  1  0.44253400  0.56971800  0.75328300  1
  C  C132  1  0.92784800  0.06458300  0.23700900  1
  C  C133  1  0.94025800  0.06762200  0.75303600  1
  C  C134  1  0.92882200  0.56471200  0.23758500  1
  C  C135  1  0.93873400  0.57927900  0.76297000  1
  C  C136  1  0.17764400  0.42645800  0.23817900  1
  C  C137  1  0.19268300  0.44173500  0.75434000  1
  C  C138  1  0.17667600  0.92006500  0.24695800  1
  C  C139  1  0.18691200  0.92917100  0.76182200  1
  C  C140  1  0.67797700  0.42333900  0.23742900  1
  C  C141  1  0.68753800  0.42870500  0.76169800  1
  C  C142  1  0.68004700  0.92325300  0.23742400  1
  C  C143  1  0.69463000  0.93989200  0.75423200  1
