# generated using pymatgen
data_Cu16Ni5C2
_symmetry_space_group_name_H-M   'P 1'
_cell_length_a   8.11997864
_cell_length_b   8.11997864
_cell_length_c   15.27453817
_cell_angle_alpha   69.52522732
_cell_angle_beta   69.52522732
_cell_angle_gamma   56.10378671
_symmetry_Int_Tables_number   1
_chemical_formula_structural   Cu16Ni5C2
_chemical_formula_sum   'Cu32 Ni10 C4'
_cell_volume   767.48468950
_cell_formula_units_Z   2
loop_
 _symmetry_equiv_pos_site_id
 _symmetry_equiv_pos_as_xyz
  1  'x, y, z'
loop_
 _atom_site_type_symbol
 _atom_site_label
 _atom_site_symmetry_multiplicity
 _atom_site_fract_x
 _atom_site_fract_y
 _atom_site_fract_z
 _atom_site_occupancy
  C  C0  1  0.97938700  0.26552300  0.50471900  1
  C  C1  1  0.26552300  0.97938700  0.00471900  1
  C  C2  1  0.40879800  0.46518900  0.91121900  1
  C  C3  1  0.46518900  0.40879800  0.41121900  1
  Ni  Ni4  1  0.41532300  0.76360100  0.67062900  1
  Ni  Ni5  1  0.76360100  0.41532300  0.17062900  1
  Ni  Ni6  1  0.02589300  0.71274900  0.57629700  1
  Ni  Ni7  1  0.71274900  0.02589300  0.07629700  1
  Ni  Ni8  1  0.91432000  0.23043600  0.78223800  1
  Ni  Ni9  1  0.23043600  0.91432000  0.28223800  1
  Ni  Ni10  1  0.12775700  0.53262800  0.23096500  1
  Ni  Ni11  1  0.53262800  0.12775700  0.73096500  1
  Ni  Ni12  1  0.90085900  0.65380500  0.88953800  1
  Ni  Ni13  1  0.65380500  0.90085900  0.38953800  1
  Cu  Cu14  1  0.17943300  0.59438700  0.66587600  1
  Cu  Cu15  1  0.59438700  0.17943300  0.16587600  1
  Cu  Cu16  1  0.79818300  0.02635000  0.66964000  1
  Cu  Cu17  1  0.02635000  0.79818300  0.16964000  1
  Cu  Cu18  1  0.31098700  0.53175600  0.27798700  1
  Cu  Cu19  1  0.53175600  0.31098700  0.77798700  1
  Cu  Cu20  1  0.19104600  0.00869700  0.64968400  1
  Cu  Cu21  1  0.00869700  0.19104600  0.14968400  1
  Cu  Cu22  1  0.88852300  0.11160900  0.00044800  1
  Cu  Cu23  1  0.11160900  0.88852300  0.50044800  1
  Cu  Cu24  1  0.15425800  0.44592400  0.92767700  1
  Cu  Cu25  1  0.44592400  0.15425800  0.42767700  1
  Cu  Cu26  1  0.88417700  0.40856200  0.66814000  1
  Cu  Cu27  1  0.40856200  0.88417700  0.16814000  1
  Cu  Cu28  1  0.31347800  0.71731900  0.80323000  1
  Cu  Cu29  1  0.71731900  0.31347800  0.30323000  1
  Cu  Cu30  1  0.69306000  0.42361100  0.85685500  1
  Cu  Cu31  1  0.42361100  0.69306000  0.35685500  1
  Cu  Cu32  1  0.33622200  0.61028600  0.99498600  1
  Cu  Cu33  1  0.61028600  0.33622200  0.49498600  1
  Cu  Cu34  1  0.55638700  0.93606000  0.84167800  1
  Cu  Cu35  1  0.93606000  0.55638700  0.34167800  1
  Cu  Cu36  1  0.18520400  0.50871300  0.49760300  1
  Cu  Cu37  1  0.50871300  0.18520400  0.99760300  1
  Cu  Cu38  1  0.10642000  0.23377300  0.81501900  1
  Cu  Cu39  1  0.23377300  0.10642000  0.31501900  1
  Cu  Cu40  1  0.73318300  0.60283900  0.99710800  1
  Cu  Cu41  1  0.60283900  0.73318300  0.49710800  1
  Cu  Cu42  1  0.89521600  0.86105100  0.91129800  1
  Cu  Cu43  1  0.86105100  0.89521600  0.41129800  1
  Cu  Cu44  1  0.57810200  0.85113900  0.67070500  1
  Cu  Cu45  1  0.85113900  0.57810200  0.17070500  1
