# generated using pymatgen
data_Cu(Ni2C11)3
_symmetry_space_group_name_H-M   'P 1'
_cell_length_a   9.93053097
_cell_length_b   9.93053097
_cell_length_c   12.96721483
_cell_angle_alpha   90.00000000
_cell_angle_beta   90.00000000
_cell_angle_gamma   119.99999698
_symmetry_Int_Tables_number   1
_chemical_formula_structural   Cu(Ni2C11)3
_chemical_formula_sum   'Cu2 Ni12 C66'
_cell_volume   1107.44531679
_cell_formula_units_Z   2
loop_
 _symmetry_equiv_pos_site_id
 _symmetry_equiv_pos_as_xyz
  1  'x, y, z'
loop_
 _atom_site_type_symbol
 _atom_site_label
 _atom_site_symmetry_multiplicity
 _atom_site_fract_x
 _atom_site_fract_y
 _atom_site_fract_z
 _atom_site_occupancy
  C  C0  1  0.66666700  0.33333300  0.84187175  1
  C  C1  1  0.33333300  0.66666700  0.15812825  1
  C  C2  1  0.33333300  0.66666700  0.65812825  1
  C  C3  1  0.66666700  0.33333300  0.34187175  1
  C  C4  1  -0.00000000  -0.00000000  0.00000000  1
  C  C5  1  -0.00000000  -0.00000000  0.50000000  1
  Ni  Ni6  1  0.59801047  0.67644912  0.89838580  1
  Ni  Ni7  1  0.40198953  0.32355088  0.10161420  1
  Ni  Ni8  1  0.07843865  0.40198953  0.89838580  1
  Ni  Ni9  1  0.92156135  0.32355088  0.60161420  1
  Ni  Ni10  1  0.92156135  0.59801047  0.10161420  1
  Ni  Ni11  1  0.07843865  0.67644912  0.39838580  1
  Ni  Ni12  1  0.32355088  0.92156135  0.89838580  1
  Ni  Ni13  1  0.67644912  0.59801047  0.60161420  1
  Ni  Ni14  1  0.67644912  0.07843865  0.10161420  1
  Ni  Ni15  1  0.32355088  0.40198953  0.39838580  1
  Ni  Ni16  1  0.40198953  0.07843865  0.60161420  1
  Ni  Ni17  1  0.59801047  0.92156135  0.39838580  1
  Cu  Cu18  1  -0.00000000  -0.00000000  0.75000000  1
  Cu  Cu19  1  -0.00000000  -0.00000000  0.25000000  1
  C  C20  1  0.81820520  0.89807954  0.83861858  1
  C  C21  1  0.18179480  0.10192046  0.16138142  1
  C  C22  1  0.07987433  0.18179480  0.83861858  1
  C  C23  1  0.92012567  0.10192046  0.66138142  1
  C  C24  1  0.92012567  0.81820520  0.16138142  1
  C  C25  1  0.07987433  0.89807954  0.33861858  1
  C  C26  1  0.10192046  0.92012567  0.83861858  1
  C  C27  1  0.89807954  0.81820520  0.66138142  1
  C  C28  1  0.89807954  0.07987433  0.16138142  1
  C  C29  1  0.10192046  0.18179480  0.33861858  1
  C  C30  1  0.18179480  0.07987433  0.66138142  1
  C  C31  1  0.81820520  0.92012567  0.33861858  1
  C  C32  1  0.87022744  0.30774328  0.78446094  1
  C  C33  1  0.12977256  0.69225672  0.21553906  1
  C  C34  1  0.43751584  0.12977256  0.78446094  1
  C  C35  1  0.56248416  0.69225672  0.71553906  1
  C  C36  1  0.56248416  0.87022744  0.21553906  1
  C  C37  1  0.43751584  0.30774328  0.28446094  1
  C  C38  1  0.69225672  0.56248416  0.78446094  1
  C  C39  1  0.30774328  0.87022744  0.71553906  1
  C  C40  1  0.30774328  0.43751584  0.21553906  1
  C  C41  1  0.69225672  0.12977256  0.28446094  1
  C  C42  1  0.12977256  0.43751584  0.71553906  1
  C  C43  1  0.87022744  0.56248416  0.28446094  1
  C  C44  1  0.88139048  0.19271542  0.98026827  1
  C  C45  1  0.11860952  0.80728458  0.01973173  1
  C  C46  1  0.31132495  0.11860952  0.98026827  1
  C  C47  1  0.68867505  0.80728458  0.51973173  1
  C  C48  1  0.68867505  0.88139048  0.01973173  1
  C  C49  1  0.31132495  0.19271542  0.48026827  1
  C  C50  1  0.80728458  0.68867505  0.98026827  1
  C  C51  1  0.19271542  0.88139048  0.51973173  1
  C  C52  1  0.19271542  0.31132495  0.01973173  1
  C  C53  1  0.80728458  0.11860952  0.48026827  1
  C  C54  1  0.11860952  0.31132495  0.51973173  1
  C  C55  1  0.88139048  0.68867505  0.48026827  1
  C  C56  1  0.48776735  0.82701875  0.86320857  1
  C  C57  1  0.51223265  0.17298125  0.13679143  1
  C  C58  1  0.33925140  0.51223265  0.86320857  1
  C  C59  1  0.66074860  0.17298125  0.63679143  1
  C  C60  1  0.66074860  0.48776735  0.13679143  1
  C  C61  1  0.33925140  0.82701875  0.36320857  1
  C  C62  1  0.17298125  0.66074860  0.86320857  1
  C  C63  1  0.82701875  0.48776735  0.63679143  1
  C  C64  1  0.82701875  0.33925140  0.13679143  1
  C  C65  1  0.17298125  0.51223265  0.36320857  1
  C  C66  1  0.51223265  0.33925140  0.63679143  1
  C  C67  1  0.48776735  0.66074860  0.36320857  1
  C  C68  1  0.88223934  0.46845691  0.94961200  1
  C  C69  1  0.11776066  0.53154309  0.05038800  1
  C  C70  1  0.58621757  0.11776066  0.94961200  1
  C  C71  1  0.41378243  0.53154309  0.55038800  1
  C  C72  1  0.41378243  0.88223934  0.05038800  1
  C  C73  1  0.58621757  0.46845691  0.44961200  1
  C  C74  1  0.53154309  0.41378243  0.94961200  1
  C  C75  1  0.46845691  0.88223934  0.55038800  1
  C  C76  1  0.46845691  0.58621757  0.05038800  1
  C  C77  1  0.53154309  0.11776066  0.44961200  1
  C  C78  1  0.11776066  0.58621757  0.55038800  1
  C  C79  1  0.88223934  0.41378243  0.44961200  1
