# generated using pymatgen
data_CuNiC4
_symmetry_space_group_name_H-M   'P 1'
_cell_length_a   5.10762152
_cell_length_b   5.10762152
_cell_length_c   8.05310623
_cell_angle_alpha   85.13211132
_cell_angle_beta   85.13211132
_cell_angle_gamma   71.57080823
_symmetry_Int_Tables_number   1
_chemical_formula_structural   CuNiC4
_chemical_formula_sum   'Cu2 Ni2 C8'
_cell_volume   198.21996146
_cell_formula_units_Z   2
loop_
 _symmetry_equiv_pos_site_id
 _symmetry_equiv_pos_as_xyz
  1  'x, y, z'
loop_
 _atom_site_type_symbol
 _atom_site_label
 _atom_site_symmetry_multiplicity
 _atom_site_fract_x
 _atom_site_fract_y
 _atom_site_fract_z
 _atom_site_occupancy
  Ni  Ni0  1  0.06246600  0.93753400  0.75000000  1
  Ni  Ni1  1  0.93753400  0.06246600  0.25000000  1
  Cu  Cu2  1  0.00000000  0.50000000  0.50000000  1
  Cu  Cu3  1  0.50000000  0.00000000  0.00000000  1
  C  C4  1  0.25468000  0.79721500  0.92237200  1
  C  C5  1  0.20278500  0.74532000  0.57762800  1
  C  C6  1  0.74532000  0.20278500  0.07762800  1
  C  C7  1  0.79721500  0.25468000  0.42237200  1
  C  C8  1  0.73166800  0.90983200  0.78472600  1
  C  C9  1  0.09016800  0.26833200  0.71527400  1
  C  C10  1  0.26833200  0.09016800  0.21527400  1
  C  C11  1  0.90983200  0.73166800  0.28472600  1
