# generated using pymatgen
data_CuNi3C
_symmetry_space_group_name_H-M   'P 1'
_cell_length_a   6.06477194
_cell_length_b   6.06477194
_cell_length_c   5.91580200
_cell_angle_alpha   90.00000000
_cell_angle_beta   90.00000000
_cell_angle_gamma   116.26697771
_symmetry_Int_Tables_number   1
_chemical_formula_structural   CuNi3C
_chemical_formula_sum   'Cu2 Ni6 C2'
_cell_volume   195.12365270
_cell_formula_units_Z   2
loop_
 _symmetry_equiv_pos_site_id
 _symmetry_equiv_pos_as_xyz
  1  'x, y, z'
loop_
 _atom_site_type_symbol
 _atom_site_label
 _atom_site_symmetry_multiplicity
 _atom_site_fract_x
 _atom_site_fract_y
 _atom_site_fract_z
 _atom_site_occupancy
  C  C0  1  0.23365900  0.76634100  0.75000000  1
  C  C1  1  0.76634100  0.23365900  0.25000000  1
  Ni  Ni2  1  0.66549900  0.33450100  0.75000000  1
  Ni  Ni3  1  0.33450100  0.66549900  0.25000000  1
  Ni  Ni4  1  0.71606600  0.71606600  0.00000000  1
  Ni  Ni5  1  0.71606600  0.71606600  0.50000000  1
  Ni  Ni6  1  0.28393400  0.28393400  0.00000000  1
  Ni  Ni7  1  0.28393400  0.28393400  0.50000000  1
  Cu  Cu8  1  0.90564700  0.09435300  0.75000000  1
  Cu  Cu9  1  0.09435300  0.90564700  0.25000000  1
