# generated using pymatgen
data_Cu16NiC2
_symmetry_space_group_name_H-M   'P 1'
_cell_length_a   6.38763665
_cell_length_b   6.38763701
_cell_length_c   6.38763665
_cell_angle_alpha   83.14700373
_cell_angle_beta   83.14700736
_cell_angle_gamma   83.14700373
_symmetry_Int_Tables_number   1
_chemical_formula_structural   Cu16NiC2
_chemical_formula_sum   'Cu16 Ni1 C2'
_cell_volume   255.45298766
_cell_formula_units_Z   1
loop_
 _symmetry_equiv_pos_site_id
 _symmetry_equiv_pos_as_xyz
  1  'x, y, z'
loop_
 _atom_site_type_symbol
 _atom_site_label
 _atom_site_symmetry_multiplicity
 _atom_site_fract_x
 _atom_site_fract_y
 _atom_site_fract_z
 _atom_site_occupancy
  C  C0  1  0.65464100  0.65464100  0.65464100  1
  C  C1  1  0.35134700  0.35134700  0.35134700  1
  Ni  Ni2  1  0.09300500  0.09300500  0.09300500  1
  Cu  Cu3  1  0.71177900  0.99820300  0.28741400  1
  Cu  Cu4  1  0.99820300  0.28741400  0.71177900  1
  Cu  Cu5  1  0.28741400  0.71177900  0.99820300  1
  Cu  Cu6  1  0.99820300  0.71177900  0.28741400  1
  Cu  Cu7  1  0.71177900  0.28741400  0.99820300  1
  Cu  Cu8  1  0.28741400  0.99820300  0.71177900  1
  Cu  Cu9  1  0.99820900  0.50516400  0.99820900  1
  Cu  Cu10  1  0.50516400  0.99820900  0.99820900  1
  Cu  Cu11  1  0.99820900  0.99820900  0.50516400  1
  Cu  Cu12  1  0.34331500  0.34331500  0.85238900  1
  Cu  Cu13  1  0.34331500  0.85238900  0.34331500  1
  Cu  Cu14  1  0.85238900  0.34331500  0.34331500  1
  Cu  Cu15  1  0.65885200  0.65885200  0.14585100  1
  Cu  Cu16  1  0.65885200  0.14585100  0.65885200  1
  Cu  Cu17  1  0.14585100  0.65885200  0.65885200  1
  Cu  Cu18  1  0.90205900  0.90205900  0.90205900  1
