# generated using pymatgen
data_Cu11NiC6
_symmetry_space_group_name_H-M   'P 1'
_cell_length_a   15.72903900
_cell_length_b   6.53663900
_cell_length_c   11.69070154
_cell_angle_alpha   58.25269109
_cell_angle_beta   90.00000000
_cell_angle_gamma   90.00000000
_symmetry_Int_Tables_number   1
_chemical_formula_structural   Cu11NiC6
_chemical_formula_sum   'Cu44 Ni4 C24'
_cell_volume   1022.13612563
_cell_formula_units_Z   4
loop_
 _symmetry_equiv_pos_site_id
 _symmetry_equiv_pos_as_xyz
  1  'x, y, z'
loop_
 _atom_site_type_symbol
 _atom_site_label
 _atom_site_symmetry_multiplicity
 _atom_site_fract_x
 _atom_site_fract_y
 _atom_site_fract_z
 _atom_site_occupancy
  C  C0  1  0.83049100  0.55435900  0.30090900  1
  C  C1  1  0.66950900  0.55435900  0.80090900  1
  C  C2  1  0.16950900  0.44564100  0.69909100  1
  C  C3  1  0.33049100  0.44564100  0.19909100  1
  C  C4  1  0.04423600  0.44641500  0.36227900  1
  C  C5  1  0.45576400  0.44641500  0.86227900  1
  C  C6  1  0.95576400  0.55358500  0.63772100  1
  C  C7  1  0.54423600  0.55358500  0.13772100  1
  C  C8  1  0.84527000  0.83192400  0.49961000  1
  C  C9  1  0.65473000  0.83192400  0.99961000  1
  C  C10  1  0.15473000  0.16807600  0.50039000  1
  C  C11  1  0.34527000  0.16807600  0.00039000  1
  C  C12  1  0.77884800  0.11727900  0.27676900  1
  C  C13  1  0.72115200  0.11727900  0.77676900  1
  C  C14  1  0.22115200  0.88272100  0.72323100  1
  C  C15  1  0.27884800  0.88272100  0.22323100  1
  C  C16  1  0.71222700  0.00901100  0.12958800  1
  C  C17  1  0.78777300  0.00901100  0.62958800  1
  C  C18  1  0.28777300  0.99098900  0.87041200  1
  C  C19  1  0.21222700  0.99098900  0.37041200  1
  C  C20  1  0.17857900  0.59585700  0.39890400  1
  C  C21  1  0.32142100  0.59585700  0.89890400  1
  C  C22  1  0.82142100  0.40414300  0.60109600  1
  C  C23  1  0.67857900  0.40414300  0.10109600  1
  Ni  Ni24  1  0.54688900  0.29989000  0.46065600  1
  Ni  Ni25  1  0.95311100  0.29989000  0.96065600  1
  Ni  Ni26  1  0.45311100  0.70011000  0.53934400  1
  Ni  Ni27  1  0.04688900  0.70011000  0.03934400  1
  Cu  Cu28  1  0.74690600  0.94108000  0.25520700  1
  Cu  Cu29  1  0.75309400  0.94108000  0.75520700  1
  Cu  Cu30  1  0.25309400  0.05892000  0.74479300  1
  Cu  Cu31  1  0.24690600  0.05892000  0.24479300  1
  Cu  Cu32  1  0.75279600  0.35251700  0.19626100  1
  Cu  Cu33  1  0.74720400  0.35251700  0.69626100  1
  Cu  Cu34  1  0.24720400  0.64748300  0.80373900  1
  Cu  Cu35  1  0.25279600  0.64748300  0.30373900  1
  Cu  Cu36  1  0.81544900  0.63903900  0.47995800  1
  Cu  Cu37  1  0.68455100  0.63903900  0.97995800  1
  Cu  Cu38  1  0.18455100  0.36096100  0.52004200  1
  Cu  Cu39  1  0.31544900  0.36096100  0.02004200  1
  Cu  Cu40  1  0.83446200  0.07110600  0.37564000  1
  Cu  Cu41  1  0.66553800  0.07110600  0.87564000  1
  Cu  Cu42  1  0.16553800  0.92889400  0.62436000  1
  Cu  Cu43  1  0.33446200  0.92889400  0.12436000  1
  Cu  Cu44  1  0.71393500  0.82849400  0.10520200  1
  Cu  Cu45  1  0.78606500  0.82849400  0.60520200  1
  Cu  Cu46  1  0.28606500  0.17150600  0.89479800  1
  Cu  Cu47  1  0.21393500  0.17150600  0.39479800  1
  Cu  Cu48  1  0.10068200  0.63650200  0.32522100  1
  Cu  Cu49  1  0.39931800  0.63650200  0.82522100  1
  Cu  Cu50  1  0.89931800  0.36349800  0.67477900  1
  Cu  Cu51  1  0.60068200  0.36349800  0.17477900  1
  Cu  Cu52  1  0.81343800  0.24155700  0.54542400  1
  Cu  Cu53  1  0.68656200  0.24155700  0.04542400  1
  Cu  Cu54  1  0.18656200  0.75844300  0.45457600  1
  Cu  Cu55  1  0.31343800  0.75844300  0.95457600  1
  Cu  Cu56  1  0.06894200  0.21284500  0.45007600  1
  Cu  Cu57  1  0.43105800  0.21284500  0.95007600  1
  Cu  Cu58  1  0.93105800  0.78715500  0.54992400  1
  Cu  Cu59  1  0.56894200  0.78715500  0.04992400  1
  Cu  Cu60  1  0.96659400  0.50462800  0.29850500  1
  Cu  Cu61  1  0.53340600  0.50462800  0.79850500  1
  Cu  Cu62  1  0.03340600  0.49537200  0.70149500  1
  Cu  Cu63  1  0.46659400  0.49537200  0.20149500  1
  Cu  Cu64  1  0.93904300  0.66792600  0.98892700  1
  Cu  Cu65  1  0.56095700  0.66792600  0.48892700  1
  Cu  Cu66  1  0.06095700  0.33207400  0.01107300  1
  Cu  Cu67  1  0.43904300  0.33207400  0.51107300  1
  Cu  Cu68  1  0.89954300  0.06850000  0.11469000  1
  Cu  Cu69  1  0.60045700  0.06850000  0.61469000  1
  Cu  Cu70  1  0.10045700  0.93150000  0.88531000  1
  Cu  Cu71  1  0.39954300  0.93150000  0.38531000  1
