# generated using pymatgen
data_Cu2(Ni2C)3
_symmetry_space_group_name_H-M   'P 1'
_cell_length_a   6.30212700
_cell_length_b   6.34186158
_cell_length_c   6.34754517
_cell_angle_alpha   89.98279220
_cell_angle_beta   89.50072285
_cell_angle_gamma   89.55931807
_symmetry_Int_Tables_number   1
_chemical_formula_structural   Cu2(Ni2C)3
_chemical_formula_sum   'Cu4 Ni12 C6'
_cell_volume   253.67657344
_cell_formula_units_Z   2
loop_
 _symmetry_equiv_pos_site_id
 _symmetry_equiv_pos_as_xyz
  1  'x, y, z'
loop_
 _atom_site_type_symbol
 _atom_site_label
 _atom_site_symmetry_multiplicity
 _atom_site_fract_x
 _atom_site_fract_y
 _atom_site_fract_z
 _atom_site_occupancy
  C  C0  1  0.00010400  0.01066000  0.01060200  1
  Ni  Ni1  1  0.53204400  0.73451800  0.73486900  1
  Ni  Ni2  1  0.73456200  0.53258700  0.73389500  1
  Ni  Ni3  1  0.73449300  0.73398500  0.53260200  1
  Ni  Ni4  1  0.46691800  0.26535300  0.73393000  1
  Ni  Ni5  1  0.26370600  0.46669500  0.73527900  1
  Ni  Ni6  1  0.26563400  0.26590000  0.53370100  1
  Ni  Ni7  1  0.46702800  0.73427200  0.26508800  1
  Ni  Ni8  1  0.26594700  0.53355300  0.26646600  1
  Ni  Ni9  1  0.26412300  0.73574800  0.46669200  1
  Ni  Ni10  1  0.53402400  0.26563600  0.26629200  1
  Ni  Ni11  1  0.73558300  0.46583400  0.26429100  1
  Ni  Ni12  1  0.73598900  0.26480100  0.46567200  1
  Cu  Cu13  1  0.63599500  0.63633200  0.63650300  1
  Cu  Cu14  1  0.36294100  0.36378500  0.63698200  1
  Cu  Cu15  1  0.36328300  0.63724000  0.36392600  1
  Cu  Cu16  1  0.63761900  0.36315400  0.36319700  1
  C  C17  1  0.50002900  0.50016900  0.50012100  1
  C  C18  1  0.17309900  0.86367200  0.86338200  1
  C  C19  1  0.86742300  0.18479700  0.85441700  1
  C  C20  1  0.14264800  0.14129100  0.19563100  1
  C  C21  1  0.81680700  0.85411800  0.13056100  1
