# generated using pymatgen
data_CuNiC6
_symmetry_space_group_name_H-M   'P 1'
_cell_length_a   5.80758200
_cell_length_b   7.34716900
_cell_length_c   8.63872800
_cell_angle_alpha   90.00000000
_cell_angle_beta   90.00000000
_cell_angle_gamma   90.00000000
_symmetry_Int_Tables_number   1
_chemical_formula_structural   CuNiC6
_chemical_formula_sum   'Cu4 Ni4 C24'
_cell_volume   368.60835947
_cell_formula_units_Z   4
loop_
 _symmetry_equiv_pos_site_id
 _symmetry_equiv_pos_as_xyz
  1  'x, y, z'
loop_
 _atom_site_type_symbol
 _atom_site_label
 _atom_site_symmetry_multiplicity
 _atom_site_fract_x
 _atom_site_fract_y
 _atom_site_fract_z
 _atom_site_occupancy
  C  C0  1  0.50000000  0.36716000  0.33084400  1
  C  C1  1  0.50000000  0.63284000  0.66915600  1
  C  C2  1  0.50000000  0.13284000  0.83084400  1
  C  C3  1  0.50000000  0.86716000  0.16915600  1
  Ni  Ni4  1  0.25061500  0.00000000  0.50000000  1
  Ni  Ni5  1  0.74938500  0.00000000  0.50000000  1
  Ni  Ni6  1  0.74938500  0.50000000  0.00000000  1
  Ni  Ni7  1  0.25061500  0.50000000  0.00000000  1
  Cu  Cu8  1  0.00000000  0.10650200  0.14692300  1
  Cu  Cu9  1  0.00000000  0.89349800  0.85307700  1
  Cu  Cu10  1  0.00000000  0.39349800  0.64692300  1
  Cu  Cu11  1  0.00000000  0.60650200  0.35307700  1
  C  C12  1  0.23288200  0.00000000  0.00000000  1
  C  C13  1  0.76711800  0.00000000  0.00000000  1
  C  C14  1  0.76711800  0.50000000  0.50000000  1
  C  C15  1  0.23288200  0.50000000  0.50000000  1
  C  C16  1  0.00000000  0.34941300  0.07075400  1
  C  C17  1  0.00000000  0.65058700  0.92924600  1
  C  C18  1  0.00000000  0.15058700  0.57075400  1
  C  C19  1  0.00000000  0.84941300  0.42924600  1
  C  C20  1  0.25879700  0.10744800  0.29559100  1
  C  C21  1  0.74120300  0.89255200  0.70440900  1
  C  C22  1  0.25879700  0.89255200  0.70440900  1
  C  C23  1  0.74120300  0.39255200  0.79559100  1
  C  C24  1  0.74120300  0.10744800  0.29559100  1
  C  C25  1  0.25879700  0.60744800  0.20440900  1
  C  C26  1  0.74120300  0.60744800  0.20440900  1
  C  C27  1  0.25879700  0.39255200  0.79559100  1
  C  C28  1  0.50000000  0.33870300  0.05785500  1
  C  C29  1  0.50000000  0.66129700  0.94214500  1
  C  C30  1  0.50000000  0.16129700  0.55785500  1
  C  C31  1  0.50000000  0.83870300  0.44214500  1
