# generated using pymatgen
data_Cu4NiC4
_symmetry_space_group_name_H-M   'P 1'
_cell_length_a   5.21591769
_cell_length_b   5.21591769
_cell_length_c   8.67823198
_cell_angle_alpha   71.52736880
_cell_angle_beta   71.52736880
_cell_angle_gamma   42.18717299
_symmetry_Int_Tables_number   1
_chemical_formula_structural   Cu4NiC4
_chemical_formula_sum   'Cu4 Ni1 C4'
_cell_volume   149.12964621
_cell_formula_units_Z   1
loop_
 _symmetry_equiv_pos_site_id
 _symmetry_equiv_pos_as_xyz
  1  'x, y, z'
loop_
 _atom_site_type_symbol
 _atom_site_label
 _atom_site_symmetry_multiplicity
 _atom_site_fract_x
 _atom_site_fract_y
 _atom_site_fract_z
 _atom_site_occupancy
  C  C0  1  0.10796000  0.10796000  0.61925900  1
  C  C1  1  0.89204000  0.89204000  0.38074100  1
  C  C2  1  0.75374100  0.75374100  0.84215000  1
  C  C3  1  0.24625900  0.24625900  0.15785000  1
  Ni  Ni4  1  0.00000000  0.00000000  0.00000000  1
  Cu  Cu5  1  0.38471800  0.38471800  0.61355000  1
  Cu  Cu6  1  0.61528200  0.61528200  0.38645000  1
  Cu  Cu7  1  0.46231600  0.46231600  0.85009500  1
  Cu  Cu8  1  0.53768400  0.53768400  0.14990500  1
