# generated using pymatgen
data_Cu5NiC3
_symmetry_space_group_name_H-M   'P 1'
_cell_length_a   3.18182000
_cell_length_b   6.82475000
_cell_length_c   10.79074255
_cell_angle_alpha   71.61897147
_cell_angle_beta   90.00000000
_cell_angle_gamma   90.00000000
_symmetry_Int_Tables_number   1
_chemical_formula_structural   Cu5NiC3
_chemical_formula_sum   'Cu10 Ni2 C6'
_cell_volume   222.36732059
_cell_formula_units_Z   2
loop_
 _symmetry_equiv_pos_site_id
 _symmetry_equiv_pos_as_xyz
  1  'x, y, z'
loop_
 _atom_site_type_symbol
 _atom_site_label
 _atom_site_symmetry_multiplicity
 _atom_site_fract_x
 _atom_site_fract_y
 _atom_site_fract_z
 _atom_site_occupancy
  C  C0  1  0.00000000  0.01496900  0.99552200  1
  C  C1  1  0.50000000  0.47307600  0.00292200  1
  C  C2  1  0.00000000  0.32474300  0.35277400  1
  C  C3  1  0.50000000  0.17043000  0.65833600  1
  C  C4  1  0.50000000  0.83445000  0.33161400  1
  C  C5  1  0.00000000  0.66608800  0.66915600  1
  Ni  Ni6  1  0.00000000  0.31341900  0.00291500  1
  Ni  Ni7  1  0.50000000  0.27113200  0.45726200  1
  Cu  Cu8  1  0.00000000  0.04519200  0.32626600  1
  Cu  Cu9  1  0.00000000  0.69066200  0.00254900  1
  Cu  Cu10  1  0.50000000  0.40539400  0.20415700  1
  Cu  Cu11  1  0.50000000  0.92411600  0.13423900  1
  Cu  Cu12  1  0.00000000  0.62883700  0.32958400  1
  Cu  Cu13  1  0.00000000  0.37170700  0.66909300  1
  Cu  Cu14  1  0.50000000  0.06355000  0.86020300  1
  Cu  Cu15  1  0.50000000  0.73534700  0.52945300  1
  Cu  Cu16  1  0.50000000  0.60511500  0.80784200  1
  Cu  Cu17  1  0.00000000  0.96177300  0.66611100  1
