# generated using pymatgen
data_Cu(NiC2)4
_symmetry_space_group_name_H-M   'P 1'
_cell_length_a   7.01718345
_cell_length_b   7.01718345
_cell_length_c   7.01718345
_cell_angle_alpha   60.00000000
_cell_angle_beta   60.00000000
_cell_angle_gamma   60.00000000
_symmetry_Int_Tables_number   1
_chemical_formula_structural   Cu(NiC2)4
_chemical_formula_sum   'Cu1 Ni4 C8'
_cell_volume   244.32814224
_cell_formula_units_Z   1
loop_
 _symmetry_equiv_pos_site_id
 _symmetry_equiv_pos_as_xyz
  1  'x, y, z'
loop_
 _atom_site_type_symbol
 _atom_site_label
 _atom_site_symmetry_multiplicity
 _atom_site_fract_x
 _atom_site_fract_y
 _atom_site_fract_z
 _atom_site_occupancy
  Ni  Ni0  1  0.60224800  0.13258400  0.13258400  1
  Ni  Ni1  1  0.13258400  0.60224800  0.13258400  1
  Ni  Ni2  1  0.13258400  0.13258400  0.60224800  1
  Ni  Ni3  1  0.13258400  0.13258400  0.13258400  1
  Cu  Cu4  1  0.75000000  0.75000000  0.75000000  1
  C  C5  1  0.34408100  0.88530600  0.88530600  1
  C  C6  1  0.88530600  0.34408100  0.88530600  1
  C  C7  1  0.88530600  0.88530600  0.34408100  1
  C  C8  1  0.88530600  0.88530600  0.88530600  1
  C  C9  1  0.89644900  0.36785000  0.36785000  1
  C  C10  1  0.36785000  0.89644900  0.36785000  1
  C  C11  1  0.36785000  0.36785000  0.89644900  1
  C  C12  1  0.36785000  0.36785000  0.36785000  1
