# generated using pymatgen
data_CuNiC6
_symmetry_space_group_name_H-M   'P 1'
_cell_length_a   11.01463400
_cell_length_b   5.61745000
_cell_length_c   7.94170471
_cell_angle_alpha   77.97526994
_cell_angle_beta   90.00000000
_cell_angle_gamma   90.00000000
_symmetry_Int_Tables_number   1
_chemical_formula_structural   CuNiC6
_chemical_formula_sum   'Cu4 Ni4 C24'
_cell_volume   480.60416369
_cell_formula_units_Z   4
loop_
 _symmetry_equiv_pos_site_id
 _symmetry_equiv_pos_as_xyz
  1  'x, y, z'
loop_
 _atom_site_type_symbol
 _atom_site_label
 _atom_site_symmetry_multiplicity
 _atom_site_fract_x
 _atom_site_fract_y
 _atom_site_fract_z
 _atom_site_occupancy
  C  C0  1  0.09559700  0.53179900  0.78881900  1
  C  C1  1  0.90440300  0.46820100  0.21118100  1
  C  C2  1  0.59559700  0.46820100  0.71118100  1
  C  C3  1  0.40440300  0.53179900  0.28881900  1
  Ni  Ni4  1  0.35905300  0.13911300  0.03313600  1
  Ni  Ni5  1  0.64094700  0.86088700  0.96686400  1
  Ni  Ni6  1  0.85905300  0.86088700  0.46686400  1
  Ni  Ni7  1  0.14094700  0.13911300  0.53313600  1
  Cu  Cu8  1  0.89987500  0.99544300  0.84101600  1
  Cu  Cu9  1  0.10012500  0.00455700  0.15898400  1
  Cu  Cu10  1  0.60012500  0.99544300  0.34101600  1
  Cu  Cu11  1  0.39987500  0.00455700  0.65898400  1
  C  C12  1  0.91732900  0.72308100  0.68490400  1
  C  C13  1  0.00188600  0.22527300  0.64416300  1
  C  C14  1  0.78847200  0.10506300  0.29814400  1
  C  C15  1  0.46400400  0.75816600  0.49836900  1
  C  C16  1  0.70747200  0.76757200  0.53801400  1
  C  C17  1  0.79252800  0.76757200  0.03801400  1
  C  C18  1  0.49811400  0.22527300  0.14416300  1
  C  C19  1  0.50188600  0.77472700  0.85583700  1
  C  C20  1  0.53599600  0.24183400  0.50163100  1
  C  C21  1  0.41732900  0.27691900  0.81509600  1
  C  C22  1  0.29252800  0.23242800  0.46198600  1
  C  C23  1  0.08267100  0.27691900  0.31509600  1
  C  C24  1  0.58267100  0.72308100  0.18490400  1
  C  C25  1  0.20747200  0.23242800  0.96198600  1
  C  C26  1  0.96400400  0.24183400  0.00163100  1
  C  C27  1  0.03599600  0.75816600  0.99836900  1
  C  C28  1  0.21152800  0.89493700  0.70185600  1
  C  C29  1  0.99811400  0.77472700  0.35583700  1
  C  C30  1  0.28847200  0.89493700  0.20185600  1
  C  C31  1  0.71152800  0.10506300  0.79814400  1
