# generated using pymatgen
data_CuNiC7
_symmetry_space_group_name_H-M   'P 1'
_cell_length_a   5.50196360
_cell_length_b   5.51554449
_cell_length_c   9.53477265
_cell_angle_alpha   106.35693016
_cell_angle_beta   106.40107948
_cell_angle_gamma   60.24011749
_symmetry_Int_Tables_number   1
_chemical_formula_structural   CuNiC7
_chemical_formula_sum   'Cu2 Ni2 C14'
_cell_volume   237.46136871
_cell_formula_units_Z   2
loop_
 _symmetry_equiv_pos_site_id
 _symmetry_equiv_pos_as_xyz
  1  'x, y, z'
loop_
 _atom_site_type_symbol
 _atom_site_label
 _atom_site_symmetry_multiplicity
 _atom_site_fract_x
 _atom_site_fract_y
 _atom_site_fract_z
 _atom_site_occupancy
  C  C0  1  0.87228000  0.89012400  0.12883700  1
  C  C1  1  0.37221100  0.39011100  0.62881700  1
  Ni  Ni2  1  0.75384900  0.75642700  0.75507200  1
  Ni  Ni3  1  0.25404200  0.25638800  0.25525000  1
  Cu  Cu4  1  0.50555700  0.50698400  0.00486100  1
  Cu  Cu5  1  0.00539600  0.00689300  0.50461100  1
  C  C6  1  0.30733200  0.45252200  0.12620100  1
  C  C7  1  0.80710300  0.95244000  0.62590400  1
  C  C8  1  0.85515100  0.36525800  0.14663600  1
  C  C9  1  0.35523800  0.86497500  0.64640900  1
  C  C10  1  0.65912500  0.12695600  0.35799700  1
  C  C11  1  0.15924800  0.62696700  0.85813500  1
  C  C12  1  0.12703900  0.61549700  0.40319700  1
  C  C13  1  0.62723300  0.11543200  0.90326500  1
  C  C14  1  0.39450900  0.89048800  0.11281300  1
  C  C15  1  0.89451000  0.39044200  0.61268500  1
  C  C16  1  0.18588200  0.07692000  0.38529200  1
  C  C17  1  0.68606000  0.57705500  0.88542800  1
