# generated using pymatgen
data_Cu6NiC5
_symmetry_space_group_name_H-M   'P 1'
_cell_length_a   7.96713100
_cell_length_b   14.17907300
_cell_length_c   10.49207400
_cell_angle_alpha   90.00000000
_cell_angle_beta   90.00000000
_cell_angle_gamma   90.00000000
_symmetry_Int_Tables_number   1
_chemical_formula_structural   Cu6NiC5
_chemical_formula_sum   'Cu48 Ni8 C40'
_cell_volume   1185.25321379
_cell_formula_units_Z   8
loop_
 _symmetry_equiv_pos_site_id
 _symmetry_equiv_pos_as_xyz
  1  'x, y, z'
loop_
 _atom_site_type_symbol
 _atom_site_label
 _atom_site_symmetry_multiplicity
 _atom_site_fract_x
 _atom_site_fract_y
 _atom_site_fract_z
 _atom_site_occupancy
  C  C0  1  0.07558600  0.00890600  0.83736100  1
  C  C1  1  0.42441400  0.99109400  0.33736100  1
  C  C2  1  0.57558600  0.49109400  0.16263900  1
  C  C3  1  0.92441400  0.50890600  0.66263900  1
  C  C4  1  0.92441400  0.99109400  0.16263900  1
  C  C5  1  0.57558600  0.00890600  0.66263900  1
  C  C6  1  0.42441400  0.50890600  0.83736100  1
  C  C7  1  0.07558600  0.49109400  0.33736100  1
  C  C8  1  0.93858300  0.84499000  0.95500900  1
  C  C9  1  0.56141700  0.15501000  0.45500900  1
  C  C10  1  0.43858300  0.65501000  0.04499100  1
  C  C11  1  0.06141700  0.34499000  0.54499100  1
  C  C12  1  0.06141700  0.15501000  0.04499100  1
  C  C13  1  0.43858300  0.84499000  0.54499100  1
  C  C14  1  0.56141700  0.34499000  0.95500900  1
  C  C15  1  0.93858300  0.65501000  0.45500900  1
  C  C16  1  0.78285200  0.90921000  0.93111900  1
  C  C17  1  0.71714800  0.09079000  0.43111900  1
  C  C18  1  0.28285200  0.59079000  0.06888100  1
  C  C19  1  0.21714800  0.40921000  0.56888100  1
  C  C20  1  0.21714800  0.09079000  0.06888100  1
  C  C21  1  0.28285200  0.90921000  0.56888100  1
  C  C22  1  0.71714800  0.40921000  0.93111900  1
  C  C23  1  0.78285200  0.59079000  0.43111900  1
  C  C24  1  0.84806200  0.14410500  0.71365900  1
  C  C25  1  0.65193800  0.85589500  0.21365900  1
  C  C26  1  0.34806200  0.35589500  0.28634100  1
  C  C27  1  0.15193800  0.64410500  0.78634100  1
  C  C28  1  0.15193800  0.85589500  0.28634100  1
  C  C29  1  0.34806200  0.14410500  0.78634100  1
  C  C30  1  0.65193800  0.64410500  0.71365900  1
  C  C31  1  0.84806200  0.35589500  0.21365900  1
  C  C32  1  0.76761500  0.12266400  0.84511800  1
  C  C33  1  0.73238500  0.87733600  0.34511800  1
  C  C34  1  0.26761500  0.37733600  0.15488200  1
  C  C35  1  0.23238500  0.62266400  0.65488200  1
  C  C36  1  0.23238500  0.87733600  0.15488200  1
  C  C37  1  0.26761500  0.12266400  0.65488200  1
  C  C38  1  0.73238500  0.62266400  0.84511800  1
  C  C39  1  0.76761500  0.37733600  0.34511800  1
  Ni  Ni40  1  0.93221300  0.84939100  0.59143700  1
  Ni  Ni41  1  0.56778700  0.15060900  0.09143700  1
  Ni  Ni42  1  0.43221300  0.65060900  0.40856300  1
  Ni  Ni43  1  0.06778700  0.34939100  0.90856300  1
  Ni  Ni44  1  0.06778700  0.15060900  0.40856300  1
  Ni  Ni45  1  0.43221300  0.84939100  0.90856300  1
  Ni  Ni46  1  0.56778700  0.34939100  0.59143700  1
  Ni  Ni47  1  0.93221300  0.65060900  0.09143700  1
  Cu  Cu48  1  0.05702000  0.91826600  0.63735300  1
  Cu  Cu49  1  0.44298000  0.08173400  0.13735300  1
  Cu  Cu50  1  0.55702000  0.58173400  0.36264700  1
  Cu  Cu51  1  0.94298000  0.41826600  0.86264700  1
  Cu  Cu52  1  0.94298000  0.08173400  0.36264700  1
  Cu  Cu53  1  0.55702000  0.91826600  0.86264700  1
  Cu  Cu54  1  0.44298000  0.41826600  0.63735300  1
  Cu  Cu55  1  0.05702000  0.58173400  0.13735300  1
  Cu  Cu56  1  0.90460200  0.77763400  0.68792000  1
  Cu  Cu57  1  0.59539800  0.22236600  0.18792000  1
  Cu  Cu58  1  0.40460200  0.72236600  0.31208000  1
  Cu  Cu59  1  0.09539800  0.27763400  0.81208000  1
  Cu  Cu60  1  0.09539800  0.22236600  0.31208000  1
  Cu  Cu61  1  0.40460200  0.77763400  0.81208000  1
  Cu  Cu62  1  0.59539800  0.27763400  0.68792000  1
  Cu  Cu63  1  0.90460200  0.72236600  0.18792000  1
  Cu  Cu64  1  0.77533700  0.89879500  0.56324500  1
  Cu  Cu65  1  0.72466300  0.10120500  0.06324500  1
  Cu  Cu66  1  0.27533700  0.60120500  0.43675500  1
  Cu  Cu67  1  0.22466300  0.39879500  0.93675500  1
  Cu  Cu68  1  0.22466300  0.10120500  0.43675500  1
  Cu  Cu69  1  0.27533700  0.89879500  0.93675500  1
  Cu  Cu70  1  0.72466300  0.39879500  0.56324500  1
  Cu  Cu71  1  0.77533700  0.60120500  0.06324500  1
  Cu  Cu72  1  0.99467500  0.80600400  0.47389300  1
  Cu  Cu73  1  0.50532500  0.19399600  0.97389300  1
  Cu  Cu74  1  0.49467500  0.69399600  0.52610700  1
  Cu  Cu75  1  0.00532500  0.30600400  0.02610700  1
  Cu  Cu76  1  0.00532500  0.19399600  0.52610700  1
  Cu  Cu77  1  0.49467500  0.80600400  0.02610700  1
  Cu  Cu78  1  0.50532500  0.30600400  0.47389300  1
  Cu  Cu79  1  0.99467500  0.69399600  0.97389300  1
  Cu  Cu80  1  0.81372700  0.09222000  0.76908100  1
  Cu  Cu81  1  0.68627300  0.90778000  0.26908100  1
  Cu  Cu82  1  0.31372700  0.40778000  0.23091900  1
  Cu  Cu83  1  0.18627300  0.59222000  0.73091900  1
  Cu  Cu84  1  0.18627300  0.90778000  0.23091900  1
  Cu  Cu85  1  0.31372700  0.09222000  0.73091900  1
  Cu  Cu86  1  0.68627300  0.59222000  0.76908100  1
  Cu  Cu87  1  0.81372700  0.40778000  0.26908100  1
  Cu  Cu88  1  0.89944300  0.91030200  0.96122400  1
  Cu  Cu89  1  0.60055700  0.08969800  0.46122400  1
  Cu  Cu90  1  0.39944300  0.58969800  0.03877600  1
  Cu  Cu91  1  0.10055700  0.41030200  0.53877600  1
  Cu  Cu92  1  0.10055700  0.08969800  0.03877600  1
  Cu  Cu93  1  0.39944300  0.91030200  0.53877600  1
  Cu  Cu94  1  0.60055700  0.41030200  0.96122400  1
  Cu  Cu95  1  0.89944300  0.58969800  0.46122400  1
