# generated using pymatgen
data_Cu2NiC4
_symmetry_space_group_name_H-M   'P 1'
_cell_length_a   5.18776600
_cell_length_b   5.25547394
_cell_length_c   5.25547394
_cell_angle_alpha   75.90089649
_cell_angle_beta   60.42526940
_cell_angle_gamma   60.42526940
_symmetry_Int_Tables_number   1
_chemical_formula_structural   Cu2NiC4
_chemical_formula_sum   'Cu2 Ni1 C4'
_cell_volume   108.38165185
_cell_formula_units_Z   1
loop_
 _symmetry_equiv_pos_site_id
 _symmetry_equiv_pos_as_xyz
  1  'x, y, z'
loop_
 _atom_site_type_symbol
 _atom_site_label
 _atom_site_symmetry_multiplicity
 _atom_site_fract_x
 _atom_site_fract_y
 _atom_site_fract_z
 _atom_site_occupancy
  Ni  Ni0  1  0.00000000  0.00000000  0.00000000  1
  Cu  Cu1  1  0.25000000  0.50000000  0.50000000  1
  Cu  Cu2  1  0.75000000  0.50000000  0.50000000  1
  C  C3  1  0.30232300  0.39535400  0.00000000  1
  C  C4  1  0.69767700  0.60464600  0.00000000  1
  C  C5  1  0.30232300  0.00000000  0.39535400  1
  C  C6  1  0.69767700  0.00000000  0.60464600  1
