# generated using pymatgen
data_CuNi2
_symmetry_space_group_name_H-M   'P 1'
_cell_length_a   6.15188200
_cell_length_b   6.14348200
_cell_length_c   6.24867269
_cell_angle_alpha   66.97179641
_cell_angle_beta   90.00000000
_cell_angle_gamma   90.00000000
_symmetry_Int_Tables_number   1
_chemical_formula_structural   CuNi2
_chemical_formula_sum   'Cu4 Ni8'
_cell_volume   217.34299131
_cell_formula_units_Z   4
loop_
 _symmetry_equiv_pos_site_id
 _symmetry_equiv_pos_as_xyz
  1  'x, y, z'
loop_
 _atom_site_type_symbol
 _atom_site_label
 _atom_site_symmetry_multiplicity
 _atom_site_fract_x
 _atom_site_fract_y
 _atom_site_fract_z
 _atom_site_occupancy
  Ni  Ni0  1  0.12689900  0.84599500  0.87487100  1
  Ni  Ni1  1  0.62689900  0.15400500  0.62512900  1
  Ni  Ni2  1  0.87310100  0.15400500  0.12512900  1
  Ni  Ni3  1  0.37310100  0.84599500  0.37487100  1
  Ni  Ni4  1  0.62965300  0.66152100  0.18453100  1
  Ni  Ni5  1  0.12965300  0.33847900  0.31546900  1
  Ni  Ni6  1  0.37034700  0.33847900  0.81546900  1
  Ni  Ni7  1  0.87034700  0.66152100  0.68453100  1
  Cu  Cu8  1  0.50004100  0.72760800  0.79212500  1
  Cu  Cu9  1  0.00004100  0.27239200  0.70787500  1
  Cu  Cu10  1  0.49995900  0.27239200  0.20787500  1
  Cu  Cu11  1  0.99995900  0.72760800  0.29212500  1
