# generated using pymatgen
data_Cu4NiC8
_symmetry_space_group_name_H-M   'P 1'
_cell_length_a   6.03992052
_cell_length_b   6.03992052
_cell_length_c   6.03992079
_cell_angle_alpha   58.27589689
_cell_angle_beta   58.27589689
_cell_angle_gamma   58.27590052
_symmetry_Int_Tables_number   1
_chemical_formula_structural   Cu4NiC8
_chemical_formula_sum   'Cu4 Ni1 C8'
_cell_volume   149.65140850
_cell_formula_units_Z   1
loop_
 _symmetry_equiv_pos_site_id
 _symmetry_equiv_pos_as_xyz
  1  'x, y, z'
loop_
 _atom_site_type_symbol
 _atom_site_label
 _atom_site_symmetry_multiplicity
 _atom_site_fract_x
 _atom_site_fract_y
 _atom_site_fract_z
 _atom_site_occupancy
  Ni  Ni0  1  0.50000000  0.50000000  0.50000000  1
  Cu  Cu1  1  0.00000000  0.50000000  0.50000000  1
  Cu  Cu2  1  0.50000000  0.00000000  0.50000000  1
  Cu  Cu3  1  0.50000000  0.50000000  0.00000000  1
  Cu  Cu4  1  0.00000000  0.00000000  0.00000000  1
  C  C5  1  0.28072300  0.75599500  0.75599500  1
  C  C6  1  0.24400500  0.24400500  0.71927700  1
  C  C7  1  0.71927700  0.24400500  0.24400500  1
  C  C8  1  0.24400500  0.71927700  0.24400500  1
  C  C9  1  0.26728200  0.26728200  0.26728200  1
  C  C10  1  0.73271800  0.73271800  0.73271800  1
  C  C11  1  0.75599500  0.28072300  0.75599500  1
  C  C12  1  0.75599500  0.75599500  0.28072300  1
