# generated using pymatgen
data_Cu6Ni3C2
_symmetry_space_group_name_H-M   'P 1'
_cell_length_a   6.18138901
_cell_length_b   6.07902202
_cell_length_c   13.17756823
_cell_angle_alpha   90.71449872
_cell_angle_beta   89.85512134
_cell_angle_gamma   111.05902021
_symmetry_Int_Tables_number   1
_chemical_formula_structural   Cu6Ni3C2
_chemical_formula_sum   'Cu12 Ni6 C4'
_cell_volume   462.06182773
_cell_formula_units_Z   2
loop_
 _symmetry_equiv_pos_site_id
 _symmetry_equiv_pos_as_xyz
  1  'x, y, z'
loop_
 _atom_site_type_symbol
 _atom_site_label
 _atom_site_symmetry_multiplicity
 _atom_site_fract_x
 _atom_site_fract_y
 _atom_site_fract_z
 _atom_site_occupancy
  C  C0  1  0.43621700  0.27677200  0.40354500  1
  C  C1  1  0.45718900  0.22347800  0.89143100  1
  C  C2  1  0.06577700  0.91418900  0.65813400  1
  C  C3  1  0.10010100  0.88214300  0.13685700  1
  Ni  Ni4  1  0.10985200  0.55064800  0.82295000  1
  Ni  Ni5  1  0.08938800  0.60656200  0.34639200  1
  Ni  Ni6  1  0.59705800  0.41565300  0.15546500  1
  Ni  Ni7  1  0.77612800  0.91555800  0.45194100  1
  Ni  Ni8  1  0.60892200  0.43318100  0.64719300  1
  Ni  Ni9  1  0.86459300  0.96179000  0.88420400  1
  Cu  Cu10  1  0.24470200  0.79547700  0.75953600  1
  Cu  Cu11  1  0.76539900  0.70542300  0.17299700  1
  Cu  Cu12  1  0.83048200  0.96900300  0.75681100  1
  Cu  Cu13  1  0.20337100  0.85388200  0.28126700  1
  Cu  Cu14  1  0.14317300  0.54236400  0.09740600  1
  Cu  Cu15  1  0.99484400  0.05078400  0.51788800  1
  Cu  Cu16  1  0.00631700  0.34637400  0.12845000  1
  Cu  Cu17  1  0.54602900  0.89211000  0.50236500  1
  Cu  Cu18  1  0.97988600  0.94751500  0.99999800  1
  Cu  Cu19  1  0.33621500  0.22359700  0.67264800  1
  Cu  Cu20  1  0.40608700  0.13873200  0.11550700  1
  Cu  Cu21  1  0.86697000  0.59246500  0.59631400  1
