# generated using pymatgen
data_Cu4NiC13
_symmetry_space_group_name_H-M   'P 1'
_cell_length_a   3.14688386
_cell_length_b   6.20659326
_cell_length_c   9.24762530
_cell_angle_alpha   104.26641519
_cell_angle_beta   90.60541309
_cell_angle_gamma   92.32611320
_symmetry_Int_Tables_number   1
_chemical_formula_structural   Cu4NiC13
_chemical_formula_sum   'Cu4 Ni1 C13'
_cell_volume   174.86539312
_cell_formula_units_Z   1
loop_
 _symmetry_equiv_pos_site_id
 _symmetry_equiv_pos_as_xyz
  1  'x, y, z'
loop_
 _atom_site_type_symbol
 _atom_site_label
 _atom_site_symmetry_multiplicity
 _atom_site_fract_x
 _atom_site_fract_y
 _atom_site_fract_z
 _atom_site_occupancy
  Ni  Ni0  1  0.26654000  0.78470600  0.64041900  1
  C  C1  1  0.76288600  0.62275800  0.89706900  1
  C  C2  1  0.23852000  0.37824100  0.10229800  1
  C  C3  1  0.72486300  0.20659100  0.35001800  1
  Cu  Cu4  1  0.30496200  0.31719100  0.64286000  1
  Cu  Cu5  1  0.69712200  0.68176600  0.35575900  1
  Cu  Cu6  1  0.66747700  0.12031200  0.83390100  1
  Cu  Cu7  1  0.33162900  0.87959000  0.16800700  1
  C  C8  1  0.26044300  0.52270300  0.74195900  1
  C  C9  1  0.74282600  0.47694800  0.25920500  1
  C  C10  1  0.23282300  0.27660900  0.49425200  1
  C  C11  1  0.76628700  0.72599500  0.50449700  1
  C  C12  1  0.44585400  0.14136500  0.70213700  1
  C  C13  1  0.55537200  0.85820600  0.29873100  1
  C  C14  1  0.78386200  0.91035900  0.82582900  1
  C  C15  1  0.22006900  0.09362900  0.18133600  1
  C  C16  1  0.73825800  0.30742800  0.94961800  1
  C  C17  1  0.26020800  0.69560200  0.05210700  1
