# generated using pymatgen
data_CuNiC10
_symmetry_space_group_name_H-M   'P 1'
_cell_length_a   8.10862700
_cell_length_b   12.88062600
_cell_length_c   19.89954400
_cell_angle_alpha   90.00000000
_cell_angle_beta   90.00000000
_cell_angle_gamma   90.00000000
_symmetry_Int_Tables_number   1
_chemical_formula_structural   CuNiC10
_chemical_formula_sum   'Cu4 Ni4 C40'
_cell_volume   2078.39178948
_cell_formula_units_Z   4
loop_
 _symmetry_equiv_pos_site_id
 _symmetry_equiv_pos_as_xyz
  1  'x, y, z'
loop_
 _atom_site_type_symbol
 _atom_site_label
 _atom_site_symmetry_multiplicity
 _atom_site_fract_x
 _atom_site_fract_y
 _atom_site_fract_z
 _atom_site_occupancy
  Ni  Ni0  1  0.61802900  0.82384600  0.25000000  1
  Ni  Ni1  1  0.88197100  0.32384600  0.25000000  1
  Ni  Ni2  1  0.38197100  0.17615400  0.75000000  1
  Ni  Ni3  1  0.11802900  0.67615400  0.75000000  1
  Cu  Cu4  1  0.50000000  0.50000000  0.00000000  1
  Cu  Cu5  1  0.00000000  0.00000000  0.50000000  1
  Cu  Cu6  1  0.50000000  0.50000000  0.50000000  1
  Cu  Cu7  1  0.00000000  0.00000000  0.00000000  1
  C  C8  1  0.76649200  0.59296400  0.94670900  1
  C  C9  1  0.73350800  0.09296400  0.55329100  1
  C  C10  1  0.23350800  0.40703600  0.44670900  1
  C  C11  1  0.26649200  0.90703600  0.05329100  1
  C  C12  1  0.23350800  0.40703600  0.05329100  1
  C  C13  1  0.26649200  0.90703600  0.44670900  1
  C  C14  1  0.76649200  0.59296400  0.55329100  1
  C  C15  1  0.73350800  0.09296400  0.94670900  1
  C  C16  1  0.76737100  0.39846700  0.04748600  1
  C  C17  1  0.73262900  0.89846700  0.45251400  1
  C  C18  1  0.23262900  0.60153300  0.54748600  1
  C  C19  1  0.26737100  0.10153300  0.95251400  1
  C  C20  1  0.23262900  0.60153300  0.95251400  1
  C  C21  1  0.26737100  0.10153300  0.54748600  1
  C  C22  1  0.76737100  0.39846700  0.45251400  1
  C  C23  1  0.73262900  0.89846700  0.04748600  1
  C  C24  1  0.95347700  0.83208300  0.25000000  1
  C  C25  1  0.54652300  0.33208300  0.25000000  1
  C  C26  1  0.04652300  0.16791700  0.75000000  1
  C  C27  1  0.45347700  0.66791700  0.75000000  1
  C  C28  1  0.45564900  0.00763600  0.25000000  1
  C  C29  1  0.04435100  0.50763600  0.25000000  1
  C  C30  1  0.54435100  0.99236400  0.75000000  1
  C  C31  1  0.95564900  0.49236400  0.75000000  1
  C  C32  1  0.50563500  0.71394600  0.13591200  1
  C  C33  1  0.99436500  0.21394600  0.36408800  1
  C  C34  1  0.49436500  0.28605400  0.63591200  1
  C  C35  1  0.00563500  0.78605400  0.86408800  1
  C  C36  1  0.49436500  0.28605400  0.86408800  1
  C  C37  1  0.00563500  0.78605400  0.63591200  1
  C  C38  1  0.50563500  0.71394600  0.36408800  1
  C  C39  1  0.99436500  0.21394600  0.13591200  1
  C  C40  1  0.48828300  0.84383200  0.89561300  1
  C  C41  1  0.01171700  0.34383200  0.60438700  1
  C  C42  1  0.51171700  0.15616800  0.39561300  1
  C  C43  1  0.98828300  0.65616800  0.10438700  1
  C  C44  1  0.51171700  0.15616800  0.10438700  1
  C  C45  1  0.98828300  0.65616800  0.39561300  1
  C  C46  1  0.48828300  0.84383200  0.60438700  1
  C  C47  1  0.01171700  0.34383200  0.89561300  1
