# generated using pymatgen
data_Cu4Ni43C6
_symmetry_space_group_name_H-M   'P 1'
_cell_length_a   10.88778217
_cell_length_b   10.88778217
_cell_length_c   17.39534300
_cell_angle_alpha   90.00000000
_cell_angle_beta   90.00000000
_cell_angle_gamma   120.00000104
_symmetry_Int_Tables_number   1
_chemical_formula_structural   Cu4Ni43C6
_chemical_formula_sum   'Cu8 Ni86 C12'
_cell_volume   1785.83968901
_cell_formula_units_Z   2
loop_
 _symmetry_equiv_pos_site_id
 _symmetry_equiv_pos_as_xyz
  1  'x, y, z'
loop_
 _atom_site_type_symbol
 _atom_site_label
 _atom_site_symmetry_multiplicity
 _atom_site_fract_x
 _atom_site_fract_y
 _atom_site_fract_z
 _atom_site_occupancy
  C  C0  1  0.46967900  0.46967900  0.90475400  1
  C  C1  1  0.53032100  0.00000000  0.90475400  1
  C  C2  1  0.00000000  0.53032100  0.90475400  1
  C  C3  1  0.53032100  0.53032100  0.09524600  1
  C  C4  1  0.46967900  0.00000000  0.09524600  1
  C  C5  1  0.00000000  0.46967900  0.09524600  1
  C  C6  1  0.53032100  0.53032100  0.40475400  1
  C  C7  1  0.46967900  0.00000000  0.40475400  1
  C  C8  1  0.00000000  0.46967900  0.40475400  1
  C  C9  1  0.46967900  0.46967900  0.59524600  1
  C  C10  1  0.53032100  0.00000000  0.59524600  1
  C  C11  1  0.00000000  0.53032100  0.59524600  1
  Ni  Ni12  1  0.84113900  0.23190900  0.83487700  1
  Ni  Ni13  1  0.76809100  0.60923000  0.83487700  1
  Ni  Ni14  1  0.39077000  0.15886100  0.83487700  1
  Ni  Ni15  1  0.23190900  0.84113900  0.83487700  1
  Ni  Ni16  1  0.60923000  0.76809100  0.83487700  1
  Ni  Ni17  1  0.15886100  0.39077000  0.83487700  1
  Ni  Ni18  1  0.15886100  0.76809100  0.16512300  1
  Ni  Ni19  1  0.23190900  0.39077000  0.16512300  1
  Ni  Ni20  1  0.60923000  0.84113900  0.16512300  1
  Ni  Ni21  1  0.76809100  0.15886100  0.16512300  1
  Ni  Ni22  1  0.39077000  0.23190900  0.16512300  1
  Ni  Ni23  1  0.84113900  0.60923000  0.16512300  1
  Ni  Ni24  1  0.15886100  0.76809100  0.33487700  1
  Ni  Ni25  1  0.23190900  0.39077000  0.33487700  1
  Ni  Ni26  1  0.60923000  0.84113900  0.33487700  1
  Ni  Ni27  1  0.76809100  0.15886100  0.33487700  1
  Ni  Ni28  1  0.39077000  0.23190900  0.33487700  1
  Ni  Ni29  1  0.84113900  0.60923000  0.33487700  1
  Ni  Ni30  1  0.84113900  0.23190900  0.66512300  1
  Ni  Ni31  1  0.76809100  0.60923000  0.66512300  1
  Ni  Ni32  1  0.39077000  0.15886100  0.66512300  1
  Ni  Ni33  1  0.23190900  0.84113900  0.66512300  1
  Ni  Ni34  1  0.60923000  0.76809100  0.66512300  1
  Ni  Ni35  1  0.15886100  0.39077000  0.66512300  1
  Ni  Ni36  1  0.84491900  0.84491900  0.38409300  1
  Ni  Ni37  1  0.15508100  0.00000000  0.38409300  1
  Ni  Ni38  1  0.00000000  0.15508100  0.38409300  1
  Ni  Ni39  1  0.15508100  0.15508100  0.61590700  1
  Ni  Ni40  1  0.84491900  0.00000000  0.61590700  1
  Ni  Ni41  1  0.00000000  0.84491900  0.61590700  1
  Ni  Ni42  1  0.15508100  0.15508100  0.88409300  1
  Ni  Ni43  1  0.84491900  0.00000000  0.88409300  1
  Ni  Ni44  1  0.00000000  0.84491900  0.88409300  1
  Ni  Ni45  1  0.84491900  0.84491900  0.11590700  1
  Ni  Ni46  1  0.15508100  0.00000000  0.11590700  1
  Ni  Ni47  1  0.00000000  0.15508100  0.11590700  1
  Ni  Ni48  1  0.74808000  0.74808000  0.96936100  1
  Ni  Ni49  1  0.25192000  0.00000000  0.96936100  1
  Ni  Ni50  1  0.00000000  0.25192000  0.96936100  1
  Ni  Ni51  1  0.25192000  0.25192000  0.03063900  1
  Ni  Ni52  1  0.74808000  0.00000000  0.03063900  1
  Ni  Ni53  1  0.00000000  0.74808000  0.03063900  1
  Ni  Ni54  1  0.25192000  0.25192000  0.46936100  1
  Ni  Ni55  1  0.74808000  0.00000000  0.46936100  1
  Ni  Ni56  1  0.00000000  0.74808000  0.46936100  1
  Ni  Ni57  1  0.74808000  0.74808000  0.53063900  1
  Ni  Ni58  1  0.25192000  0.00000000  0.53063900  1
  Ni  Ni59  1  0.00000000  0.25192000  0.53063900  1
  Ni  Ni60  1  0.85552000  0.45171700  0.75000000  1
  Ni  Ni61  1  0.54828300  0.40380300  0.75000000  1
  Ni  Ni62  1  0.59619700  0.14448000  0.75000000  1
  Ni  Ni63  1  0.45171700  0.85552000  0.75000000  1
  Ni  Ni64  1  0.40380300  0.54828300  0.75000000  1
  Ni  Ni65  1  0.14448000  0.59619700  0.75000000  1
  Ni  Ni66  1  0.14448000  0.54828300  0.25000000  1
  Ni  Ni67  1  0.45171700  0.59619700  0.25000000  1
  Ni  Ni68  1  0.40380300  0.85552000  0.25000000  1
  Ni  Ni69  1  0.54828300  0.14448000  0.25000000  1
  Ni  Ni70  1  0.59619700  0.45171700  0.25000000  1
  Ni  Ni71  1  0.85552000  0.40380300  0.25000000  1
  Ni  Ni72  1  0.75326200  0.24673800  0.00000000  1
  Ni  Ni73  1  0.75326200  0.50652400  0.00000000  1
  Ni  Ni74  1  0.49347600  0.24673800  0.00000000  1
  Ni  Ni75  1  0.24673800  0.75326200  0.00000000  1
  Ni  Ni76  1  0.50652400  0.75326200  0.00000000  1
  Ni  Ni77  1  0.24673800  0.49347600  0.00000000  1
  Ni  Ni78  1  0.24673800  0.75326200  0.50000000  1
  Ni  Ni79  1  0.24673800  0.49347600  0.50000000  1
  Ni  Ni80  1  0.50652400  0.75326200  0.50000000  1
  Ni  Ni81  1  0.75326200  0.24673800  0.50000000  1
  Ni  Ni82  1  0.49347600  0.24673800  0.50000000  1
  Ni  Ni83  1  0.75326200  0.50652400  0.50000000  1
  Ni  Ni84  1  0.66666700  0.33333300  0.87256900  1
  Ni  Ni85  1  0.33333300  0.66666700  0.87256900  1
  Ni  Ni86  1  0.33333300  0.66666700  0.12743100  1
  Ni  Ni87  1  0.66666700  0.33333300  0.12743100  1
  Ni  Ni88  1  0.33333300  0.66666700  0.37256900  1
  Ni  Ni89  1  0.66666700  0.33333300  0.37256900  1
  Ni  Ni90  1  0.66666700  0.33333300  0.62743100  1
  Ni  Ni91  1  0.33333300  0.66666700  0.62743100  1
  Ni  Ni92  1  0.85476800  0.85476800  0.75000000  1
  Ni  Ni93  1  0.14523200  0.00000000  0.75000000  1
  Ni  Ni94  1  0.00000000  0.14523200  0.75000000  1
  Ni  Ni95  1  0.14523200  0.14523200  0.25000000  1
  Ni  Ni96  1  0.85476800  0.00000000  0.25000000  1
  Ni  Ni97  1  0.00000000  0.85476800  0.25000000  1
  Cu  Cu98  1  0.27025900  0.27025900  0.75000000  1
  Cu  Cu99  1  0.72974100  0.00000000  0.75000000  1
  Cu  Cu100  1  0.00000000  0.72974100  0.75000000  1
  Cu  Cu101  1  0.72974100  0.72974100  0.25000000  1
  Cu  Cu102  1  0.27025900  0.00000000  0.25000000  1
  Cu  Cu103  1  0.00000000  0.27025900  0.25000000  1
  Cu  Cu104  1  0.00000000  0.00000000  0.00000000  1
  Cu  Cu105  1  0.00000000  0.00000000  0.50000000  1
