# generated using pymatgen
data_Cu149Ni
_symmetry_space_group_name_H-M   'P 1'
_cell_length_a   15.94795905
_cell_length_b   15.94796290
_cell_length_c   15.60625750
_cell_angle_alpha   90.00000000
_cell_angle_beta   90.00000000
_cell_angle_gamma   120.00001226
_symmetry_Int_Tables_number   1
_chemical_formula_structural   Cu149Ni
_chemical_formula_sum   'Cu149 Ni1'
_cell_volume   3437.47600136
_cell_formula_units_Z   1
loop_
 _symmetry_equiv_pos_site_id
 _symmetry_equiv_pos_as_xyz
  1  'x, y, z'
loop_
 _atom_site_type_symbol
 _atom_site_label
 _atom_site_symmetry_multiplicity
 _atom_site_fract_x
 _atom_site_fract_y
 _atom_site_fract_z
 _atom_site_occupancy
  Ni  Ni0  1  0.00000000  0.00000000  0.00000000  1
  Cu  Cu1  1  0.60005508  0.20011015  0.00000000  1
  Cu  Cu2  1  0.79918187  0.20081713  0.00000000  1
  Cu  Cu3  1  0.40163526  0.20081713  0.00000000  1
  Cu  Cu4  1  0.20331672  0.20710656  0.00000000  1
  Cu  Cu5  1  0.00378984  0.20710656  0.00000000  1
  Cu  Cu6  1  0.79988985  0.39994492  0.00000000  1
  Cu  Cu7  1  0.60005508  0.39994492  0.00000000  1
  Cu  Cu8  1  0.40038430  0.40058453  0.00000000  1
  Cu  Cu9  1  0.00020023  0.40058553  0.00000000  1
  Cu  Cu10  1  0.20194464  0.40388927  0.00000000  1
  Cu  Cu11  1  0.79918187  0.59836474  0.00000000  1
  Cu  Cu12  1  0.59941447  0.59961470  0.00000000  1
  Cu  Cu13  1  0.00020023  0.59961470  0.00000000  1
  Cu  Cu14  1  0.20064179  0.60032039  0.00000000  1
  Cu  Cu15  1  0.39967961  0.60032139  0.00000000  1
  Cu  Cu16  1  0.00378984  0.79668328  0.00000000  1
  Cu  Cu17  1  0.79289344  0.79668328  0.00000000  1
  Cu  Cu18  1  0.59610973  0.79805536  0.00000000  1
  Cu  Cu19  1  0.20194464  0.79805536  0.00000000  1
  Cu  Cu20  1  0.39967961  0.79935821  0.00000000  1
  Cu  Cu21  1  0.20331672  0.99621016  0.00000000  1
  Cu  Cu22  1  0.79289344  0.99621016  0.00000000  1
  Cu  Cu23  1  0.40038430  0.99979877  0.00000000  1
  Cu  Cu24  1  0.59941447  0.99979877  0.00000000  1
  Cu  Cu25  1  0.86867667  0.13132233  0.16392618  1
  Cu  Cu26  1  0.26264565  0.13132233  0.16392618  1
  Cu  Cu27  1  0.86867667  0.73735435  0.16392618  1
  Cu  Cu28  1  0.66666600  0.33333300  0.16609586  1
  Cu  Cu29  1  0.46537256  0.13291185  0.16648590  1
  Cu  Cu30  1  0.66753929  0.13291185  0.16648590  1
  Cu  Cu31  1  0.86708815  0.33246071  0.16648590  1
  Cu  Cu32  1  0.46537256  0.33246071  0.16648590  1
  Cu  Cu33  1  0.66753929  0.53462744  0.16648590  1
  Cu  Cu34  1  0.86708815  0.53462744  0.16648590  1
  Cu  Cu35  1  0.46660341  0.53339659  0.16730978  1
  Cu  Cu36  1  0.06679218  0.53339659  0.16730978  1
  Cu  Cu37  1  0.46660341  0.93320782  0.16730978  1
  Cu  Cu38  1  0.26721421  0.53442943  0.16738610  1
  Cu  Cu39  1  0.46557057  0.73278479  0.16738610  1
  Cu  Cu40  1  0.26721421  0.73278479  0.16738610  1
  Cu  Cu41  1  0.26807212  0.33629014  0.16792189  1
  Cu  Cu42  1  0.06821701  0.33629014  0.16792189  1
  Cu  Cu43  1  0.66370986  0.73192788  0.16792189  1
  Cu  Cu44  1  0.06821701  0.73192788  0.16792189  1
  Cu  Cu45  1  0.26807212  0.93178199  0.16792189  1
  Cu  Cu46  1  0.66370986  0.93178199  0.16792189  1
  Cu  Cu47  1  0.06865721  0.13731441  0.17081272  1
  Cu  Cu48  1  0.86268459  0.93134279  0.17081272  1
  Cu  Cu49  1  0.06865721  0.93134279  0.17081272  1
  Cu  Cu50  1  0.80013005  0.19986995  0.33268068  1
  Cu  Cu51  1  0.39973989  0.19986995  0.33268068  1
  Cu  Cu52  1  0.80013005  0.60026011  0.33268068  1
  Cu  Cu53  1  0.60004582  0.20009263  0.33286393  1
  Cu  Cu54  1  0.60004582  0.39995318  0.33286393  1
  Cu  Cu55  1  0.79990737  0.39995418  0.33286393  1
  Cu  Cu56  1  0.20084064  0.00017044  0.33362768  1
  Cu  Cu57  1  0.79932980  0.00017044  0.33362768  1
  Cu  Cu58  1  0.20084064  0.20066920  0.33362768  1
  Cu  Cu59  1  0.99982956  0.20066920  0.33362768  1
  Cu  Cu60  1  0.79932980  0.79915936  0.33362768  1
  Cu  Cu61  1  0.99982956  0.79915936  0.33362768  1
  Cu  Cu62  1  0.59972194  0.00021606  0.33373872  1
  Cu  Cu63  1  0.40049412  0.00021606  0.33373872  1
  Cu  Cu64  1  0.40049412  0.40027706  0.33373872  1
  Cu  Cu65  1  0.99978394  0.40027806  0.33373872  1
  Cu  Cu66  1  0.59972194  0.59950588  0.33373872  1
  Cu  Cu67  1  0.99978394  0.59950588  0.33373872  1
  Cu  Cu68  1  0.19997264  0.59998682  0.33388848  1
  Cu  Cu69  1  0.40001418  0.59998682  0.33388848  1
  Cu  Cu70  1  0.40001418  0.80002736  0.33388848  1
  Cu  Cu71  1  0.20027508  0.40055116  0.33422703  1
  Cu  Cu72  1  0.20027508  0.79972392  0.33422703  1
  Cu  Cu73  1  0.59944884  0.79972392  0.33422703  1
  Cu  Cu74  1  0.00000000  0.00000000  0.33466678  1
  Cu  Cu75  1  0.26704481  0.13352240  0.50000000  1
  Cu  Cu76  1  0.86647760  0.13352240  0.50000000  1
  Cu  Cu77  1  0.06680833  0.13361665  0.50000000  1
  Cu  Cu78  1  0.66727599  0.13439163  0.50000000  1
  Cu  Cu79  1  0.46711564  0.13439263  0.50000000  1
  Cu  Cu80  1  0.86560737  0.33272301  0.50000000  1
  Cu  Cu81  1  0.46711564  0.33272401  0.50000000  1
  Cu  Cu82  1  0.66666600  0.33333300  0.50000000  1
  Cu  Cu83  1  0.26678881  0.33361659  0.50000000  1
  Cu  Cu84  1  0.06682678  0.33361659  0.50000000  1
  Cu  Cu85  1  0.86560737  0.53288336  0.50000000  1
  Cu  Cu86  1  0.66727599  0.53288436  0.50000000  1
  Cu  Cu87  1  0.46699490  0.53300510  0.50000000  1
  Cu  Cu88  1  0.06601021  0.53300510  0.50000000  1
  Cu  Cu89  1  0.26670343  0.53340686  0.50000000  1
  Cu  Cu90  1  0.66638341  0.73321019  0.50000000  1
  Cu  Cu91  1  0.06682678  0.73321119  0.50000000  1
  Cu  Cu92  1  0.86647760  0.73295519  0.50000000  1
  Cu  Cu93  1  0.26670343  0.73329657  0.50000000  1
  Cu  Cu94  1  0.46659314  0.73329657  0.50000000  1
  Cu  Cu95  1  0.86638335  0.93319167  0.50000000  1
  Cu  Cu96  1  0.06680833  0.93319267  0.50000000  1
  Cu  Cu97  1  0.26678881  0.93317322  0.50000000  1
  Cu  Cu98  1  0.66638341  0.93317322  0.50000000  1
  Cu  Cu99  1  0.46699490  0.93398979  0.50000000  1
  Cu  Cu100  1  0.00000000  0.00000000  0.66533322  1
  Cu  Cu101  1  0.20027508  0.40055116  0.66577297  1
  Cu  Cu102  1  0.20027508  0.79972392  0.66577297  1
  Cu  Cu103  1  0.59944884  0.79972392  0.66577297  1
  Cu  Cu104  1  0.19997264  0.59998682  0.66611152  1
  Cu  Cu105  1  0.40001418  0.59998682  0.66611152  1
  Cu  Cu106  1  0.40001418  0.80002736  0.66611152  1
  Cu  Cu107  1  0.59972194  0.00021606  0.66626128  1
  Cu  Cu108  1  0.40049412  0.00021606  0.66626128  1
  Cu  Cu109  1  0.40049412  0.40027706  0.66626128  1
  Cu  Cu110  1  0.99978394  0.40027806  0.66626128  1
  Cu  Cu111  1  0.59972194  0.59950588  0.66626128  1
  Cu  Cu112  1  0.99978394  0.59950588  0.66626128  1
  Cu  Cu113  1  0.20084064  0.00017044  0.66637232  1
  Cu  Cu114  1  0.79932980  0.00017044  0.66637232  1
  Cu  Cu115  1  0.20084064  0.20066920  0.66637232  1
  Cu  Cu116  1  0.99982956  0.20066920  0.66637232  1
  Cu  Cu117  1  0.79932980  0.79915936  0.66637232  1
  Cu  Cu118  1  0.99982956  0.79915936  0.66637232  1
  Cu  Cu119  1  0.60004582  0.20009263  0.66713607  1
  Cu  Cu120  1  0.60004582  0.39995318  0.66713607  1
  Cu  Cu121  1  0.79990737  0.39995418  0.66713607  1
  Cu  Cu122  1  0.80013005  0.19986995  0.66732032  1
  Cu  Cu123  1  0.39973989  0.19986995  0.66732032  1
  Cu  Cu124  1  0.80013005  0.60026011  0.66732032  1
  Cu  Cu125  1  0.06865721  0.13731441  0.82918728  1
  Cu  Cu126  1  0.86268459  0.93134279  0.82918728  1
  Cu  Cu127  1  0.06865721  0.93134279  0.82918728  1
  Cu  Cu128  1  0.26807212  0.33629014  0.83207811  1
  Cu  Cu129  1  0.06821701  0.33629014  0.83207811  1
  Cu  Cu130  1  0.66370986  0.73192788  0.83207811  1
  Cu  Cu131  1  0.06821701  0.73192788  0.83207811  1
  Cu  Cu132  1  0.26807212  0.93178199  0.83207811  1
  Cu  Cu133  1  0.66370986  0.93178199  0.83207811  1
  Cu  Cu134  1  0.26721421  0.53442943  0.83261390  1
  Cu  Cu135  1  0.46557057  0.73278479  0.83261390  1
  Cu  Cu136  1  0.26721421  0.73278479  0.83261390  1
  Cu  Cu137  1  0.46660341  0.53339659  0.83269022  1
  Cu  Cu138  1  0.06679218  0.53339659  0.83269022  1
  Cu  Cu139  1  0.46660341  0.93320782  0.83269022  1
  Cu  Cu140  1  0.46537256  0.13291185  0.83351310  1
  Cu  Cu141  1  0.66753929  0.13291185  0.83351310  1
  Cu  Cu142  1  0.86708815  0.33246071  0.83351310  1
  Cu  Cu143  1  0.46537256  0.33246071  0.83351310  1
  Cu  Cu144  1  0.66753929  0.53462744  0.83351310  1
  Cu  Cu145  1  0.86708815  0.53462744  0.83351310  1
  Cu  Cu146  1  0.66666600  0.33333300  0.83390414  1
  Cu  Cu147  1  0.86867667  0.13132233  0.83607382  1
  Cu  Cu148  1  0.26264565  0.13132233  0.83607382  1
  Cu  Cu149  1  0.86867667  0.73735435  0.83607382  1
