# generated using pymatgen
data_Cu4Ni2C
_symmetry_space_group_name_H-M   'P 1'
_cell_length_a   7.91767248
_cell_length_b   7.91767248
_cell_length_c   9.23043739
_cell_angle_alpha   124.61029020
_cell_angle_beta   124.61029020
_cell_angle_gamma   71.07493497
_symmetry_Int_Tables_number   1
_chemical_formula_structural   Cu4Ni2C
_chemical_formula_sum   'Cu16 Ni8 C4'
_cell_volume   391.96915850
_cell_formula_units_Z   4
loop_
 _symmetry_equiv_pos_site_id
 _symmetry_equiv_pos_as_xyz
  1  'x, y, z'
loop_
 _atom_site_type_symbol
 _atom_site_label
 _atom_site_symmetry_multiplicity
 _atom_site_fract_x
 _atom_site_fract_y
 _atom_site_fract_z
 _atom_site_occupancy
  C  C0  1  0.62500000  0.87500000  0.75000000  1
  C  C1  1  0.12500000  0.87500000  0.75000000  1
  C  C2  1  0.12500000  0.37500000  0.25000000  1
  C  C3  1  0.12500000  0.87500000  0.25000000  1
  Ni  Ni4  1  0.47564700  0.52866500  0.41514200  1
  Ni  Ni5  1  0.93949500  0.88647700  0.41514200  1
  Ni  Ni6  1  0.47133500  0.52435300  0.58485800  1
  Ni  Ni7  1  0.77435300  0.22133500  0.08485800  1
  Ni  Ni8  1  0.11352300  0.06050500  0.58485800  1
  Ni  Ni9  1  0.31050500  0.86352300  0.08485800  1
  Ni  Ni10  1  0.77866500  0.22564700  0.91514200  1
  Ni  Ni11  1  0.13647700  0.68949500  0.91514200  1
  Cu  Cu12  1  0.37861100  0.41740800  0.23126100  1
  Cu  Cu13  1  0.85265000  0.81385300  0.23126100  1
  Cu  Cu14  1  0.58259200  0.62138900  0.76873900  1
  Cu  Cu15  1  0.87138900  0.33259200  0.26873900  1
  Cu  Cu16  1  0.18614700  0.14735000  0.76873900  1
  Cu  Cu17  1  0.39735000  0.93614700  0.26873900  1
  Cu  Cu18  1  0.66740800  0.12861100  0.73126100  1
  Cu  Cu19  1  0.06385300  0.60265000  0.73126100  1
  Cu  Cu20  1  0.58823200  0.63331800  0.44352600  1
  Cu  Cu21  1  0.85529400  0.81020800  0.44352600  1
  Cu  Cu22  1  0.36668200  0.41176800  0.55647400  1
  Cu  Cu23  1  0.66176800  0.11668200  0.05647400  1
  Cu  Cu24  1  0.18979200  0.14470600  0.55647400  1
  Cu  Cu25  1  0.39470600  0.93979200  0.05647400  1
  Cu  Cu26  1  0.88331800  0.33823200  0.94352600  1
  Cu  Cu27  1  0.06020800  0.60529400  0.94352600  1
