# generated using pymatgen
data_Cu16Ni4C11
_symmetry_space_group_name_H-M   'P 1'
_cell_length_a   7.92157000
_cell_length_b   12.39913600
_cell_length_c   17.92193193
_cell_angle_alpha   46.25616874
_cell_angle_beta   90.00000000
_cell_angle_gamma   90.00000000
_symmetry_Int_Tables_number   1
_chemical_formula_structural   Cu16Ni4C11
_chemical_formula_sum   'Cu32 Ni8 C22'
_cell_volume   1271.71074041
_cell_formula_units_Z   2
loop_
 _symmetry_equiv_pos_site_id
 _symmetry_equiv_pos_as_xyz
  1  'x, y, z'
loop_
 _atom_site_type_symbol
 _atom_site_label
 _atom_site_symmetry_multiplicity
 _atom_site_fract_x
 _atom_site_fract_y
 _atom_site_fract_z
 _atom_site_occupancy
  C  C0  1  0.24396700  0.33599500  0.16138100  1
  C  C1  1  0.25230700  0.85019000  0.15154000  1
  C  C2  1  0.24725600  0.85106200  0.64728500  1
  C  C3  1  0.24630100  0.33412000  0.66095300  1
  C  C4  1  0.24760500  0.90962700  0.34661100  1
  C  C5  1  0.25594300  0.40278400  0.34313600  1
  C  C6  1  0.27554000  0.90734700  0.84425200  1
  C  C7  1  0.72446000  0.90734700  0.34425200  1
  C  C8  1  0.74405700  0.40278400  0.84313600  1
  C  C9  1  0.75239500  0.90962700  0.84661100  1
  C  C10  1  0.75369900  0.33412000  0.16095300  1
  C  C11  1  0.75274400  0.85106200  0.14728500  1
  C  C12  1  0.74769300  0.85019000  0.65154000  1
  C  C13  1  0.75603300  0.33599500  0.66138100  1
  C  C14  1  0.99572000  0.16756100  0.07732500  1
  C  C15  1  0.01363600  0.67432500  0.07236900  1
  C  C16  1  0.98636400  0.67432500  0.57236900  1
  C  C17  1  0.00428000  0.16756100  0.57732500  1
  C  C18  1  0.48913900  0.56843600  0.42418800  1
  C  C19  1  0.51086100  0.56843600  0.92418800  1
  C  C20  1  0.25668200  0.40175600  0.84537000  1
  C  C21  1  0.74331800  0.40175600  0.34537000  1
  Ni  Ni22  1  0.99073400  0.08866800  0.40627200  1
  Ni  Ni23  1  0.99844000  0.58788700  0.40897800  1
  Ni  Ni24  1  0.00156000  0.58788700  0.90897800  1
  Ni  Ni25  1  0.00926600  0.08866800  0.90627200  1
  Ni  Ni26  1  0.49219000  0.16369000  0.08923000  1
  Ni  Ni27  1  0.50143000  0.65677500  0.09416200  1
  Ni  Ni28  1  0.49857000  0.65677500  0.59416200  1
  Ni  Ni29  1  0.50781000  0.16369000  0.58923000  1
  Cu  Cu30  1  0.00044700  0.38573000  0.05914600  1
  Cu  Cu31  1  0.00625800  0.88761100  0.05929400  1
  Cu  Cu32  1  0.99374200  0.88761100  0.55929400  1
  Cu  Cu33  1  0.99955300  0.38573000  0.55914600  1
  Cu  Cu34  1  0.98702000  0.76359100  0.39876500  1
  Cu  Cu35  1  0.99476300  0.26416500  0.40372300  1
  Cu  Cu36  1  0.00523700  0.26416500  0.90372300  1
  Cu  Cu37  1  0.01298000  0.76359100  0.89876500  1
  Cu  Cu38  1  0.21141500  0.10921000  0.34129100  1
  Cu  Cu39  1  0.20936700  0.60842300  0.33362100  1
  Cu  Cu40  1  0.22156300  0.60481500  0.83513000  1
  Cu  Cu41  1  0.22693100  0.10609500  0.84041800  1
  Cu  Cu42  1  0.27950600  0.03447500  0.16390400  1
  Cu  Cu43  1  0.28763400  0.52736900  0.16424600  1
  Cu  Cu44  1  0.27823200  0.52445400  0.66855400  1
  Cu  Cu45  1  0.29281500  0.03511800  0.65981800  1
  Cu  Cu46  1  0.49654500  0.32343000  0.09504200  1
  Cu  Cu47  1  0.50156800  0.81916100  0.09364600  1
  Cu  Cu48  1  0.49843200  0.81916100  0.59364600  1
  Cu  Cu49  1  0.50345500  0.32343000  0.59504200  1
  Cu  Cu50  1  0.48439700  0.74286700  0.44638200  1
  Cu  Cu51  1  0.50509700  0.25283000  0.43963900  1
  Cu  Cu52  1  0.49490300  0.25283000  0.93963900  1
  Cu  Cu53  1  0.51560300  0.74286700  0.94638200  1
  Cu  Cu54  1  0.70718500  0.03511800  0.15981800  1
  Cu  Cu55  1  0.72176800  0.52445400  0.16855400  1
  Cu  Cu56  1  0.71236600  0.52736900  0.66424600  1
  Cu  Cu57  1  0.72049400  0.03447500  0.66390400  1
  Cu  Cu58  1  0.77306900  0.10609500  0.34041800  1
  Cu  Cu59  1  0.77843700  0.60481500  0.33513000  1
  Cu  Cu60  1  0.79063300  0.60842300  0.83362100  1
  Cu  Cu61  1  0.78858500  0.10921000  0.84129100  1
