# generated using pymatgen
data_Cu10Ni2C
_symmetry_space_group_name_H-M   'P 1'
_cell_length_a   4.67352900
_cell_length_b   6.39143003
_cell_length_c   6.39143003
_cell_angle_alpha   97.30040848
_cell_angle_beta   111.44507276
_cell_angle_gamma   68.55492724
_symmetry_Int_Tables_number   1
_chemical_formula_structural   Cu10Ni2C
_chemical_formula_sum   'Cu10 Ni2 C1'
_cell_volume   165.39095986
_cell_formula_units_Z   1
loop_
 _symmetry_equiv_pos_site_id
 _symmetry_equiv_pos_as_xyz
  1  'x, y, z'
loop_
 _atom_site_type_symbol
 _atom_site_label
 _atom_site_symmetry_multiplicity
 _atom_site_fract_x
 _atom_site_fract_y
 _atom_site_fract_z
 _atom_site_occupancy
  C  C0  1  0.00000000  0.00000000  0.00000000  1
  Ni  Ni1  1  0.00000000  0.36809600  0.36809600  1
  Ni  Ni2  1  0.00000000  0.63190400  0.63190400  1
  Cu  Cu3  1  0.72564700  0.77435300  0.22564700  1
  Cu  Cu4  1  0.27435300  0.22564700  0.77435300  1
  Cu  Cu5  1  0.50000000  0.77130200  0.77130200  1
  Cu  Cu6  1  0.50000000  0.22869800  0.22869800  1
  Cu  Cu7  1  0.50000000  0.00000000  0.50000000  1
  Cu  Cu8  1  0.00000000  0.00000000  0.50000000  1
  Cu  Cu9  1  0.50000000  0.50000000  0.00000000  1
  Cu  Cu10  1  0.00000000  0.50000000  0.00000000  1
  Cu  Cu11  1  0.64030200  0.35969800  0.64030200  1
  Cu  Cu12  1  0.35969800  0.64030200  0.35969800  1
