# generated using pymatgen
data_Cu6Ni14C19
_symmetry_space_group_name_H-M   'P 1'
_cell_length_a   9.09528337
_cell_length_b   9.09469636
_cell_length_c   8.89740760
_cell_angle_alpha   71.41713768
_cell_angle_beta   107.97983984
_cell_angle_gamma   109.09522788
_symmetry_Int_Tables_number   1
_chemical_formula_structural   Cu6Ni14C19
_chemical_formula_sum   'Cu6 Ni14 C19'
_cell_volume   641.82717766
_cell_formula_units_Z   1
loop_
 _symmetry_equiv_pos_site_id
 _symmetry_equiv_pos_as_xyz
  1  'x, y, z'
loop_
 _atom_site_type_symbol
 _atom_site_label
 _atom_site_symmetry_multiplicity
 _atom_site_fract_x
 _atom_site_fract_y
 _atom_site_fract_z
 _atom_site_occupancy
  C  C0  1  0.57589237  0.07761263  0.73976821  1
  Ni  Ni1  1  0.86159917  0.16188455  0.65853809  1
  Ni  Ni2  1  0.15343172  0.34395033  0.83447803  1
  Ni  Ni3  1  0.67085186  0.80188102  0.83248760  1
  Ni  Ni4  1  0.49918138  0.02318122  0.43609370  1
  Ni  Ni5  1  0.06987562  0.90220543  0.92931507  1
  Ni  Ni6  1  0.25184838  0.74899210  0.73582869  1
  Ni  Ni7  1  0.41127516  0.59447291  0.58740787  1
  Ni  Ni8  1  0.59672686  0.40985322  0.42086234  1
  Ni  Ni9  1  0.75203330  0.25932940  0.25024063  1
  Ni  Ni10  1  0.92961286  0.08460370  0.07661912  1
  Ni  Ni11  1  0.00802182  0.50314210  0.49510969  1
  Ni  Ni12  1  0.84222956  0.66733944  0.16690610  1
  Ni  Ni13  1  0.17020331  0.83593984  0.32405334  1
  Ni  Ni14  1  0.50034672  0.50893069  0.02030721  1
  Cu  Cu15  1  0.44194409  0.20124028  0.89858128  1
  Cu  Cu16  1  0.83213257  0.48976692  0.83138116  1
  Cu  Cu17  1  0.17098314  0.16578733  0.49040162  1
  Cu  Cu18  1  0.83819190  0.82925127  0.49195293  1
  Cu  Cu19  1  0.16712386  0.49737075  0.17116463  1
  Cu  Cu20  1  0.50636333  0.83052165  0.16645111  1
  C  C21  1  0.77724998  0.21750893  0.83301985  1
  C  C22  1  0.56451699  0.47007790  0.82975646  1
  C  C23  1  0.90224694  0.09617618  0.46752174  1
  C  C24  1  0.17621769  0.15028987  0.76254615  1
  C  C25  1  0.85768092  0.76344514  0.76237654  1
  C  C26  1  0.49400302  0.87774950  0.89278295  1
  C  C27  1  0.10912578  0.52776578  0.89930576  1
  C  C28  1  0.43418841  0.17599928  0.54650617  1
  C  C29  1  0.82410472  0.56184102  0.55272179  1
  C  C30  1  0.51779507  0.08183104  0.16422861  1
  C  C31  1  0.19160912  0.43664470  0.44436059  1
  C  C32  1  0.90187835  0.48295904  0.11101862  1
  C  C33  1  0.57159308  0.80722958  0.43823631  1
  C  C34  1  0.13998473  0.23682474  0.22344274  1
  C  C35  1  0.77330707  0.84829143  0.21874916  1
  C  C36  1  0.43682846  0.56056736  0.20253466  1
  C  C37  1  0.10918096  0.89699319  0.50805949  1
  C  C38  1  0.23518573  0.76826852  0.14658597  1
