# generated using pymatgen
data_CuNi2C7
_symmetry_space_group_name_H-M   'P 1'
_cell_length_a   5.32864500
_cell_length_b   6.61693465
_cell_length_c   7.28183446
_cell_angle_alpha   106.38395897
_cell_angle_beta   89.72104347
_cell_angle_gamma   92.93245964
_symmetry_Int_Tables_number   1
_chemical_formula_structural   CuNi2C7
_chemical_formula_sum   'Cu2 Ni4 C14'
_cell_volume   245.99160139
_cell_formula_units_Z   2
loop_
 _symmetry_equiv_pos_site_id
 _symmetry_equiv_pos_as_xyz
  1  'x, y, z'
loop_
 _atom_site_type_symbol
 _atom_site_label
 _atom_site_symmetry_multiplicity
 _atom_site_fract_x
 _atom_site_fract_y
 _atom_site_fract_z
 _atom_site_occupancy
  C  C0  1  0.80051700  0.98337900  0.20475900  1
  C  C1  1  0.19948300  0.01662100  0.79524100  1
  C  C2  1  0.49211000  0.75718200  0.50155900  1
  C  C3  1  0.50789000  0.24281800  0.49844100  1
  C  C4  1  0.76307600  0.65516200  0.58616700  1
  C  C5  1  0.23692400  0.34483800  0.41383300  1
  C  C6  1  0.78868000  0.91196800  0.54212000  1
  C  C7  1  0.21132000  0.08803200  0.45788000  1
  C  C8  1  0.76505100  0.78603000  0.97498000  1
  C  C9  1  0.23494900  0.21397000  0.02502000  1
  C  C10  1  0.49838300  0.84262200  0.13136800  1
  C  C11  1  0.50161700  0.15737800  0.86863200  1
  Ni  Ni12  1  0.69754300  0.75339200  0.49879000  1
  Ni  Ni13  1  0.30245700  0.24660800  0.50121000  1
  Ni  Ni14  1  0.70305300  0.83520700  0.12386500  1
  Ni  Ni15  1  0.29694700  0.16479300  0.87613500  1
  Cu  Cu16  1  0.79519800  0.60951100  0.23473100  1
  Cu  Cu17  1  0.20480200  0.39048900  0.76526900  1
  C  C18  1  0.11344000  0.63219800  0.24802100  1
  C  C19  1  0.88656000  0.36780200  0.75197900  1
