# generated using pymatgen
data_CuNi3C
_symmetry_space_group_name_H-M   'P 1'
_cell_length_a   10.12375459
_cell_length_b   10.46561117
_cell_length_c   6.94813793
_cell_angle_alpha   91.35170445
_cell_angle_beta   94.11293506
_cell_angle_gamma   109.71699881
_symmetry_Int_Tables_number   1
_chemical_formula_structural   CuNi3C
_chemical_formula_sum   'Cu8 Ni24 C8'
_cell_volume   690.32263031
_cell_formula_units_Z   8
loop_
 _symmetry_equiv_pos_site_id
 _symmetry_equiv_pos_as_xyz
  1  'x, y, z'
loop_
 _atom_site_type_symbol
 _atom_site_label
 _atom_site_symmetry_multiplicity
 _atom_site_fract_x
 _atom_site_fract_y
 _atom_site_fract_z
 _atom_site_occupancy
  Ni  Ni0  1  0.32729500  0.74987700  0.04227600  1
  Ni  Ni1  1  0.64665000  0.30512200  0.46887600  1
  Ni  Ni2  1  0.22381400  0.23617800  0.43605400  1
  Ni  Ni3  1  0.77190100  0.67991600  0.16179800  1
  Ni  Ni4  1  0.03945100  0.17758500  0.80798800  1
  Ni  Ni5  1  0.43844500  0.77357500  0.24446600  1
  Ni  Ni6  1  0.54624700  0.24842900  0.25881600  1
  Ni  Ni7  1  0.89892700  0.76889200  0.74711700  1
  Ni  Ni8  1  0.69556400  0.04143900  0.25637900  1
  Ni  Ni9  1  0.24096000  0.44425700  0.77865100  1
  Ni  Ni10  1  0.29847200  0.62909800  0.20900400  1
  Ni  Ni11  1  0.82896500  0.88308600  0.65427600  1
  Ni  Ni12  1  0.72787900  0.30526800  0.82299300  1
  Ni  Ni13  1  0.27432400  0.78072900  0.26839800  1
  Ni  Ni14  1  0.81733800  0.73819800  0.50981200  1
  Ni  Ni15  1  0.12175700  0.30141400  0.10455600  1
  Ni  Ni16  1  0.92880800  0.69659500  0.26783900  1
  Ni  Ni17  1  0.55684400  0.26533200  0.78948200  1
  Ni  Ni18  1  0.41947800  0.76318100  0.73926500  1
  Ni  Ni19  1  0.05827500  0.24744200  0.13688800  1
  Ni  Ni20  1  0.30104800  0.84356700  0.70940100  1
  Ni  Ni21  1  0.79133600  0.55427200  0.28530500  1
  Ni  Ni22  1  0.65735100  0.42241300  0.77199200  1
  Ni  Ni23  1  0.28022700  0.04116200  0.19280100  1
  Cu  Cu24  1  0.64957500  0.32378400  0.73973200  1
  Cu  Cu25  1  0.32825100  0.77169100  0.78749300  1
  Cu  Cu26  1  0.82288100  0.65800600  0.28221600  1
  Cu  Cu27  1  0.35857500  0.10951700  0.11778900  1
  Cu  Cu28  1  0.33394700  0.73197400  0.19260600  1
  Cu  Cu29  1  0.64213900  0.31543300  0.31794800  1
  Cu  Cu30  1  0.17218800  0.48985000  0.82691700  1
  Cu  Cu31  1  0.82752300  0.78507500  0.64942700  1
  C  C32  1  0.17699800  0.89102600  0.40663100  1
  C  C33  1  0.76492900  0.24713700  0.23516100  1
  C  C34  1  0.28582100  0.09831400  0.89140200  1
  C  C35  1  0.60746500  0.65999600  0.78510300  1
  C  C36  1  0.94208100  0.15506100  0.66854300  1
  C  C37  1  0.18864100  0.61157800  0.68498200  1
  C  C38  1  0.67559300  0.91005000  0.27435000  1
  C  C39  1  0.33203800  0.34448000  0.47526600  1
