# generated using pymatgen
data_Cu3NiC4
_symmetry_space_group_name_H-M   'P 1'
_cell_length_a   8.09883809
_cell_length_b   8.09883809
_cell_length_c   8.09883802
_cell_angle_alpha   33.59630732
_cell_angle_beta   33.59630732
_cell_angle_gamma   33.59630909
_symmetry_Int_Tables_number   1
_chemical_formula_structural   Cu3NiC4
_chemical_formula_sum   'Cu3 Ni1 C4'
_cell_volume   144.88377098
_cell_formula_units_Z   1
loop_
 _symmetry_equiv_pos_site_id
 _symmetry_equiv_pos_as_xyz
  1  'x, y, z'
loop_
 _atom_site_type_symbol
 _atom_site_label
 _atom_site_symmetry_multiplicity
 _atom_site_fract_x
 _atom_site_fract_y
 _atom_site_fract_z
 _atom_site_occupancy
  C  C0  1  0.12503900  0.12503900  0.12503900  1
  C  C1  1  0.62468000  0.62468000  0.62468000  1
  C  C2  1  0.00213900  0.00213900  0.00213900  1
  C  C3  1  0.49761800  0.49761800  0.49761800  1
  Ni  Ni4  1  0.37561100  0.37561100  0.37561100  1
  Cu  Cu5  1  0.87430500  0.87430500  0.87430500  1
  Cu  Cu6  1  0.74629100  0.74629100  0.74629100  1
  Cu  Cu7  1  0.25431700  0.25431700  0.25431700  1
