# generated using pymatgen
data_Cu6NiC
_symmetry_space_group_name_H-M   'P 1'
_cell_length_a   5.71516900
_cell_length_b   6.58577400
_cell_length_c   14.30494000
_cell_angle_alpha   90.00000000
_cell_angle_beta   90.00000000
_cell_angle_gamma   90.00000000
_symmetry_Int_Tables_number   1
_chemical_formula_structural   Cu6NiC
_chemical_formula_sum   'Cu24 Ni4 C4'
_cell_volume   538.42093883
_cell_formula_units_Z   4
loop_
 _symmetry_equiv_pos_site_id
 _symmetry_equiv_pos_as_xyz
  1  'x, y, z'
loop_
 _atom_site_type_symbol
 _atom_site_label
 _atom_site_symmetry_multiplicity
 _atom_site_fract_x
 _atom_site_fract_y
 _atom_site_fract_z
 _atom_site_occupancy
  Ni  Ni0  1  0.76841300  0.75000000  0.49582800  1
  Ni  Ni1  1  0.26841300  0.75000000  0.00417200  1
  Ni  Ni2  1  0.23158700  0.25000000  0.50417200  1
  Ni  Ni3  1  0.73158700  0.25000000  0.99582800  1
  Cu  Cu4  1  0.77784800  0.75000000  0.59460500  1
  Cu  Cu5  1  0.27784800  0.75000000  0.90539500  1
  Cu  Cu6  1  0.22215200  0.25000000  0.40539500  1
  Cu  Cu7  1  0.72215200  0.25000000  0.09460500  1
  Cu  Cu8  1  0.97983600  0.75000000  0.62718300  1
  Cu  Cu9  1  0.47983600  0.75000000  0.87281700  1
  Cu  Cu10  1  0.02016400  0.25000000  0.37281700  1
  Cu  Cu11  1  0.52016400  0.25000000  0.12718300  1
  Cu  Cu12  1  0.15374300  0.75000000  0.66628500  1
  Cu  Cu13  1  0.65374300  0.75000000  0.83371500  1
  Cu  Cu14  1  0.84625700  0.25000000  0.33371500  1
  Cu  Cu15  1  0.34625700  0.25000000  0.16628500  1
  Cu  Cu16  1  0.53032300  0.75000000  0.46977900  1
  Cu  Cu17  1  0.03032300  0.75000000  0.03022100  1
  Cu  Cu18  1  0.46967700  0.25000000  0.53022100  1
  Cu  Cu19  1  0.96967700  0.25000000  0.96977900  1
  Cu  Cu20  1  0.49559500  0.75000000  0.38377100  1
  Cu  Cu21  1  0.99559500  0.75000000  0.11622900  1
  Cu  Cu22  1  0.50440500  0.25000000  0.61622900  1
  Cu  Cu23  1  0.00440500  0.25000000  0.88377100  1
  Cu  Cu24  1  0.43863100  0.75000000  0.30737800  1
  Cu  Cu25  1  0.93863100  0.75000000  0.19262200  1
  Cu  Cu26  1  0.56136900  0.25000000  0.69262200  1
  Cu  Cu27  1  0.06136900  0.25000000  0.80737800  1
  C  C28  1  0.93649000  0.75000000  0.44292200  1
  C  C29  1  0.43649000  0.75000000  0.05707800  1
  C  C30  1  0.06351000  0.25000000  0.55707800  1
  C  C31  1  0.56351000  0.25000000  0.94292200  1
