# generated using pymatgen
data_Cu5Ni2C25
_symmetry_space_group_name_H-M   'P 1'
_cell_length_a   4.97713900
_cell_length_b   7.77502286
_cell_length_c   7.79989488
_cell_angle_alpha   98.26209985
_cell_angle_beta   101.30078410
_cell_angle_gamma   102.32921972
_symmetry_Int_Tables_number   1
_chemical_formula_structural   Cu5Ni2C25
_chemical_formula_sum   'Cu5 Ni2 C25'
_cell_volume   283.68184280
_cell_formula_units_Z   1
loop_
 _symmetry_equiv_pos_site_id
 _symmetry_equiv_pos_as_xyz
  1  'x, y, z'
loop_
 _atom_site_type_symbol
 _atom_site_label
 _atom_site_symmetry_multiplicity
 _atom_site_fract_x
 _atom_site_fract_y
 _atom_site_fract_z
 _atom_site_occupancy
  C  C0  1  0.50286600  0.74129800  0.74535800  1
  C  C1  1  0.00270500  0.37987100  0.12107300  1
  C  C2  1  0.51356000  0.00497700  0.50441200  1
  C  C3  1  0.00159800  0.87643400  0.62467300  1
  C  C4  1  0.48921800  0.49945600  0.99352800  1
  C  C5  1  0.99895800  0.13196000  0.38785800  1
  C  C6  1  0.00388400  0.60948400  0.86806300  1
  C  C7  1  0.49824700  0.25632600  0.25698000  1
  C  C8  1  0.00288200  0.25154500  0.74904500  1
  Ni  Ni9  1  0.99599700  0.00045700  0.99901600  1
  Ni  Ni10  1  0.49923900  0.12722400  0.87251200  1
  Cu  Cu11  1  0.50297900  0.62828100  0.37288500  1
  Cu  Cu12  1  0.49295300  0.87603600  0.12301100  1
  Cu  Cu13  1  0.00038800  0.49715200  0.50565300  1
  Cu  Cu14  1  0.99976800  0.74809600  0.24838500  1
  Cu  Cu15  1  0.50217700  0.37123300  0.63091800  1
  C  C16  1  0.75030700  0.77227000  0.01121300  1
  C  C17  1  0.25212800  0.39352200  0.38032500  1
  C  C18  1  0.75172900  0.00297000  0.77572900  1
  C  C19  1  0.25693100  0.89233300  0.89313100  1
  C  C20  1  0.74785400  0.51611400  0.25916500  1
  C  C21  1  0.27541000  0.12101100  0.64424500  1
  C  C22  1  0.25298300  0.64412000  0.12362000  1
  C  C23  1  0.74067300  0.26151100  0.50484800  1
  C  C24  1  0.25803000  0.73969300  0.48291400  1
  C  C25  1  0.72688100  0.35564500  0.87785500  1
  C  C26  1  0.23404100  0.98993000  0.22911800  1
  C  C27  1  0.72825600  0.86626500  0.35190900  1
  C  C28  1  0.26504200  0.49279500  0.73792500  1
  C  C29  1  0.73754600  0.10749400  0.10814700  1
  C  C30  1  0.76720200  0.61960400  0.61982900  1
  C  C31  1  0.24756700  0.22488900  0.99665900  1
