# generated using pymatgen
data_Cu2Ni
_symmetry_space_group_name_H-M   'P 1'
_cell_length_a   7.25563739
_cell_length_b   7.25563739
_cell_length_c   7.25563766
_cell_angle_alpha   89.74807440
_cell_angle_beta   89.74807440
_cell_angle_gamma   89.74807979
_symmetry_Int_Tables_number   1
_chemical_formula_structural   Cu2Ni
_chemical_formula_sum   'Cu16 Ni8'
_cell_volume   381.95673185
_cell_formula_units_Z   8
loop_
 _symmetry_equiv_pos_site_id
 _symmetry_equiv_pos_as_xyz
  1  'x, y, z'
loop_
 _atom_site_type_symbol
 _atom_site_label
 _atom_site_symmetry_multiplicity
 _atom_site_fract_x
 _atom_site_fract_y
 _atom_site_fract_z
 _atom_site_occupancy
  Ni  Ni0  1  0.50000000  0.50000000  0.50000000  1
  Ni  Ni1  1  0.00000000  0.00000000  0.00000000  1
  Ni  Ni2  1  0.25000000  0.99975600  0.50024400  1
  Ni  Ni3  1  0.50024400  0.25000000  0.99975600  1
  Ni  Ni4  1  0.99975600  0.50024400  0.25000000  1
  Ni  Ni5  1  0.00024400  0.49975600  0.75000000  1
  Ni  Ni6  1  0.75000000  0.00024400  0.49975600  1
  Ni  Ni7  1  0.49975600  0.75000000  0.00024400  1
  Cu  Cu8  1  0.40690700  0.40690700  0.40690700  1
  Cu  Cu9  1  0.90690700  0.90690700  0.90690700  1
  Cu  Cu10  1  0.59309300  0.59309300  0.59309300  1
  Cu  Cu11  1  0.09309300  0.09309300  0.09309300  1
  Cu  Cu12  1  0.16479800  0.09727100  0.59789200  1
  Cu  Cu13  1  0.59789200  0.16479800  0.09727100  1
  Cu  Cu14  1  0.09727100  0.59789200  0.16479800  1
  Cu  Cu15  1  0.09789200  0.59727100  0.66479800  1
  Cu  Cu16  1  0.66479800  0.09789200  0.59727100  1
  Cu  Cu17  1  0.59727100  0.66479800  0.09789200  1
  Cu  Cu18  1  0.83520200  0.90272900  0.40210800  1
  Cu  Cu19  1  0.40210800  0.83520200  0.90272900  1
  Cu  Cu20  1  0.90272900  0.40210800  0.83520200  1
  Cu  Cu21  1  0.90210800  0.40272900  0.33520200  1
  Cu  Cu22  1  0.33520200  0.90210800  0.40272900  1
  Cu  Cu23  1  0.40272900  0.33520200  0.90210800  1
