# generated using pymatgen
data_CuNiC10
_symmetry_space_group_name_H-M   'P 1'
_cell_length_a   7.85963000
_cell_length_b   7.85963000
_cell_length_c   5.19517100
_cell_angle_alpha   90.00000000
_cell_angle_beta   90.00000000
_cell_angle_gamma   91.27437748
_symmetry_Int_Tables_number   1
_chemical_formula_structural   CuNiC10
_chemical_formula_sum   'Cu2 Ni2 C20'
_cell_volume   320.84599067
_cell_formula_units_Z   2
loop_
 _symmetry_equiv_pos_site_id
 _symmetry_equiv_pos_as_xyz
  1  'x, y, z'
loop_
 _atom_site_type_symbol
 _atom_site_label
 _atom_site_symmetry_multiplicity
 _atom_site_fract_x
 _atom_site_fract_y
 _atom_site_fract_z
 _atom_site_occupancy
  Ni  Ni0  1  0.65980400  0.65980400  0.48536700  1
  Ni  Ni1  1  0.34019600  0.34019600  0.48536700  1
  Cu  Cu2  1  0.83482100  0.16517900  0.50791000  1
  Cu  Cu3  1  0.16517900  0.83482100  0.50791000  1
  C  C4  1  0.85332300  0.85332300  0.04142200  1
  C  C5  1  0.63970900  0.36029100  0.95771200  1
  C  C6  1  0.14667700  0.14667700  0.04142200  1
  C  C7  1  0.36029100  0.63970900  0.95771200  1
  C  C8  1  0.50000000  0.00000000  0.00484700  1
  C  C9  1  0.00000000  0.50000000  0.00484700  1
  C  C10  1  0.86070500  0.86070500  0.70496200  1
  C  C11  1  0.64253900  0.35746100  0.29325700  1
  C  C12  1  0.13929500  0.13929500  0.70496200  1
  C  C13  1  0.35746100  0.64253900  0.29325700  1
  C  C14  1  0.66276700  0.91322100  0.19748600  1
  C  C15  1  0.83821900  0.41019700  0.80667900  1
  C  C16  1  0.33723300  0.08677900  0.19748600  1
  C  C17  1  0.16178100  0.58980300  0.80667900  1
  C  C18  1  0.41019700  0.83821900  0.80667900  1
  C  C19  1  0.08677900  0.33723300  0.19748600  1
  C  C20  1  0.58980300  0.16178100  0.80667900  1
  C  C21  1  0.91322100  0.66276700  0.19748600  1
  C  C22  1  0.50000000  0.50000000  0.80933800  1
  C  C23  1  0.00000000  0.00000000  0.18304700  1
