# generated using pymatgen
data_Cu8NiC16
_symmetry_space_group_name_H-M   'P 1'
_cell_length_a   4.85875578
_cell_length_b   10.79743193
_cell_length_c   5.66502953
_cell_angle_alpha   83.24226288
_cell_angle_beta   90.90543885
_cell_angle_gamma   88.24582532
_symmetry_Int_Tables_number   1
_chemical_formula_structural   Cu8NiC16
_chemical_formula_sum   'Cu8 Ni1 C16'
_cell_volume   294.93980412
_cell_formula_units_Z   1
loop_
 _symmetry_equiv_pos_site_id
 _symmetry_equiv_pos_as_xyz
  1  'x, y, z'
loop_
 _atom_site_type_symbol
 _atom_site_label
 _atom_site_symmetry_multiplicity
 _atom_site_fract_x
 _atom_site_fract_y
 _atom_site_fract_z
 _atom_site_occupancy
  Ni  Ni0  1  0.00471600  0.62355700  0.12982700  1
  Cu  Cu1  1  0.46463500  0.25507000  0.75329000  1
  Cu  Cu2  1  0.54217400  0.99199700  0.50247900  1
  Cu  Cu3  1  0.52242000  0.74755000  0.25652700  1
  Cu  Cu4  1  0.48621000  0.49933100  0.00145800  1
  Cu  Cu5  1  0.97907800  0.23427400  0.25408200  1
  Cu  Cu6  1  0.06465800  0.78527300  0.70929100  1
  Cu  Cu7  1  0.94162100  0.46102700  0.54956700  1
  Cu  Cu8  1  0.02839100  0.01275400  0.00185600  1
  C  C9  1  0.79127800  0.30179700  0.53340100  1
  C  C10  1  0.80743800  0.06877200  0.26415700  1
  C  C11  1  0.71411100  0.82865000  0.53585800  1
  C  C12  1  0.69642100  0.56462800  0.30890500  1
  C  C13  1  0.29281100  0.41846400  0.72222900  1
  C  C14  1  0.31237900  0.68224700  0.94954500  1
  C  C15  1  0.21488500  0.94482400  0.72227400  1
  C  C16  1  0.19961300  0.17835200  0.99124300  1
  C  C17  1  0.83520900  0.57153900  0.81715500  1
  C  C18  1  0.85911000  0.81969100  0.03429600  1
  C  C19  1  0.70143400  0.07778700  0.78116900  1
  C  C20  1  0.68727100  0.31964300  0.03040400  1
  C  C21  1  0.32232800  0.92752400  0.22406500  1
  C  C22  1  0.30483400  0.16943000  0.47463900  1
  C  C23  1  0.17423300  0.67632400  0.44100800  1
  C  C24  1  0.14996200  0.42699600  0.22556100  1
