# generated using pymatgen
data_Cu5NiC31
_symmetry_space_group_name_H-M   'P 1'
_cell_length_a   8.87668358
_cell_length_b   8.69698871
_cell_length_c   8.76153759
_cell_angle_alpha   60.02184100
_cell_angle_beta   57.64030235
_cell_angle_gamma   59.67681861
_symmetry_Int_Tables_number   1
_chemical_formula_structural   Cu5NiC31
_chemical_formula_sum   'Cu5 Ni1 C31'
_cell_volume   468.13305634
_cell_formula_units_Z   1
loop_
 _symmetry_equiv_pos_site_id
 _symmetry_equiv_pos_as_xyz
  1  'x, y, z'
loop_
 _atom_site_type_symbol
 _atom_site_label
 _atom_site_symmetry_multiplicity
 _atom_site_fract_x
 _atom_site_fract_y
 _atom_site_fract_z
 _atom_site_occupancy
  Ni  Ni0  1  0.73976600  0.37556300  0.75513000  1
  C  C1  1  0.54670500  0.13369500  0.16357100  1
  Cu  Cu2  1  0.01158100  0.97748700  0.01751600  1
  Cu  Cu3  1  0.06899700  0.64539400  0.64381700  1
  Cu  Cu4  1  0.49963500  0.49674600  0.48995800  1
  Cu  Cu5  1  0.44103900  0.85827200  0.85494400  1
  Cu  Cu6  1  0.93557800  0.36086900  0.34222400  1
  C  C7  1  0.21241500  0.26119200  0.56754400  1
  C  C8  1  0.24063300  0.94936800  0.25690800  1
  C  C9  1  0.27893400  0.53866900  0.94198500  1
  C  C10  1  0.77044300  0.45114600  0.02517900  1
  C  C11  1  0.74492500  0.03867900  0.75791100  1
  C  C12  1  0.73998000  0.76914600  0.46156200  1
  C  C13  1  0.05776600  0.10026600  0.31353500  1
  C  C14  1  0.10623400  0.49917600  0.11115800  1
  C  C15  1  0.01932800  0.32361500  0.56209700  1
  C  C16  1  0.21649500  0.10095100  0.75292700  1
  C  C17  1  0.37527600  0.20414000  0.38227200  1
  C  C18  1  0.25659700  0.42424000  0.54835900  1
  C  C19  1  0.25059500  0.91145900  0.09559300  1
  C  C20  1  0.26886800  0.76066700  0.41942600  1
  C  C21  1  0.63622200  0.59040400  0.91929700  1
  C  C22  1  0.30087700  0.54552900  0.75314500  1
  C  C23  1  0.78276100  0.25185700  0.04837500  1
  C  C24  1  0.56545400  0.99806200  0.83470500  1
  C  C25  1  0.41369100  0.00928600  0.19000200  1
  C  C26  1  0.26766300  0.73279600  0.92314200  1
  C  C27  1  0.71075700  0.46421600  0.22058200  1
  C  C28  1  0.46618400  0.37747000  0.97509000  1
  C  C29  1  0.72431300  0.23995800  0.60648100  1
  C  C30  1  0.75693800  0.07332300  0.91269600  1
  C  C31  1  0.70471500  0.59078200  0.49877200  1
  C  C32  1  0.56461800  0.87803300  0.59375100  1
  C  C33  1  0.74842900  0.90899200  0.25349900  1
  C  C34  1  0.92394000  0.71848600  0.47399600  1
  C  C35  1  0.96771900  0.47271000  0.89075300  1
  C  C36  1  0.92678000  0.88141200  0.69990600  1
