# generated using pymatgen
data_CuNiC6
_symmetry_space_group_name_H-M   'P 1'
_cell_length_a   6.16728600
_cell_length_b   7.92509900
_cell_length_c   9.26958500
_cell_angle_alpha   90.00000000
_cell_angle_beta   90.00000000
_cell_angle_gamma   90.00000000
_symmetry_Int_Tables_number   1
_chemical_formula_structural   CuNiC6
_chemical_formula_sum   'Cu4 Ni4 C24'
_cell_volume   453.06350039
_cell_formula_units_Z   4
loop_
 _symmetry_equiv_pos_site_id
 _symmetry_equiv_pos_as_xyz
  1  'x, y, z'
loop_
 _atom_site_type_symbol
 _atom_site_label
 _atom_site_symmetry_multiplicity
 _atom_site_fract_x
 _atom_site_fract_y
 _atom_site_fract_z
 _atom_site_occupancy
  Ni  Ni0  1  0.10725700  0.82161000  0.68327000  1
  Ni  Ni1  1  0.39274300  0.17839000  0.18327000  1
  Ni  Ni2  1  0.89274300  0.32161000  0.81673000  1
  Ni  Ni3  1  0.60725700  0.67839000  0.31673000  1
  Cu  Cu4  1  0.24158700  0.75159000  0.00898300  1
  Cu  Cu5  1  0.25841300  0.24841000  0.50898300  1
  Cu  Cu6  1  0.75841300  0.25159000  0.49101700  1
  Cu  Cu7  1  0.74158700  0.74841000  0.99101700  1
  C  C8  1  0.43997200  0.10852300  0.85142800  1
  C  C9  1  0.06002800  0.89147700  0.35142800  1
  C  C10  1  0.56002800  0.60852300  0.64857200  1
  C  C11  1  0.93997200  0.39147700  0.14857200  1
  C  C12  1  0.49362000  0.93411200  0.97046400  1
  C  C13  1  0.00638000  0.06588800  0.47046400  1
  C  C14  1  0.50638000  0.43411200  0.52953600  1
  C  C15  1  0.99362000  0.56588800  0.02953600  1
  C  C16  1  0.36314400  0.25312600  0.97645300  1
  C  C17  1  0.13685600  0.74687400  0.47645300  1
  C  C18  1  0.63685600  0.75312600  0.52354700  1
  C  C19  1  0.86314400  0.24687400  0.02354700  1
  C  C20  1  0.66455200  0.15740500  0.75340100  1
  C  C21  1  0.83544800  0.84259500  0.25340100  1
  C  C22  1  0.33544800  0.65740500  0.74659900  1
  C  C23  1  0.16455200  0.34259500  0.24659900  1
  C  C24  1  0.23139300  0.05711200  0.73632300  1
  C  C25  1  0.26860700  0.94288800  0.23632300  1
  C  C26  1  0.76860700  0.55711200  0.76367700  1
  C  C27  1  0.73139300  0.44288800  0.26367700  1
  C  C28  1  0.99372600  0.85684400  0.89073200  1
  C  C29  1  0.50627400  0.14315600  0.39073200  1
  C  C30  1  0.00627400  0.35684400  0.60926800  1
  C  C31  1  0.49372600  0.64315600  0.10926800  1
