# generated using pymatgen
data_CuNiC7
_symmetry_space_group_name_H-M   'P 1'
_cell_length_a   3.78776600
_cell_length_b   6.16832512
_cell_length_c   6.16832462
_cell_angle_alpha   119.99999862
_cell_angle_beta   90.00000000
_cell_angle_gamma   90.00000000
_symmetry_Int_Tables_number   1
_chemical_formula_structural   CuNiC7
_chemical_formula_sum   'Cu1 Ni1 C7'
_cell_volume   124.80967634
_cell_formula_units_Z   1
loop_
 _symmetry_equiv_pos_site_id
 _symmetry_equiv_pos_as_xyz
  1  'x, y, z'
loop_
 _atom_site_type_symbol
 _atom_site_label
 _atom_site_symmetry_multiplicity
 _atom_site_fract_x
 _atom_site_fract_y
 _atom_site_fract_z
 _atom_site_occupancy
  Ni  Ni0  1  0.99600300  0.00000000  0.00000000  1
  Cu  Cu1  1  0.74301500  0.33333300  0.66666700  1
  C  C2  1  0.25770100  0.66666700  0.33333300  1
  C  C3  1  0.24609900  0.08296900  0.38744000  1
  C  C4  1  0.24609900  0.61256000  0.69553000  1
  C  C5  1  0.24609900  0.30447000  0.91703100  1
  C  C6  1  0.75499500  0.91911000  0.61112100  1
  C  C7  1  0.75499500  0.38887900  0.30798900  1
  C  C8  1  0.75499500  0.69201100  0.08089000  1
