# generated using pymatgen
data_Cu(NiC5)3
_symmetry_space_group_name_H-M   'P 1'
_cell_length_a   9.40128191
_cell_length_b   9.40128191
_cell_length_c   9.40128191
_cell_angle_alpha   137.99796481
_cell_angle_beta   112.39317783
_cell_angle_gamma   82.87229225
_symmetry_Int_Tables_number   1
_chemical_formula_structural   Cu(NiC5)3
_chemical_formula_sum   'Cu2 Ni6 C30'
_cell_volume   496.81946513
_cell_formula_units_Z   2
loop_
 _symmetry_equiv_pos_site_id
 _symmetry_equiv_pos_as_xyz
  1  'x, y, z'
loop_
 _atom_site_type_symbol
 _atom_site_label
 _atom_site_symmetry_multiplicity
 _atom_site_fract_x
 _atom_site_fract_y
 _atom_site_fract_z
 _atom_site_occupancy
  C  C0  1  0.61809200  0.61809200  0.50000000  1
  C  C1  1  0.88190800  0.38190800  0.00000000  1
  C  C2  1  0.11809200  0.61809200  0.00000000  1
  C  C3  1  0.38190800  0.38190800  0.50000000  1
  C  C4  1  0.50000000  0.00000000  0.50000000  1
  C  C5  1  0.00000000  0.50000000  0.50000000  1
  Ni  Ni6  1  0.75000000  0.34470600  0.59470600  1
  Ni  Ni7  1  0.25000000  0.65529400  0.40529400  1
  Ni  Ni8  1  0.82317900  0.82317900  0.50000000  1
  Ni  Ni9  1  0.67682100  0.17682100  0.00000000  1
  Ni  Ni10  1  0.32317900  0.82317900  0.00000000  1
  Ni  Ni11  1  0.17682100  0.17682100  0.50000000  1
  Cu  Cu12  1  0.75000000  0.86551700  0.11551700  1
  Cu  Cu13  1  0.25000000  0.13448300  0.88448300  1
  C  C14  1  0.66044800  0.12374700  0.46330000  1
  C  C15  1  0.33955200  0.87625300  0.53670000  1
  C  C16  1  0.16044800  0.69714800  0.53670000  1
  C  C17  1  0.83955200  0.30285200  0.46330000  1
  C  C18  1  0.63170300  0.48765800  0.61936200  1
  C  C19  1  0.13170300  0.51234200  0.14404500  1
  C  C20  1  0.36829700  0.51234200  0.38063800  1
  C  C21  1  0.86829700  0.48765800  0.85595500  1
  C  C22  1  0.92610900  0.06089100  0.72049700  1
  C  C23  1  0.65960500  0.93910900  0.86521700  1
  C  C24  1  0.42610900  0.70561200  0.86521700  1
  C  C25  1  0.15960500  0.29438800  0.72049700  1
  C  C26  1  0.07389100  0.93910900  0.27950300  1
  C  C27  1  0.34039500  0.06089100  0.13478300  1
  C  C28  1  0.57389100  0.29438800  0.13478300  1
  C  C29  1  0.84039500  0.70561200  0.27950300  1
  C  C30  1  0.63850200  0.80084000  0.44013200  1
  C  C31  1  0.63929200  0.19916000  0.83766200  1
  C  C32  1  0.13850200  0.69837000  0.83766200  1
  C  C33  1  0.13929200  0.30163000  0.44013200  1
  C  C34  1  0.36149800  0.19916000  0.55986800  1
  C  C35  1  0.36070800  0.80084000  0.16233800  1
  C  C36  1  0.86149800  0.30163000  0.16233800  1
  C  C37  1  0.86070800  0.69837000  0.55986800  1
