# generated using pymatgen
data_Cu8Ni8C29
_symmetry_space_group_name_H-M   'P 1'
_cell_length_a   10.36769900
_cell_length_b   10.36769900
_cell_length_c   10.28286600
_cell_angle_alpha   90.00000000
_cell_angle_beta   90.00000000
_cell_angle_gamma   90.00000000
_symmetry_Int_Tables_number   1
_chemical_formula_structural   Cu8Ni8C29
_chemical_formula_sum   'Cu16 Ni16 C58'
_cell_volume   1105.29686066
_cell_formula_units_Z   2
loop_
 _symmetry_equiv_pos_site_id
 _symmetry_equiv_pos_as_xyz
  1  'x, y, z'
loop_
 _atom_site_type_symbol
 _atom_site_label
 _atom_site_symmetry_multiplicity
 _atom_site_fract_x
 _atom_site_fract_y
 _atom_site_fract_z
 _atom_site_occupancy
  C  C0  1  0.50000000  0.50000000  0.50000000  1
  C  C1  1  0.00000000  0.00000000  0.00000000  1
  C  C2  1  0.32923100  0.45217700  0.33286900  1
  C  C3  1  0.82923100  0.04782300  0.16713100  1
  C  C4  1  0.67076900  0.54782300  0.33286900  1
  C  C5  1  0.17076900  0.95217700  0.16713100  1
  C  C6  1  0.54782300  0.32923100  0.66713100  1
  C  C7  1  0.95217700  0.82923100  0.83286900  1
  C  C8  1  0.45217700  0.67076900  0.66713100  1
  C  C9  1  0.04782300  0.17076900  0.83286900  1
  C  C10  1  0.37867500  0.61659700  0.32336300  1
  C  C11  1  0.87867500  0.88340300  0.17663700  1
  C  C12  1  0.62132500  0.38340300  0.32336300  1
  C  C13  1  0.12132500  0.11659700  0.17663700  1
  C  C14  1  0.38340300  0.37867500  0.67663700  1
  C  C15  1  0.11659700  0.87867500  0.82336300  1
  C  C16  1  0.61659700  0.62132500  0.67663700  1
  C  C17  1  0.88340300  0.12132500  0.82336300  1
  C  C18  1  0.08488000  0.65636700  0.60345300  1
  C  C19  1  0.58488000  0.84363300  0.89654700  1
  C  C20  1  0.91512000  0.34363300  0.60345300  1
  C  C21  1  0.41512000  0.15636700  0.89654700  1
  C  C22  1  0.34363300  0.08488000  0.39654700  1
  C  C23  1  0.15636700  0.58488000  0.10345300  1
  C  C24  1  0.65636700  0.91512000  0.39654700  1
  C  C25  1  0.84363300  0.41512000  0.10345300  1
  Ni  Ni26  1  0.35744600  0.53687400  0.39059300  1
  Ni  Ni27  1  0.85744600  0.96312600  0.10940700  1
  Ni  Ni28  1  0.64255400  0.46312600  0.39059300  1
  Ni  Ni29  1  0.14255400  0.03687400  0.10940700  1
  Ni  Ni30  1  0.46312600  0.35744600  0.60940700  1
  Ni  Ni31  1  0.03687400  0.85744600  0.89059300  1
  Ni  Ni32  1  0.53687400  0.64255400  0.60940700  1
  Ni  Ni33  1  0.96312600  0.14255400  0.89059300  1
  Ni  Ni34  1  0.14418700  0.61875800  0.41052200  1
  Ni  Ni35  1  0.64418700  0.88124200  0.08947800  1
  Ni  Ni36  1  0.85581300  0.38124200  0.41052200  1
  Ni  Ni37  1  0.35581300  0.11875800  0.08947800  1
  Ni  Ni38  1  0.38124200  0.14418700  0.58947800  1
  Ni  Ni39  1  0.11875800  0.64418700  0.91052200  1
  Ni  Ni40  1  0.61875800  0.85581300  0.58947800  1
  Ni  Ni41  1  0.88124200  0.35581300  0.91052200  1
  Cu  Cu42  1  0.94100700  0.71824900  0.48597700  1
  Cu  Cu43  1  0.44100700  0.78175100  0.01402300  1
  Cu  Cu44  1  0.05899300  0.28175100  0.48597700  1
  Cu  Cu45  1  0.55899300  0.21824900  0.01402300  1
  Cu  Cu46  1  0.28175100  0.94100700  0.51402300  1
  Cu  Cu47  1  0.21824900  0.44100700  0.98597700  1
  Cu  Cu48  1  0.71824900  0.05899300  0.51402300  1
  Cu  Cu49  1  0.78175100  0.55899300  0.98597700  1
  Cu  Cu50  1  0.05565700  0.65241800  0.50790100  1
  Cu  Cu51  1  0.55565700  0.84758200  0.99209900  1
  Cu  Cu52  1  0.94434300  0.34758200  0.50790100  1
  Cu  Cu53  1  0.44434300  0.15241800  0.99209900  1
  Cu  Cu54  1  0.34758200  0.05565700  0.49209900  1
  Cu  Cu55  1  0.15241800  0.55565700  0.00790100  1
  Cu  Cu56  1  0.65241800  0.94434300  0.49209900  1
  Cu  Cu57  1  0.84758200  0.44434300  0.00790100  1
  C  C58  1  0.24953000  0.57405700  0.47382200  1
  C  C59  1  0.74953000  0.92594300  0.02617800  1
  C  C60  1  0.75047000  0.42594300  0.47382200  1
  C  C61  1  0.25047000  0.07405700  0.02617800  1
  C  C62  1  0.42594300  0.24953000  0.52617800  1
  C  C63  1  0.07405700  0.74953000  0.97382200  1
  C  C64  1  0.57405700  0.75047000  0.52617800  1
  C  C65  1  0.92594300  0.25047000  0.97382200  1
  C  C66  1  0.12905800  0.62641100  0.29345900  1
  C  C67  1  0.62905800  0.87358900  0.20654100  1
  C  C68  1  0.87094200  0.37358900  0.29345900  1
  C  C69  1  0.37094200  0.12641100  0.20654100  1
  C  C70  1  0.37358900  0.12905800  0.70654100  1
  C  C71  1  0.12641100  0.62905800  0.79345900  1
  C  C72  1  0.62641100  0.87094200  0.70654100  1
  C  C73  1  0.87358900  0.37094200  0.79345900  1
  C  C74  1  0.89434800  0.71922100  0.37593400  1
  C  C75  1  0.39434800  0.78077900  0.12406600  1
  C  C76  1  0.10565200  0.28077900  0.37593400  1
  C  C77  1  0.60565200  0.21922100  0.12406600  1
  C  C78  1  0.28077900  0.89434800  0.62406600  1
  C  C79  1  0.21922100  0.39434800  0.87593400  1
  C  C80  1  0.71922100  0.10565200  0.62406600  1
  C  C81  1  0.78077900  0.60565200  0.87593400  1
  C  C82  1  0.89400000  0.76860400  0.58470500  1
  C  C83  1  0.39400000  0.73139600  0.91529500  1
  C  C84  1  0.10600000  0.23139600  0.58470500  1
  C  C85  1  0.60600000  0.26860400  0.91529500  1
  C  C86  1  0.23139600  0.89400000  0.41529500  1
  C  C87  1  0.26860400  0.39400000  0.08470500  1
  C  C88  1  0.76860400  0.10600000  0.41529500  1
  C  C89  1  0.73139600  0.60600000  0.08470500  1
