# generated using pymatgen
data_CuNiC5
_symmetry_space_group_name_H-M   'P 1'
_cell_length_a   5.34232328
_cell_length_b   8.59684768
_cell_length_c   8.63628857
_cell_angle_alpha   79.71557041
_cell_angle_beta   71.97638714
_cell_angle_gamma   71.90271845
_symmetry_Int_Tables_number   1
_chemical_formula_structural   CuNiC5
_chemical_formula_sum   'Cu4 Ni4 C20'
_cell_volume   357.02413291
_cell_formula_units_Z   4
loop_
 _symmetry_equiv_pos_site_id
 _symmetry_equiv_pos_as_xyz
  1  'x, y, z'
loop_
 _atom_site_type_symbol
 _atom_site_label
 _atom_site_symmetry_multiplicity
 _atom_site_fract_x
 _atom_site_fract_y
 _atom_site_fract_z
 _atom_site_occupancy
  Ni  Ni0  1  0.35552200  0.63917800  0.64985500  1
  Ni  Ni1  1  0.85533000  0.39803100  0.89109600  1
  Ni  Ni2  1  0.35536100  0.13937600  0.14965100  1
  Ni  Ni3  1  0.85551700  0.89813000  0.39082900  1
  Cu  Cu4  1  0.13511300  0.60223000  0.12327600  1
  Cu  Cu5  1  0.63912500  0.37536400  0.34645600  1
  Cu  Cu6  1  0.13699300  0.10244100  0.62283500  1
  Cu  Cu7  1  0.63977700  0.87565100  0.84614300  1
  C  C8  1  0.49543700  0.25627200  0.75279700  1
  C  C9  1  0.00216200  0.99831900  0.99719300  1
  C  C10  1  0.49534900  0.75624800  0.25271500  1
  C  C11  1  0.00210600  0.49850000  0.49749500  1
  C  C12  1  0.15872900  0.87032000  0.80893400  1
  C  C13  1  0.66772600  0.55146500  0.11970400  1
  C  C14  1  0.16040800  0.37000700  0.30955500  1
  C  C15  1  0.66486300  0.05188700  0.61918500  1
  C  C16  1  0.31799100  0.44735700  0.91728200  1
  C  C17  1  0.82627500  0.15881800  0.18917000  1
  C  C18  1  0.31768700  0.94758000  0.41676800  1
  C  C19  1  0.82593100  0.65891100  0.68927600  1
  C  C20  1  0.78330200  0.85169000  0.09310600  1
  C  C21  1  0.24088500  0.62453600  0.38425900  1
  C  C22  1  0.78367900  0.35149100  0.59311400  1
  C  C23  1  0.24098700  0.12431700  0.88423100  1
  C  C24  1  0.27213200  0.85067600  0.09246800  1
  C  C25  1  0.75009900  0.62483400  0.38479000  1
  C  C26  1  0.27155500  0.35148900  0.59325700  1
  C  C27  1  0.74995500  0.12488700  0.88456300  1
