# generated using pymatgen
data_CuNiC6
_symmetry_space_group_name_H-M   'P 1'
_cell_length_a   8.04025524
_cell_length_b   8.04025524
_cell_length_c   9.33087066
_cell_angle_alpha   54.94540285
_cell_angle_beta   54.94540285
_cell_angle_gamma   70.53751550
_symmetry_Int_Tables_number   1
_chemical_formula_structural   CuNiC6
_chemical_formula_sum   'Cu2 Ni2 C12'
_cell_volume   404.20852339
_cell_formula_units_Z   2
loop_
 _symmetry_equiv_pos_site_id
 _symmetry_equiv_pos_as_xyz
  1  'x, y, z'
loop_
 _atom_site_type_symbol
 _atom_site_label
 _atom_site_symmetry_multiplicity
 _atom_site_fract_x
 _atom_site_fract_y
 _atom_site_fract_z
 _atom_site_occupancy
  Ni  Ni0  1  0.50000000  0.00000000  0.50000000  1
  Ni  Ni1  1  0.00000000  0.50000000  0.50000000  1
  C  C2  1  0.67204800  0.67204800  0.48936800  1
  C  C3  1  0.32795200  0.32795200  0.51063200  1
  C  C4  1  0.65215400  0.65215400  0.19673600  1
  C  C5  1  0.34784600  0.34784600  0.80326400  1
  C  C6  1  0.16745000  0.85268600  0.65154800  1
  C  C7  1  0.83255000  0.14731400  0.34845200  1
  C  C8  1  0.85268600  0.16745000  0.65154800  1
  C  C9  1  0.14731400  0.83255000  0.34845200  1
  C  C10  1  0.81896400  0.49352400  0.83332000  1
  C  C11  1  0.18103600  0.50647600  0.16668000  1
  C  C12  1  0.50647600  0.18103600  0.16668000  1
  C  C13  1  0.49352400  0.81896400  0.83332000  1
  Cu  Cu14  1  0.00000000  0.50000000  0.00000000  1
  Cu  Cu15  1  0.50000000  0.00000000  0.00000000  1
