# generated using pymatgen
data_CuNi5C3
_symmetry_space_group_name_H-M   'P 1'
_cell_length_a   2.95699700
_cell_length_b   4.53037600
_cell_length_c   13.58026000
_cell_angle_alpha   90.00000000
_cell_angle_beta   90.00000000
_cell_angle_gamma   90.00000000
_symmetry_Int_Tables_number   1
_chemical_formula_structural   CuNi5C3
_chemical_formula_sum   'Cu2 Ni10 C6'
_cell_volume   181.92534895
_cell_formula_units_Z   2
loop_
 _symmetry_equiv_pos_site_id
 _symmetry_equiv_pos_as_xyz
  1  'x, y, z'
loop_
 _atom_site_type_symbol
 _atom_site_label
 _atom_site_symmetry_multiplicity
 _atom_site_fract_x
 _atom_site_fract_y
 _atom_site_fract_z
 _atom_site_occupancy
  C  C0  1  0.00000000  0.72886600  0.99912900  1
  C  C1  1  0.00000000  0.77506200  0.34389600  1
  C  C2  1  0.00000000  0.78244800  0.65977400  1
  C  C3  1  0.50000000  0.21755200  0.15977400  1
  C  C4  1  0.50000000  0.27113400  0.49912900  1
  C  C5  1  0.50000000  0.22493800  0.84389600  1
  Ni  Ni6  1  0.50000000  0.94120500  0.27346800  1
  Ni  Ni7  1  0.50000000  0.98253500  0.59456900  1
  Ni  Ni8  1  0.50000000  0.90581500  0.93396600  1
  Ni  Ni9  1  0.00000000  0.01746500  0.09456900  1
  Ni  Ni10  1  0.00000000  0.05879500  0.77346800  1
  Ni  Ni11  1  0.00000000  0.09418500  0.43396600  1
  Ni  Ni12  1  0.00000000  0.45739600  0.56089200  1
  Ni  Ni13  1  0.00000000  0.43334900  0.90229600  1
  Ni  Ni14  1  0.50000000  0.54260400  0.06089200  1
  Ni  Ni15  1  0.50000000  0.56665100  0.40229600  1
  Cu  Cu16  1  0.00000000  0.44416400  0.23201000  1
  Cu  Cu17  1  0.50000000  0.55583600  0.73201000  1
