# generated using pymatgen
data_CuNi2C9
_symmetry_space_group_name_H-M   'P 1'
_cell_length_a   7.67364600
_cell_length_b   7.67364600
_cell_length_c   4.95652500
_cell_angle_alpha   90.00000000
_cell_angle_beta   90.00000000
_cell_angle_gamma   90.00000000
_symmetry_Int_Tables_number   1
_chemical_formula_structural   CuNi2C9
_chemical_formula_sum   'Cu2 Ni4 C18'
_cell_volume   291.86419612
_cell_formula_units_Z   2
loop_
 _symmetry_equiv_pos_site_id
 _symmetry_equiv_pos_as_xyz
  1  'x, y, z'
loop_
 _atom_site_type_symbol
 _atom_site_label
 _atom_site_symmetry_multiplicity
 _atom_site_fract_x
 _atom_site_fract_y
 _atom_site_fract_z
 _atom_site_occupancy
  C  C0  1  0.65985900  0.84014100  0.50402500  1
  C  C1  1  0.15985900  0.65985900  0.49597500  1
  C  C2  1  0.84014100  0.34014100  0.49597500  1
  C  C3  1  0.34014100  0.15985900  0.50402500  1
  Ni  Ni4  1  0.36722300  0.86722300  0.03953900  1
  Ni  Ni5  1  0.86722300  0.63277700  0.96046100  1
  Ni  Ni6  1  0.63277700  0.13277700  0.03953900  1
  Ni  Ni7  1  0.13277700  0.36722300  0.96046100  1
  Cu  Cu8  1  0.50000000  0.50000000  0.00000000  1
  Cu  Cu9  1  0.00000000  0.00000000  0.00000000  1
  C  C10  1  0.92251500  0.82624900  0.79735600  1
  C  C11  1  0.17375100  0.92251500  0.20264400  1
  C  C12  1  0.57748500  0.32624900  0.20264400  1
  C  C13  1  0.42251500  0.67375100  0.20264400  1
  C  C14  1  0.32624900  0.42251500  0.79735600  1
  C  C15  1  0.67375100  0.57748500  0.79735600  1
  C  C16  1  0.00000000  0.50000000  0.82972200  1
  C  C17  1  0.50000000  0.00000000  0.17027800  1
  C  C18  1  0.14140100  0.35859900  0.28053800  1
  C  C19  1  0.64140100  0.14140100  0.71946200  1
  C  C20  1  0.35859900  0.85859900  0.71946200  1
  C  C21  1  0.85859900  0.64140100  0.28053800  1
  C  C22  1  0.07748500  0.17375100  0.79735600  1
  C  C23  1  0.82624900  0.07748500  0.20264400  1
