# generated using pymatgen
data_Cu(Ni2C3)3
_symmetry_space_group_name_H-M   'P 1'
_cell_length_a   8.67610656
_cell_length_b   4.24675856
_cell_length_c   4.24675856
_cell_angle_alpha   90.00000000
_cell_angle_beta   90.00000000
_cell_angle_gamma   90.00000000
_symmetry_Int_Tables_number   1
_chemical_formula_structural   Cu(Ni2C3)3
_chemical_formula_sum   'Cu1 Ni6 C9'
_cell_volume   156.47321973
_cell_formula_units_Z   1
loop_
 _symmetry_equiv_pos_site_id
 _symmetry_equiv_pos_as_xyz
  1  'x, y, z'
loop_
 _atom_site_type_symbol
 _atom_site_label
 _atom_site_symmetry_multiplicity
 _atom_site_fract_x
 _atom_site_fract_y
 _atom_site_fract_z
 _atom_site_occupancy
  Ni  Ni0  1  0.50000000  0.00000000  -0.00000000  1
  Ni  Ni1  1  0.50000000  0.50000000  0.50000000  1
  Ni  Ni2  1  0.24935498  0.00000000  0.50000000  1
  Ni  Ni3  1  0.75064502  0.00000000  0.50000000  1
  Ni  Ni4  1  0.24935498  0.50000000  -0.00000000  1
  Ni  Ni5  1  0.75064502  0.50000000  0.00000000  1
  Cu  Cu6  1  0.00000000  0.00000000  -0.00000000  1
  C  C7  1  0.00000000  0.50000000  0.50000000  1
  C  C8  1  0.24703054  -0.00000000  -0.00000000  1
  C  C9  1  0.75296946  0.00000000  0.00000000  1
  C  C10  1  0.26046242  0.50000000  0.50000000  1
  C  C11  1  0.73953758  0.50000000  0.50000000  1
  C  C12  1  0.00000000  0.00000000  0.50000000  1
  C  C13  1  0.50000000  0.00000000  0.50000000  1
  C  C14  1  0.00000000  0.50000000  -0.00000000  1
  C  C15  1  0.50000000  0.50000000  -0.00000000  1
