# generated using pymatgen
data_Cu3NiC36
_symmetry_space_group_name_H-M   'P 1'
_cell_length_a   13.49779484
_cell_length_b   13.63056267
_cell_length_c   15.40722166
_cell_angle_alpha   90.00000000
_cell_angle_beta   90.00000000
_cell_angle_gamma   90.00000000
_symmetry_Int_Tables_number   1
_chemical_formula_structural   Cu3NiC36
_chemical_formula_sum   'Cu24 Ni8 C288'
_cell_volume   2834.65975183
_cell_formula_units_Z   8
loop_
 _symmetry_equiv_pos_site_id
 _symmetry_equiv_pos_as_xyz
  1  'x, y, z'
loop_
 _atom_site_type_symbol
 _atom_site_label
 _atom_site_symmetry_multiplicity
 _atom_site_fract_x
 _atom_site_fract_y
 _atom_site_fract_z
 _atom_site_occupancy
  Ni  Ni0  1  0.93532062  0.28585385  0.86628409  1
  Ni  Ni1  1  0.43532062  0.21414615  0.63371591  1
  Ni  Ni2  1  0.06467938  0.78585385  0.63371591  1
  Ni  Ni3  1  0.56467938  0.71414615  0.86628409  1
  Ni  Ni4  1  0.06467938  0.71414615  0.13371591  1
  Ni  Ni5  1  0.56467938  0.78585385  0.36628409  1
  Ni  Ni6  1  0.93532062  0.21414615  0.36628409  1
  Ni  Ni7  1  0.43532062  0.28585385  0.13371591  1
  Cu  Cu8  1  0.08325588  0.47510868  0.67172957  1
  Cu  Cu9  1  0.58325588  0.02489132  0.82827043  1
  Cu  Cu10  1  0.91674412  0.97510868  0.82827043  1
  Cu  Cu11  1  0.41674412  0.52489132  0.67172957  1
  Cu  Cu12  1  0.91674412  0.52489132  0.32827043  1
  Cu  Cu13  1  0.41674412  0.97510868  0.17172957  1
  Cu  Cu14  1  0.08325588  0.02489132  0.17172957  1
  Cu  Cu15  1  0.58325588  0.47510868  0.32827043  1
  Cu  Cu16  1  0.88207727  0.89376028  0.41287130  1
  Cu  Cu17  1  0.38207727  0.60623972  0.08712870  1
  Cu  Cu18  1  0.11792273  0.39376028  0.08712870  1
  Cu  Cu19  1  0.61792273  0.10623972  0.41287130  1
  Cu  Cu20  1  0.11792273  0.10623972  0.58712870  1
  Cu  Cu21  1  0.61792273  0.39376028  0.91287130  1
  Cu  Cu22  1  0.88207727  0.60623972  0.91287130  1
  Cu  Cu23  1  0.38207727  0.89376028  0.58712870  1
  Cu  Cu24  1  0.72118409  0.77942035  0.12435277  1
  Cu  Cu25  1  0.22118409  0.72057965  0.37564723  1
  Cu  Cu26  1  0.27881591  0.27942035  0.37564723  1
  Cu  Cu27  1  0.77881591  0.22057965  0.12435277  1
  Cu  Cu28  1  0.27881591  0.22057965  0.87564723  1
  Cu  Cu29  1  0.77881591  0.27942035  0.62435277  1
  Cu  Cu30  1  0.72118409  0.72057965  0.62435277  1
  Cu  Cu31  1  0.22118409  0.77942035  0.87564723  1
  C  C32  1  0.97842018  0.39436335  0.41941318  1
  C  C33  1  0.47842018  0.10563665  0.08058682  1
  C  C34  1  0.02157982  0.89436335  0.08058682  1
  C  C35  1  0.52157982  0.60563665  0.41941318  1
  C  C36  1  0.02157982  0.60563665  0.58058682  1
  C  C37  1  0.52157982  0.89436335  0.91941318  1
  C  C38  1  0.97842018  0.10563665  0.91941318  1
  C  C39  1  0.47842018  0.39436335  0.58058682  1
  C  C40  1  0.94529773  0.81791758  0.03155566  1
  C  C41  1  0.44529773  0.68208242  0.46844434  1
  C  C42  1  0.05470227  0.31791758  0.46844434  1
  C  C43  1  0.55470227  0.18208242  0.03155566  1
  C  C44  1  0.05470227  0.18208242  0.96844434  1
  C  C45  1  0.55470227  0.31791758  0.53155566  1
  C  C46  1  0.94529773  0.68208242  0.53155566  1
  C  C47  1  0.44529773  0.81791758  0.96844434  1
  C  C48  1  0.94127221  0.33050899  0.50374720  1
  C  C49  1  0.44127221  0.16949101  0.99625280  1
  C  C50  1  0.05872779  0.83050899  0.99625280  1
  C  C51  1  0.55872779  0.66949101  0.50374720  1
  C  C52  1  0.05872779  0.66949101  0.49625280  1
  C  C53  1  0.55872779  0.83050899  0.00374720  1
  C  C54  1  0.94127221  0.16949101  0.00374720  1
  C  C55  1  0.44127221  0.33050899  0.49625280  1
  C  C56  1  0.96567061  0.36825638  0.26649266  1
  C  C57  1  0.46567061  0.13174362  0.23350734  1
  C  C58  1  0.03432939  0.86825638  0.23350734  1
  C  C59  1  0.53432939  0.63174362  0.26649266  1
  C  C60  1  0.03432939  0.63174362  0.73350734  1
  C  C61  1  0.53432939  0.86825638  0.76649266  1
  C  C62  1  0.96567061  0.13174362  0.76649266  1
  C  C63  1  0.46567061  0.36825638  0.73350734  1
  C  C64  1  0.94998710  0.78770650  0.26102801  1
  C  C65  1  0.44998710  0.71229350  0.23897199  1
  C  C66  1  0.05001290  0.28770650  0.23897199  1
  C  C67  1  0.55001290  0.21229350  0.26102801  1
  C  C68  1  0.05001290  0.21229350  0.73897199  1
  C  C69  1  0.55001290  0.28770650  0.76102801  1
  C  C70  1  0.94998710  0.71229350  0.76102801  1
  C  C71  1  0.44998710  0.78770650  0.73897199  1
  C  C72  1  0.93594855  0.27451388  0.20578098  1
  C  C73  1  0.43594855  0.22548612  0.29421902  1
  C  C74  1  0.06405145  0.77451388  0.29421902  1
  C  C75  1  0.56405145  0.72548612  0.20578098  1
  C  C76  1  0.06405145  0.72548612  0.79421902  1
  C  C77  1  0.56405145  0.77451388  0.70578098  1
  C  C78  1  0.93594855  0.22548612  0.70578098  1
  C  C79  1  0.43594855  0.27451388  0.79421902  1
  C  C80  1  0.91324439  0.88832140  0.57159773  1
  C  C81  1  0.41324439  0.61167860  0.92840227  1
  C  C82  1  0.08675561  0.38832140  0.92840227  1
  C  C83  1  0.58675561  0.11167860  0.57159773  1
  C  C84  1  0.08675561  0.11167860  0.42840227  1
  C  C85  1  0.58675561  0.38832140  0.07159773  1
  C  C86  1  0.91324439  0.61167860  0.07159773  1
  C  C87  1  0.41324439  0.88832140  0.42840227  1
  C  C88  1  0.91580515  0.89984056  0.67833141  1
  C  C89  1  0.41580515  0.60015944  0.82166859  1
  C  C90  1  0.08419485  0.39984056  0.82166859  1
  C  C91  1  0.58419485  0.10015944  0.67833141  1
  C  C92  1  0.08419485  0.10015944  0.32166859  1
  C  C93  1  0.58419485  0.39984056  0.17833141  1
  C  C94  1  0.91580515  0.60015944  0.17833141  1
  C  C95  1  0.41580515  0.89984056  0.32166859  1
  C  C96  1  0.86909443  0.80225028  0.63201470  1
  C  C97  1  0.36909443  0.69774972  0.86798530  1
  C  C98  1  0.13090557  0.30225028  0.86798530  1
  C  C99  1  0.63090557  0.19774972  0.63201470  1
  C  C100  1  0.13090557  0.19774972  0.36798530  1
  C  C101  1  0.63090557  0.30225028  0.13201470  1
  C  C102  1  0.86909443  0.69774972  0.13201470  1
  C  C103  1  0.36909443  0.80225028  0.36798530  1
  C  C104  1  0.82597557  0.38037646  0.75108380  1
  C  C105  1  0.32597557  0.11962354  0.74891620  1
  C  C106  1  0.17402443  0.88037646  0.74891620  1
  C  C107  1  0.67402443  0.61962354  0.75108380  1
  C  C108  1  0.17402443  0.61962354  0.24891620  1
  C  C109  1  0.67402443  0.88037646  0.25108380  1
  C  C110  1  0.82597557  0.11962354  0.25108380  1
  C  C111  1  0.32597557  0.38037646  0.24891620  1
  C  C112  1  0.87194112  0.46202924  0.81924078  1
  C  C113  1  0.37194112  0.03797076  0.68075922  1
  C  C114  1  0.12805888  0.96202924  0.68075922  1
  C  C115  1  0.62805888  0.53797076  0.81924078  1
  C  C116  1  0.12805888  0.53797076  0.18075922  1
  C  C117  1  0.62805888  0.96202924  0.31924078  1
  C  C118  1  0.87194112  0.03797076  0.31924078  1
  C  C119  1  0.37194112  0.46202924  0.18075922  1
  C  C120  1  0.94007233  0.41699686  0.74152496  1
  C  C121  1  0.44007233  0.08300314  0.75847504  1
  C  C122  1  0.05992767  0.91699686  0.75847504  1
  C  C123  1  0.55992767  0.58300314  0.74152496  1
  C  C124  1  0.05992767  0.58300314  0.25847504  1
  C  C125  1  0.55992767  0.91699686  0.24152496  1
  C  C126  1  0.94007233  0.08300314  0.24152496  1
  C  C127  1  0.44007233  0.41699686  0.25847504  1
  C  C128  1  0.94676280  0.37032547  0.01847216  1
  C  C129  1  0.44676280  0.12967453  0.48152784  1
  C  C130  1  0.05323720  0.87032547  0.48152784  1
  C  C131  1  0.55323720  0.62967453  0.01847216  1
  C  C132  1  0.05323720  0.62967453  0.98152784  1
  C  C133  1  0.55323720  0.87032547  0.51847216  1
  C  C134  1  0.94676280  0.12967453  0.51847216  1
  C  C135  1  0.44676280  0.37032547  0.98152784  1
  C  C136  1  0.86118429  0.42818007  0.96409470  1
  C  C137  1  0.36118429  0.07181993  0.53590530  1
  C  C138  1  0.13881571  0.92818007  0.53590530  1
  C  C139  1  0.63881571  0.57181993  0.96409470  1
  C  C140  1  0.13881571  0.57181993  0.03590530  1
  C  C141  1  0.63881571  0.92818007  0.46409470  1
  C  C142  1  0.86118429  0.07181993  0.46409470  1
  C  C143  1  0.36118429  0.42818007  0.03590530  1
  C  C144  1  0.83592351  0.32214441  0.01021918  1
  C  C145  1  0.33592351  0.17785559  0.48978082  1
  C  C146  1  0.16407649  0.82214441  0.48978082  1
  C  C147  1  0.66407649  0.67785559  0.01021918  1
  C  C148  1  0.16407649  0.67785559  0.98978082  1
  C  C149  1  0.66407649  0.82214441  0.51021918  1
  C  C150  1  0.83592351  0.17785559  0.51021918  1
  C  C151  1  0.33592351  0.32214441  0.98978082  1
  C  C152  1  0.74160178  0.25142580  0.38551237  1
  C  C153  1  0.24160178  0.24857420  0.11448763  1
  C  C154  1  0.25839822  0.75142580  0.11448763  1
  C  C155  1  0.75839822  0.74857420  0.38551237  1
  C  C156  1  0.25839822  0.74857420  0.61448763  1
  C  C157  1  0.75839822  0.75142580  0.88551237  1
  C  C158  1  0.74160178  0.24857420  0.88551237  1
  C  C159  1  0.24160178  0.25142580  0.61448763  1
  C  C160  1  0.72169479  0.78340534  0.78858672  1
  C  C161  1  0.22169479  0.71659466  0.71141328  1
  C  C162  1  0.27830521  0.28340534  0.71141328  1
  C  C163  1  0.77830521  0.21659466  0.78858672  1
  C  C164  1  0.27830521  0.21659466  0.21141328  1
  C  C165  1  0.77830521  0.28340534  0.28858672  1
  C  C166  1  0.72169479  0.71659466  0.28858672  1
  C  C167  1  0.22169479  0.78340534  0.21141328  1
  C  C168  1  0.79989517  0.35647176  0.36997949  1
  C  C169  1  0.29989517  0.14352824  0.13002051  1
  C  C170  1  0.20010483  0.85647176  0.13002051  1
  C  C171  1  0.70010483  0.64352824  0.36997949  1
  C  C172  1  0.20010483  0.64352824  0.63002051  1
  C  C173  1  0.70010483  0.85647176  0.86997949  1
  C  C174  1  0.79989517  0.14352824  0.86997949  1
  C  C175  1  0.29989517  0.35647176  0.63002051  1
  C  C176  1  0.08519753  0.38522229  0.67594193  1
  C  C177  1  0.58519753  0.11477771  0.82405807  1
  C  C178  1  0.91480247  0.88522229  0.82405807  1
  C  C179  1  0.41480247  0.61477771  0.67594193  1
  C  C180  1  0.91480247  0.61477771  0.32405807  1
  C  C181  1  0.41480247  0.88522229  0.17594193  1
  C  C182  1  0.08519753  0.11477771  0.17594193  1
  C  C183  1  0.58519753  0.38522229  0.32405807  1
  C  C184  1  0.85883442  0.00245907  0.88463182  1
  C  C185  1  0.35883442  0.49754093  0.61536818  1
  C  C186  1  0.14116558  0.50245907  0.61536818  1
  C  C187  1  0.64116558  0.99754093  0.88463182  1
  C  C188  1  0.14116558  0.99754093  0.11536818  1
  C  C189  1  0.64116558  0.50245907  0.38463182  1
  C  C190  1  0.85883442  0.49754093  0.38463182  1
  C  C191  1  0.35883442  0.00245907  0.11536818  1
  C  C192  1  0.89263062  0.01075854  0.75775529  1
  C  C193  1  0.39263062  0.48924146  0.74224471  1
  C  C194  1  0.10736938  0.51075854  0.74224471  1
  C  C195  1  0.60736938  0.98924146  0.75775529  1
  C  C196  1  0.10736938  0.98924146  0.24224471  1
  C  C197  1  0.60736938  0.51075854  0.25775529  1
  C  C198  1  0.89263062  0.48924146  0.25775529  1
  C  C199  1  0.39263062  0.01075854  0.24224471  1
  C  C200  1  0.99801715  0.50094148  0.65343203  1
  C  C201  1  0.49801715  0.99905852  0.84656797  1
  C  C202  1  0.00198285  0.00094148  0.84656797  1
  C  C203  1  0.50198285  0.49905852  0.65343203  1
  C  C204  1  0.00198285  0.49905852  0.34656797  1
  C  C205  1  0.50198285  0.00094148  0.15343203  1
  C  C206  1  0.99801715  0.99905852  0.15343203  1
  C  C207  1  0.49801715  0.50094148  0.34656797  1
  C  C208  1  0.89252042  0.80608669  0.42904959  1
  C  C209  1  0.39252042  0.69391331  0.07095041  1
  C  C210  1  0.10747958  0.30608669  0.07095041  1
  C  C211  1  0.60747958  0.19391331  0.42904959  1
  C  C212  1  0.10747958  0.19391331  0.57095041  1
  C  C213  1  0.60747958  0.30608669  0.92904959  1
  C  C214  1  0.89252042  0.69391331  0.92904959  1
  C  C215  1  0.39252042  0.80608669  0.57095041  1
  C  C216  1  0.96372283  0.93297219  0.40523042  1
  C  C217  1  0.46372283  0.56702781  0.09476958  1
  C  C218  1  0.03627717  0.43297219  0.09476958  1
  C  C219  1  0.53627717  0.06702781  0.40523042  1
  C  C220  1  0.03627717  0.06702781  0.59476958  1
  C  C221  1  0.53627717  0.43297219  0.90523042  1
  C  C222  1  0.96372283  0.56702781  0.90523042  1
  C  C223  1  0.46372283  0.93297219  0.59476958  1
  C  C224  1  0.83621923  0.90291312  0.34444622  1
  C  C225  1  0.33621923  0.59708688  0.15555378  1
  C  C226  1  0.16378077  0.40291312  0.15555378  1
  C  C227  1  0.66378077  0.09708688  0.34444622  1
  C  C228  1  0.16378077  0.09708688  0.65555378  1
  C  C229  1  0.66378077  0.40291312  0.84444622  1
  C  C230  1  0.83621923  0.59708688  0.84444622  1
  C  C231  1  0.33621923  0.90291312  0.65555378  1
  C  C232  1  0.83481074  0.93297664  0.47176810  1
  C  C233  1  0.33481074  0.56702336  0.02823190  1
  C  C234  1  0.16518926  0.43297664  0.02823190  1
  C  C235  1  0.66518926  0.06702336  0.47176810  1
  C  C236  1  0.16518926  0.06702336  0.52823190  1
  C  C237  1  0.66518926  0.43297664  0.97176810  1
  C  C238  1  0.83481074  0.56702336  0.97176810  1
  C  C239  1  0.33481074  0.93297664  0.52823190  1
  C  C240  1  0.85868952  0.32094934  0.61357269  1
  C  C241  1  0.35868952  0.17905066  0.88642731  1
  C  C242  1  0.14131048  0.82094934  0.88642731  1
  C  C243  1  0.64131048  0.67905066  0.61357269  1
  C  C244  1  0.14131048  0.67905066  0.38642731  1
  C  C245  1  0.64131048  0.82094934  0.11357269  1
  C  C246  1  0.85868952  0.17905066  0.11357269  1
  C  C247  1  0.35868952  0.32094934  0.38642731  1
  C  C248  1  0.76351006  0.77079988  0.05414481  1
  C  C249  1  0.26351006  0.72920012  0.44585519  1
  C  C250  1  0.23648994  0.27079988  0.44585519  1
  C  C251  1  0.73648994  0.22920012  0.05414481  1
  C  C252  1  0.23648994  0.22920012  0.94585519  1
  C  C253  1  0.73648994  0.27079988  0.55414481  1
  C  C254  1  0.76351006  0.72920012  0.55414481  1
  C  C255  1  0.26351006  0.77079988  0.94585519  1
  C  C256  1  0.77394284  0.82877058  0.17282764  1
  C  C257  1  0.27394284  0.67122942  0.32717236  1
  C  C258  1  0.22605716  0.32877058  0.32717236  1
  C  C259  1  0.72605716  0.17122942  0.17282764  1
  C  C260  1  0.22605716  0.17122942  0.82717236  1
  C  C261  1  0.72605716  0.32877058  0.67282764  1
  C  C262  1  0.77394284  0.67122942  0.67282764  1
  C  C263  1  0.27394284  0.82877058  0.82717236  1
  C  C264  1  0.70772810  0.80267070  0.65571438  1
  C  C265  1  0.20772810  0.69732930  0.84428562  1
  C  C266  1  0.29227190  0.30267070  0.84428562  1
  C  C267  1  0.79227190  0.19732930  0.65571438  1
  C  C268  1  0.29227190  0.19732930  0.34428562  1
  C  C269  1  0.79227190  0.30267070  0.15571438  1
  C  C270  1  0.70772810  0.69732930  0.15571438  1
  C  C271  1  0.20772810  0.80267070  0.34428562  1
  C  C272  1  0.98259987  0.32575026  0.44769400  1
  C  C273  1  0.48259987  0.17424974  0.05230600  1
  C  C274  1  0.01740013  0.82575026  0.05230600  1
  C  C275  1  0.51740013  0.67424974  0.44769400  1
  C  C276  1  0.01740013  0.67424974  0.55230600  1
  C  C277  1  0.51740013  0.82575026  0.94769400  1
  C  C278  1  0.98259987  0.17424974  0.94769400  1
  C  C279  1  0.48259987  0.32575026  0.55230600  1
  C  C280  1  0.97764510  0.29389046  0.25913914  1
  C  C281  1  0.47764510  0.20610954  0.24086086  1
  C  C282  1  0.02235490  0.79389046  0.24086086  1
  C  C283  1  0.52235490  0.70610954  0.25913914  1
  C  C284  1  0.02235490  0.70610954  0.74086086  1
  C  C285  1  0.52235490  0.79389046  0.75913914  1
  C  C286  1  0.97764510  0.20610954  0.75913914  1
  C  C287  1  0.47764510  0.29389046  0.74086086  1
  C  C288  1  0.92776695  0.85083073  0.62834982  1
  C  C289  1  0.42776695  0.64916927  0.87165018  1
  C  C290  1  0.07223305  0.35083073  0.87165018  1
  C  C291  1  0.57223305  0.14916927  0.62834982  1
  C  C292  1  0.07223305  0.14916927  0.37165018  1
  C  C293  1  0.57223305  0.35083073  0.12834982  1
  C  C294  1  0.92776695  0.64916927  0.12834982  1
  C  C295  1  0.42776695  0.85083073  0.37165018  1
  C  C296  1  0.88781172  0.39733633  0.78749253  1
  C  C297  1  0.38781172  0.10266367  0.71250747  1
  C  C298  1  0.11218828  0.89733633  0.71250747  1
  C  C299  1  0.61218828  0.60266367  0.78749253  1
  C  C300  1  0.11218828  0.60266367  0.21250747  1
  C  C301  1  0.61218828  0.89733633  0.28749253  1
  C  C302  1  0.88781172  0.10266367  0.28749253  1
  C  C303  1  0.38781172  0.39733633  0.21250747  1
  C  C304  1  0.88943922  0.35905589  0.97512633  1
  C  C305  1  0.38943922  0.14094411  0.52487367  1
  C  C306  1  0.11056078  0.85905589  0.52487367  1
  C  C307  1  0.61056078  0.64094411  0.97512633  1
  C  C308  1  0.11056078  0.64094411  0.02487367  1
  C  C309  1  0.61056078  0.85905589  0.47512633  1
  C  C310  1  0.88943922  0.14094411  0.47512633  1
  C  C311  1  0.38943922  0.35905589  0.02487367  1
  C  C312  1  0.79978864  0.28344377  0.35281678  1
  C  C313  1  0.29978864  0.21655623  0.14718322  1
  C  C314  1  0.20021136  0.78344377  0.14718322  1
  C  C315  1  0.70021136  0.71655623  0.35281678  1
  C  C316  1  0.20021136  0.71655623  0.64718322  1
  C  C317  1  0.70021136  0.78344377  0.85281678  1
  C  C318  1  0.79978864  0.21655623  0.85281678  1
  C  C319  1  0.29978864  0.28344377  0.64718322  1
