# generated using pymatgen
data_CuNiC15
_symmetry_space_group_name_H-M   'P 1'
_cell_length_a   8.85195695
_cell_length_b   8.85195612
_cell_length_c   8.85195736
_cell_angle_alpha   59.06029515
_cell_angle_beta   59.06029756
_cell_angle_gamma   59.06029818
_symmetry_Int_Tables_number   1
_chemical_formula_structural   CuNiC15
_chemical_formula_sum   'Cu2 Ni2 C30'
_cell_volume   479.94985523
_cell_formula_units_Z   2
loop_
 _symmetry_equiv_pos_site_id
 _symmetry_equiv_pos_as_xyz
  1  'x, y, z'
loop_
 _atom_site_type_symbol
 _atom_site_label
 _atom_site_symmetry_multiplicity
 _atom_site_fract_x
 _atom_site_fract_y
 _atom_site_fract_z
 _atom_site_occupancy
  Ni  Ni0  1  0.13950800  0.13950800  0.13950800  1
  Ni  Ni1  1  0.63950800  0.63950800  0.63950800  1
  C  C2  1  0.03197100  0.46361700  0.75141400  1
  C  C3  1  0.46361700  0.75141400  0.03197100  1
  C  C4  1  0.75141400  0.03197100  0.46361700  1
  C  C5  1  0.25141400  0.96361700  0.53197100  1
  C  C6  1  0.53197100  0.25141400  0.96361700  1
  C  C7  1  0.96361700  0.53197100  0.25141400  1
  Cu  Cu8  1  0.35839200  0.35839200  0.35839200  1
  Cu  Cu9  1  0.85839200  0.85839200  0.85839200  1
  C  C10  1  0.13319100  0.50974000  0.28165300  1
  C  C11  1  0.28165300  0.13319100  0.50974000  1
  C  C12  1  0.06210500  0.28702800  0.92142000  1
  C  C13  1  0.50974000  0.28165300  0.13319100  1
  C  C14  1  0.00974000  0.63319100  0.78165300  1
  C  C15  1  0.21326800  0.44082100  0.57909700  1
  C  C16  1  0.28702800  0.92142000  0.06210500  1
  C  C17  1  0.44082100  0.57909700  0.21326800  1
  C  C18  1  0.21409300  0.00055200  0.36387300  1
  C  C19  1  0.57909700  0.21326800  0.44082100  1
  C  C20  1  0.07909700  0.94082100  0.71326800  1
  C  C21  1  0.36387300  0.21409300  0.00055200  1
  C  C22  1  0.63319100  0.78165300  0.00974000  1
  C  C23  1  0.92142000  0.06210500  0.28702800  1
  C  C24  1  0.42142000  0.78702800  0.56210500  1
  C  C25  1  0.78165300  0.00974000  0.63319100  1
  C  C26  1  0.56210500  0.42142000  0.78702800  1
  C  C27  1  0.71326800  0.07909700  0.94082100  1
  C  C28  1  0.78702800  0.56210500  0.42142000  1
  C  C29  1  0.00055200  0.36387300  0.21409300  1
  C  C30  1  0.50055200  0.71409300  0.86387300  1
  C  C31  1  0.94082100  0.71326800  0.07909700  1
  C  C32  1  0.71409300  0.86387300  0.50055200  1
  C  C33  1  0.86387300  0.50055200  0.71409300  1
