# generated using pymatgen
data_CuNi3C17
_symmetry_space_group_name_H-M   'P 1'
_cell_length_a   7.21690500
_cell_length_b   10.23079328
_cell_length_c   10.70111100
_cell_angle_alpha   105.52621438
_cell_angle_beta   109.17981486
_cell_angle_gamma   87.27634775
_symmetry_Int_Tables_number   1
_chemical_formula_structural   CuNi3C17
_chemical_formula_sum   'Cu2 Ni6 C34'
_cell_volume   718.31347954
_cell_formula_units_Z   2
loop_
 _symmetry_equiv_pos_site_id
 _symmetry_equiv_pos_as_xyz
  1  'x, y, z'
loop_
 _atom_site_type_symbol
 _atom_site_label
 _atom_site_symmetry_multiplicity
 _atom_site_fract_x
 _atom_site_fract_y
 _atom_site_fract_z
 _atom_site_occupancy
  C  C0  1  0.86795400  0.90394500  0.17175400  1
  C  C1  1  0.13204600  0.09605500  0.82824600  1
  Ni  Ni2  1  0.18440400  0.59081100  0.81488800  1
  Ni  Ni3  1  0.81559600  0.40918900  0.18511200  1
  Ni  Ni4  1  0.98409500  0.21170000  0.36592200  1
  Ni  Ni5  1  0.01590500  0.78830000  0.63407800  1
  Ni  Ni6  1  0.94586800  0.33613800  0.63145200  1
  Ni  Ni7  1  0.05413200  0.66386200  0.36854800  1
  Cu  Cu8  1  0.10619100  0.98385500  0.04056500  1
  Cu  Cu9  1  0.89380900  0.01614500  0.95943500  1
  C  C10  1  0.50134800  0.67554600  0.77675100  1
  C  C11  1  0.49865200  0.32445400  0.22324900  1
  C  C12  1  0.38215100  0.66011600  0.31913200  1
  C  C13  1  0.61784900  0.33988400  0.68086800  1
  C  C14  1  0.16966400  0.58302300  0.94509200  1
  C  C15  1  0.83033600  0.41697700  0.05490800  1
  C  C16  1  0.41390100  0.58965800  0.81422500  1
  C  C17  1  0.58609900  0.41034200  0.18577500  1
  C  C18  1  0.91024100  0.28664000  0.23945000  1
  C  C19  1  0.08975900  0.71336000  0.76055000  1
  C  C20  1  0.89606300  0.54154100  0.31392300  1
  C  C21  1  0.10393700  0.45845900  0.68607700  1
  C  C22  1  0.86479800  0.07965300  0.30997400  1
  C  C23  1  0.13520200  0.92034700  0.69002600  1
  C  C24  1  0.19848100  0.22668000  0.42816700  1
  C  C25  1  0.80151900  0.77332000  0.57183300  1
  C  C26  1  0.87506500  0.31204800  0.47121800  1
  C  C27  1  0.12493500  0.68795200  0.52878200  1
  C  C28  1  0.76524300  0.41288200  0.67560400  1
  C  C29  1  0.23475700  0.58711800  0.32439600  1
  C  C30  1  0.00865400  0.21481800  0.68085400  1
  C  C31  1  0.99134600  0.78518200  0.31914600  1
  C  C32  1  0.75561900  0.99026500  0.99705600  1
  C  C33  1  0.24438100  0.00973500  0.00294400  1
  C  C34  1  0.87738400  0.06744900  0.85992600  1
  C  C35  1  0.12261600  0.93255100  0.14007400  1
  C  C36  1  0.62296000  0.76751800  0.10181900  1
  C  C37  1  0.37704000  0.23248200  0.89818100  1
  C  C38  1  0.25624400  0.27499900  0.96546800  1
  C  C39  1  0.74375600  0.72500100  0.03453200  1
  C  C40  1  0.55032300  0.01323300  0.46805500  1
  C  C41  1  0.44967700  0.98676700  0.53194500  1
