# generated using pymatgen
data_Cu2NiC2
_symmetry_space_group_name_H-M   'P 1'
_cell_length_a   3.69598739
_cell_length_b   3.69598739
_cell_length_c   13.06309126
_cell_angle_alpha   85.48376553
_cell_angle_beta   85.48376553
_cell_angle_gamma   78.23341018
_symmetry_Int_Tables_number   1
_chemical_formula_structural   Cu2NiC2
_chemical_formula_sum   'Cu4 Ni2 C4'
_cell_volume   173.79424452
_cell_formula_units_Z   2
loop_
 _symmetry_equiv_pos_site_id
 _symmetry_equiv_pos_as_xyz
  1  'x, y, z'
loop_
 _atom_site_type_symbol
 _atom_site_label
 _atom_site_symmetry_multiplicity
 _atom_site_fract_x
 _atom_site_fract_y
 _atom_site_fract_z
 _atom_site_occupancy
  C  C0  1  0.46250700  0.46250700  0.16544700  1
  C  C1  1  0.70421700  0.70421700  0.51944100  1
  C  C2  1  0.99466700  0.99466700  0.73088000  1
  C  C3  1  0.00073000  0.00073000  0.99743800  1
  Ni  Ni4  1  0.57884500  0.57884500  0.73449400  1
  Ni  Ni5  1  0.38207000  0.38207000  0.38170700  1
  Cu  Cu6  1  0.10425000  0.10425000  0.85508100  1
  Cu  Cu7  1  0.66573700  0.66573700  0.00923500  1
  Cu  Cu8  1  0.06514600  0.06514600  0.13959400  1
  Cu  Cu9  1  0.05139500  0.05139500  0.58502600  1
