# generated using pymatgen
data_Cu2NiC4
_symmetry_space_group_name_H-M   'P 1'
_cell_length_a   6.43739020
_cell_length_b   6.43739020
_cell_length_c   5.34480780
_cell_angle_alpha   65.67312648
_cell_angle_beta   65.67312648
_cell_angle_gamma   108.28771585
_symmetry_Int_Tables_number   1
_chemical_formula_structural   Cu2NiC4
_chemical_formula_sum   'Cu4 Ni2 C8'
_cell_volume   149.50854498
_cell_formula_units_Z   2
loop_
 _symmetry_equiv_pos_site_id
 _symmetry_equiv_pos_as_xyz
  1  'x, y, z'
loop_
 _atom_site_type_symbol
 _atom_site_label
 _atom_site_symmetry_multiplicity
 _atom_site_fract_x
 _atom_site_fract_y
 _atom_site_fract_z
 _atom_site_occupancy
  Ni  Ni0  1  0.12093300  0.87906700  0.25000000  1
  Ni  Ni1  1  0.87906700  0.12093300  0.75000000  1
  Cu  Cu2  1  0.50000000  0.50000000  0.50000000  1
  Cu  Cu3  1  0.50000000  0.50000000  0.00000000  1
  Cu  Cu4  1  0.50000000  0.00000000  0.50000000  1
  Cu  Cu5  1  0.00000000  0.50000000  0.00000000  1
  C  C6  1  0.90959200  0.72163900  0.72784900  1
  C  C7  1  0.27836100  0.09040800  0.77215100  1
  C  C8  1  0.09040800  0.27836100  0.27215100  1
  C  C9  1  0.72163900  0.90959200  0.22784900  1
  C  C10  1  0.13688700  0.44616700  0.64456400  1
  C  C11  1  0.55383300  0.86311300  0.85543600  1
  C  C12  1  0.44616700  0.13688700  0.14456400  1
  C  C13  1  0.86311300  0.55383300  0.35543600  1
