# generated using pymatgen
data_Cu5Ni2C
_symmetry_space_group_name_H-M   'P 1'
_cell_length_a   6.66634148
_cell_length_b   6.66634148
_cell_length_c   6.98179993
_cell_angle_alpha   64.33269856
_cell_angle_beta   64.33269856
_cell_angle_gamma   75.57046635
_symmetry_Int_Tables_number   1
_chemical_formula_structural   Cu5Ni2C
_chemical_formula_sum   'Cu10 Ni4 C2'
_cell_volume   251.33539354
_cell_formula_units_Z   2
loop_
 _symmetry_equiv_pos_site_id
 _symmetry_equiv_pos_as_xyz
  1  'x, y, z'
loop_
 _atom_site_type_symbol
 _atom_site_label
 _atom_site_symmetry_multiplicity
 _atom_site_fract_x
 _atom_site_fract_y
 _atom_site_fract_z
 _atom_site_occupancy
  C  C0  1  0.72185800  0.72185800  0.17915300  1
  C  C1  1  0.27814200  0.27814200  0.82084700  1
  Ni  Ni2  1  0.46234200  0.25359800  0.26224500  1
  Ni  Ni3  1  0.53765800  0.74640200  0.73775500  1
  Ni  Ni4  1  0.74640200  0.53765800  0.73775500  1
  Ni  Ni5  1  0.25359800  0.46234200  0.26224500  1
  Cu  Cu6  1  0.57224600  0.24456700  0.37164600  1
  Cu  Cu7  1  0.42775400  0.75543300  0.62835400  1
  Cu  Cu8  1  0.75543300  0.42775400  0.62835400  1
  Cu  Cu9  1  0.24456700  0.57224600  0.37164600  1
  Cu  Cu10  1  0.47885500  0.14438700  0.14860700  1
  Cu  Cu11  1  0.52114500  0.85561300  0.85139300  1
  Cu  Cu12  1  0.85561300  0.52114500  0.85139300  1
  Cu  Cu13  1  0.14438700  0.47885500  0.14860700  1
  Cu  Cu14  1  0.97799500  0.97799500  0.17716500  1
  Cu  Cu15  1  0.02200500  0.02200500  0.82283500  1
