# generated using pymatgen
data_CuNiC12
_symmetry_space_group_name_H-M   'P 1'
_cell_length_a   6.37696300
_cell_length_b   7.69165600
_cell_length_c   14.64049300
_cell_angle_alpha   90.00000000
_cell_angle_beta   90.00000000
_cell_angle_gamma   90.00000000
_symmetry_Int_Tables_number   1
_chemical_formula_structural   CuNiC12
_chemical_formula_sum   'Cu4 Ni4 C48'
_cell_volume   718.10748111
_cell_formula_units_Z   4
loop_
 _symmetry_equiv_pos_site_id
 _symmetry_equiv_pos_as_xyz
  1  'x, y, z'
loop_
 _atom_site_type_symbol
 _atom_site_label
 _atom_site_symmetry_multiplicity
 _atom_site_fract_x
 _atom_site_fract_y
 _atom_site_fract_z
 _atom_site_occupancy
  Ni  Ni0  1  0.75000000  0.47160800  0.81970700  1
  Ni  Ni1  1  0.75000000  0.02839200  0.31970700  1
  Ni  Ni2  1  0.25000000  0.52839200  0.18029300  1
  Ni  Ni3  1  0.25000000  0.97160800  0.68029300  1
  Cu  Cu4  1  0.50000000  0.50000000  0.00000000  1
  Cu  Cu5  1  0.50000000  0.00000000  0.50000000  1
  Cu  Cu6  1  0.00000000  0.00000000  0.50000000  1
  Cu  Cu7  1  0.00000000  0.50000000  0.00000000  1
  C  C8  1  0.75000000  0.86081400  0.88304000  1
  C  C9  1  0.25000000  0.13918600  0.11696000  1
  C  C10  1  0.25000000  0.36081400  0.61696000  1
  C  C11  1  0.75000000  0.63918600  0.38304000  1
  C  C12  1  0.25000000  0.85309000  0.93010000  1
  C  C13  1  0.75000000  0.14691000  0.06990000  1
  C  C14  1  0.75000000  0.35309000  0.56990000  1
  C  C15  1  0.25000000  0.64691000  0.43010000  1
  C  C16  1  0.75000000  0.87718900  0.69257700  1
  C  C17  1  0.25000000  0.12281100  0.30742300  1
  C  C18  1  0.25000000  0.37718900  0.80742300  1
  C  C19  1  0.75000000  0.62281100  0.19257700  1
  C  C20  1  0.04606600  0.11026500  0.36583300  1
  C  C21  1  0.54606600  0.88973500  0.63416700  1
  C  C22  1  0.95393400  0.61026500  0.13416700  1
  C  C23  1  0.45393400  0.38973500  0.86583300  1
  C  C24  1  0.95393400  0.88973500  0.63416700  1
  C  C25  1  0.45393400  0.11026500  0.36583300  1
  C  C26  1  0.04606600  0.38973500  0.86583300  1
  C  C27  1  0.54606600  0.61026500  0.13416700  1
  C  C28  1  0.25000000  0.82584900  0.47656800  1
  C  C29  1  0.75000000  0.17415100  0.52343200  1
  C  C30  1  0.75000000  0.32584900  0.02343200  1
  C  C31  1  0.25000000  0.67415100  0.97656800  1
  C  C32  1  0.75000000  0.62033200  0.93723300  1
  C  C33  1  0.25000000  0.37966800  0.06276700  1
  C  C34  1  0.25000000  0.12033200  0.56276700  1
  C  C35  1  0.75000000  0.87966800  0.43723300  1
  C  C36  1  0.75000000  0.70557500  0.75144500  1
  C  C37  1  0.25000000  0.29442500  0.24855500  1
  C  C38  1  0.25000000  0.20557500  0.74855500  1
  C  C39  1  0.75000000  0.79442500  0.25144500  1
  C  C40  1  0.43626000  0.62503200  0.36377000  1
  C  C41  1  0.93626000  0.37496800  0.63623000  1
  C  C42  1  0.56374000  0.12503200  0.13623000  1
  C  C43  1  0.06374000  0.87496800  0.86377000  1
  C  C44  1  0.56374000  0.37496800  0.63623000  1
  C  C45  1  0.06374000  0.62503200  0.36377000  1
  C  C46  1  0.43626000  0.87496800  0.86377000  1
  C  C47  1  0.93626000  0.12503200  0.13623000  1
  C  C48  1  0.75000000  0.47731800  0.26781000  1
  C  C49  1  0.25000000  0.52268200  0.73219000  1
  C  C50  1  0.25000000  0.97731800  0.23219000  1
  C  C51  1  0.75000000  0.02268200  0.76781000  1
  C  C52  1  0.75000000  0.50232600  0.49993100  1
  C  C53  1  0.25000000  0.49767400  0.50006900  1
  C  C54  1  0.25000000  0.00232600  0.00006900  1
  C  C55  1  0.75000000  0.99767400  0.99993100  1
