# generated using pymatgen
data_Cu5Ni2C25
_symmetry_space_group_name_H-M   'P 1'
_cell_length_a   2.90687500
_cell_length_b   10.14779203
_cell_length_c   10.22707124
_cell_angle_alpha   108.93043115
_cell_angle_beta   90.66000673
_cell_angle_gamma   90.77529977
_symmetry_Int_Tables_number   1
_chemical_formula_structural   Cu5Ni2C25
_chemical_formula_sum   'Cu5 Ni2 C25'
_cell_volume   285.29835767
_cell_formula_units_Z   1
loop_
 _symmetry_equiv_pos_site_id
 _symmetry_equiv_pos_as_xyz
  1  'x, y, z'
loop_
 _atom_site_type_symbol
 _atom_site_label
 _atom_site_symmetry_multiplicity
 _atom_site_fract_x
 _atom_site_fract_y
 _atom_site_fract_z
 _atom_site_occupancy
  C  C0  1  0.99882400  0.00303400  0.25145100  1
  C  C1  1  0.49388500  0.25821200  0.75528000  1
  C  C2  1  0.99653800  0.50684300  0.24203700  1
  C  C3  1  0.50239400  0.24938900  0.24984600  1
  C  C4  1  0.00346200  0.49315700  0.75796300  1
  C  C5  1  0.50611500  0.74178800  0.24472000  1
  C  C6  1  0.49760600  0.75061100  0.75015400  1
  C  C7  1  0.00117600  0.99696600  0.74854900  1
  C  C8  1  0.50000000  0.50000000  0.00000000  1
  Ni  Ni9  1  0.99990900  0.74610300  0.00237200  1
  Ni  Ni10  1  0.00009100  0.25389700  0.99762800  1
  Cu  Cu11  1  0.50000000  0.00000000  0.50000000  1
  Cu  Cu12  1  0.50000000  0.50000000  0.50000000  1
  Cu  Cu13  1  0.99714400  0.24990600  0.50001700  1
  Cu  Cu14  1  0.00285600  0.75009400  0.49998300  1
  Cu  Cu15  1  0.50000000  0.00000000  0.00000000  1
  C  C16  1  0.50481700  0.87187100  0.10613200  1
  C  C17  1  0.97882500  0.11864900  0.61420700  1
  C  C18  1  0.50549500  0.35712200  0.11135200  1
  C  C19  1  0.00744000  0.11486100  0.10563800  1
  C  C20  1  0.48647800  0.37058200  0.61610800  1
  C  C21  1  0.00047600  0.64080000  0.11666300  1
  C  C22  1  0.98622300  0.62059000  0.61569300  1
  C  C23  1  0.49079600  0.86975500  0.61793600  1
  C  C24  1  0.50920400  0.13024500  0.38206400  1
  C  C25  1  0.99952400  0.35920000  0.88333700  1
  C  C26  1  0.51352200  0.62941800  0.38389200  1
  C  C27  1  0.01377700  0.37941000  0.38430700  1
  C  C28  1  0.49450500  0.64287800  0.88864800  1
  C  C29  1  0.02117500  0.88135100  0.38579300  1
  C  C30  1  0.99256000  0.88513900  0.89436200  1
  C  C31  1  0.49518300  0.12812900  0.89386800  1
