# generated using pymatgen
data_CuNi2C7
_symmetry_space_group_name_H-M   'P 1'
_cell_length_a   7.70937897
_cell_length_b   7.70937897
_cell_length_c   25.56824524
_cell_angle_alpha   90.00000000
_cell_angle_beta   81.32898055
_cell_angle_gamma   120.00000000
_symmetry_Int_Tables_number   1
_chemical_formula_structural   CuNi2C7
_chemical_formula_sum   'Cu4 Ni8 C28'
_cell_volume   1295.94897058
_cell_formula_units_Z   4
loop_
 _symmetry_equiv_pos_site_id
 _symmetry_equiv_pos_as_xyz
  1  'x, y, z'
loop_
 _atom_site_type_symbol
 _atom_site_label
 _atom_site_symmetry_multiplicity
 _atom_site_fract_x
 _atom_site_fract_y
 _atom_site_fract_z
 _atom_site_occupancy
  Ni  Ni0  1  0.62500347  0.81250174  0.56249479  1
  Ni  Ni1  1  0.12502661  0.06251330  0.81246009  1
  Ni  Ni2  1  0.62497010  0.31248505  0.06254484  1
  Ni  Ni3  1  0.12500473  0.56250237  0.31249290  1
  Ni  Ni4  1  0.87499527  0.43749763  0.68750710  1
  Ni  Ni5  1  0.37502990  0.68751495  0.93745516  1
  Ni  Ni6  1  0.87497339  0.93748670  0.18753991  1
  Ni  Ni7  1  0.37499653  0.18749826  0.43750521  1
  Cu  Cu8  1  0.25000021  0.12500011  0.62499968  1
  Cu  Cu9  1  0.75002131  0.37501066  0.87496803  1
  Cu  Cu10  1  0.24997869  0.62498934  0.12503197  1
  Cu  Cu11  1  0.74999979  0.87499989  0.37500032  1
  C  C12  1  0.00000000  0.00000000  0.00000000  1
  C  C13  1  0.49999660  0.24999830  0.25000509  1
  C  C14  1  0.00000000  0.50000000  0.50000000  1
  C  C15  1  0.50000340  0.75000170  0.74999491  1
  C  C16  1  0.12064276  0.80160564  0.56032012  1
  C  C17  1  0.62063026  0.05157137  0.81031086  1
  C  C18  1  0.12146851  0.30367355  0.06073653  1
  C  C19  1  0.62065009  0.55162162  0.31032144  1
  C  C20  1  0.37934991  0.93097153  0.68967856  1
  C  C21  1  0.87853149  0.18220504  0.93926347  1
  C  C22  1  0.37936974  0.43094111  0.18968914  1
  C  C23  1  0.87935724  0.68096288  0.43967988  1
  C  C24  1  0.63807424  0.31903712  0.56032012  1
  C  C25  1  0.13811777  0.56905889  0.81031086  1
  C  C26  1  0.63558992  0.81779496  0.06073653  1
  C  C27  1  0.13805694  0.06902847  0.31032144  1
  C  C28  1  0.37934991  0.44837838  0.68967856  1
  C  C29  1  0.87853149  0.69632645  0.93926347  1
  C  C30  1  0.37936974  0.94842863  0.18968914  1
  C  C31  1  0.87935724  0.19839436  0.43967988  1
  C  C32  1  0.12064276  0.31903712  0.56032012  1
  C  C33  1  0.62063026  0.56905889  0.81031086  1
  C  C34  1  0.12146851  0.81779496  0.06073653  1
  C  C35  1  0.62065009  0.06902847  0.31032144  1
  C  C36  1  0.86194306  0.93097153  0.68967856  1
  C  C37  1  0.36441008  0.18220504  0.93926347  1
  C  C38  1  0.86188223  0.43094111  0.18968914  1
  C  C39  1  0.36192576  0.68096288  0.43967988  1
