# generated using pymatgen
data_Cu(NiC2)2
_symmetry_space_group_name_H-M   'P 1'
_cell_length_a   6.25668125
_cell_length_b   6.25668125
_cell_length_c   6.15993453
_cell_angle_alpha   62.03555123
_cell_angle_beta   62.03555123
_cell_angle_gamma   33.40051289
_symmetry_Int_Tables_number   1
_chemical_formula_structural   Cu(NiC2)2
_chemical_formula_sum   'Cu1 Ni2 C4'
_cell_volume   115.74702436
_cell_formula_units_Z   1
loop_
 _symmetry_equiv_pos_site_id
 _symmetry_equiv_pos_as_xyz
  1  'x, y, z'
loop_
 _atom_site_type_symbol
 _atom_site_label
 _atom_site_symmetry_multiplicity
 _atom_site_fract_x
 _atom_site_fract_y
 _atom_site_fract_z
 _atom_site_occupancy
  Ni  Ni0  1  0.73904700  0.73904700  0.27986000  1
  Ni  Ni1  1  0.26095300  0.26095300  0.72014000  1
  Cu  Cu2  1  0.00000000  0.00000000  0.00000000  1
  C  C3  1  0.87536500  0.87536500  0.45996000  1
  C  C4  1  0.12463500  0.12463500  0.54004000  1
  C  C5  1  0.63779100  0.63779100  0.02073800  1
  C  C6  1  0.36220900  0.36220900  0.97926200  1
