# generated using pymatgen
data_Cu4Ni2C3
_symmetry_space_group_name_H-M   'P 1'
_cell_length_a   4.79084864
_cell_length_b   7.99207895
_cell_length_c   5.77390235
_cell_angle_alpha   92.79062256
_cell_angle_beta   89.59525360
_cell_angle_gamma   92.20770022
_symmetry_Int_Tables_number   1
_chemical_formula_structural   Cu4Ni2C3
_chemical_formula_sum   'Cu8 Ni4 C6'
_cell_volume   220.64697541
_cell_formula_units_Z   2
loop_
 _symmetry_equiv_pos_site_id
 _symmetry_equiv_pos_as_xyz
  1  'x, y, z'
loop_
 _atom_site_type_symbol
 _atom_site_label
 _atom_site_symmetry_multiplicity
 _atom_site_fract_x
 _atom_site_fract_y
 _atom_site_fract_z
 _atom_site_occupancy
  C  C0  1  0.46911700  0.98483500  0.49855600  1
  C  C1  1  0.53087700  0.34861300  0.83477400  1
  C  C2  1  0.95435000  0.34183300  0.33580900  1
  C  C3  1  0.04532300  0.99142200  0.99738900  1
  C  C4  1  0.99995600  0.66667900  0.66657600  1
  C  C5  1  0.49978100  0.66667100  0.16668200  1
  Ni  Ni6  1  0.80233000  0.45396200  0.64012400  1
  Ni  Ni7  1  0.67553200  0.45154500  0.11592700  1
  Ni  Ni8  1  0.32407800  0.88182400  0.21746300  1
  Ni  Ni9  1  0.19764400  0.87942900  0.69319400  1
  Cu  Cu10  1  0.78694300  0.76775000  0.96455000  1
  Cu  Cu11  1  0.72423700  0.76039000  0.46488200  1
  Cu  Cu12  1  0.27540200  0.57307900  0.86858900  1
  Cu  Cu13  1  0.21300400  0.56537000  0.36887300  1
  Cu  Cu14  1  0.79029900  0.09129400  0.30208300  1
  Cu  Cu15  1  0.68555400  0.09019000  0.78345700  1
  Cu  Cu16  1  0.31518000  0.24330800  0.54990900  1
  Cu  Cu17  1  0.21039400  0.24181000  0.03116400  1
