# generated using pymatgen
data_CuNi2C5
_symmetry_space_group_name_H-M   'P 1'
_cell_length_a   5.18505994
_cell_length_b   5.18505994
_cell_length_c   11.64500300
_cell_angle_alpha   90.00000000
_cell_angle_beta   90.00000000
_cell_angle_gamma   138.43990090
_symmetry_Int_Tables_number   1
_chemical_formula_structural   CuNi2C5
_chemical_formula_sum   'Cu2 Ni4 C10'
_cell_volume   207.69502500
_cell_formula_units_Z   2
loop_
 _symmetry_equiv_pos_site_id
 _symmetry_equiv_pos_as_xyz
  1  'x, y, z'
loop_
 _atom_site_type_symbol
 _atom_site_label
 _atom_site_symmetry_multiplicity
 _atom_site_fract_x
 _atom_site_fract_y
 _atom_site_fract_z
 _atom_site_occupancy
  Ni  Ni0  1  0.78090700  0.21909300  0.59837900  1
  Ni  Ni1  1  0.21909300  0.78090700  0.40162100  1
  Ni  Ni2  1  0.21909300  0.78090700  0.09837900  1
  Ni  Ni3  1  0.78090700  0.21909300  0.90162100  1
  Cu  Cu4  1  0.08199500  0.91800500  0.75000000  1
  Cu  Cu5  1  0.91800500  0.08199500  0.25000000  1
  C  C6  1  0.30231400  0.69768600  0.25000000  1
  C  C7  1  0.69768600  0.30231400  0.75000000  1
  C  C8  1  0.76487600  0.23512400  0.07492400  1
  C  C9  1  0.23512400  0.76487600  0.92507600  1
  C  C10  1  0.23512400  0.76487600  0.57492400  1
  C  C11  1  0.76487600  0.23512400  0.42507600  1
  C  C12  1  0.95875400  0.04124600  0.61832000  1
  C  C13  1  0.04124600  0.95875400  0.38168000  1
  C  C14  1  0.95875400  0.04124600  0.88168000  1
  C  C15  1  0.04124600  0.95875400  0.11832000  1
