# generated using pymatgen
data_CuNi3
_symmetry_space_group_name_H-M   'P 1'
_cell_length_a   6.70861500
_cell_length_b   8.13260749
_cell_length_c   8.25359393
_cell_angle_alpha   89.84754125
_cell_angle_beta   89.61715727
_cell_angle_gamma   89.39093874
_symmetry_Int_Tables_number   1
_chemical_formula_structural   CuNi3
_chemical_formula_sum   'Cu8 Ni24'
_cell_volume   450.26696949
_cell_formula_units_Z   8
loop_
 _symmetry_equiv_pos_site_id
 _symmetry_equiv_pos_as_xyz
  1  'x, y, z'
loop_
 _atom_site_type_symbol
 _atom_site_label
 _atom_site_symmetry_multiplicity
 _atom_site_fract_x
 _atom_site_fract_y
 _atom_site_fract_z
 _atom_site_occupancy
  Ni  Ni0  1  0.71871000  0.04365700  0.40787600  1
  Ni  Ni1  1  0.07419000  0.63088300  0.25795200  1
  Ni  Ni2  1  0.56265600  0.62200000  0.94079900  1
  Ni  Ni3  1  0.56785900  0.47252800  0.25352000  1
  Ni  Ni4  1  0.24001100  0.34088300  0.10499000  1
  Ni  Ni5  1  0.24384500  0.75849200  0.10958700  1
  Ni  Ni6  1  0.07886300  0.46934700  0.95017300  1
  Ni  Ni7  1  0.22501000  0.04262500  0.81749800  1
  Ni  Ni8  1  0.90386500  0.90306800  0.53188600  1
  Ni  Ni9  1  0.23213800  0.04483100  0.40160700  1
  Ni  Ni10  1  0.39418400  0.20182100  0.52534900  1
  Ni  Ni11  1  0.89679900  0.21350800  0.67272500  1
  Ni  Ni12  1  0.70828500  0.76746100  0.79295100  1
  Ni  Ni13  1  0.38516100  0.89307900  0.67999000  1
  Ni  Ni14  1  0.72816500  0.32083100  0.11760500  1
  Ni  Ni15  1  0.74363700  0.38301300  0.78898600  1
  Ni  Ni16  1  0.96444100  0.00735500  0.13819700  1
  Ni  Ni17  1  0.46241300  0.06480600  0.13732400  1
  Ni  Ni18  1  0.52241600  0.01048700  0.08058200  1
  Ni  Ni19  1  0.99441000  0.07700700  0.08231800  1
  Ni  Ni20  1  0.97416000  0.51909900  0.56853800  1
  Ni  Ni21  1  0.01881800  0.58607300  0.61995300  1
  Ni  Ni22  1  0.42831000  0.52956700  0.63020800  1
  Ni  Ni23  1  0.49937600  0.57575500  0.57585100  1
  Cu  Cu24  1  0.25108200  0.70972800  0.26662700  1
  Cu  Cu25  1  0.74322200  0.38842300  0.26670700  1
  Cu  Cu26  1  0.74359800  0.69495300  0.93829500  1
  Cu  Cu27  1  0.24210700  0.36944600  0.94306800  1
  Cu  Cu28  1  0.22098400  0.88141100  0.77611700  1
  Cu  Cu29  1  0.73100800  0.88257600  0.45007300  1
  Cu  Cu30  1  0.72209400  0.22051600  0.75633600  1
  Cu  Cu31  1  0.22513300  0.20790100  0.43570300  1
