# generated using pymatgen
data_Cu18Ni2C17
_symmetry_space_group_name_H-M   'P 1'
_cell_length_a   17.61782600
_cell_length_b   17.61782600
_cell_length_c   2.97921100
_cell_angle_alpha   90.00000000
_cell_angle_beta   90.00000000
_cell_angle_gamma   90.00000000
_symmetry_Int_Tables_number   1
_chemical_formula_structural   Cu18Ni2C17
_chemical_formula_sum   'Cu36 Ni4 C34'
_cell_volume   924.71072707
_cell_formula_units_Z   2
loop_
 _symmetry_equiv_pos_site_id
 _symmetry_equiv_pos_as_xyz
  1  'x, y, z'
loop_
 _atom_site_type_symbol
 _atom_site_label
 _atom_site_symmetry_multiplicity
 _atom_site_fract_x
 _atom_site_fract_y
 _atom_site_fract_z
 _atom_site_occupancy
  C  C0  1  0.80356800  0.30356800  0.50000000  1
  C  C1  1  0.19643200  0.69643200  0.50000000  1
  C  C2  1  0.30356800  0.19643200  0.50000000  1
  C  C3  1  0.69643200  0.80356800  0.50000000  1
  C  C4  1  0.50000000  0.50000000  0.50000000  1
  C  C5  1  0.00000000  0.00000000  0.50000000  1
  C  C6  1  0.68622500  0.53595600  0.50000000  1
  C  C7  1  0.31377500  0.46404400  0.50000000  1
  C  C8  1  0.18622500  0.96404400  0.50000000  1
  C  C9  1  0.81377500  0.03595600  0.50000000  1
  C  C10  1  0.46404400  0.68622500  0.50000000  1
  C  C11  1  0.53595600  0.31377500  0.50000000  1
  C  C12  1  0.03595600  0.18622500  0.50000000  1
  C  C13  1  0.96404400  0.81377500  0.50000000  1
  C  C14  1  0.82737600  0.67262400  0.50000000  1
  C  C15  1  0.17262400  0.32737600  0.50000000  1
  C  C16  1  0.32737600  0.82737600  0.50000000  1
  C  C17  1  0.67262400  0.17262400  0.50000000  1
  Ni  Ni18  1  0.95390500  0.54609500  0.50000000  1
  Ni  Ni19  1  0.04609500  0.45390500  0.50000000  1
  Ni  Ni20  1  0.45390500  0.95390500  0.50000000  1
  Ni  Ni21  1  0.54609500  0.04609500  0.50000000  1
  C  C22  1  0.67019100  0.37907100  0.50000000  1
  C  C23  1  0.32980900  0.62092900  0.50000000  1
  C  C24  1  0.17019100  0.12092900  0.50000000  1
  C  C25  1  0.82980900  0.87907100  0.50000000  1
  C  C26  1  0.62092900  0.67019100  0.50000000  1
  C  C27  1  0.37907100  0.32980900  0.50000000  1
  C  C28  1  0.87907100  0.17019100  0.50000000  1
  C  C29  1  0.12092900  0.82980900  0.50000000  1
  C  C30  1  0.83543600  0.46401400  0.50000000  1
  C  C31  1  0.16456400  0.53598600  0.50000000  1
  C  C32  1  0.33543600  0.03598600  0.50000000  1
  C  C33  1  0.66456400  0.96401400  0.50000000  1
  C  C34  1  0.53598600  0.83543600  0.50000000  1
  C  C35  1  0.46401400  0.16456400  0.50000000  1
  C  C36  1  0.96401400  0.33543600  0.50000000  1
  C  C37  1  0.03598600  0.66456400  0.50000000  1
  Cu  Cu38  1  0.75482200  0.42009100  0.00000000  1
  Cu  Cu39  1  0.24517800  0.57990900  0.00000000  1
  Cu  Cu40  1  0.25482200  0.07990900  0.00000000  1
  Cu  Cu41  1  0.74517800  0.92009100  0.00000000  1
  Cu  Cu42  1  0.57990900  0.75482200  0.00000000  1
  Cu  Cu43  1  0.42009100  0.24517800  0.00000000  1
  Cu  Cu44  1  0.92009100  0.25482200  0.00000000  1
  Cu  Cu45  1  0.07990900  0.74517800  0.00000000  1
  Cu  Cu46  1  0.91846800  0.41846800  0.00000000  1
  Cu  Cu47  1  0.08153200  0.58153200  0.00000000  1
  Cu  Cu48  1  0.41846800  0.08153200  0.00000000  1
  Cu  Cu49  1  0.58153200  0.91846800  0.00000000  1
  Cu  Cu50  1  0.83291300  0.55199600  0.00000000  1
  Cu  Cu51  1  0.16708700  0.44800400  0.00000000  1
  Cu  Cu52  1  0.33291300  0.94800400  0.00000000  1
  Cu  Cu53  1  0.66708700  0.05199600  0.00000000  1
  Cu  Cu54  1  0.44800400  0.83291300  0.00000000  1
  Cu  Cu55  1  0.55199600  0.16708700  0.00000000  1
  Cu  Cu56  1  0.05199600  0.33291300  0.00000000  1
  Cu  Cu57  1  0.94800400  0.66708700  0.00000000  1
  Cu  Cu58  1  0.66852800  0.28955300  0.00000000  1
  Cu  Cu59  1  0.33147200  0.71044700  0.00000000  1
  Cu  Cu60  1  0.16852800  0.21044700  0.00000000  1
  Cu  Cu61  1  0.83147200  0.78955300  0.00000000  1
  Cu  Cu62  1  0.71044700  0.66852800  0.00000000  1
  Cu  Cu63  1  0.28955300  0.33147200  0.00000000  1
  Cu  Cu64  1  0.78955300  0.16852800  0.00000000  1
  Cu  Cu65  1  0.21044700  0.83147200  0.00000000  1
  Cu  Cu66  1  0.59837400  0.43089200  0.00000000  1
  Cu  Cu67  1  0.40162600  0.56910800  0.00000000  1
  Cu  Cu68  1  0.09837400  0.06910800  0.00000000  1
  Cu  Cu69  1  0.90162600  0.93089200  0.00000000  1
  Cu  Cu70  1  0.56910800  0.59837400  0.00000000  1
  Cu  Cu71  1  0.43089200  0.40162600  0.00000000  1
  Cu  Cu72  1  0.93089200  0.09837400  0.00000000  1
  Cu  Cu73  1  0.06910800  0.90162600  0.00000000  1
