# generated using pymatgen
data_CuNiC5
_symmetry_space_group_name_H-M   'P 1'
_cell_length_a   5.92997340
_cell_length_b   6.15884165
_cell_length_c   10.79876603
_cell_angle_alpha   106.84266220
_cell_angle_beta   90.00789372
_cell_angle_gamma   61.22779087
_symmetry_Int_Tables_number   1
_chemical_formula_structural   CuNiC5
_chemical_formula_sum   'Cu4 Ni4 C20'
_cell_volume   326.27505616
_cell_formula_units_Z   4
loop_
 _symmetry_equiv_pos_site_id
 _symmetry_equiv_pos_as_xyz
  1  'x, y, z'
loop_
 _atom_site_type_symbol
 _atom_site_label
 _atom_site_symmetry_multiplicity
 _atom_site_fract_x
 _atom_site_fract_y
 _atom_site_fract_z
 _atom_site_occupancy
  C  C0  1  0.56232600  0.87627400  0.31135900  1
  C  C1  1  0.06141200  0.87624500  0.81136300  1
  C  C2  1  0.93858300  0.12375500  0.18863600  1
  C  C3  1  0.43768000  0.12372600  0.68864100  1
  Ni  Ni4  1  0.50000100  0.49999600  0.50000100  1
  Ni  Ni5  1  0.50000300  0.49999600  0.99999900  1
  Ni  Ni6  1  0.99999800  0.50000300  0.99999900  1
  Ni  Ni7  1  0.99999800  0.50000400  0.49999900  1
  Cu  Cu8  1  0.50002700  0.00001600  0.00001000  1
  Cu  Cu9  1  0.99993900  0.00002400  0.50000400  1
  Cu  Cu10  1  0.25429600  0.50004900  0.25010400  1
  Cu  Cu11  1  0.74570900  0.49995100  0.74989700  1
  C  C12  1  0.85208500  0.27585000  0.39955200  1
  C  C13  1  0.37224900  0.27575500  0.89951300  1
  C  C14  1  0.15604600  0.70043900  0.11136500  1
  C  C15  1  0.64335000  0.70045900  0.61140100  1
  C  C16  1  0.35665200  0.29953800  0.38859800  1
  C  C17  1  0.84395300  0.29956000  0.88863600  1
  C  C18  1  0.62774800  0.72424400  0.10048500  1
  C  C19  1  0.14792500  0.72414200  0.60044800  1
  C  C20  1  0.60816200  0.25070400  0.12315500  1
  C  C21  1  0.10375800  0.26327900  0.62019200  1
  C  C22  1  0.13298300  0.26316900  0.12014100  1
  C  C23  1  0.64125500  0.25056600  0.62310400  1
  C  C24  1  0.35876800  0.74941600  0.37688700  1
  C  C25  1  0.86700600  0.73683000  0.87985800  1
  C  C26  1  0.89625400  0.73672600  0.37981100  1
  C  C27  1  0.39183300  0.74928400  0.87684000  1
