# generated using pymatgen
data_Cu4(NiC4)3
_symmetry_space_group_name_H-M   'P 1'
_cell_length_a   9.22293846
_cell_length_b   9.22293846
_cell_length_c   9.22293846
_cell_angle_alpha   109.47122063
_cell_angle_beta   109.47122063
_cell_angle_gamma   109.47122063
_symmetry_Int_Tables_number   1
_chemical_formula_structural   Cu4(NiC4)3
_chemical_formula_sum   'Cu8 Ni6 C24'
_cell_volume   603.92921780
_cell_formula_units_Z   2
loop_
 _symmetry_equiv_pos_site_id
 _symmetry_equiv_pos_as_xyz
  1  'x, y, z'
loop_
 _atom_site_type_symbol
 _atom_site_label
 _atom_site_symmetry_multiplicity
 _atom_site_fract_x
 _atom_site_fract_y
 _atom_site_fract_z
 _atom_site_occupancy
  Ni  Ni0  1  0.37500000  0.62500000  0.75000000  1
  Ni  Ni1  1  0.12500000  0.87500000  0.25000000  1
  Ni  Ni2  1  0.25000000  0.12500000  0.87500000  1
  Ni  Ni3  1  0.75000000  0.37500000  0.62500000  1
  Ni  Ni4  1  0.62500000  0.75000000  0.37500000  1
  Ni  Ni5  1  0.87500000  0.25000000  0.12500000  1
  Cu  Cu6  1  0.50000000  0.00000000  0.69480300  1
  Cu  Cu7  1  0.69480300  0.50000000  0.00000000  1
  Cu  Cu8  1  0.80519700  0.80519700  0.80519700  1
  Cu  Cu9  1  0.00000000  0.69480300  0.50000000  1
  Cu  Cu10  1  0.19480300  0.50000000  0.00000000  1
  Cu  Cu11  1  0.50000000  0.00000000  0.19480300  1
  Cu  Cu12  1  0.30519700  0.30519700  0.30519700  1
  Cu  Cu13  1  0.00000000  0.19480300  0.50000000  1
  C  C14  1  0.21401900  0.41438500  0.55877300  1
  C  C15  1  0.14438800  0.08561500  0.29963400  1
  C  C16  1  0.35561200  0.65524600  0.94122700  1
  C  C17  1  0.28598100  0.84475400  0.20036600  1
  C  C18  1  0.05877300  0.91438500  0.71401900  1
  C  C19  1  0.79963400  0.58561500  0.64438800  1
  C  C20  1  0.44122700  0.15524600  0.85561200  1
  C  C21  1  0.70036600  0.34475400  0.78598100  1
  C  C22  1  0.41438500  0.55877300  0.21401900  1
  C  C23  1  0.08561500  0.29963400  0.14438800  1
  C  C24  1  0.65524600  0.94122700  0.35561200  1
  C  C25  1  0.84475400  0.20036600  0.28598100  1
  C  C26  1  0.91438500  0.71401900  0.05877300  1
  C  C27  1  0.58561500  0.64438800  0.79963400  1
  C  C28  1  0.15524600  0.85561200  0.44122700  1
  C  C29  1  0.34475400  0.78598100  0.70036600  1
  C  C30  1  0.55877300  0.21401900  0.41438500  1
  C  C31  1  0.29963400  0.14438800  0.08561500  1
  C  C32  1  0.94122700  0.35561200  0.65524600  1
  C  C33  1  0.20036600  0.28598100  0.84475400  1
  C  C34  1  0.71401900  0.05877300  0.91438500  1
  C  C35  1  0.64438800  0.79963400  0.58561500  1
  C  C36  1  0.85561200  0.44122700  0.15524600  1
  C  C37  1  0.78598100  0.70036600  0.34475400  1
