# generated using pymatgen
data_Cu2NiC11
_symmetry_space_group_name_H-M   'P 1'
_cell_length_a   17.05010747
_cell_length_b   17.05010747
_cell_length_c   5.18879376
_cell_angle_alpha   86.65978874
_cell_angle_beta   86.65978874
_cell_angle_gamma   9.72792792
_symmetry_Int_Tables_number   1
_chemical_formula_structural   Cu2NiC11
_chemical_formula_sum   'Cu4 Ni2 C22'
_cell_volume   254.44037634
_cell_formula_units_Z   2
loop_
 _symmetry_equiv_pos_site_id
 _symmetry_equiv_pos_as_xyz
  1  'x, y, z'
loop_
 _atom_site_type_symbol
 _atom_site_label
 _atom_site_symmetry_multiplicity
 _atom_site_fract_x
 _atom_site_fract_y
 _atom_site_fract_z
 _atom_site_occupancy
  C  C0  1  0.50229100  0.50229100  0.49653300  1
  C  C1  1  0.92988200  0.92988200  0.36600100  1
  C  C2  1  0.36026000  0.36026000  0.21956500  1
  C  C3  1  0.78439600  0.78439600  0.07118300  1
  C  C4  1  0.21028200  0.21028200  0.93052500  1
  C  C5  1  0.07470700  0.07470700  0.65164900  1
  C  C6  1  0.64109900  0.64109900  0.77281000  1
  C  C7  1  0.57010800  0.57010800  0.14933200  1
  Ni  Ni8  1  0.00171800  0.00171800  0.00723500  1
  Ni  Ni9  1  0.28627500  0.28627500  0.56733500  1
  Cu  Cu10  1  0.42803600  0.42803600  0.86424800  1
  Cu  Cu11  1  0.85848800  0.85848800  0.71997100  1
  Cu  Cu12  1  0.71181100  0.71181100  0.42470000  1
  Cu  Cu13  1  0.13783300  0.13783300  0.26229200  1
  C  C14  1  0.53079800  0.53079800  0.83825400  1
  C  C15  1  0.96304100  0.96304100  0.71043100  1
  C  C16  1  0.39198800  0.39198800  0.56191200  1
  C  C17  1  0.81709600  0.81709600  0.40272100  1
  C  C18  1  0.25088000  0.25088000  0.28103900  1
  C  C19  1  0.10940500  0.10940500  0.96691200  1
  C  C20  1  0.67831100  0.67831100  0.12579600  1
  C  C21  1  0.46717600  0.46717600  0.15509700  1
  C  C22  1  0.89411800  0.89411800  0.03935300  1
  C  C23  1  0.32110100  0.32110100  0.85288900  1
  C  C24  1  0.75516600  0.75516600  0.72913800  1
  C  C25  1  0.18307100  0.18307100  0.59161100  1
  C  C26  1  0.03136200  0.03136200  0.29010200  1
  C  C27  1  0.60930100  0.60930100  0.45136500  1
