# generated using pymatgen
data_CuNiC8
_symmetry_space_group_name_H-M   'P 1'
_cell_length_a   5.47014820
_cell_length_b   5.54912819
_cell_length_c   7.65036325
_cell_angle_alpha   90.00403739
_cell_angle_beta   89.96548981
_cell_angle_gamma   90.02977489
_symmetry_Int_Tables_number   1
_chemical_formula_structural   CuNiC8
_chemical_formula_sum   'Cu2 Ni2 C16'
_cell_volume   232.22328725
_cell_formula_units_Z   2
loop_
 _symmetry_equiv_pos_site_id
 _symmetry_equiv_pos_as_xyz
  1  'x, y, z'
loop_
 _atom_site_type_symbol
 _atom_site_label
 _atom_site_symmetry_multiplicity
 _atom_site_fract_x
 _atom_site_fract_y
 _atom_site_fract_z
 _atom_site_occupancy
  C  C0  1  0.48891100  0.45316200  0.75022200  1
  C  C1  1  0.98902300  0.04688900  0.25031700  1
  C  C2  1  0.00850100  0.96341700  0.74900500  1
  C  C3  1  0.50865100  0.53650500  0.24916000  1
  Ni  Ni4  1  0.00129700  0.49881400  0.99899300  1
  Ni  Ni5  1  0.50129100  0.00114000  0.49895500  1
  Cu  Cu6  1  0.00086700  0.50018000  0.50044600  1
  Cu  Cu7  1  0.50084300  0.99988600  0.00043700  1
  C  C8  1  0.07136300  0.47926900  0.23681200  1
  C  C9  1  0.57144900  0.02083200  0.73671500  1
  C  C10  1  0.20465700  0.22200200  0.95905300  1
  C  C11  1  0.70451700  0.27789400  0.45912600  1
  C  C12  1  0.22622700  0.20511600  0.53918300  1
  C  C13  1  0.72643800  0.29493500  0.03922500  1
  C  C14  1  0.27671000  0.69789300  0.95771700  1
  C  C15  1  0.77688600  0.80213800  0.45770500  1
  C  C16  1  0.30203500  0.72058100  0.54465100  1
  C  C17  1  0.80187100  0.77943900  0.04476900  1
  C  C18  1  0.41917200  0.98253500  0.26378900  1
  C  C19  1  0.91928500  0.51737200  0.76371700  1
