# generated using pymatgen
data_Cu2Ni3C19
_symmetry_space_group_name_H-M   'P 1'
_cell_length_a   5.72454801
_cell_length_b   5.72454801
_cell_length_c   11.75964000
_cell_angle_alpha   90.00000000
_cell_angle_beta   90.00000000
_cell_angle_gamma   120.00000007
_symmetry_Int_Tables_number   1
_chemical_formula_structural   Cu2Ni3C19
_chemical_formula_sum   'Cu2 Ni3 C19'
_cell_volume   333.73907785
_cell_formula_units_Z   1
loop_
 _symmetry_equiv_pos_site_id
 _symmetry_equiv_pos_as_xyz
  1  'x, y, z'
loop_
 _atom_site_type_symbol
 _atom_site_label
 _atom_site_symmetry_multiplicity
 _atom_site_fract_x
 _atom_site_fract_y
 _atom_site_fract_z
 _atom_site_occupancy
  Ni  Ni0  1  0.66666700  0.33333300  0.57610500  1
  Ni  Ni1  1  0.33333300  0.66666700  0.42389500  1
  Ni  Ni2  1  0.00000000  0.00000000  0.00000000  1
  Cu  Cu3  1  0.66666700  0.33333300  0.21280200  1
  Cu  Cu4  1  0.33333300  0.66666700  0.78719800  1
  C  C5  1  0.66666700  0.33333300  0.90340600  1
  C  C6  1  0.33333300  0.66666700  0.09659400  1
  C  C7  1  0.00000000  0.00000000  0.30529900  1
  C  C8  1  0.00000000  0.00000000  0.69470100  1
  C  C9  1  0.34344200  0.17172100  0.37870900  1
  C  C10  1  0.82827900  0.65655800  0.37870900  1
  C  C11  1  0.82827900  0.17172100  0.37870900  1
  C  C12  1  0.65655800  0.82827900  0.62129100  1
  C  C13  1  0.17172100  0.34344200  0.62129100  1
  C  C14  1  0.17172100  0.82827900  0.62129100  1
  C  C15  1  0.33846200  0.16923100  0.80862800  1
  C  C16  1  0.83076900  0.66153800  0.80862800  1
  C  C17  1  0.83076900  0.16923100  0.80862800  1
  C  C18  1  0.66153800  0.83076900  0.19137200  1
  C  C19  1  0.16923100  0.33846200  0.19137200  1
  C  C20  1  0.16923100  0.83076900  0.19137200  1
  C  C21  1  0.50000000  0.00000000  0.00000000  1
  C  C22  1  0.50000000  0.50000000  0.00000000  1
  C  C23  1  0.00000000  0.50000000  0.00000000  1
