# generated using pymatgen
data_CuNiC12
_symmetry_space_group_name_H-M   'P 1'
_cell_length_a   8.18654527
_cell_length_b   8.18654527
_cell_length_c   8.18654527
_cell_angle_alpha   120.82874100
_cell_angle_beta   120.82874100
_cell_angle_gamma   88.57047368
_symmetry_Int_Tables_number   1
_chemical_formula_structural   CuNiC12
_chemical_formula_sum   'Cu2 Ni2 C24'
_cell_volume   382.97096575
_cell_formula_units_Z   2
loop_
 _symmetry_equiv_pos_site_id
 _symmetry_equiv_pos_as_xyz
  1  'x, y, z'
loop_
 _atom_site_type_symbol
 _atom_site_label
 _atom_site_symmetry_multiplicity
 _atom_site_fract_x
 _atom_site_fract_y
 _atom_site_fract_z
 _atom_site_occupancy
  Ni  Ni0  1  0.25000000  0.75000000  0.50000000  1
  Ni  Ni1  1  0.75000000  0.25000000  0.50000000  1
  Cu  Cu2  1  0.75584100  0.75584100  0.00000000  1
  Cu  Cu3  1  0.24415900  0.24415900  0.00000000  1
  C  C4  1  0.23825300  0.76174700  0.00000000  1
  C  C5  1  0.23825300  0.23825300  0.47650700  1
  C  C6  1  0.76174700  0.23825300  0.00000000  1
  C  C7  1  0.76174700  0.76174700  0.52349300  1
  C  C8  1  0.16771800  0.50000000  0.66771800  1
  C  C9  1  0.48661600  0.48661600  0.65086900  1
  C  C10  1  0.48661600  0.83574700  0.00000000  1
  C  C11  1  0.50000000  0.16771800  0.66771800  1
  C  C12  1  0.16425300  0.16425300  0.65086900  1
  C  C13  1  0.51338400  0.16425300  0.00000000  1
  C  C14  1  0.50000000  0.83228200  0.33228200  1
  C  C15  1  0.51338400  0.51338400  0.34913100  1
  C  C16  1  0.16425300  0.51338400  0.00000000  1
  C  C17  1  0.83228200  0.50000000  0.33228200  1
  C  C18  1  0.83574700  0.83574700  0.34913100  1
  C  C19  1  0.83574700  0.48661600  0.00000000  1
  C  C20  1  0.12393600  0.89175400  0.23218200  1
  C  C21  1  0.10824600  0.34042900  0.23218200  1
  C  C22  1  0.10824600  0.87606400  0.76781800  1
  C  C23  1  0.65957100  0.89175400  0.76781800  1
  C  C24  1  0.87606400  0.10824600  0.76781800  1
  C  C25  1  0.89175400  0.65957100  0.76781800  1
  C  C26  1  0.89175400  0.12393600  0.23218200  1
  C  C27  1  0.34042900  0.10824600  0.23218200  1
