# generated using pymatgen
data_CuNi14C17
_symmetry_space_group_name_H-M   'P 1'
_cell_length_a   8.73363841
_cell_length_b   8.70314490
_cell_length_c   4.50184099
_cell_angle_alpha   90.00000000
_cell_angle_beta   90.00000000
_cell_angle_gamma   90.00000000
_symmetry_Int_Tables_number   1
_chemical_formula_structural   CuNi14C17
_chemical_formula_sum   'Cu1 Ni14 C17'
_cell_volume   342.18547651
_cell_formula_units_Z   1
loop_
 _symmetry_equiv_pos_site_id
 _symmetry_equiv_pos_as_xyz
  1  'x, y, z'
loop_
 _atom_site_type_symbol
 _atom_site_label
 _atom_site_symmetry_multiplicity
 _atom_site_fract_x
 _atom_site_fract_y
 _atom_site_fract_z
 _atom_site_occupancy
  C  C0  1  0.00000000  0.50000000  0.00000000  1
  Ni  Ni1  1  0.50000000  0.00000000  0.00000000  1
  Ni  Ni2  1  0.50000000  0.50000000  0.00000000  1
  Ni  Ni3  1  0.00000000  0.23566724  0.50000000  1
  Ni  Ni4  1  0.00000000  0.76433276  0.50000000  1
  Ni  Ni5  1  0.50000000  0.24718406  0.50000000  1
  Ni  Ni6  1  0.50000000  0.75281594  0.50000000  1
  Ni  Ni7  1  0.25057758  0.00000000  0.50000000  1
  Ni  Ni8  1  0.26410150  0.50000000  0.50000000  1
  Ni  Ni9  1  0.74942242  0.00000000  0.50000000  1
  Ni  Ni10  1  0.73589850  0.50000000  0.50000000  1
  Ni  Ni11  1  0.25875349  0.24122838  0.00000000  1
  Ni  Ni12  1  0.25875349  0.75877162  0.00000000  1
  Ni  Ni13  1  0.74124651  0.24122838  0.00000000  1
  Ni  Ni14  1  0.74124651  0.75877162  0.00000000  1
  Cu  Cu15  1  0.00000000  0.00000000  0.00000000  1
  C  C16  1  0.25896094  0.00000000  0.00000000  1
  C  C17  1  0.28076788  0.50000000  0.00000000  1
  C  C18  1  0.74103906  0.00000000  0.00000000  1
  C  C19  1  0.71923212  0.50000000  0.00000000  1
  C  C20  1  0.24987072  0.24940040  0.50000000  1
  C  C21  1  0.24987072  0.75059960  0.50000000  1
  C  C22  1  0.75012928  0.24940040  0.50000000  1
  C  C23  1  0.75012928  0.75059960  0.50000000  1
  C  C24  1  0.00000000  0.00000000  0.50000000  1
  C  C25  1  0.00000000  0.50000000  0.50000000  1
  C  C26  1  0.50000000  0.00000000  0.50000000  1
  C  C27  1  0.50000000  0.50000000  0.50000000  1
  C  C28  1  0.00000000  0.21956033  0.00000000  1
  C  C29  1  0.00000000  0.78043967  0.00000000  1
  C  C30  1  0.50000000  0.24330884  0.00000000  1
  C  C31  1  0.50000000  0.75669116  0.00000000  1
