# generated using pymatgen
data_CuNi2C9
_symmetry_space_group_name_H-M   'P 1'
_cell_length_a   7.08647700
_cell_length_b   9.55548300
_cell_length_c   11.16537800
_cell_angle_alpha   90.00000000
_cell_angle_beta   90.00000000
_cell_angle_gamma   90.00000000
_symmetry_Int_Tables_number   1
_chemical_formula_structural   CuNi2C9
_chemical_formula_sum   'Cu4 Ni8 C36'
_cell_volume   756.06033893
_cell_formula_units_Z   4
loop_
 _symmetry_equiv_pos_site_id
 _symmetry_equiv_pos_as_xyz
  1  'x, y, z'
loop_
 _atom_site_type_symbol
 _atom_site_label
 _atom_site_symmetry_multiplicity
 _atom_site_fract_x
 _atom_site_fract_y
 _atom_site_fract_z
 _atom_site_occupancy
  C  C0  1  0.75000000  0.40919600  0.46738800  1
  C  C1  1  0.75000000  0.90919600  0.03261200  1
  C  C2  1  0.25000000  0.59080400  0.53261200  1
  C  C3  1  0.25000000  0.09080400  0.96738800  1
  C  C4  1  0.25000000  0.64964700  0.96807900  1
  C  C5  1  0.25000000  0.14964700  0.53192100  1
  C  C6  1  0.75000000  0.35035300  0.03192100  1
  C  C7  1  0.75000000  0.85035300  0.46807900  1
  Ni  Ni8  1  0.46583400  0.36552500  0.76921300  1
  Ni  Ni9  1  0.03416600  0.86552500  0.73078700  1
  Ni  Ni10  1  0.96583400  0.63447500  0.23078700  1
  Ni  Ni11  1  0.53416600  0.13447500  0.26921300  1
  Ni  Ni12  1  0.53416600  0.63447500  0.23078700  1
  Ni  Ni13  1  0.96583400  0.13447500  0.26921300  1
  Ni  Ni14  1  0.03416600  0.36552500  0.76921300  1
  Ni  Ni15  1  0.46583400  0.86552500  0.73078700  1
  Cu  Cu16  1  0.75000000  0.61319200  0.75607600  1
  Cu  Cu17  1  0.75000000  0.11319200  0.74392400  1
  Cu  Cu18  1  0.25000000  0.38680800  0.24392400  1
  Cu  Cu19  1  0.25000000  0.88680800  0.25607600  1
  C  C20  1  0.55111700  0.23170200  0.82792700  1
  C  C21  1  0.94888300  0.73170200  0.67207300  1
  C  C22  1  0.05111700  0.76829800  0.17207300  1
  C  C23  1  0.44888300  0.26829800  0.32792700  1
  C  C24  1  0.44888300  0.76829800  0.17207300  1
  C  C25  1  0.05111700  0.26829800  0.32792700  1
  C  C26  1  0.94888300  0.23170200  0.82792700  1
  C  C27  1  0.55111700  0.73170200  0.67207300  1
  C  C28  1  0.53930600  0.49845700  0.83595400  1
  C  C29  1  0.96069400  0.99845700  0.66404600  1
  C  C30  1  0.03930600  0.50154300  0.16404600  1
  C  C31  1  0.46069400  0.00154300  0.33595400  1
  C  C32  1  0.46069400  0.50154300  0.16404600  1
  C  C33  1  0.03930600  0.00154300  0.33595400  1
  C  C34  1  0.96069400  0.49845700  0.83595400  1
  C  C35  1  0.53930600  0.99845700  0.66404600  1
  C  C36  1  0.46943700  0.37080100  0.63479700  1
  C  C37  1  0.03056300  0.87080100  0.86520300  1
  C  C38  1  0.96943700  0.62919900  0.36520300  1
  C  C39  1  0.53056300  0.12919900  0.13479700  1
  C  C40  1  0.53056300  0.62919900  0.36520300  1
  C  C41  1  0.96943700  0.12919900  0.13479700  1
  C  C42  1  0.03056300  0.37080100  0.63479700  1
  C  C43  1  0.46943700  0.87080100  0.86520300  1
  C  C44  1  0.25000000  0.35563000  0.82096300  1
  C  C45  1  0.25000000  0.85563000  0.67903700  1
  C  C46  1  0.75000000  0.64437000  0.17903700  1
  C  C47  1  0.75000000  0.14437000  0.32096300  1
