# generated using pymatgen
data_Cu3NiC20
_symmetry_space_group_name_H-M   'P 1'
_cell_length_a   7.10929500
_cell_length_b   9.02215400
_cell_length_c   16.67015500
_cell_angle_alpha   90.00000000
_cell_angle_beta   90.00000000
_cell_angle_gamma   90.00000000
_symmetry_Int_Tables_number   1
_chemical_formula_structural   Cu3NiC20
_chemical_formula_sum   'Cu12 Ni4 C80'
_cell_volume   1069.24298442
_cell_formula_units_Z   4
loop_
 _symmetry_equiv_pos_site_id
 _symmetry_equiv_pos_as_xyz
  1  'x, y, z'
loop_
 _atom_site_type_symbol
 _atom_site_label
 _atom_site_symmetry_multiplicity
 _atom_site_fract_x
 _atom_site_fract_y
 _atom_site_fract_z
 _atom_site_occupancy
  C  C0  1  0.50000000  0.00000000  0.00000000  1
  C  C1  1  0.00000000  0.00000000  0.00000000  1
  C  C2  1  0.50000000  0.50000000  0.50000000  1
  C  C3  1  0.00000000  0.50000000  0.50000000  1
  C  C4  1  0.30410000  0.70867200  0.94591900  1
  C  C5  1  0.12183900  0.49778700  0.13699400  1
  C  C6  1  0.37816100  0.49778700  0.13699400  1
  C  C7  1  0.25000000  0.20493100  0.04048700  1
  C  C8  1  0.06928400  0.22701700  0.48653200  1
  C  C9  1  0.87816100  0.50221300  0.86300600  1
  C  C10  1  0.45319800  0.30092200  0.29142100  1
  C  C11  1  0.62183900  0.99778700  0.36300600  1
  C  C12  1  0.09096500  0.14217400  0.23020000  1
  C  C13  1  0.54680200  0.69907800  0.70857900  1
  C  C14  1  0.53845200  0.20155000  0.68939100  1
  C  C15  1  0.62183900  0.50221300  0.86300600  1
  C  C16  1  0.96154800  0.20155000  0.68939100  1
  C  C17  1  0.90903500  0.64217400  0.26980000  1
  C  C18  1  0.12183900  0.00221300  0.63699400  1
  C  C19  1  0.93071600  0.77298300  0.51346800  1
  C  C20  1  0.80410000  0.20867200  0.55408100  1
  C  C21  1  0.03845200  0.70155000  0.81060900  1
  C  C22  1  0.06928400  0.27298300  0.98653200  1
  C  C23  1  0.75000000  0.44354900  0.77637800  1
  C  C24  1  0.45319800  0.19907800  0.79142100  1
  C  C25  1  0.95319800  0.69907800  0.70857900  1
  C  C26  1  0.69590000  0.29132800  0.05408100  1
  C  C27  1  0.25000000  0.55645100  0.22362200  1
  C  C28  1  0.75000000  0.70493100  0.45951300  1
  C  C29  1  0.25000000  0.94354900  0.72362200  1
  C  C30  1  0.54680200  0.80092200  0.20857900  1
  C  C31  1  0.87816100  0.99778700  0.36300600  1
  C  C32  1  0.30410000  0.79132800  0.44591900  1
  C  C33  1  0.04680200  0.19907800  0.79142100  1
  C  C34  1  0.75000000  0.79506900  0.95951300  1
  C  C35  1  0.59096500  0.64217400  0.26980000  1
  C  C36  1  0.19590000  0.70867200  0.94591900  1
  C  C37  1  0.75000000  0.05645100  0.27637800  1
  C  C38  1  0.03845200  0.79845000  0.31060900  1
  C  C39  1  0.43071600  0.22701700  0.48653200  1
  C  C40  1  0.40903500  0.14217400  0.23020000  1
  C  C41  1  0.95319800  0.80092200  0.20857900  1
  C  C42  1  0.56928400  0.72701700  0.01346800  1
  C  C43  1  0.09096500  0.35782600  0.73020000  1
  C  C44  1  0.90903500  0.85782600  0.76980000  1
  C  C45  1  0.25000000  0.29506900  0.54048700  1
  C  C46  1  0.46154800  0.79845000  0.31060900  1
  C  C47  1  0.93071600  0.72701700  0.01346800  1
  C  C48  1  0.40903500  0.35782600  0.73020000  1
  C  C49  1  0.80410000  0.29132800  0.05408100  1
  C  C50  1  0.46154800  0.70155000  0.81060900  1
  C  C51  1  0.04680200  0.30092200  0.29142100  1
  C  C52  1  0.96154800  0.29845000  0.18939100  1
  C  C53  1  0.43071600  0.27298300  0.98653200  1
  C  C54  1  0.37816100  0.00221300  0.63699400  1
  C  C55  1  0.69590000  0.20867200  0.55408100  1
  C  C56  1  0.53845200  0.29845000  0.18939100  1
  C  C57  1  0.59096500  0.85782600  0.76980000  1
  C  C58  1  0.19590000  0.79132800  0.44591900  1
  C  C59  1  0.56928400  0.77298300  0.51346800  1
  C  C60  1  0.07631200  0.26288200  0.22915900  1
  C  C61  1  0.57631200  0.76288200  0.27084100  1
  C  C62  1  0.25000000  0.02197300  0.67224000  1
  C  C63  1  0.42368800  0.23711800  0.72915900  1
  C  C64  1  0.92368800  0.73711800  0.77084100  1
  C  C65  1  0.57631200  0.73711800  0.77084100  1
  C  C66  1  0.75000000  0.97802700  0.32776000  1
  C  C67  1  0.75000000  0.52197300  0.82776000  1
  C  C68  1  0.42368800  0.26288200  0.22915900  1
  C  C69  1  0.25000000  0.47802700  0.17224000  1
  C  C70  1  0.92368800  0.76288200  0.27084100  1
  C  C71  1  0.07631200  0.23711800  0.72915900  1
  Ni  Ni72  1  0.25000000  0.32982400  0.20401500  1
  Ni  Ni73  1  0.25000000  0.17017600  0.70401500  1
  Ni  Ni74  1  0.75000000  0.67017600  0.79598500  1
  Ni  Ni75  1  0.75000000  0.82982400  0.29598500  1
  Cu  Cu76  1  0.75000000  0.56033300  0.10356000  1
  Cu  Cu77  1  0.75000000  0.50547600  0.60585700  1
  Cu  Cu78  1  0.25000000  0.59558800  0.59084200  1
  Cu  Cu79  1  0.25000000  0.90441200  0.09084200  1
  Cu  Cu80  1  0.75000000  0.40441200  0.40915800  1
  Cu  Cu81  1  0.25000000  0.49452400  0.39414300  1
  Cu  Cu82  1  0.25000000  0.00547600  0.89414300  1
  Cu  Cu83  1  0.75000000  0.09558800  0.90915800  1
  Cu  Cu84  1  0.25000000  0.06033300  0.39644000  1
  Cu  Cu85  1  0.75000000  0.93966700  0.60356000  1
  Cu  Cu86  1  0.75000000  0.99452400  0.10585700  1
  Cu  Cu87  1  0.25000000  0.43966700  0.89644000  1
  C  C88  1  0.41979100  0.20629700  0.03275700  1
  C  C89  1  0.41979100  0.29370300  0.53275700  1
  C  C90  1  0.58020900  0.70629700  0.46724300  1
  C  C91  1  0.08020900  0.29370300  0.53275700  1
  C  C92  1  0.91979100  0.79370300  0.96724300  1
  C  C93  1  0.08020900  0.20629700  0.03275700  1
  C  C94  1  0.58020900  0.79370300  0.96724300  1
  C  C95  1  0.91979100  0.70629700  0.46724300  1
