# generated using pymatgen
data_Cu2NiC6
_symmetry_space_group_name_H-M   'P 1'
_cell_length_a   4.92081500
_cell_length_b   9.84180300
_cell_length_c   9.89205900
_cell_angle_alpha   90.00001161
_cell_angle_beta   90.00000579
_cell_angle_gamma   89.99814287
_symmetry_Int_Tables_number   1
_chemical_formula_structural   Cu2NiC6
_chemical_formula_sum   'Cu8 Ni4 C24'
_cell_volume   479.06936880
_cell_formula_units_Z   4
loop_
 _symmetry_equiv_pos_site_id
 _symmetry_equiv_pos_as_xyz
  1  'x, y, z'
loop_
 _atom_site_type_symbol
 _atom_site_label
 _atom_site_symmetry_multiplicity
 _atom_site_fract_x
 _atom_site_fract_y
 _atom_site_fract_z
 _atom_site_occupancy
  Ni  Ni0  1  0.99999400  0.50000300  0.00000000  1
  Ni  Ni1  1  0.49999500  0.74999800  0.50000000  1
  Ni  Ni2  1  0.00000900  0.00000900  0.99999900  1
  Ni  Ni3  1  0.50001200  0.24998700  0.50000000  1
  Cu  Cu4  1  0.00000200  0.00000100  0.33281400  1
  Cu  Cu5  1  0.99999900  0.49999600  0.33282200  1
  Cu  Cu6  1  0.00000200  0.00000100  0.66718600  1
  Cu  Cu7  1  0.99999900  0.49999600  0.66717800  1
  Cu  Cu8  1  0.50000600  0.24998900  0.16716900  1
  Cu  Cu9  1  0.49999500  0.75001500  0.16716600  1
  Cu  Cu10  1  0.50000600  0.24998900  0.83283100  1
  Cu  Cu11  1  0.49999500  0.75001400  0.83283400  1
  C  C12  1  0.19970600  0.40015100  0.50000000  1
  C  C13  1  0.19972100  0.90013300  0.50000000  1
  C  C14  1  0.30031500  0.15016900  0.00000000  1
  C  C15  1  0.30026000  0.65012000  0.00000000  1
  C  C16  1  0.69973000  0.34987800  0.00000000  1
  C  C17  1  0.69967900  0.84982900  0.00000000  1
  C  C18  1  0.80028900  0.09985200  0.50000000  1
  C  C19  1  0.80026800  0.59986800  0.50000000  1
  C  C20  1  0.18968700  0.40516100  0.16205700  1
  C  C21  1  0.18971500  0.90513100  0.16208700  1
  C  C22  1  0.18968700  0.40516100  0.83794300  1
  C  C23  1  0.18971500  0.90513100  0.83791300  1
  C  C24  1  0.31030800  0.15515700  0.33794900  1
  C  C25  1  0.31032000  0.65515200  0.33795600  1
  C  C26  1  0.31030800  0.15515700  0.66205100  1
  C  C27  1  0.31032000  0.65515200  0.66204500  1
  C  C28  1  0.68969100  0.34485700  0.33794200  1
  C  C29  1  0.68968400  0.84483700  0.33795700  1
  C  C30  1  0.68969100  0.34485700  0.66205800  1
  C  C31  1  0.68968500  0.84483700  0.66204300  1
  C  C32  1  0.81028400  0.09486500  0.16208300  1
  C  C33  1  0.81031700  0.59484100  0.16205600  1
  C  C34  1  0.81028400  0.09486400  0.83791700  1
  C  C35  1  0.81031800  0.59484200  0.83794400  1
