# generated using pymatgen
data_CuNiC3
_symmetry_space_group_name_H-M   'P 1'
_cell_length_a   5.88526145
_cell_length_b   5.88526145
_cell_length_c   7.04803800
_cell_angle_alpha   90.00000000
_cell_angle_beta   90.00000000
_cell_angle_gamma   141.89112230
_symmetry_Int_Tables_number   1
_chemical_formula_structural   CuNiC3
_chemical_formula_sum   'Cu2 Ni2 C6'
_cell_volume   150.65931240
_cell_formula_units_Z   2
loop_
 _symmetry_equiv_pos_site_id
 _symmetry_equiv_pos_as_xyz
  1  'x, y, z'
loop_
 _atom_site_type_symbol
 _atom_site_label
 _atom_site_symmetry_multiplicity
 _atom_site_fract_x
 _atom_site_fract_y
 _atom_site_fract_z
 _atom_site_occupancy
  C  C0  1  0.54455600  0.45544400  0.25000000  1
  C  C1  1  0.45544400  0.54455600  0.75000000  1
  Ni  Ni2  1  0.26840400  0.73159600  0.25000000  1
  Ni  Ni3  1  0.73159600  0.26840400  0.75000000  1
  C  C4  1  0.83406500  0.16593500  0.05233200  1
  C  C5  1  0.16593500  0.83406500  0.94766800  1
  C  C6  1  0.16593500  0.83406500  0.55233200  1
  C  C7  1  0.83406500  0.16593500  0.44766800  1
  Cu  Cu8  1  0.00000000  0.00000000  0.00000000  1
  Cu  Cu9  1  0.00000000  0.00000000  0.50000000  1
