# generated using pymatgen
data_CuNiC
_symmetry_space_group_name_H-M   'P 1'
_cell_length_a   7.46713670
_cell_length_b   7.46713670
_cell_length_c   7.46713670
_cell_angle_alpha   60.00000000
_cell_angle_beta   60.00000000
_cell_angle_gamma   60.00000000
_symmetry_Int_Tables_number   1
_chemical_formula_structural   CuNiC
_chemical_formula_sum   'Cu4 Ni4 C4'
_cell_volume   294.40644216
_cell_formula_units_Z   4
loop_
 _symmetry_equiv_pos_site_id
 _symmetry_equiv_pos_as_xyz
  1  'x, y, z'
loop_
 _atom_site_type_symbol
 _atom_site_label
 _atom_site_symmetry_multiplicity
 _atom_site_fract_x
 _atom_site_fract_y
 _atom_site_fract_z
 _atom_site_occupancy
  C  C0  1  0.35171000  0.35171000  0.35171000  1
  C  C1  1  0.35171000  0.35171000  0.94487100  1
  C  C2  1  0.35171000  0.94487100  0.35171000  1
  C  C3  1  0.94487100  0.35171000  0.35171000  1
  Ni  Ni4  1  0.11540100  0.11540100  0.11540100  1
  Ni  Ni5  1  0.11540100  0.11540100  0.65379600  1
  Ni  Ni6  1  0.11540100  0.65379600  0.11540100  1
  Ni  Ni7  1  0.65379600  0.11540100  0.11540100  1
  Cu  Cu8  1  0.61914800  0.61914800  0.61914800  1
  Cu  Cu9  1  0.61914800  0.61914800  0.14255500  1
  Cu  Cu10  1  0.61914800  0.14255500  0.61914800  1
  Cu  Cu11  1  0.14255500  0.61914800  0.61914800  1
