# generated using pymatgen
data_Cu8NiC5
_symmetry_space_group_name_H-M   'P 1'
_cell_length_a   5.50400100
_cell_length_b   8.75776000
_cell_length_c   10.99775775
_cell_angle_alpha   67.72292107
_cell_angle_beta   90.00000000
_cell_angle_gamma   90.00000000
_symmetry_Int_Tables_number   1
_chemical_formula_structural   Cu8NiC5
_chemical_formula_sum   'Cu16 Ni2 C10'
_cell_volume   490.55430731
_cell_formula_units_Z   2
loop_
 _symmetry_equiv_pos_site_id
 _symmetry_equiv_pos_as_xyz
  1  'x, y, z'
loop_
 _atom_site_type_symbol
 _atom_site_label
 _atom_site_symmetry_multiplicity
 _atom_site_fract_x
 _atom_site_fract_y
 _atom_site_fract_z
 _atom_site_occupancy
  C  C0  1  0.48303900  0.34116800  0.06761500  1
  C  C1  1  0.98303900  0.65883200  0.93238500  1
  C  C2  1  0.93336300  0.18532200  0.79618100  1
  C  C3  1  0.43336300  0.81467800  0.20381900  1
  C  C4  1  0.97748200  0.69153200  0.51727400  1
  C  C5  1  0.47748200  0.30846800  0.48272600  1
  C  C6  1  0.48448400  0.88306400  0.79844400  1
  C  C7  1  0.98448400  0.11693600  0.20155600  1
  C  C8  1  0.48905800  0.48405900  0.72672100  1
  C  C9  1  0.98905800  0.51594100  0.27327900  1
  Ni  Ni10  1  0.00452500  0.13886100  0.54776400  1
  Ni  Ni11  1  0.50452500  0.86113900  0.45223600  1
  Cu  Cu12  1  0.69776900  0.82531800  0.92873600  1
  Cu  Cu13  1  0.19776900  0.17468200  0.07126400  1
  Cu  Cu14  1  0.21290900  0.87616200  0.88414800  1
  Cu  Cu15  1  0.71290900  0.12383800  0.11585200  1
  Cu  Cu16  1  0.53604500  0.08942500  0.73418800  1
  Cu  Cu17  1  0.03604500  0.91057500  0.26581200  1
  Cu  Cu18  1  0.71423300  0.43943800  0.63084300  1
  Cu  Cu19  1  0.21423300  0.56056200  0.36915700  1
  Cu  Cu20  1  0.23650500  0.42097200  0.66447900  1
  Cu  Cu21  1  0.73650500  0.57902800  0.33552100  1
  Cu  Cu22  1  0.55379000  0.31920300  0.87111800  1
  Cu  Cu23  1  0.05379000  0.68079700  0.12888200  1
  Cu  Cu24  1  0.28904000  0.53108600  0.96350600  1
  Cu  Cu25  1  0.78904000  0.46891400  0.03649400  1
  Cu  Cu26  1  0.42313700  0.32685200  0.23312500  1
  Cu  Cu27  1  0.92313700  0.67314800  0.76687500  1
