# generated using pymatgen
data_Cu3NiC
_symmetry_space_group_name_H-M   'P 1'
_cell_length_a   8.33582975
_cell_length_b   8.33582975
_cell_length_c   8.33582982
_cell_angle_alpha   109.10807619
_cell_angle_beta   109.10807619
_cell_angle_gamma   109.10808203
_symmetry_Int_Tables_number   1
_chemical_formula_structural   Cu3NiC
_chemical_formula_sum   'Cu18 Ni6 C6'
_cell_volume   451.78229683
_cell_formula_units_Z   6
loop_
 _symmetry_equiv_pos_site_id
 _symmetry_equiv_pos_as_xyz
  1  'x, y, z'
loop_
 _atom_site_type_symbol
 _atom_site_label
 _atom_site_symmetry_multiplicity
 _atom_site_fract_x
 _atom_site_fract_y
 _atom_site_fract_z
 _atom_site_occupancy
  C  C0  1  0.18435300  0.35884500  0.67332500  1
  C  C1  1  0.35884500  0.67332500  0.18435300  1
  C  C2  1  0.67332500  0.18435300  0.35884500  1
  C  C3  1  0.81564700  0.64115500  0.32667500  1
  C  C4  1  0.64115500  0.32667500  0.81564700  1
  C  C5  1  0.32667500  0.81564700  0.64115500  1
  Ni  Ni6  1  0.21149400  0.02138500  0.35638500  1
  Ni  Ni7  1  0.02138500  0.35638500  0.21149400  1
  Ni  Ni8  1  0.35638500  0.21149400  0.02138500  1
  Ni  Ni9  1  0.78850600  0.97861500  0.64361500  1
  Ni  Ni10  1  0.97861500  0.64361500  0.78850600  1
  Ni  Ni11  1  0.64361500  0.78850600  0.97861500  1
  Cu  Cu12  1  0.86967300  0.12524200  0.57659300  1
  Cu  Cu13  1  0.12524200  0.57659300  0.86967300  1
  Cu  Cu14  1  0.57659300  0.86967300  0.12524200  1
  Cu  Cu15  1  0.13032700  0.87475800  0.42340700  1
  Cu  Cu16  1  0.87475800  0.42340700  0.13032700  1
  Cu  Cu17  1  0.42340700  0.13032700  0.87475800  1
  Cu  Cu18  1  0.31091200  0.36303100  0.97702200  1
  Cu  Cu19  1  0.36303100  0.97702200  0.31091200  1
  Cu  Cu20  1  0.97702200  0.31091200  0.36303100  1
  Cu  Cu21  1  0.68908800  0.63696900  0.02297800  1
  Cu  Cu22  1  0.63696900  0.02297800  0.68908800  1
  Cu  Cu23  1  0.02297800  0.68908800  0.63696900  1
  Cu  Cu24  1  0.45389400  0.65915700  0.77706900  1
  Cu  Cu25  1  0.77706900  0.45389400  0.65915700  1
  Cu  Cu26  1  0.65915700  0.77706900  0.45389400  1
  Cu  Cu27  1  0.54610600  0.34084300  0.22293100  1
  Cu  Cu28  1  0.22293100  0.54610600  0.34084300  1
  Cu  Cu29  1  0.34084300  0.22293100  0.54610600  1
