# generated using pymatgen
data_Cu14Ni2C61
_symmetry_space_group_name_H-M   'P 1'
_cell_length_a   5.67287624
_cell_length_b   5.60694025
_cell_length_c   31.64192695
_cell_angle_alpha   89.89824030
_cell_angle_beta   89.91274444
_cell_angle_gamma   89.98044915
_symmetry_Int_Tables_number   1
_chemical_formula_structural   Cu14Ni2C61
_chemical_formula_sum   'Cu14 Ni2 C61'
_cell_volume   1006.44708664
_cell_formula_units_Z   1
loop_
 _symmetry_equiv_pos_site_id
 _symmetry_equiv_pos_as_xyz
  1  'x, y, z'
loop_
 _atom_site_type_symbol
 _atom_site_label
 _atom_site_symmetry_multiplicity
 _atom_site_fract_x
 _atom_site_fract_y
 _atom_site_fract_z
 _atom_site_occupancy
  Ni  Ni0  1  0.02650600  0.01614600  0.18938900  1
  Ni  Ni1  1  0.02581800  0.01716500  0.43845800  1
  Cu  Cu2  1  0.03502200  0.01123200  0.68621300  1
  Cu  Cu3  1  0.03496500  0.00963600  0.93796800  1
  Cu  Cu4  1  0.47088500  0.50982100  0.06198700  1
  Cu  Cu5  1  0.46012700  0.50975000  0.81232100  1
  Cu  Cu6  1  0.47427100  0.50780200  0.31163100  1
  Cu  Cu7  1  0.46948100  0.51396300  0.56234900  1
  Cu  Cu8  1  0.53170700  0.48890600  0.44017200  1
  Cu  Cu9  1  0.53409300  0.49198800  0.19070100  1
  Cu  Cu10  1  0.53577200  0.48787200  0.68623400  1
  Cu  Cu11  1  0.53625200  0.48930900  0.93800900  1
  Cu  Cu12  1  0.95733700  0.98332100  0.31076100  1
  Cu  Cu13  1  0.95822700  0.98001100  0.06161000  1
  Cu  Cu14  1  0.95962000  0.99114100  0.81225200  1
  Cu  Cu15  1  0.95691500  0.97818000  0.56176900  1
  C  C16  1  0.00435200  0.50549400  0.99442000  1
  C  C17  1  0.00366400  0.50765700  0.24562400  1
  C  C18  1  0.00418900  0.50746800  0.63071500  1
  C  C19  1  0.00283600  0.50644500  0.49540500  1
  C  C20  1  0.49856300  0.99768500  0.00162100  1
  C  C21  1  0.49856100  0.00280400  0.12446300  1
  C  C22  1  0.49675500  0.00086600  0.25149700  1
  C  C23  1  0.49756400  0.00002600  0.37399500  1
  C  C24  1  0.49856000  0.99907900  0.74970000  1
  C  C25  1  0.49926800  0.99858200  0.62338700  1
  C  C26  1  0.49919900  0.00228500  0.50140800  1
  C  C27  1  0.49865700  0.99966700  0.87512000  1
  C  C28  1  0.00098700  0.50679100  0.12981700  1
  C  C29  1  0.00136900  0.50776200  0.37955600  1
  C  C30  1  0.99753100  0.50232700  0.75020200  1
  C  C31  1  0.99790000  0.50206100  0.87479200  1
  C  C32  1  0.01919400  0.41607300  0.81285000  1
  C  C33  1  0.21576100  0.77250200  0.01478300  1
  C  C34  1  0.21737600  0.76419000  0.10969200  1
  C  C35  1  0.22108500  0.77274900  0.26351500  1
  C  C36  1  0.21591800  0.76481200  0.35880800  1
  C  C37  1  0.21971300  0.77149900  0.51526100  1
  C  C38  1  0.21043300  0.79336800  0.86390900  1
  C  C39  1  0.21587500  0.77525900  0.61075500  1
  C  C40  1  0.21126900  0.79005600  0.76210400  1
  C  C41  1  0.28475700  0.29141200  0.13132300  1
  C  C42  1  0.28679600  0.29270900  0.38133800  1
  C  C43  1  0.28781200  0.28939700  0.24423100  1
  C  C44  1  0.28732500  0.28487200  0.63298700  1
  C  C45  1  0.28893700  0.28986700  0.88746900  1
  C  C46  1  0.29095700  0.28963100  0.49283700  1
  C  C47  1  0.29079200  0.29019300  0.73812200  1
  C  C48  1  0.28835800  0.28487700  0.99355700  1
  C  C49  1  0.49186900  0.92202200  0.18670500  1
  C  C50  1  0.49027700  0.91632300  0.43633400  1
  C  C51  1  0.47894200  0.91321700  0.68640000  1
  C  C52  1  0.47642800  0.91345300  0.93930200  1
  C  C53  1  0.51641200  0.07670300  0.06315600  1
  C  C54  1  0.51272300  0.07588400  0.31312900  1
  C  C55  1  0.52325100  0.08782200  0.81269500  1
  C  C56  1  0.51953000  0.08537800  0.56290900  1
  C  C57  1  0.72368900  0.71657300  0.26331300  1
  C  C58  1  0.72416200  0.70891300  0.01457300  1
  C  C59  1  0.72974700  0.71207500  0.10962100  1
  C  C60  1  0.73094500  0.71278000  0.35871400  1
  C  C61  1  0.70727400  0.71161900  0.76231000  1
  C  C62  1  0.72194700  0.71362900  0.51430900  1
  C  C63  1  0.72408200  0.70890500  0.61015700  1
  C  C64  1  0.70658000  0.71014500  0.86386200  1
  C  C65  1  0.79005600  0.22316500  0.12889800  1
  C  C66  1  0.78120600  0.22433700  0.24623500  1
  C  C67  1  0.79176400  0.22339400  0.37784600  1
  C  C68  1  0.78502300  0.21857700  0.49507400  1
  C  C69  1  0.79416000  0.20920700  0.63276000  1
  C  C70  1  0.78975800  0.20867900  0.73815800  1
  C  C71  1  0.78678900  0.20831700  0.88763000  1
  C  C72  1  0.79437300  0.20770700  0.99351600  1
  C  C73  1  0.96279800  0.57739700  0.18639000  1
  C  C74  1  0.97196300  0.59252800  0.69017900  1
  C  C75  1  0.97424500  0.58984800  0.93504200  1
  C  C76  1  0.96479700  0.57919600  0.43619100  1
