# generated using pymatgen
data_CuNiC9
_symmetry_space_group_name_H-M   'P 1'
_cell_length_a   8.67302400
_cell_length_b   5.44265100
_cell_length_c   13.98106933
_cell_angle_alpha   67.53363041
_cell_angle_beta   90.00000000
_cell_angle_gamma   90.00000000
_symmetry_Int_Tables_number   1
_chemical_formula_structural   CuNiC9
_chemical_formula_sum   'Cu4 Ni4 C36'
_cell_volume   609.87702253
_cell_formula_units_Z   4
loop_
 _symmetry_equiv_pos_site_id
 _symmetry_equiv_pos_as_xyz
  1  'x, y, z'
loop_
 _atom_site_type_symbol
 _atom_site_label
 _atom_site_symmetry_multiplicity
 _atom_site_fract_x
 _atom_site_fract_y
 _atom_site_fract_z
 _atom_site_occupancy
  Ni  Ni0  1  0.80851700  0.47446300  0.77220600  1
  Ni  Ni1  1  0.30851700  0.52553700  0.72779400  1
  Ni  Ni2  1  0.19148300  0.52553700  0.22779400  1
  Ni  Ni3  1  0.69148300  0.47446300  0.27220600  1
  Cu  Cu4  1  0.60364100  0.17383100  0.59161300  1
  Cu  Cu5  1  0.10364100  0.82616900  0.90838700  1
  Cu  Cu6  1  0.39635900  0.82616900  0.40838700  1
  Cu  Cu7  1  0.89635900  0.17383100  0.09161300  1
  C  C8  1  0.24699200  0.25668200  0.02090400  1
  C  C9  1  0.74699200  0.74331800  0.47909600  1
  C  C10  1  0.75300800  0.74331800  0.97909600  1
  C  C11  1  0.25300800  0.25668200  0.52090400  1
  C  C12  1  0.50568800  0.03765900  0.17929400  1
  C  C13  1  0.00568800  0.96234100  0.32070600  1
  C  C14  1  0.49431200  0.96234100  0.82070600  1
  C  C15  1  0.99431200  0.03765900  0.67929400  1
  C  C16  1  0.42187700  0.20759600  0.06865000  1
  C  C17  1  0.92187700  0.79240400  0.43135000  1
  C  C18  1  0.57812300  0.79240400  0.93135000  1
  C  C19  1  0.07812300  0.20759600  0.56865000  1
  C  C20  1  0.15686700  0.97731100  0.03935000  1
  C  C21  1  0.65686700  0.02268900  0.46065000  1
  C  C22  1  0.84313300  0.02268900  0.96065000  1
  C  C23  1  0.34313300  0.97731100  0.53935000  1
  C  C24  1  0.13552400  0.41100100  0.07828900  1
  C  C25  1  0.63552400  0.58899900  0.42171100  1
  C  C26  1  0.86447600  0.58899900  0.92171100  1
  C  C27  1  0.36447600  0.41100100  0.57828900  1
  C  C28  1  0.25048800  0.47256300  0.90281300  1
  C  C29  1  0.75048800  0.52743700  0.59718700  1
  C  C30  1  0.74951200  0.52743700  0.09718700  1
  C  C31  1  0.24951200  0.47256300  0.40281300  1
  C  C32  1  0.48887500  0.19495800  0.25881500  1
  C  C33  1  0.98887500  0.80504200  0.24118500  1
  C  C34  1  0.51112500  0.80504200  0.74118500  1
  C  C35  1  0.01112500  0.19495800  0.75881500  1
  C  C36  1  0.42268400  0.74843900  0.23866900  1
  C  C37  1  0.92268400  0.25156100  0.26133100  1
  C  C38  1  0.57731600  0.25156100  0.76133100  1
  C  C39  1  0.07731600  0.74843900  0.73866900  1
  C  C40  1  0.68400400  0.96112000  0.16744100  1
  C  C41  1  0.18400400  0.03888000  0.33255900  1
  C  C42  1  0.31599600  0.03888000  0.83255900  1
  C  C43  1  0.81599600  0.96112000  0.66744100  1
