# generated using pymatgen
data_CuNiC6
_symmetry_space_group_name_H-M   'P 1'
_cell_length_a   7.23776004
_cell_length_b   7.23776004
_cell_length_c   7.23776004
_cell_angle_alpha   129.99295226
_cell_angle_beta   129.99295226
_cell_angle_gamma   73.41803194
_symmetry_Int_Tables_number   1
_chemical_formula_structural   CuNiC6
_chemical_formula_sum   'Cu1 Ni1 C6'
_cell_volume   217.21285115
_cell_formula_units_Z   1
loop_
 _symmetry_equiv_pos_site_id
 _symmetry_equiv_pos_as_xyz
  1  'x, y, z'
loop_
 _atom_site_type_symbol
 _atom_site_label
 _atom_site_symmetry_multiplicity
 _atom_site_fract_x
 _atom_site_fract_y
 _atom_site_fract_z
 _atom_site_occupancy
  Ni  Ni0  1  0.25000000  0.75000000  0.50000000  1
  Cu  Cu1  1  0.00000000  0.00000000  0.00000000  1
  C  C2  1  0.75000000  0.25000000  0.50000000  1
  C  C3  1  0.50000000  0.50000000  0.00000000  1
  C  C4  1  0.60177100  0.63750400  0.50414700  1
  C  C5  1  0.13335700  0.09762300  0.49585300  1
  C  C6  1  0.90237700  0.39822900  0.03573400  1
  C  C7  1  0.36249600  0.86664300  0.96426600  1
