# generated using pymatgen
data_Cu4NiC5
_symmetry_space_group_name_H-M   'P 1'
_cell_length_a   7.07725200
_cell_length_b   7.43108600
_cell_length_c   10.31197000
_cell_angle_alpha   90.00000000
_cell_angle_beta   90.00000000
_cell_angle_gamma   90.00000000
_symmetry_Int_Tables_number   1
_chemical_formula_structural   Cu4NiC5
_chemical_formula_sum   'Cu16 Ni4 C20'
_cell_volume   542.32370530
_cell_formula_units_Z   4
loop_
 _symmetry_equiv_pos_site_id
 _symmetry_equiv_pos_as_xyz
  1  'x, y, z'
loop_
 _atom_site_type_symbol
 _atom_site_label
 _atom_site_symmetry_multiplicity
 _atom_site_fract_x
 _atom_site_fract_y
 _atom_site_fract_z
 _atom_site_occupancy
  C  C0  1  0.60084000  0.33782600  0.14225400  1
  C  C1  1  0.10084000  0.66217400  0.85774600  1
  C  C2  1  0.60084000  0.16217400  0.64225400  1
  C  C3  1  0.10084000  0.83782600  0.35774600  1
  C  C4  1  0.56135600  0.80384100  0.44928800  1
  C  C5  1  0.06135600  0.19615900  0.55071200  1
  C  C6  1  0.56135600  0.69615900  0.94928800  1
  C  C7  1  0.06135600  0.30384100  0.05071200  1
  C  C8  1  0.60279500  0.35778600  0.21335700  1
  C  C9  1  0.10279500  0.64221400  0.78664300  1
  C  C10  1  0.60279500  0.14221400  0.71335700  1
  C  C11  1  0.10279500  0.85778600  0.28664300  1
  C  C12  1  0.90171200  0.32114100  0.18987600  1
  C  C13  1  0.40171200  0.67885900  0.81012400  1
  C  C14  1  0.90171200  0.17885900  0.68987600  1
  C  C15  1  0.40171200  0.82114100  0.31012400  1
  C  C16  1  0.99406400  0.35023600  0.21967900  1
  C  C17  1  0.49406400  0.64976400  0.78032100  1
  C  C18  1  0.99406400  0.14976400  0.71967900  1
  C  C19  1  0.49406400  0.85023600  0.28032100  1
  Ni  Ni20  1  0.79083100  0.82986000  0.04795400  1
  Ni  Ni21  1  0.29083100  0.17014000  0.95204600  1
  Ni  Ni22  1  0.79083100  0.67014000  0.54795400  1
  Ni  Ni23  1  0.29083100  0.32986000  0.45204600  1
  Cu  Cu24  1  0.59428100  0.70642700  0.04273500  1
  Cu  Cu25  1  0.09428100  0.29357300  0.95726500  1
  Cu  Cu26  1  0.59428100  0.79357300  0.54273500  1
  Cu  Cu27  1  0.09428100  0.20642700  0.45726500  1
  Cu  Cu28  1  0.79838300  0.58078100  0.42493300  1
  Cu  Cu29  1  0.29838300  0.41921900  0.57506700  1
  Cu  Cu30  1  0.79838300  0.91921900  0.92493300  1
  Cu  Cu31  1  0.29838300  0.08078100  0.07506700  1
  Cu  Cu32  1  0.93971100  0.70382600  0.06985000  1
  Cu  Cu33  1  0.43971100  0.29617400  0.93015000  1
  Cu  Cu34  1  0.93971100  0.79617400  0.56985000  1
  Cu  Cu35  1  0.43971100  0.20382600  0.43015000  1
  Cu  Cu36  1  0.75732700  0.94602200  0.15609000  1
  Cu  Cu37  1  0.25732700  0.05397800  0.84391000  1
  Cu  Cu38  1  0.75732700  0.55397800  0.65609000  1
  Cu  Cu39  1  0.25732700  0.44602200  0.34391000  1
