# generated using pymatgen
data_Cu4Ni5C22
_symmetry_space_group_name_H-M   'P 1'
_cell_length_a   2.91240200
_cell_length_b   9.10843600
_cell_length_c   24.78283203
_cell_angle_alpha   89.91537466
_cell_angle_beta   90.00000000
_cell_angle_gamma   90.00000000
_symmetry_Int_Tables_number   1
_chemical_formula_structural   Cu4Ni5C22
_chemical_formula_sum   'Cu8 Ni10 C44'
_cell_volume   657.42405603
_cell_formula_units_Z   2
loop_
 _symmetry_equiv_pos_site_id
 _symmetry_equiv_pos_as_xyz
  1  'x, y, z'
loop_
 _atom_site_type_symbol
 _atom_site_label
 _atom_site_symmetry_multiplicity
 _atom_site_fract_x
 _atom_site_fract_y
 _atom_site_fract_z
 _atom_site_occupancy
  C  C0  1  0.50000000  0.81730600  0.99035700  1
  C  C1  1  0.50000000  0.78924600  0.20674500  1
  C  C2  1  0.50000000  0.70656300  0.70288400  1
  C  C3  1  0.50000000  0.68430400  0.49059900  1
  C  C4  1  0.50000000  0.31693100  0.50871000  1
  C  C5  1  0.50000000  0.29515600  0.29905400  1
  C  C6  1  0.50000000  0.20652200  0.79659000  1
  C  C7  1  0.50000000  0.18493200  0.00863000  1
  Ni  Ni8  1  0.50000000  0.00011600  0.50009600  1
  Ni  Ni9  1  0.50000000  0.99998400  0.10393400  1
  Ni  Ni10  1  0.00000000  0.84613800  0.81010000  1
  Ni  Ni11  1  0.00000000  0.65396500  0.30893800  1
  Ni  Ni12  1  0.50000000  0.49891200  0.60357300  1
  Ni  Ni13  1  0.50000000  0.50184300  0.99869800  1
  Ni  Ni14  1  0.50000000  0.50182700  0.39637100  1
  Ni  Ni15  1  0.00000000  0.34649500  0.69077700  1
  Ni  Ni16  1  0.00000000  0.15613900  0.19006800  1
  Ni  Ni17  1  0.50000000  0.99940100  0.89689500  1
  Cu  Cu18  1  0.50000000  0.99302100  0.30638700  1
  Cu  Cu19  1  0.00000000  0.84444700  0.58775800  1
  Cu  Cu20  1  0.00000000  0.65302000  0.08718000  1
  Cu  Cu21  1  0.50000000  0.50726700  0.80731300  1
  Cu  Cu22  1  0.50000000  0.48645700  0.19182400  1
  Cu  Cu23  1  0.00000000  0.34428600  0.91192800  1
  Cu  Cu24  1  0.00000000  0.15569500  0.41249600  1
  Cu  Cu25  1  0.50000000  0.00810300  0.69364800  1
  C  C26  1  0.50000000  0.00983800  0.42209400  1
  C  C27  1  0.50000000  0.99024900  0.57805100  1
  C  C28  1  0.00000000  0.94331200  0.94247600  1
  C  C29  1  0.00000000  0.95920900  0.15797100  1
  C  C30  1  0.00000000  0.87477800  0.66830400  1
  C  C31  1  0.50000000  0.89367700  0.76185100  1
  C  C32  1  0.00000000  0.85725700  0.50226700  1
  C  C33  1  0.00000000  0.85617100  0.28323800  1
  C  C34  1  0.50000000  0.80752300  0.85911300  1
  C  C35  1  0.50000000  0.80324600  0.08093300  1
  C  C36  1  0.50000000  0.69440200  0.57960500  1
  C  C37  1  0.50000000  0.69335800  0.35821700  1
  C  C38  1  0.00000000  0.64489800  0.78529500  1
  C  C39  1  0.00000000  0.64506200  0.00147400  1
  C  C40  1  0.50000000  0.60784000  0.26096100  1
  C  C41  1  0.00000000  0.61429200  0.16671000  1
  C  C42  1  0.00000000  0.54172800  0.65746400  1
  C  C43  1  0.00000000  0.55719400  0.44202200  1
  C  C44  1  0.50000000  0.50874000  0.07623600  1
  C  C45  1  0.50000000  0.49111200  0.92062700  1
  C  C46  1  0.00000000  0.44276900  0.55817500  1
  C  C47  1  0.00000000  0.45848000  0.34246000  1
  C  C48  1  0.00000000  0.37232200  0.83166800  1
  C  C49  1  0.50000000  0.39485200  0.73874000  1
  C  C50  1  0.00000000  0.35891400  0.99695500  1
  C  C51  1  0.00000000  0.35781600  0.21499000  1
  C  C52  1  0.50000000  0.30672200  0.64189400  1
  C  C53  1  0.50000000  0.30579200  0.42045800  1
  C  C54  1  0.50000000  0.19461400  0.92110200  1
  C  C55  1  0.50000000  0.19376300  0.14111200  1
  C  C56  1  0.00000000  0.14536300  0.71626400  1
  C  C57  1  0.00000000  0.14320300  0.49788600  1
  C  C58  1  0.50000000  0.11066600  0.23865700  1
  C  C59  1  0.00000000  0.12591700  0.33191300  1
  C  C60  1  0.00000000  0.04182900  0.84311600  1
  C  C61  1  0.00000000  0.05502000  0.05815000  1
