# generated using pymatgen
data_CuNi
_symmetry_space_group_name_H-M   'P 1'
_cell_length_a   4.26372300
_cell_length_b   4.28059900
_cell_length_c   12.08466700
_cell_angle_alpha   90.00000000
_cell_angle_beta   90.00000000
_cell_angle_gamma   90.00000000
_symmetry_Int_Tables_number   1
_chemical_formula_structural   CuNi
_chemical_formula_sum   'Cu4 Ni4'
_cell_volume   220.56074276
_cell_formula_units_Z   4
loop_
 _symmetry_equiv_pos_site_id
 _symmetry_equiv_pos_as_xyz
  1  'x, y, z'
loop_
 _atom_site_type_symbol
 _atom_site_label
 _atom_site_symmetry_multiplicity
 _atom_site_fract_x
 _atom_site_fract_y
 _atom_site_fract_z
 _atom_site_occupancy
  Ni  Ni0  1  0.89559700  0.75000000  0.12953700  1
  Ni  Ni1  1  0.60440300  0.75000000  0.62953700  1
  Ni  Ni2  1  0.10440300  0.25000000  0.87046300  1
  Ni  Ni3  1  0.39559700  0.25000000  0.37046300  1
  Cu  Cu4  1  0.94489700  0.75000000  0.35604300  1
  Cu  Cu5  1  0.55510300  0.75000000  0.85604300  1
  Cu  Cu6  1  0.05510300  0.25000000  0.64395700  1
  Cu  Cu7  1  0.44489700  0.25000000  0.14395700  1
