# generated using pymatgen
data_Cu3(NiC9)2
_symmetry_space_group_name_H-M   'P 1'
_cell_length_a   9.02883100
_cell_length_b   9.72933172
_cell_length_c   15.82928454
_cell_angle_alpha   90.66450596
_cell_angle_beta   95.25279464
_cell_angle_gamma   117.43853602
_symmetry_Int_Tables_number   1
_chemical_formula_structural   Cu3(NiC9)2
_chemical_formula_sum   'Cu12 Ni8 C72'
_cell_volume   1226.62999230
_cell_formula_units_Z   4
loop_
 _symmetry_equiv_pos_site_id
 _symmetry_equiv_pos_as_xyz
  1  'x, y, z'
loop_
 _atom_site_type_symbol
 _atom_site_label
 _atom_site_symmetry_multiplicity
 _atom_site_fract_x
 _atom_site_fract_y
 _atom_site_fract_z
 _atom_site_occupancy
  C  C0  1  0.64135500  0.15326500  0.16729300  1
  C  C1  1  0.62929400  0.58882600  0.16581300  1
  C  C2  1  0.30890900  0.36971800  0.29959400  1
  C  C3  1  0.52548400  0.89933500  0.51885500  1
  C  C4  1  0.91396000  0.79782600  0.70396400  1
  C  C5  1  0.54619100  0.50653900  0.66850600  1
  C  C6  1  0.12279900  0.73888800  0.52872700  1
  C  C7  1  0.02242900  0.46998600  0.89240600  1
  Ni  Ni8  1  0.29906400  0.68876600  0.16355400  1
  Ni  Ni9  1  0.98023500  0.33072400  0.45192900  1
  Ni  Ni10  1  0.67248300  0.34622300  0.35916200  1
  Ni  Ni11  1  0.48827600  0.82463500  0.95284800  1
  Ni  Ni12  1  0.87155100  0.03332300  0.97075000  1
  Ni  Ni13  1  0.70232000  0.13187000  0.82970900  1
  Ni  Ni14  1  0.45213800  0.22533200  0.51872500  1
  Ni  Ni15  1  0.53469900  0.18667400  0.96515800  1
  Cu  Cu16  1  0.04653500  0.11824000  0.13833800  1
  Cu  Cu17  1  0.93572800  0.02467400  0.53841400  1
  Cu  Cu18  1  0.23234100  0.20751800  0.03354600  1
  Cu  Cu19  1  0.55308100  0.72964600  0.32434900  1
  Cu  Cu20  1  0.65806600  0.78709800  0.83546800  1
  Cu  Cu21  1  0.30250600  0.69093600  0.75080700  1
  Cu  Cu22  1  0.21120100  0.08890600  0.59780300  1
  Cu  Cu23  1  0.93568000  0.81080800  0.33825000  1
  Cu  Cu24  1  0.06944300  0.82461500  0.21663200  1
  Cu  Cu25  1  0.94054100  0.55413800  0.08747400  1
  Cu  Cu26  1  0.31926500  0.00088900  0.77309900  1
  Cu  Cu27  1  0.81404300  0.46671700  0.55552300  1
  C  C28  1  0.94525300  0.59789400  0.99859400  1
  C  C29  1  0.83253300  0.86662600  0.49559600  1
  C  C30  1  0.16583200  0.53370900  0.76067000  1
  C  C31  1  0.39567100  0.59854000  0.43297600  1
  C  C32  1  0.04183100  0.95861600  0.39047000  1
  C  C33  1  0.90501100  0.27134000  0.29081100  1
  C  C34  1  0.56474900  0.14633100  0.66561000  1
  C  C35  1  0.26121100  0.45786900  0.02587900  1
  C  C36  1  0.56056200  0.88919700  0.32097600  1
  C  C37  1  0.91934500  0.68527100  0.39704800  1
  C  C38  1  0.86153800  0.31562000  0.73302800  1
  C  C39  1  0.20567500  0.07410500  0.88464900  1
  C  C40  1  0.69956000  0.95261700  0.70246600  1
  C  C41  1  0.48602700  0.07101000  0.31102500  1
  C  C42  1  0.85314200  0.17562400  0.92478100  1
  C  C43  1  0.71079900  0.51241600  0.84868700  1
  C  C44  1  0.51249900  0.07054900  0.75158400  1
  C  C45  1  0.84725800  0.63460700  0.58700500  1
  C  C46  1  0.74946000  0.40556500  0.09867500  1
  C  C47  1  0.86459200  0.04005900  0.08106500  1
  C  C48  1  0.87314300  0.35990400  0.36155100  1
  C  C49  1  0.42913600  0.64032300  0.23221400  1
  C  C50  1  0.89395700  0.18428000  0.24801000  1
  C  C51  1  0.53468500  0.17782300  0.29541500  1
  C  C52  1  0.56445100  0.56066600  0.36303900  1
  C  C53  1  0.73101000  0.27506100  0.03974000  1
  C  C54  1  0.98198500  0.46242400  0.53097300  1
  C  C55  1  0.39154800  0.17182000  0.03602500  1
  C  C56  1  0.75175000  0.45470000  0.88915400  1
  C  C57  1  0.72395500  0.36164700  0.64035800  1
  C  C58  1  0.63237100  0.48806800  0.30305600  1
  C  C59  1  0.88394100  0.14213700  0.48787800  1
  C  C60  1  0.32014700  0.39687000  0.01778200  1
  C  C61  1  0.35396800  0.24623100  0.41718400  1
  C  C62  1  0.62690200  0.29106900  0.87136600  1
  C  C63  1  0.73747600  0.96168800  0.80182200  1
  C  C64  1  0.08598900  0.09248300  0.95557500  1
  C  C65  1  0.70006800  0.94743200  0.63850700  1
  C  C66  1  0.65457200  0.35647400  0.47795000  1
  C  C67  1  0.70034800  0.83268200  0.94324300  1
  C  C68  1  0.60790400  0.19680400  0.60902300  1
  C  C69  1  0.42079000  0.76385200  0.06862100  1
  C  C70  1  0.10549400  0.53531800  0.11860300  1
  C  C71  1  0.87989200  0.27903900  0.78778900  1
  C  C72  1  0.30685700  0.01807200  0.53641400  1
  C  C73  1  0.70499300  0.66505000  0.79418300  1
  C  C74  1  0.24687100  0.82125000  0.21249400  1
  C  C75  1  0.35016600  0.27439100  0.59883900  1
  C  C76  1  0.31118900  0.09159800  0.86015800  1
  C  C77  1  0.18578200  0.21793800  0.42112200  1
  C  C78  1  0.75697300  0.80446200  0.29951600  1
  C  C79  1  0.44301500  0.70507900  0.41409900  1
  C  C80  1  0.92285000  0.68671000  0.14646100  1
  C  C81  1  0.55211100  0.01955400  0.93034300  1
  C  C82  1  0.42843500  0.66876100  0.68213000  1
  C  C83  1  0.19142500  0.37626200  0.43231700  1
  C  C84  1  0.08908000  0.99225200  0.18701600  1
  C  C85  1  0.31278100  0.73683000  0.64507600  1
  C  C86  1  0.44865400  0.72647300  0.84066300  1
  C  C87  1  0.29655000  0.68862700  0.98720700  1
  C  C88  1  0.05685600  0.25274500  0.21002000  1
  C  C89  1  0.23168200  0.81215700  0.78627800  1
  C  C90  1  0.19726100  0.01679700  0.69345900  1
  C  C91  1  0.88402400  0.00771500  0.63903800  1
