# generated using pymatgen
data_CuNi2C5
_symmetry_space_group_name_H-M   'P 1'
_cell_length_a   4.35071400
_cell_length_b   4.36979400
_cell_length_c   26.73552500
_cell_angle_alpha   90.00000000
_cell_angle_beta   90.00000000
_cell_angle_gamma   90.00000000
_symmetry_Int_Tables_number   1
_chemical_formula_structural   CuNi2C5
_chemical_formula_sum   'Cu2 Ni4 C10'
_cell_volume   508.28842050
_cell_formula_units_Z   2
loop_
 _symmetry_equiv_pos_site_id
 _symmetry_equiv_pos_as_xyz
  1  'x, y, z'
loop_
 _atom_site_type_symbol
 _atom_site_label
 _atom_site_symmetry_multiplicity
 _atom_site_fract_x
 _atom_site_fract_y
 _atom_site_fract_z
 _atom_site_occupancy
  Ni  Ni0  1  0.50000000  0.50000000  0.09036900  1
  Ni  Ni1  1  0.50000000  0.50000000  0.42083200  1
  Ni  Ni2  1  0.50000000  0.50000000  0.75369800  1
  Ni  Ni3  1  0.00000000  0.00000000  0.24663700  1
  Cu  Cu4  1  0.00000000  0.00000000  0.57848700  1
  Cu  Cu5  1  0.00000000  0.00000000  0.91024200  1
  C  C6  1  0.50000000  0.50000000  0.21244900  1
  C  C7  1  0.50000000  0.50000000  0.54589100  1
  C  C8  1  0.50000000  0.50000000  0.87708000  1
  C  C9  1  0.00000000  0.00000000  0.12395600  1
  C  C10  1  0.00000000  0.00000000  0.45560500  1
  C  C11  1  0.00000000  0.00000000  0.78857500  1
  C  C12  1  0.00000000  0.50000000  0.99809400  1
  C  C13  1  0.00000000  0.50000000  0.33377200  1
  C  C14  1  0.00000000  0.50000000  0.66614000  1
  C  C15  1  0.50000000  0.00000000  0.99817300  1
