# generated using pymatgen
data_CuNi14C17
_symmetry_space_group_name_H-M   'P 1'
_cell_length_a   8.57209372
_cell_length_b   8.61892722
_cell_length_c   4.23942272
_cell_angle_alpha   90.00000000
_cell_angle_beta   90.00000000
_cell_angle_gamma   90.00000000
_symmetry_Int_Tables_number   1
_chemical_formula_structural   CuNi14C17
_chemical_formula_sum   'Cu1 Ni14 C17'
_cell_volume   313.21809729
_cell_formula_units_Z   1
loop_
 _symmetry_equiv_pos_site_id
 _symmetry_equiv_pos_as_xyz
  1  'x, y, z'
loop_
 _atom_site_type_symbol
 _atom_site_label
 _atom_site_symmetry_multiplicity
 _atom_site_fract_x
 _atom_site_fract_y
 _atom_site_fract_z
 _atom_site_occupancy
  Ni  Ni0  1  0.50000000  0.00000000  0.00000000  1
  Ni  Ni1  1  0.50000000  0.50000000  0.00000000  1
  Ni  Ni2  1  -0.00000000  0.24109214  0.50000000  1
  Ni  Ni3  1  0.00000000  0.75890786  0.50000000  1
  Ni  Ni4  1  0.50000000  0.24770183  0.50000000  1
  Ni  Ni5  1  0.50000000  0.75229817  0.50000000  1
  Ni  Ni6  1  0.24715745  -0.00000000  0.50000000  1
  Ni  Ni7  1  0.25258220  0.50000000  0.50000000  1
  Ni  Ni8  1  0.75284255  0.00000000  0.50000000  1
  Ni  Ni9  1  0.74741780  0.50000000  0.50000000  1
  Ni  Ni10  1  0.25052623  0.24313235  0.00000000  1
  Ni  Ni11  1  0.25052623  0.75686765  0.00000000  1
  Ni  Ni12  1  0.74947377  0.24313235  -0.00000000  1
  Ni  Ni13  1  0.74947377  0.75686765  -0.00000000  1
  Cu  Cu14  1  0.00000000  0.50000000  0.00000000  1
  C  C15  1  0.00000000  0.00000000  0.00000000  1
  C  C16  1  0.26441138  0.00000000  0.00000000  1
  C  C17  1  0.24821255  0.50000000  -0.00000000  1
  C  C18  1  0.73558862  0.00000000  0.00000000  1
  C  C19  1  0.75178745  0.50000000  0.00000000  1
  C  C20  1  0.24816902  0.25096057  0.50000000  1
  C  C21  1  0.24816902  0.74903943  0.50000000  1
  C  C22  1  0.75183098  0.25096057  0.50000000  1
  C  C23  1  0.75183098  0.74903943  0.50000000  1
  C  C24  1  0.00000000  0.00000000  0.50000000  1
  C  C25  1  0.00000000  0.50000000  0.50000000  1
  C  C26  1  0.50000000  0.00000000  0.50000000  1
  C  C27  1  0.50000000  0.50000000  0.50000000  1
  C  C28  1  0.00000000  0.26967645  0.00000000  1
  C  C29  1  0.00000000  0.73032355  0.00000000  1
  C  C30  1  0.50000000  0.25437228  0.00000000  1
  C  C31  1  0.50000000  0.74562772  0.00000000  1
