# generated using pymatgen
data_Cu3NiC16
_symmetry_space_group_name_H-M   'P 1'
_cell_length_a   5.61784052
_cell_length_b   7.89747361
_cell_length_c   11.80098523
_cell_angle_alpha   70.45053936
_cell_angle_beta   90.00012818
_cell_angle_gamma   89.99981654
_symmetry_Int_Tables_number   1
_chemical_formula_structural   Cu3NiC16
_chemical_formula_sum   'Cu6 Ni2 C32'
_cell_volume   493.38900244
_cell_formula_units_Z   2
loop_
 _symmetry_equiv_pos_site_id
 _symmetry_equiv_pos_as_xyz
  1  'x, y, z'
loop_
 _atom_site_type_symbol
 _atom_site_label
 _atom_site_symmetry_multiplicity
 _atom_site_fract_x
 _atom_site_fract_y
 _atom_site_fract_z
 _atom_site_occupancy
  Ni  Ni0  1  0.50001000  0.25001200  0.99999200  1
  Ni  Ni1  1  0.50000200  0.74999500  0.99999400  1
  Cu  Cu2  1  0.50002700  0.00000600  0.50001100  1
  Cu  Cu3  1  0.50001400  0.50002400  0.49998700  1
  Cu  Cu4  1  0.99997600  0.12177900  0.25647000  1
  Cu  Cu5  1  0.99999800  0.62176200  0.25646900  1
  Cu  Cu6  1  0.99998600  0.87823600  0.74351700  1
  Cu  Cu7  1  0.00002100  0.37827000  0.74354100  1
  C  C8  1  0.00000000  0.50000500  0.00000000  1
  C  C9  1  0.00000000  0.00000100  0.99999800  1
  C  C10  1  0.00000400  0.25000000  0.50000100  1
  C  C11  1  0.50000300  0.87412700  0.25174000  1
  C  C12  1  0.49999900  0.62586900  0.74826400  1
  C  C13  1  0.00000400  0.75000000  0.49999900  1
  C  C14  1  0.50000000  0.37412000  0.25173900  1
  C  C15  1  0.49999200  0.12588100  0.74825600  1
  C  C16  1  0.99998600  0.99999500  0.50000400  1
  C  C17  1  0.00000800  0.49999900  0.50000300  1
  C  C18  1  0.99999000  0.25000100  0.99999600  1
  C  C19  1  0.99998900  0.74999500  0.99999500  1
  C  C20  1  0.50001100  0.88071100  0.73857300  1
  C  C21  1  0.49999500  0.38072400  0.73856900  1
  C  C22  1  0.50001100  0.11928000  0.26143300  1
  C  C23  1  0.50000900  0.61927800  0.26143500  1
  C  C24  1  0.24883500  0.81217700  0.37566100  1
  C  C25  1  0.24884300  0.31216600  0.37566500  1
  C  C26  1  0.75115200  0.18781900  0.62433600  1
  C  C27  1  0.75116300  0.68782200  0.62434300  1
  C  C28  1  0.24884000  0.68785200  0.62434000  1
  C  C29  1  0.24882400  0.18781600  0.62434800  1
  C  C30  1  0.75116800  0.31216100  0.37566300  1
  C  C31  1  0.75115400  0.81214700  0.37566700  1
  C  C32  1  0.23569600  0.06496900  0.87003300  1
  C  C33  1  0.23567900  0.56497800  0.87002700  1
  C  C34  1  0.76431000  0.93502200  0.12996900  1
  C  C35  1  0.76431800  0.43501100  0.12996800  1
  C  C36  1  0.76430200  0.56498300  0.87003200  1
  C  C37  1  0.76430000  0.06499100  0.87003300  1
  C  C38  1  0.23568700  0.43501500  0.12996500  1
  C  C39  1  0.23569300  0.93500100  0.12996500  1
