# generated using pymatgen
data_Cu3Ni2C25
_symmetry_space_group_name_H-M   'P 1'
_cell_length_a   6.04412292
_cell_length_b   6.04412292
_cell_length_c   14.81995433
_cell_angle_alpha   89.56544324
_cell_angle_beta   89.56544324
_cell_angle_gamma   59.99935507
_symmetry_Int_Tables_number   1
_chemical_formula_structural   Cu3Ni2C25
_chemical_formula_sum   'Cu3 Ni2 C25'
_cell_volume   468.83993331
_cell_formula_units_Z   1
loop_
 _symmetry_equiv_pos_site_id
 _symmetry_equiv_pos_as_xyz
  1  'x, y, z'
loop_
 _atom_site_type_symbol
 _atom_site_label
 _atom_site_symmetry_multiplicity
 _atom_site_fract_x
 _atom_site_fract_y
 _atom_site_fract_z
 _atom_site_occupancy
  C  C0  1  0.00019100  0.00019100  0.75166700  1
  C  C1  1  0.99841500  0.99841500  0.24881900  1
  C  C2  1  0.33139600  0.33139600  0.58072100  1
  C  C3  1  0.66534800  0.66534800  0.91678400  1
  Ni  Ni4  1  0.33669000  0.33669000  0.08699700  1
  Ni  Ni5  1  0.67023200  0.67023200  0.42162500  1
  Cu  Cu6  1  0.66662700  0.66662700  0.16746800  1
  Cu  Cu7  1  0.99958400  0.99958400  0.49808800  1
  Cu  Cu8  1  0.33353800  0.33353800  0.83487400  1
  C  C9  1  0.99976100  0.99976100  0.00171600  1
  C  C10  1  0.33388700  0.33388700  0.33259300  1
  C  C11  1  0.66676300  0.66676300  0.66562300  1
  C  C12  1  0.52550700  0.52550700  0.27919200  1
  C  C13  1  0.85206300  0.85206300  0.60430700  1
  C  C14  1  0.18976200  0.18976200  0.94487900  1
  C  C15  1  0.81502900  0.81502900  0.06288400  1
  C  C16  1  0.14918100  0.14918100  0.39510800  1
  C  C17  1  0.48286700  0.48286700  0.72927500  1
  C  C18  1  0.79945600  0.30890600  0.09332300  1
  C  C19  1  0.13289400  0.64103700  0.42496400  1
  C  C20  1  0.47799500  0.97680300  0.75885400  1
  C  C21  1  0.03537500  0.51622800  0.23531200  1
  C  C22  1  0.36514500  0.84893700  0.56908000  1
  C  C23  1  0.69385700  0.18652600  0.90715800  1
  C  C24  1  0.51622800  0.03537500  0.23531200  1
  C  C25  1  0.84893700  0.36514500  0.56908000  1
  C  C26  1  0.18652600  0.69385700  0.90715800  1
  C  C27  1  0.30890600  0.79945600  0.09332300  1
  C  C28  1  0.64103700  0.13289400  0.42496400  1
  C  C29  1  0.97680300  0.47799500  0.75885400  1
