# generated using pymatgen
data_Cu(NiC7)2
_symmetry_space_group_name_H-M   'P 1'
_cell_length_a   11.61310347
_cell_length_b   10.55471025
_cell_length_c   6.46943958
_cell_angle_alpha   82.26045127
_cell_angle_beta   64.23478718
_cell_angle_gamma   33.50476155
_symmetry_Int_Tables_number   1
_chemical_formula_structural   Cu(NiC7)2
_chemical_formula_sum   'Cu2 Ni4 C28'
_cell_volume   350.39295667
_cell_formula_units_Z   2
loop_
 _symmetry_equiv_pos_site_id
 _symmetry_equiv_pos_as_xyz
  1  'x, y, z'
loop_
 _atom_site_type_symbol
 _atom_site_label
 _atom_site_symmetry_multiplicity
 _atom_site_fract_x
 _atom_site_fract_y
 _atom_site_fract_z
 _atom_site_occupancy
  Ni  Ni0  1  0.56565700  0.71006100  0.80423200  1
  Ni  Ni1  1  0.92005000  0.80423200  0.71006100  1
  Ni  Ni2  1  0.44576800  0.32995000  0.68434300  1
  Ni  Ni3  1  0.53993900  0.68434300  0.32995000  1
  Cu  Cu4  1  0.25176200  0.24823800  0.24823800  1
  Cu  Cu5  1  0.00176200  0.99823800  0.99823800  1
  C  C6  1  0.30579800  0.64970300  0.41424600  1
  C  C7  1  0.63025300  0.41424600  0.64970300  1
  C  C8  1  0.83575400  0.61974700  0.94420200  1
  C  C9  1  0.60029700  0.94420200  0.61974700  1
  C  C10  1  0.08275700  0.94351900  0.47206300  1
  C  C11  1  0.50166100  0.47206300  0.94351900  1
  C  C12  1  0.77793700  0.74833900  0.16724300  1
  C  C13  1  0.30648100  0.16724300  0.74833900  1
  C  C14  1  0.46040600  0.31164300  0.20641800  1
  C  C15  1  0.02153400  0.20641800  0.31164300  1
  C  C16  1  0.04358200  0.22846600  0.78959400  1
  C  C17  1  0.93835700  0.78959400  0.22846600  1
  C  C18  1  0.50041800  0.23198400  0.00918700  1
  C  C19  1  0.25841200  0.00918700  0.23198400  1
  C  C20  1  0.24081300  0.99158800  0.74958200  1
  C  C21  1  0.01801600  0.74958200  0.99158800  1
  C  C22  1  0.33046400  0.35690900  0.42918200  1
  C  C23  1  0.88344500  0.42918200  0.35690900  1
  C  C24  1  0.82081800  0.36655500  0.91953600  1
  C  C25  1  0.89309100  0.91953600  0.36655500  1
  C  C26  1  0.54694300  0.35014400  0.18173700  1
  C  C27  1  0.92117500  0.18173700  0.35014400  1
  C  C28  1  0.06826300  0.32882500  0.70305700  1
  C  C29  1  0.89985600  0.70305700  0.32882500  1
  C  C30  1  0.42548000  0.08575700  0.78937800  1
  C  C31  1  0.69938500  0.78937800  0.08575700  1
  C  C32  1  0.46062200  0.55061500  0.82452000  1
  C  C33  1  0.16424300  0.82452000  0.55061500  1
