# generated using pymatgen
data_Cu6Ni8C7
_symmetry_space_group_name_H-M   'P 1'
_cell_length_a   10.97553313
_cell_length_b   10.97553313
_cell_length_c   7.91007078
_cell_angle_alpha   77.90644770
_cell_angle_beta   77.90644770
_cell_angle_gamma   40.51731387
_symmetry_Int_Tables_number   1
_chemical_formula_structural   Cu6Ni8C7
_chemical_formula_sum   'Cu12 Ni16 C14'
_cell_volume   603.42095097
_cell_formula_units_Z   2
loop_
 _symmetry_equiv_pos_site_id
 _symmetry_equiv_pos_as_xyz
  1  'x, y, z'
loop_
 _atom_site_type_symbol
 _atom_site_label
 _atom_site_symmetry_multiplicity
 _atom_site_fract_x
 _atom_site_fract_y
 _atom_site_fract_z
 _atom_site_occupancy
  C  C0  1  0.64805500  0.35194500  0.75000000  1
  C  C1  1  0.35194500  0.64805500  0.25000000  1
  C  C2  1  0.50000000  0.00000000  0.50000000  1
  C  C3  1  0.00000000  0.50000000  0.00000000  1
  C  C4  1  0.13792800  0.18680400  0.69684500  1
  C  C5  1  0.81319600  0.86207200  0.80315500  1
  C  C6  1  0.86207200  0.81319600  0.30315500  1
  C  C7  1  0.18680400  0.13792800  0.19684500  1
  C  C8  1  0.82053600  0.52695800  0.42067100  1
  C  C9  1  0.47304200  0.17946400  0.07932900  1
  C  C10  1  0.17946400  0.47304200  0.57932900  1
  C  C11  1  0.52695800  0.82053600  0.92067100  1
  C  C12  1  0.11797300  0.88202700  0.75000000  1
  C  C13  1  0.88202700  0.11797300  0.25000000  1
  Ni  Ni14  1  0.96334600  0.92277400  0.70832900  1
  Ni  Ni15  1  0.07722600  0.03665400  0.79167100  1
  Ni  Ni16  1  0.03665400  0.07722600  0.29167100  1
  Ni  Ni17  1  0.92277400  0.96334600  0.20832900  1
  Ni  Ni18  1  0.24718800  0.29116200  0.57109000  1
  Ni  Ni19  1  0.70883800  0.75281200  0.92891000  1
  Ni  Ni20  1  0.75281200  0.70883800  0.42891000  1
  Ni  Ni21  1  0.29116200  0.24718800  0.07109000  1
  Ni  Ni22  1  0.42398200  0.95366100  0.75982700  1
  Ni  Ni23  1  0.04633900  0.57601800  0.74017300  1
  Ni  Ni24  1  0.57601800  0.04633900  0.24017300  1
  Ni  Ni25  1  0.95366100  0.42398200  0.25982700  1
  Ni  Ni26  1  0.88654300  0.39942000  0.58670400  1
  Ni  Ni27  1  0.60058000  0.11345700  0.91329600  1
  Ni  Ni28  1  0.11345700  0.60058000  0.41329600  1
  Ni  Ni29  1  0.39942000  0.88654300  0.08670400  1
  Cu  Cu30  1  0.23239800  0.71587600  0.89870200  1
  Cu  Cu31  1  0.28412400  0.76760200  0.60129800  1
  Cu  Cu32  1  0.76760200  0.28412400  0.10129800  1
  Cu  Cu33  1  0.71587600  0.23239800  0.39870200  1
  Cu  Cu34  1  0.29127400  0.04617700  0.44269100  1
  Cu  Cu35  1  0.95382300  0.70872600  0.05730900  1
  Cu  Cu36  1  0.70872600  0.95382300  0.55730900  1
  Cu  Cu37  1  0.04617700  0.29127400  0.94269100  1
  Cu  Cu38  1  0.63418400  0.59404800  0.39392300  1
  Cu  Cu39  1  0.40595200  0.36581600  0.10607700  1
  Cu  Cu40  1  0.36581600  0.40595200  0.60607700  1
  Cu  Cu41  1  0.59404800  0.63418400  0.89392300  1
