# generated using pymatgen
data_Cu(NiC8)3
_symmetry_space_group_name_H-M   'P 1'
_cell_length_a   12.95506826
_cell_length_b   12.95506826
_cell_length_c   12.95506785
_cell_angle_alpha   33.55076848
_cell_angle_beta   33.55076848
_cell_angle_gamma   33.55076821
_symmetry_Int_Tables_number   1
_chemical_formula_structural   Cu(NiC8)3
_chemical_formula_sum   'Cu1 Ni3 C24'
_cell_volume   591.55895229
_cell_formula_units_Z   1
loop_
 _symmetry_equiv_pos_site_id
 _symmetry_equiv_pos_as_xyz
  1  'x, y, z'
loop_
 _atom_site_type_symbol
 _atom_site_label
 _atom_site_symmetry_multiplicity
 _atom_site_fract_x
 _atom_site_fract_y
 _atom_site_fract_z
 _atom_site_occupancy
  Ni  Ni0  1  0.18753300  0.18753300  0.18753300  1
  Ni  Ni1  1  0.81250400  0.81250400  0.81250400  1
  Ni  Ni2  1  0.31250500  0.31250500  0.31250500  1
  C  C3  1  0.99987200  0.99987200  0.99987200  1
  C  C4  1  0.50006100  0.50006100  0.50006100  1
  C  C5  1  0.75009400  0.25017100  0.25017100  1
  C  C6  1  0.24959400  0.75003500  0.75003500  1
  C  C7  1  0.25017100  0.75009400  0.25017100  1
  C  C8  1  0.75003500  0.24959400  0.75003500  1
  C  C9  1  0.25017100  0.25017100  0.75009400  1
  C  C10  1  0.75003500  0.75003500  0.24959400  1
  Cu  Cu11  1  0.68739000  0.68739000  0.68739000  1
  C  C12  1  0.11971000  0.11971000  0.11971000  1
  C  C13  1  0.62068400  0.62068400  0.62068400  1
  C  C14  1  0.35303600  0.88817500  0.88817500  1
  C  C15  1  0.84887600  0.39070000  0.39070000  1
  C  C16  1  0.88817500  0.35303600  0.88817500  1
  C  C17  1  0.39070000  0.84887600  0.39070000  1
  C  C18  1  0.88817500  0.88817500  0.35303600  1
  C  C19  1  0.39070000  0.39070000  0.84887600  1
  C  C20  1  0.38017600  0.38017600  0.38017600  1
  C  C21  1  0.88018100  0.88018100  0.88018100  1
  C  C22  1  0.15090300  0.60947400  0.60947400  1
  C  C23  1  0.65087800  0.10944600  0.10944600  1
  C  C24  1  0.60947400  0.15090300  0.60947400  1
  C  C25  1  0.10944600  0.65087800  0.10944600  1
  C  C26  1  0.60947400  0.60947400  0.15090300  1
  C  C27  1  0.10944600  0.10944600  0.65087800  1
