# generated using pymatgen
data_CuNi2C17
_symmetry_space_group_name_H-M   'P 1'
_cell_length_a   9.23340754
_cell_length_b   10.67031504
_cell_length_c   11.40335473
_cell_angle_alpha   113.98109383
_cell_angle_beta   82.61014301
_cell_angle_gamma   90.72780031
_symmetry_Int_Tables_number   1
_chemical_formula_structural   CuNi2C17
_chemical_formula_sum   'Cu4 Ni8 C68'
_cell_volume   1017.01855455
_cell_formula_units_Z   4
loop_
 _symmetry_equiv_pos_site_id
 _symmetry_equiv_pos_as_xyz
  1  'x, y, z'
loop_
 _atom_site_type_symbol
 _atom_site_label
 _atom_site_symmetry_multiplicity
 _atom_site_fract_x
 _atom_site_fract_y
 _atom_site_fract_z
 _atom_site_occupancy
  C  C0  1  0.24770900  0.63511100  0.02667900  1
  C  C1  1  0.24770400  0.13513000  0.02671400  1
  C  C2  1  0.74770800  0.38513000  0.02668000  1
  C  C3  1  0.74769900  0.88511400  0.02668100  1
  Ni  Ni4  1  0.16954700  0.99434100  0.49535000  1
  Ni  Ni5  1  0.16962200  0.49433900  0.49534300  1
  Ni  Ni6  1  0.66960000  0.74434600  0.49533500  1
  Ni  Ni7  1  0.66960500  0.24432100  0.49533100  1
  Ni  Ni8  1  0.33057500  0.75314300  0.49609500  1
  Ni  Ni9  1  0.33058700  0.25317800  0.49609500  1
  Ni  Ni10  1  0.83057400  0.50316700  0.49613700  1
  Ni  Ni11  1  0.83058800  0.00318200  0.49613500  1
  Cu  Cu12  1  0.04888500  0.97353100  0.22747500  1
  Cu  Cu13  1  0.04888600  0.47353200  0.22747600  1
  Cu  Cu14  1  0.54889600  0.72357700  0.22751600  1
  Cu  Cu15  1  0.54889300  0.22356900  0.22750900  1
  C  C16  1  0.49701900  0.99569700  0.49571600  1
  C  C17  1  0.99699000  0.74552800  0.49558900  1
  C  C18  1  0.49713000  0.49568200  0.49559500  1
  C  C19  1  0.99696100  0.24564500  0.49561300  1
  C  C20  1  0.38261400  0.46919200  0.22361200  1
  C  C21  1  0.38260400  0.96920100  0.22362600  1
  C  C22  1  0.88260600  0.21915900  0.22358000  1
  C  C23  1  0.88260100  0.71916400  0.22360000  1
  C  C24  1  0.45308700  0.77592400  0.76860000  1
  C  C25  1  0.45307700  0.27593700  0.76861300  1
  C  C26  1  0.95307700  0.52593800  0.76859900  1
  C  C27  1  0.95307600  0.02595200  0.76861100  1
  C  C28  1  0.12055600  0.27756700  0.76858000  1
  C  C29  1  0.12054800  0.77757700  0.76861500  1
  C  C30  1  0.62055900  0.02758400  0.76862700  1
  C  C31  1  0.62055600  0.52758200  0.76861100  1
  C  C32  1  0.50254300  0.34128700  0.16685200  1
  C  C33  1  0.50253400  0.84128900  0.16685300  1
  C  C34  1  0.00253100  0.09125900  0.16682700  1
  C  C35  1  0.00253000  0.59126000  0.16682900  1
  C  C36  1  0.02541300  0.92555900  0.82645300  1
  C  C37  1  0.02541900  0.42553700  0.82643800  1
  C  C38  1  0.52540000  0.67552800  0.82645900  1
  C  C39  1  0.52541300  0.17555500  0.82645700  1
  C  C40  1  0.43711000  0.58450100  0.17098200  1
  C  C41  1  0.43709700  0.08450700  0.17099200  1
  C  C42  1  0.93708300  0.33445000  0.17093200  1
  C  C43  1  0.93708400  0.83445900  0.17095500  1
  C  C44  1  0.22948600  0.91293700  0.16926500  1
  C  C45  1  0.22948800  0.41293700  0.16926700  1
  C  C46  1  0.72948000  0.66293500  0.16926500  1
  C  C47  1  0.72946400  0.16294200  0.16925500  1
  C  C48  1  0.03121800  0.17538500  0.82629800  1
  C  C49  1  0.03124600  0.67534500  0.82627200  1
  C  C50  1  0.53124100  0.92534300  0.82626400  1
  C  C51  1  0.53123900  0.42534400  0.82626000  1
  C  C52  1  0.27800100  0.80602500  0.82796600  1
  C  C53  1  0.27799500  0.30603700  0.82796500  1
  C  C54  1  0.77799100  0.55602800  0.82797100  1
  C  C55  1  0.77799200  0.05604000  0.82797900  1
  C  C56  1  0.01871500  0.04481500  0.40008000  1
  C  C57  1  0.01870400  0.54477500  0.40008900  1
  C  C58  1  0.51870100  0.79481100  0.40013100  1
  C  C59  1  0.51874800  0.29484900  0.40012200  1
  C  C60  1  0.35431800  0.53670100  0.38694000  1
  C  C61  1  0.35428400  0.03672900  0.38696400  1
  C  C62  1  0.85431300  0.28667200  0.38691900  1
  C  C63  1  0.85424600  0.78666300  0.38693900  1
  C  C64  1  0.47928800  0.71040500  0.61058900  1
  C  C65  1  0.47928000  0.21042900  0.61060900  1
  C  C66  1  0.97918700  0.46046200  0.61061000  1
  C  C67  1  0.97917600  0.96047200  0.61061800  1
  C  C68  1  0.14953000  0.21224500  0.61133600  1
  C  C69  1  0.14950300  0.71225200  0.61137600  1
  C  C70  1  0.64948700  0.96227700  0.61138000  1
  C  C71  1  0.64949000  0.46226900  0.61136700  1
  C  C72  1  0.15878600  0.78466800  0.41153600  1
  C  C73  1  0.15886700  0.28466100  0.41145900  1
  C  C74  1  0.65885000  0.53459400  0.41133900  1
  C  C75  1  0.65879000  0.03456600  0.41138100  1
  C  C76  1  0.33563200  0.96603800  0.58966200  1
  C  C77  1  0.33568500  0.46603700  0.58963400  1
  C  C78  1  0.83556800  0.71600200  0.58981600  1
  C  C79  1  0.83571100  0.21607800  0.58970400  1
