# generated using pymatgen
data_Cu2Ni6C17
_symmetry_space_group_name_H-M   'P 1'
_cell_length_a   5.66395000
_cell_length_b   23.44853611
_cell_length_c   11.40935464
_cell_angle_alpha   84.95703216
_cell_angle_beta   90.00021252
_cell_angle_gamma   90.00343838
_symmetry_Int_Tables_number   1
_chemical_formula_structural   Cu2Ni6C17
_chemical_formula_sum   'Cu8 Ni24 C68'
_cell_volume   1509.42602477
_cell_formula_units_Z   4
loop_
 _symmetry_equiv_pos_site_id
 _symmetry_equiv_pos_as_xyz
  1  'x, y, z'
loop_
 _atom_site_type_symbol
 _atom_site_label
 _atom_site_symmetry_multiplicity
 _atom_site_fract_x
 _atom_site_fract_y
 _atom_site_fract_z
 _atom_site_occupancy
  C  C0  1  0.10575600  0.49997500  0.99998000  1
  C  C1  1  0.65291600  0.75034100  0.50037100  1
  C  C2  1  0.10595700  0.99999900  0.00000000  1
  C  C3  1  0.65220800  0.24970600  0.49966800  1
  Ni  Ni4  1  0.12430600  0.82697800  0.99166600  1
  Ni  Ni5  1  0.62597400  0.07724400  0.49463000  1
  Ni  Ni6  1  0.12462500  0.32707400  0.99173200  1
  Ni  Ni7  1  0.62582600  0.57733600  0.49465000  1
  Ni  Ni8  1  0.12451600  0.67289500  0.00836400  1
  Ni  Ni9  1  0.62597600  0.92272500  0.50530400  1
  Ni  Ni10  1  0.12440900  0.17299800  0.00826600  1
  Ni  Ni11  1  0.62581100  0.42274200  0.50537800  1
  Ni  Ni12  1  0.62763600  0.76117300  0.17063100  1
  Ni  Ni13  1  0.12938800  0.01032700  0.67081000  1
  Ni  Ni14  1  0.62802000  0.26134300  0.17050100  1
  Ni  Ni15  1  0.12922300  0.51026500  0.67065700  1
  Ni  Ni16  1  0.62800000  0.73861900  0.82954500  1
  Ni  Ni17  1  0.12940100  0.98967400  0.32915400  1
  Ni  Ni18  1  0.62779200  0.23883600  0.82938300  1
  Ni  Ni19  1  0.12939100  0.48975800  0.32927100  1
  Ni  Ni20  1  0.05252400  0.66912600  0.67225800  1
  Ni  Ni21  1  0.54840300  0.92005100  0.16796800  1
  Ni  Ni22  1  0.05242400  0.16922200  0.67227800  1
  Ni  Ni23  1  0.54851200  0.42015800  0.16805600  1
  Ni  Ni24  1  0.05249900  0.83080000  0.32756800  1
  Ni  Ni25  1  0.54840800  0.07995900  0.83196900  1
  Ni  Ni26  1  0.05237500  0.33086800  0.32791100  1
  Ni  Ni27  1  0.54833300  0.57981400  0.83202500  1
  Cu  Cu28  1  0.67430300  0.92435600  0.86568600  1
  Cu  Cu29  1  0.17402200  0.17635500  0.36749900  1
  Cu  Cu30  1  0.67444300  0.42438700  0.86568700  1
  Cu  Cu31  1  0.17493300  0.67650900  0.36791900  1
  Cu  Cu32  1  0.67411200  0.57561400  0.13434600  1
  Cu  Cu33  1  0.17389100  0.82359000  0.63226700  1
  Cu  Cu34  1  0.67432900  0.07563400  0.13428800  1
  Cu  Cu35  1  0.17479400  0.32355200  0.63233000  1
  C  C36  1  0.87876800  0.74998200  0.00002200  1
  C  C37  1  0.38034400  0.99998500  0.49999800  1
  C  C38  1  0.87885100  0.24999200  0.99999500  1
  C  C39  1  0.38007400  0.50001800  0.49998400  1
  C  C40  1  0.35915500  0.75000900  0.99999200  1
  C  C41  1  0.85988300  0.99999300  0.49998300  1
  C  C42  1  0.35935900  0.24997100  0.00002300  1
  C  C43  1  0.85948600  0.50003100  0.49998700  1
  C  C44  1  0.90116400  0.93882900  0.92653400  1
  C  C45  1  0.39867800  0.19217200  0.42652400  1
  C  C46  1  0.90154300  0.43882500  0.92636000  1
  C  C47  1  0.39960800  0.69219600  0.42700600  1
  C  C48  1  0.90096700  0.56108500  0.07358100  1
  C  C49  1  0.39841700  0.80782800  0.57308600  1
  C  C50  1  0.90121500  0.06117700  0.07344900  1
  C  C51  1  0.39944100  0.30776200  0.57334200  1
  C  C52  1  0.47214700  0.93334200  0.94775600  1
  C  C53  1  0.96971000  0.18565500  0.44963100  1
  C  C54  1  0.47245900  0.43344700  0.94777700  1
  C  C55  1  0.97060400  0.68583000  0.45002600  1
  C  C56  1  0.47192100  0.56667300  0.05229100  1
  C  C57  1  0.96941200  0.81425800  0.55022700  1
  C  C58  1  0.47219600  0.06663000  0.05221500  1
  C  C59  1  0.97050300  0.31429000  0.55016600  1
  C  C60  1  0.68595100  0.86404700  0.83986200  1
  C  C61  1  0.18394700  0.11553800  0.34440700  1
  C  C62  1  0.68584200  0.36404300  0.83994000  1
  C  C63  1  0.18430200  0.61573200  0.34447400  1
  C  C64  1  0.68597100  0.63594400  0.16017800  1
  C  C65  1  0.18362600  0.88440800  0.65534600  1
  C  C66  1  0.68594600  0.13594300  0.16011000  1
  C  C67  1  0.18459500  0.38433400  0.65573500  1
  C  C68  1  0.14123400  0.71552200  0.25749500  1
  C  C69  1  0.64545200  0.96449700  0.75691500  1
  C  C70  1  0.14033100  0.21522900  0.25698500  1
  C  C71  1  0.64552800  0.46448100  0.75686600  1
  C  C72  1  0.14050600  0.78470500  0.74279000  1
  C  C73  1  0.64550500  0.03548900  0.24306200  1
  C  C74  1  0.14078500  0.28457200  0.74276500  1
  C  C75  1  0.64501100  0.53551400  0.24314900  1
  C  C76  1  0.70056300  0.79442900  0.35110400  1
  C  C77  1  0.20058700  0.04251500  0.85444500  1
  C  C78  1  0.70035400  0.29453400  0.35134600  1
  C  C79  1  0.20029900  0.54247500  0.85445900  1
  C  C80  1  0.70054100  0.70548000  0.64874700  1
  C  C81  1  0.20051900  0.95747100  0.14553800  1
  C  C82  1  0.70049300  0.20554600  0.64878600  1
  C  C83  1  0.20061200  0.45757000  0.14554700  1
  C  C84  1  0.89061600  0.83352200  0.14648100  1
  C  C85  1  0.39145900  0.08259700  0.64933200  1
  C  C86  1  0.89088600  0.33352000  0.14659500  1
  C  C87  1  0.39138200  0.58257200  0.64938700  1
  C  C88  1  0.89084000  0.66644200  0.85350500  1
  C  C89  1  0.39144600  0.91740200  0.35061200  1
  C  C90  1  0.89067900  0.16649800  0.85342700  1
  C  C91  1  0.39141600  0.41743800  0.35063200  1
  C  C92  1  0.38388100  0.83636000  0.14555000  1
  C  C93  1  0.88738700  0.08559500  0.64727100  1
  C  C94  1  0.38441800  0.33641600  0.14542000  1
  C  C95  1  0.88741900  0.58558500  0.64722000  1
  C  C96  1  0.38435100  0.66356000  0.85464700  1
  C  C97  1  0.88734000  0.91441000  0.35266700  1
  C  C98  1  0.38400100  0.16364600  0.85443100  1
  C  C99  1  0.88749700  0.41443500  0.35280000  1
