# generated using pymatgen
data_Cu8NiC7
_symmetry_space_group_name_H-M   'P 1'
_cell_length_a   8.21159400
_cell_length_b   9.81062494
_cell_length_c   12.30181677
_cell_angle_alpha   102.61388308
_cell_angle_beta   70.50313161
_cell_angle_gamma   90.00000000
_symmetry_Int_Tables_number   1
_chemical_formula_structural   Cu8NiC7
_chemical_formula_sum   'Cu32 Ni4 C28'
_cell_volume   908.80380656
_cell_formula_units_Z   4
loop_
 _symmetry_equiv_pos_site_id
 _symmetry_equiv_pos_as_xyz
  1  'x, y, z'
loop_
 _atom_site_type_symbol
 _atom_site_label
 _atom_site_symmetry_multiplicity
 _atom_site_fract_x
 _atom_site_fract_y
 _atom_site_fract_z
 _atom_site_occupancy
  C  C0  1  0.71154000  0.76067300  0.20341500  1
  C  C1  1  0.91495500  0.73932700  0.79658500  1
  C  C2  1  0.28846000  0.23932700  0.79658500  1
  C  C3  1  0.08504500  0.26067300  0.20341500  1
  C  C4  1  0.50693300  0.40853700  0.28975600  1
  C  C5  1  0.79668900  0.09146300  0.71024400  1
  C  C6  1  0.49306700  0.59146300  0.71024400  1
  C  C7  1  0.20331100  0.90853700  0.28975600  1
  C  C8  1  0.52568500  0.83033500  0.01608700  1
  C  C9  1  0.54177200  0.66966500  0.98391300  1
  C  C10  1  0.47431500  0.16966500  0.98391300  1
  C  C11  1  0.45822800  0.33033500  0.01608700  1
  C  C12  1  0.10342600  0.67158300  0.97153200  1
  C  C13  1  0.07495800  0.82841700  0.02846800  1
  C  C14  1  0.89657400  0.32841700  0.02846800  1
  C  C15  1  0.92504200  0.17158300  0.97153200  1
  C  C16  1  0.49125200  0.10925400  0.25490500  1
  C  C17  1  0.74615800  0.39074600  0.74509500  1
  C  C18  1  0.50874800  0.89074600  0.74509500  1
  C  C19  1  0.25384200  0.60925400  0.25490500  1
  C  C20  1  0.61332700  0.65445900  0.45296800  1
  C  C21  1  0.06629600  0.84554100  0.54703200  1
  C  C22  1  0.38667300  0.34554100  0.54703200  1
  C  C23  1  0.93370400  0.15445900  0.45296800  1
  C  C24  1  0.68296400  0.13678800  0.23815600  1
  C  C25  1  0.92112000  0.36321200  0.76184400  1
  C  C26  1  0.31703600  0.86321200  0.76184400  1
  C  C27  1  0.07888000  0.63678800  0.23815600  1
  Ni  Ni28  1  0.65357500  0.44523300  0.08458100  1
  Ni  Ni29  1  0.73815700  0.05476700  0.91541900  1
  Ni  Ni30  1  0.34642500  0.55476700  0.91541900  1
  Ni  Ni31  1  0.26184300  0.94523300  0.08458100  1
  Cu  Cu32  1  0.71367200  0.26645000  0.25523600  1
  Cu  Cu33  1  0.96890800  0.23355000  0.74476400  1
  Cu  Cu34  1  0.28632800  0.73355000  0.74476400  1
  Cu  Cu35  1  0.03109200  0.76645000  0.25523600  1
  Cu  Cu36  1  0.79620300  0.03673200  0.20715600  1
  Cu  Cu37  1  0.00336000  0.46326800  0.79284400  1
  Cu  Cu38  1  0.20379700  0.96326800  0.79284400  1
  Cu  Cu39  1  0.99664000  0.53673200  0.20715600  1
  Cu  Cu40  1  0.62007000  0.59540100  0.53393200  1
  Cu  Cu41  1  0.15400200  0.90459900  0.46606800  1
  Cu  Cu42  1  0.37993000  0.40459900  0.46606800  1
  Cu  Cu43  1  0.84599800  0.09540100  0.53393200  1
  Cu  Cu44  1  0.60969000  0.75000000  0.00000000  1
  Cu  Cu45  1  0.39031000  0.25000000  0.00000000  1
  Cu  Cu46  1  0.01163400  0.75000000  0.00000000  1
  Cu  Cu47  1  0.98836600  0.25000000  0.00000000  1
  Cu  Cu48  1  0.44561000  0.98817700  0.26702400  1
  Cu  Cu49  1  0.71263400  0.51182300  0.73297600  1
  Cu  Cu50  1  0.55439000  0.01182300  0.73297600  1
  Cu  Cu51  1  0.28736600  0.48817700  0.26702400  1
  Cu  Cu52  1  0.39812700  0.21103400  0.25304400  1
  Cu  Cu53  1  0.65117100  0.28896600  0.74695600  1
  Cu  Cu54  1  0.60187300  0.78896600  0.74695600  1
  Cu  Cu55  1  0.34882900  0.71103400  0.25304400  1
  Cu  Cu56  1  0.59628200  0.57859900  0.35552500  1
  Cu  Cu57  1  0.95180700  0.92140100  0.64447500  1
  Cu  Cu58  1  0.40371800  0.42140100  0.64447500  1
  Cu  Cu59  1  0.04819300  0.07859900  0.35552500  1
  Cu  Cu60  1  0.63173900  0.78349300  0.45651000  1
  Cu  Cu61  1  0.08825000  0.71650700  0.54349000  1
  Cu  Cu62  1  0.36826100  0.21650700  0.54349000  1
  Cu  Cu63  1  0.91175000  0.28349300  0.45651000  1
