# generated using pymatgen
data_Cu3NiC32
_symmetry_space_group_name_H-M   'P 1'
_cell_length_a   8.86655811
_cell_length_b   8.86655811
_cell_length_c   8.86655825
_cell_angle_alpha   58.80728458
_cell_angle_beta   58.80728458
_cell_angle_gamma   58.80728898
_symmetry_Int_Tables_number   1
_chemical_formula_structural   Cu3NiC32
_chemical_formula_sum   'Cu3 Ni1 C32'
_cell_volume   479.46548783
_cell_formula_units_Z   1
loop_
 _symmetry_equiv_pos_site_id
 _symmetry_equiv_pos_as_xyz
  1  'x, y, z'
loop_
 _atom_site_type_symbol
 _atom_site_label
 _atom_site_symmetry_multiplicity
 _atom_site_fract_x
 _atom_site_fract_y
 _atom_site_fract_z
 _atom_site_occupancy
  Ni  Ni0  1  0.14823000  0.14823000  0.14823000  1
  Cu  Cu1  1  0.85092100  0.85092100  0.85092100  1
  Cu  Cu2  1  0.64892400  0.64892400  0.64892400  1
  Cu  Cu3  1  0.35088700  0.35088700  0.35088700  1
  C  C4  1  0.99917900  0.99917900  0.99917900  1
  C  C5  1  0.49987500  0.49987500  0.49987500  1
  C  C6  1  0.46046800  0.04042800  0.74920700  1
  C  C7  1  0.04042800  0.74920700  0.46046800  1
  C  C8  1  0.74920700  0.46046800  0.04042800  1
  C  C9  1  0.25068000  0.54114300  0.95895200  1
  C  C10  1  0.95895200  0.25068000  0.54114300  1
  C  C11  1  0.54114300  0.95895200  0.25068000  1
  C  C12  1  0.69699100  0.49419600  0.88327400  1
  C  C13  1  0.49419600  0.88327400  0.69699100  1
  C  C14  1  0.08339900  0.73399000  0.93995400  1
  C  C15  1  0.88327400  0.69699100  0.49419600  1
  C  C16  1  0.19913700  0.38677900  0.98697600  1
  C  C17  1  0.41769900  0.56212600  0.76678400  1
  C  C18  1  0.93995400  0.08339900  0.73399000  1
  C  C19  1  0.76678400  0.41769900  0.56212600  1
  C  C20  1  0.61715400  0.00693200  0.80185100  1
  C  C21  1  0.56212600  0.76678400  0.41769900  1
  C  C22  1  0.26816300  0.05834100  0.91510000  1
  C  C23  1  0.00693200  0.80185100  0.61715400  1
  C  C24  1  0.98697600  0.19913700  0.38677900  1
  C  C25  1  0.73399000  0.93995400  0.08339900  1
  C  C26  1  0.44115000  0.23284100  0.58223200  1
  C  C27  1  0.38677900  0.98697600  0.19913700  1
  C  C28  1  0.23284100  0.58223200  0.44115000  1
  C  C29  1  0.05834100  0.91510000  0.26816300  1
  C  C30  1  0.58223200  0.44115000  0.23284100  1
  C  C31  1  0.80185100  0.61715400  0.00693200  1
  C  C32  1  0.11691900  0.30208100  0.50703700  1
  C  C33  1  0.91510000  0.26816300  0.05834100  1
  C  C34  1  0.50703700  0.11691900  0.30208100  1
  C  C35  1  0.30208100  0.50703700  0.11691900  1
