# generated using pymatgen
data_CuNiC9
_symmetry_space_group_name_H-M   'P 1'
_cell_length_a   9.23199600
_cell_length_b   6.42370300
_cell_length_c   10.76903512
_cell_angle_alpha   56.43554019
_cell_angle_beta   90.00000000
_cell_angle_gamma   90.00000000
_symmetry_Int_Tables_number   1
_chemical_formula_structural   CuNiC9
_chemical_formula_sum   'Cu4 Ni4 C36'
_cell_volume   532.15807093
_cell_formula_units_Z   4
loop_
 _symmetry_equiv_pos_site_id
 _symmetry_equiv_pos_as_xyz
  1  'x, y, z'
loop_
 _atom_site_type_symbol
 _atom_site_label
 _atom_site_symmetry_multiplicity
 _atom_site_fract_x
 _atom_site_fract_y
 _atom_site_fract_z
 _atom_site_occupancy
  C  C0  1  0.93011500  0.72666800  0.17141900  1
  C  C1  1  0.06988500  0.27333200  0.82858100  1
  C  C2  1  0.43343600  0.20795900  0.68169600  1
  C  C3  1  0.56656400  0.79204100  0.31830400  1
  C  C4  1  0.88534800  0.75316800  0.50261500  1
  C  C5  1  0.11465200  0.24683200  0.49738500  1
  C  C6  1  0.93343600  0.79204100  0.81830400  1
  C  C7  1  0.06656400  0.20795900  0.18169600  1
  C  C8  1  0.61465200  0.75316800  0.00261500  1
  C  C9  1  0.38534800  0.24683200  0.99738500  1
  C  C10  1  0.43011500  0.27333200  0.32858100  1
  C  C11  1  0.56988500  0.72666800  0.67141900  1
  Ni  Ni12  1  0.75238800  0.23498300  0.75331200  1
  Ni  Ni13  1  0.24761200  0.76501700  0.24668800  1
  Ni  Ni14  1  0.74761200  0.23498300  0.25331200  1
  Ni  Ni15  1  0.25238800  0.76501700  0.74668800  1
  Cu  Cu16  1  0.77607000  0.33566600  0.46975400  1
  Cu  Cu17  1  0.22393000  0.66433400  0.53024600  1
  Cu  Cu18  1  0.72393000  0.33566600  0.96975400  1
  Cu  Cu19  1  0.27607000  0.66433400  0.03024600  1
  C  C20  1  0.68038100  0.51209800  0.26872900  1
  C  C21  1  0.31961900  0.48790200  0.73127100  1
  C  C22  1  0.18038100  0.48790200  0.23127100  1
  C  C23  1  0.81961900  0.51209800  0.76872900  1
  C  C24  1  0.85988400  0.00631100  0.92867400  1
  C  C25  1  0.14011600  0.99368900  0.07132600  1
  C  C26  1  0.82074900  0.96341500  0.24885200  1
  C  C27  1  0.17925100  0.03658500  0.75114800  1
  C  C28  1  0.58576300  0.27961300  0.12660700  1
  C  C29  1  0.41423700  0.72038700  0.87339300  1
  C  C30  1  0.41140200  0.77789000  0.12843100  1
  C  C31  1  0.58859800  0.22211000  0.87156900  1
  C  C32  1  0.34675800  0.52682100  0.43637200  1
  C  C33  1  0.65324200  0.47317900  0.56362800  1
  C  C34  1  0.84675800  0.47317900  0.06362800  1
  C  C35  1  0.15324200  0.52682100  0.93637200  1
  C  C36  1  0.64011600  0.00631100  0.42867400  1
  C  C37  1  0.35988400  0.99368900  0.57132600  1
  C  C38  1  0.67925100  0.96341500  0.74885200  1
  C  C39  1  0.32074900  0.03658500  0.25114800  1
  C  C40  1  0.91140200  0.22211000  0.37156900  1
  C  C41  1  0.08859800  0.77789000  0.62843100  1
  C  C42  1  0.91423700  0.27961300  0.62660700  1
  C  C43  1  0.08576300  0.72038700  0.37339300  1
