# generated using pymatgen
data_CuNi3C8
_symmetry_space_group_name_H-M   'P 1'
_cell_length_a   4.09587100
_cell_length_b   6.95072900
_cell_length_c   8.18975500
_cell_angle_alpha   90.00000000
_cell_angle_beta   90.00000000
_cell_angle_gamma   90.00000000
_symmetry_Int_Tables_number   1
_chemical_formula_structural   CuNi3C8
_chemical_formula_sum   'Cu1 Ni3 C8'
_cell_volume   233.15650472
_cell_formula_units_Z   1
loop_
 _symmetry_equiv_pos_site_id
 _symmetry_equiv_pos_as_xyz
  1  'x, y, z'
loop_
 _atom_site_type_symbol
 _atom_site_label
 _atom_site_symmetry_multiplicity
 _atom_site_fract_x
 _atom_site_fract_y
 _atom_site_fract_z
 _atom_site_occupancy
  Ni  Ni0  1  0.00000000  0.17773500  0.50000000  1
  Ni  Ni1  1  0.50000000  0.82574700  0.75163200  1
  Ni  Ni2  1  0.50000000  0.82574700  0.24836800  1
  Cu  Cu3  1  0.00000000  0.16245700  0.00000000  1
  C  C4  1  0.00000000  0.62750900  0.00000000  1
  C  C5  1  0.00000000  0.63225600  0.50000000  1
  C  C6  1  0.50000000  0.36813900  0.75278300  1
  C  C7  1  0.50000000  0.36813900  0.24721700  1
  C  C8  1  0.50000000  0.00617600  0.00000000  1
  C  C9  1  0.50000000  0.00016000  0.50000000  1
  C  C10  1  0.00000000  0.00296800  0.75521400  1
  C  C11  1  0.00000000  0.00296800  0.24478600  1
