# generated using pymatgen
data_CuNiC2
_symmetry_space_group_name_H-M   'P 1'
_cell_length_a   3.48349700
_cell_length_b   5.41251900
_cell_length_c   11.47968600
_cell_angle_alpha   90.00000000
_cell_angle_beta   90.00000000
_cell_angle_gamma   90.00000000
_symmetry_Int_Tables_number   1
_chemical_formula_structural   CuNiC2
_chemical_formula_sum   'Cu4 Ni4 C8'
_cell_volume   216.44366735
_cell_formula_units_Z   4
loop_
 _symmetry_equiv_pos_site_id
 _symmetry_equiv_pos_as_xyz
  1  'x, y, z'
loop_
 _atom_site_type_symbol
 _atom_site_label
 _atom_site_symmetry_multiplicity
 _atom_site_fract_x
 _atom_site_fract_y
 _atom_site_fract_z
 _atom_site_occupancy
  Ni  Ni0  1  0.25000000  0.40377200  0.56557800  1
  Ni  Ni1  1  0.25000000  0.09622800  0.06557800  1
  Ni  Ni2  1  0.75000000  0.59622800  0.43442200  1
  Ni  Ni3  1  0.75000000  0.90377200  0.93442200  1
  Cu  Cu4  1  0.25000000  0.45763000  0.86050100  1
  Cu  Cu5  1  0.25000000  0.04237000  0.36050100  1
  Cu  Cu6  1  0.75000000  0.54237000  0.13949900  1
  Cu  Cu7  1  0.75000000  0.95763000  0.63949900  1
  C  C8  1  0.25000000  0.75376700  0.52519900  1
  C  C9  1  0.25000000  0.74623300  0.02519900  1
  C  C10  1  0.75000000  0.24623300  0.47480100  1
  C  C11  1  0.75000000  0.25376700  0.97480100  1
  C  C12  1  0.25000000  0.19977600  0.70234200  1
  C  C13  1  0.25000000  0.30022400  0.20234200  1
  C  C14  1  0.75000000  0.80022400  0.29765800  1
  C  C15  1  0.75000000  0.69977600  0.79765800  1
