# generated using pymatgen
data_Cu14NiC16
_symmetry_space_group_name_H-M   'P 1'
_cell_length_a   9.06929356
_cell_length_b   8.72506602
_cell_length_c   4.37069813
_cell_angle_alpha   90.00000000
_cell_angle_beta   90.00000000
_cell_angle_gamma   90.00000000
_symmetry_Int_Tables_number   1
_chemical_formula_structural   Cu14NiC16
_chemical_formula_sum   'Cu14 Ni1 C16'
_cell_volume   345.85415189
_cell_formula_units_Z   1
loop_
 _symmetry_equiv_pos_site_id
 _symmetry_equiv_pos_as_xyz
  1  'x, y, z'
loop_
 _atom_site_type_symbol
 _atom_site_label
 _atom_site_symmetry_multiplicity
 _atom_site_fract_x
 _atom_site_fract_y
 _atom_site_fract_z
 _atom_site_occupancy
  C  C0  1  0.03266186  0.00000000  0.00000000  1
  Ni  Ni1  1  0.49566911  0.50000000  0.00000000  1
  Cu  Cu2  1  0.98435684  0.50000000  0.00000000  1
  Cu  Cu3  1  0.51133583  0.00000000  0.00000000  1
  Cu  Cu4  1  -0.01032298  0.24523622  0.50000000  1
  Cu  Cu5  1  -0.01032298  0.75476378  0.50000000  1
  Cu  Cu6  1  0.50658708  0.24546896  0.50000000  1
  Cu  Cu7  1  0.50658708  0.75453104  0.50000000  1
  Cu  Cu8  1  0.27993069  0.00000000  0.50000000  1
  Cu  Cu9  1  0.23162811  0.50000000  0.50000000  1
  Cu  Cu10  1  0.74148254  0.00000000  0.50000000  1
  Cu  Cu11  1  0.75704914  0.50000000  0.50000000  1
  Cu  Cu12  1  0.24610251  0.24601102  0.00000000  1
  Cu  Cu13  1  0.24610251  0.75398898  -0.00000000  1
  Cu  Cu14  1  0.76009262  0.24167894  0.00000000  1
  Cu  Cu15  1  0.76009262  0.75832106  0.00000000  1
  C  C16  1  0.30016753  0.00000000  0.00000000  1
  C  C17  1  0.72517941  0.00000000  0.00000000  1
  C  C18  1  0.74087131  0.50000000  0.00000000  1
  C  C19  1  0.24464937  0.23529596  0.50000000  1
  C  C20  1  0.24464937  0.76470404  0.50000000  1
  C  C21  1  0.74270046  0.25456446  0.50000000  1
  C  C22  1  0.74270046  0.74543554  0.50000000  1
  C  C23  1  0.95300757  0.00000000  0.50000000  1
  C  C24  1  0.99375633  0.50000000  0.50000000  1
  C  C25  1  0.50797030  0.00000000  0.50000000  1
  C  C26  1  0.52347729  0.50000000  0.50000000  1
  C  C27  1  -0.00559716  0.27965443  0.00000000  1
  C  C28  1  -0.00559716  0.72034557  -0.00000000  1
  C  C29  1  0.50151619  0.26121043  0.00000000  1
  C  C30  1  0.50151619  0.73878957  -0.00000000  1
