# generated using pymatgen
data_Cu8NiC16
_symmetry_space_group_name_H-M   'P 1'
_cell_length_a   4.98349780
_cell_length_b   10.43061066
_cell_length_c   5.69268229
_cell_angle_alpha   83.49951269
_cell_angle_beta   92.83067918
_cell_angle_gamma   88.84022649
_symmetry_Int_Tables_number   1
_chemical_formula_structural   Cu8NiC16
_chemical_formula_sum   'Cu8 Ni1 C16'
_cell_volume   293.55020978
_cell_formula_units_Z   1
loop_
 _symmetry_equiv_pos_site_id
 _symmetry_equiv_pos_as_xyz
  1  'x, y, z'
loop_
 _atom_site_type_symbol
 _atom_site_label
 _atom_site_symmetry_multiplicity
 _atom_site_fract_x
 _atom_site_fract_y
 _atom_site_fract_z
 _atom_site_occupancy
  Ni  Ni0  1  0.49762128  0.15046872  0.13713679  1
  Cu  Cu1  1  0.48442593  0.28201569  0.70147293  1
  Cu  Cu2  1  0.48147667  0.98369738  0.54835458  1
  Cu  Cu3  1  0.52322971  0.73913852  0.25709606  1
  Cu  Cu4  1  0.49374594  0.50413800  0.99399199  1
  Cu  Cu5  1  0.98446796  0.24722110  0.25927252  1
  Cu  Cu6  1  0.01828375  0.76058555  0.75587041  1
  Cu  Cu7  1  0.00274137  0.51229441  0.49414132  1
  Cu  Cu8  1  0.99270483  0.99831484  0.01268487  1
  C  C9  1  0.82127253  0.07987104  0.29982040  1
  C  C10  1  0.68034391  0.82165562  0.54052553  1
  C  C11  1  0.69329152  0.57127670  0.27967665  1
  C  C12  1  0.66551910  0.32255516  0.04265238  1
  C  C13  1  0.30068791  0.45423789  0.70578281  1
  C  C14  1  0.30661047  0.68065250  0.98576683  1
  C  C15  1  0.32590062  0.17500032  0.43640391  1
  C  C16  1  0.17798205  0.92773870  0.72781552  1
  C  C17  1  0.81723343  0.58021625  0.77715593  1
  C  C18  1  0.84088235  0.32942289  0.53966896  1
  C  C19  1  0.81520057  0.81827287  0.04360003  1
  C  C20  1  0.63649623  0.07962262  0.82806955  1
  C  C21  1  0.34806436  0.93880474  0.21231605  1
  C  C22  1  0.18241587  0.69047156  0.46205432  1
  C  C23  1  0.16250122  0.18773780  0.94945318  1
  C  C24  1  0.17745643  0.42708915  0.21754950  1
