# generated using pymatgen
data_Cu(NiC2)3
_symmetry_space_group_name_H-M   'P 1'
_cell_length_a   10.60244723
_cell_length_b   9.31657594
_cell_length_c   10.48376130
_cell_angle_alpha   96.53896388
_cell_angle_beta   95.10694193
_cell_angle_gamma   85.46133571
_symmetry_Int_Tables_number   1
_chemical_formula_structural   Cu(NiC2)3
_chemical_formula_sum   'Cu8 Ni24 C48'
_cell_volume   1022.25546555
_cell_formula_units_Z   8
loop_
 _symmetry_equiv_pos_site_id
 _symmetry_equiv_pos_as_xyz
  1  'x, y, z'
loop_
 _atom_site_type_symbol
 _atom_site_label
 _atom_site_symmetry_multiplicity
 _atom_site_fract_x
 _atom_site_fract_y
 _atom_site_fract_z
 _atom_site_occupancy
  Ni  Ni0  1  0.32856200  0.86867300  0.42286500  1
  Ni  Ni1  1  0.03251100  0.98668500  0.24795800  1
  Ni  Ni2  1  0.12480300  0.67078100  0.36140400  1
  Ni  Ni3  1  0.70499600  0.21084700  0.90696500  1
  Ni  Ni4  1  0.57319600  0.15404400  0.22117100  1
  Ni  Ni5  1  0.34137900  0.28338000  0.10817600  1
  Ni  Ni6  1  0.98418000  0.33736700  0.73191000  1
  Ni  Ni7  1  0.45852100  0.85150500  0.16041600  1
  Ni  Ni8  1  0.84170800  0.25226200  0.28970800  1
  Ni  Ni9  1  0.06840500  0.00697500  0.57161400  1
  Ni  Ni10  1  0.03140500  0.17827200  0.00366900  1
  Ni  Ni11  1  0.93725600  0.72305100  0.85378200  1
  Ni  Ni12  1  0.47461300  0.50767000  0.65363200  1
  Ni  Ni13  1  0.62413400  0.12430100  0.62871800  1
  Ni  Ni14  1  0.90874400  0.57881600  0.59047000  1
  Ni  Ni15  1  0.70500000  0.49865700  0.81886100  1
  Ni  Ni16  1  0.17218400  0.63473000  0.10880200  1
  Ni  Ni17  1  0.73101000  0.89942900  0.09810900  1
  Ni  Ni18  1  0.31499300  0.21258300  0.59060300  1
  Ni  Ni19  1  0.66397900  0.78056400  0.59711100  1
  Ni  Ni20  1  0.77589200  0.96278600  0.36283900  1
  Ni  Ni21  1  0.18524600  0.89092400  0.95235600  1
  Ni  Ni22  1  0.42950900  0.50308700  0.30588300  1
  Ni  Ni23  1  0.19225700  0.21754400  0.30078600  1
  Cu  Cu24  1  0.24629700  0.38160300  0.85850100  1
  Cu  Cu25  1  0.51223300  0.46297100  0.02230200  1
  Cu  Cu26  1  0.47929500  0.05367900  0.94205400  1
  Cu  Cu27  1  0.16402600  0.64964600  0.65642200  1
  Cu  Cu28  1  0.69475800  0.40179100  0.49722700  1
  Cu  Cu29  1  0.43873400  0.72844600  0.88170700  1
  Cu  Cu30  1  0.35315900  0.88255100  0.67378700  1
  Cu  Cu31  1  0.70265000  0.61287500  0.24937500  1
  C  C32  1  0.09884300  0.28359800  0.88531400  1
  C  C33  1  0.51562900  0.64486900  0.20894300  1
  C  C34  1  0.29659300  0.48067800  0.03471800  1
  C  C35  1  0.70090100  0.40014900  0.97911400  1
  C  C36  1  0.69850500  0.29783600  0.73537200  1
  C  C37  1  0.98571200  0.14145200  0.67204300  1
  C  C38  1  0.35837700  0.36273200  0.69891200  1
  C  C39  1  0.29269500  0.78033100  0.07290500  1
  C  C40  1  0.85017300  0.75331300  0.67365900  1
  C  C41  1  0.17715900  0.22436600  0.11712100  1
  C  C42  1  0.88538000  0.52826000  0.80026600  1
  C  C43  1  0.52255300  0.53389900  0.84864100  1
  C  C44  1  0.18646700  0.83040000  0.51926200  1
  C  C45  1  0.60826500  0.95269000  0.25099500  1
  C  C46  1  0.32766600  0.32668300  0.29634000  1
  C  C47  1  0.24626900  0.07478000  0.65772800  1
  C  C48  1  0.77063800  0.44075600  0.32048800  1
  C  C49  1  0.08611000  0.81001400  0.80524700  1
  C  C50  1  0.70709100  0.96316200  0.53696500  1
  C  C51  1  0.81728000  0.81965900  0.94187000  1
  C  C52  1  0.12426900  0.46763800  0.72729200  1
  C  C53  1  0.45785100  0.13528400  0.53373200  1
  C  C54  1  0.64585000  0.58077300  0.65339600  1
  C  C55  1  0.01500300  0.20958300  0.27309200  1
  C  C56  1  0.41903100  0.07383300  0.12510000  1
  C  C57  1  0.59422000  0.08045500  0.80052700  1
  C  C58  1  0.35402200  0.66874500  0.70155500  1
  C  C59  1  0.30288500  0.67122200  0.34668200  1
  C  C60  1  0.19542100  0.26968100  0.48496300  1
  C  C61  1  0.70456700  0.18898000  0.37603400  1
  C  C62  1  0.04073800  0.61183000  0.48963300  1
  C  C63  1  0.87935800  0.38601800  0.56902700  1
  C  C64  1  0.51569100  0.35516100  0.18038100  1
  C  C65  1  0.79647600  0.77495800  0.23804200  1
  C  C66  1  0.07447600  0.77939000  0.22981400  1
  C  C67  1  0.96287000  0.97170000  0.41893100  1
  C  C68  1  0.39184400  0.24618800  0.92969900  1
  C  C69  1  0.84659200  0.03148800  0.20805400  1
  C  C70  1  0.12669700  0.52146600  0.22683700  1
  C  C71  1  0.47461600  0.83023000  0.53101800  1
  C  C72  1  0.34436000  0.92653700  0.86597400  1
  C  C73  1  0.64495000  0.10785600  0.04952100  1
  C  C74  1  0.22389400  0.01768100  0.31913300  1
  C  C75  1  0.50407400  0.45505700  0.47087200  1
  C  C76  1  0.06374900  0.63631600  0.97462400  1
  C  C77  1  0.86433500  0.15401900  0.93738100  1
  C  C78  1  0.06668300  0.98809100  0.05989500  1
  C  C79  1  0.55921200  0.83252900  0.01291200  1
