# generated using pymatgen
data_CuNiC5
_symmetry_space_group_name_H-M   'P 1'
_cell_length_a   7.22848238
_cell_length_b   7.22848238
_cell_length_c   5.95886750
_cell_angle_alpha   66.67577668
_cell_angle_beta   66.67577668
_cell_angle_gamma   27.87473392
_symmetry_Int_Tables_number   1
_chemical_formula_structural   CuNiC5
_chemical_formula_sum   'Cu1 Ni1 C5'
_cell_volume   132.90794061
_cell_formula_units_Z   1
loop_
 _symmetry_equiv_pos_site_id
 _symmetry_equiv_pos_as_xyz
  1  'x, y, z'
loop_
 _atom_site_type_symbol
 _atom_site_label
 _atom_site_symmetry_multiplicity
 _atom_site_fract_x
 _atom_site_fract_y
 _atom_site_fract_z
 _atom_site_occupancy
  C  C0  1  0.24879700  0.24879700  0.78100100  1
  Ni  Ni1  1  0.75169000  0.75169000  0.23051300  1
  Cu  Cu2  1  0.49909500  0.49909500  0.50440500  1
  C  C3  1  0.36383800  0.36383800  0.97866400  1
  C  C4  1  0.63506700  0.63506700  0.02376100  1
  C  C5  1  0.85088400  0.85088400  0.47817500  1
  C  C6  1  0.15062900  0.15062900  0.50348100  1
