# generated using pymatgen
data_Cu9(Ni2C3)2
_symmetry_space_group_name_H-M   'P 1'
_cell_length_a   13.08592700
_cell_length_b   5.39602700
_cell_length_c   6.58808562
_cell_angle_alpha   87.21046145
_cell_angle_beta   90.00000000
_cell_angle_gamma   90.00000000
_symmetry_Int_Tables_number   1
_chemical_formula_structural   Cu9(Ni2C3)2
_chemical_formula_sum   'Cu18 Ni8 C12'
_cell_volume   464.64676216
_cell_formula_units_Z   2
loop_
 _symmetry_equiv_pos_site_id
 _symmetry_equiv_pos_as_xyz
  1  'x, y, z'
loop_
 _atom_site_type_symbol
 _atom_site_label
 _atom_site_symmetry_multiplicity
 _atom_site_fract_x
 _atom_site_fract_y
 _atom_site_fract_z
 _atom_site_occupancy
  C  C0  1  0.05417600  0.74638300  0.82700800  1
  C  C1  1  0.55417700  0.25361700  0.17299200  1
  C  C2  1  0.98096100  0.98952600  0.33353300  1
  C  C3  1  0.06228300  0.45017600  0.42713600  1
  C  C4  1  0.56228300  0.54982400  0.57286300  1
  C  C5  1  0.48096100  0.01047400  0.66646700  1
  C  C6  1  0.37932400  0.52006000  0.60511200  1
  C  C7  1  0.87932400  0.47994000  0.39488800  1
  C  C8  1  0.83190000  0.41850100  0.87683300  1
  C  C9  1  0.06143200  0.24187700  0.98330500  1
  C  C10  1  0.56143200  0.75812300  0.01669500  1
  C  C11  1  0.33190000  0.58149900  0.12316700  1
  Ni  Ni12  1  0.51805100  0.81835800  0.89066400  1
  Ni  Ni13  1  0.01805100  0.18164200  0.10933600  1
  Ni  Ni14  1  0.02179900  0.76167400  0.54767000  1
  Ni  Ni15  1  0.52179900  0.23832600  0.45233000  1
  Ni  Ni16  1  0.73453900  0.16887800  0.81714900  1
  Ni  Ni17  1  0.27018700  0.37242400  0.76792500  1
  Ni  Ni18  1  0.77018700  0.62757600  0.23207500  1
  Ni  Ni19  1  0.23453900  0.83112200  0.18285100  1
  Cu  Cu20  1  0.98939400  0.74598000  0.75246900  1
  Cu  Cu21  1  0.48939400  0.25402000  0.24753100  1
  Cu  Cu22  1  0.94695100  0.91222900  0.45619100  1
  Cu  Cu23  1  0.99639100  0.50792600  0.47603100  1
  Cu  Cu24  1  0.49639100  0.49207400  0.52396900  1
  Cu  Cu25  1  0.44695100  0.08777100  0.54380900  1
  Cu  Cu26  1  0.72102100  0.97683900  0.73272600  1
  Cu  Cu27  1  0.30106100  0.52296900  0.60577000  1
  Cu  Cu28  1  0.80106100  0.47703100  0.39423000  1
  Cu  Cu29  1  0.22102100  0.02316100  0.26727400  1
  Cu  Cu30  1  0.67221300  0.29092900  0.91244000  1
  Cu  Cu31  1  0.33116000  0.32953100  0.90813800  1
  Cu  Cu32  1  0.83116000  0.67046900  0.09186200  1
  Cu  Cu33  1  0.17221300  0.70907100  0.08756000  1
  Cu  Cu34  1  0.83379300  0.26247100  0.80253500  1
  Cu  Cu35  1  0.18193800  0.29769000  0.75662600  1
  Cu  Cu36  1  0.68193800  0.70231000  0.24337400  1
  Cu  Cu37  1  0.33379300  0.73752900  0.19746500  1
