# generated using pymatgen
data_CuNi2C13
_symmetry_space_group_name_H-M   'P 1'
_cell_length_a   5.76072777
_cell_length_b   5.84704703
_cell_length_c   9.74518507
_cell_angle_alpha   80.99259096
_cell_angle_beta   89.62683273
_cell_angle_gamma   60.57412534
_symmetry_Int_Tables_number   1
_chemical_formula_structural   CuNi2C13
_chemical_formula_sum   'Cu2 Ni4 C26'
_cell_volume   281.42963825
_cell_formula_units_Z   2
loop_
 _symmetry_equiv_pos_site_id
 _symmetry_equiv_pos_as_xyz
  1  'x, y, z'
loop_
 _atom_site_type_symbol
 _atom_site_label
 _atom_site_symmetry_multiplicity
 _atom_site_fract_x
 _atom_site_fract_y
 _atom_site_fract_z
 _atom_site_occupancy
  C  C0  1  0.37428900  0.25109800  0.24949800  1
  C  C1  1  0.87570700  0.24890800  0.25049800  1
  C  C2  1  0.12500000  0.75000100  0.75000000  1
  C  C3  1  0.62500000  0.75000100  0.75000100  1
  C  C4  1  0.87581300  0.75001400  0.24954400  1
  C  C5  1  0.37418600  0.74998700  0.25045500  1
  C  C6  1  0.74844800  0.99820600  0.48838600  1
  C  C7  1  0.24722400  0.00173500  0.49093100  1
  C  C8  1  0.00277600  0.49826600  0.00906900  1
  C  C9  1  0.50154800  0.50179700  0.01161400  1
  Ni  Ni10  1  0.51222300  0.97913000  0.00769900  1
  Ni  Ni11  1  0.73778000  0.52086800  0.49230000  1
  Ni  Ni12  1  0.01357300  0.98130700  0.00705300  1
  Ni  Ni13  1  0.23642500  0.51869600  0.49294400  1
  Cu  Cu14  1  0.62500000  0.25000200  0.75000100  1
  Cu  Cu15  1  0.12499900  0.25000100  0.75000100  1
  C  C16  1  0.19818400  0.11032000  0.11066900  1
  C  C17  1  0.69432800  0.11464200  0.10814200  1
  C  C18  1  0.05181800  0.38968000  0.38933000  1
  C  C19  1  0.55567100  0.38535800  0.39185600  1
  C  C20  1  0.07434800  0.84997800  0.38610700  1
  C  C21  1  0.57226900  0.85001300  0.38585100  1
  C  C22  1  0.67773400  0.64998200  0.11415000  1
  C  C23  1  0.17565600  0.65001300  0.11389600  1
  C  C24  1  0.93537000  0.62046800  0.61325400  1
  C  C25  1  0.43952100  0.61213400  0.61619500  1
  C  C26  1  0.81047600  0.88786800  0.88380700  1
  C  C27  1  0.31463200  0.87953300  0.88674700  1
  C  C28  1  0.84342500  0.34094500  0.87132700  1
  C  C29  1  0.32869300  0.34189800  0.86677700  1
  C  C30  1  0.40657800  0.15905300  0.62867300  1
  C  C31  1  0.92130900  0.15809900  0.63322500  1
