# generated using pymatgen
data_CuNi2C13
_symmetry_space_group_name_H-M   'P 1'
_cell_length_a   2.89305385
_cell_length_b   9.79530369
_cell_length_c   10.06197443
_cell_angle_alpha   101.25183461
_cell_angle_beta   89.59135275
_cell_angle_gamma   90.57945947
_symmetry_Int_Tables_number   1
_chemical_formula_structural   CuNi2C13
_chemical_formula_sum   'Cu2 Ni4 C26'
_cell_volume   279.64083233
_cell_formula_units_Z   2
loop_
 _symmetry_equiv_pos_site_id
 _symmetry_equiv_pos_as_xyz
  1  'x, y, z'
loop_
 _atom_site_type_symbol
 _atom_site_label
 _atom_site_symmetry_multiplicity
 _atom_site_fract_x
 _atom_site_fract_y
 _atom_site_fract_z
 _atom_site_occupancy
  C  C0  1  0.99999800  0.49999800  0.25000100  1
  C  C1  1  0.49999500  0.99999700  0.75000200  1
  C  C2  1  0.00191400  0.24022400  0.86579100  1
  C  C3  1  0.50114000  0.74079300  0.36482600  1
  C  C4  1  0.49885200  0.25920700  0.13516600  1
  C  C5  1  0.99807800  0.75977400  0.63420300  1
  C  C6  1  0.48809800  0.75973700  0.87089800  1
  C  C7  1  0.98950800  0.25678400  0.36777000  1
  C  C8  1  0.01048500  0.74321700  0.13222300  1
  C  C9  1  0.51189200  0.24026500  0.62909500  1
  Ni  Ni10  1  0.99802100  0.99989800  0.99648900  1
  Ni  Ni11  1  0.00200400  0.00010200  0.50351100  1
  Ni  Ni12  1  0.49042400  0.49795600  0.48989600  1
  Ni  Ni13  1  0.50957700  0.50203800  0.01010000  1
  Cu  Cu14  1  0.49999800  0.00000000  0.25000200  1
  Cu  Cu15  1  0.99999700  0.50000100  0.75000500  1
  C  C16  1  0.50257000  0.11378000  0.95106200  1
  C  C17  1  0.99387200  0.61282400  0.44652200  1
  C  C18  1  0.00613200  0.38717400  0.05348200  1
  C  C19  1  0.49744000  0.88622100  0.54894400  1
  C  C20  1  0.01468900  0.60923400  0.94422100  1
  C  C21  1  0.50526000  0.10480500  0.43375200  1
  C  C22  1  0.49474700  0.89519700  0.06625200  1
  C  C23  1  0.98531600  0.39076300  0.55577900  1
  C  C24  1  0.50597700  0.61866300  0.17484100  1
  C  C25  1  0.00515300  0.11738700  0.66959000  1
  C  C26  1  0.49402300  0.38133500  0.32515700  1
  C  C27  1  0.99484900  0.88262400  0.83041900  1
  C  C28  1  0.47568300  0.61336200  0.68535500  1
  C  C29  1  0.00269800  0.10754600  0.19018700  1
  C  C30  1  0.52431300  0.38663500  0.81464600  1
  C  C31  1  0.99729700  0.89245700  0.30981600  1
