# generated using pymatgen
data_Cu4Ni2C13
_symmetry_space_group_name_H-M   'P 1'
_cell_length_a   5.74087083
_cell_length_b   5.86670007
_cell_length_c   13.09671000
_cell_angle_alpha   90.00000000
_cell_angle_beta   90.00000000
_cell_angle_gamma   107.60439241
_symmetry_Int_Tables_number   1
_chemical_formula_structural   Cu4Ni2C13
_chemical_formula_sum   'Cu8 Ni4 C26'
_cell_volume   420.43909308
_cell_formula_units_Z   2
loop_
 _symmetry_equiv_pos_site_id
 _symmetry_equiv_pos_as_xyz
  1  'x, y, z'
loop_
 _atom_site_type_symbol
 _atom_site_label
 _atom_site_symmetry_multiplicity
 _atom_site_fract_x
 _atom_site_fract_y
 _atom_site_fract_z
 _atom_site_occupancy
  C  C0  1  0.22984100  0.56155400  0.12428900  1
  C  C1  1  0.77015900  0.43844600  0.87571100  1
  C  C2  1  0.27015900  0.43844600  0.62428900  1
  C  C3  1  0.72984100  0.56155400  0.37571100  1
  C  C4  1  0.00000000  0.00000000  0.00000000  1
  C  C5  1  0.50000000  0.00000000  0.50000000  1
  Ni  Ni6  1  0.06553500  0.21625400  0.37938800  1
  Ni  Ni7  1  0.93446500  0.78374600  0.62061200  1
  Ni  Ni8  1  0.43446500  0.78374600  0.87938800  1
  Ni  Ni9  1  0.56553500  0.21625400  0.12061200  1
  Cu  Cu10  1  0.00101100  0.10022200  0.79314000  1
  Cu  Cu11  1  0.99898900  0.89977800  0.20686000  1
  Cu  Cu12  1  0.49898900  0.89977800  0.29314000  1
  Cu  Cu13  1  0.50101100  0.10022200  0.70686000  1
  Cu  Cu14  1  0.29771000  0.70465900  0.35379700  1
  Cu  Cu15  1  0.70229000  0.29534100  0.64620300  1
  Cu  Cu16  1  0.20229000  0.29534100  0.85379700  1
  Cu  Cu17  1  0.79771000  0.70465900  0.14620300  1
  C  C18  1  0.33576400  0.23771500  0.03901800  1
  C  C19  1  0.66423600  0.76228500  0.96098200  1
  C  C20  1  0.16423600  0.76228500  0.53901800  1
  C  C21  1  0.83576400  0.23771500  0.46098200  1
  C  C22  1  0.49622100  0.94237100  0.17760200  1
  C  C23  1  0.50377900  0.05762900  0.82239800  1
  C  C24  1  0.00377900  0.05762900  0.67760200  1
  C  C25  1  0.99622100  0.94237100  0.32239800  1
  C  C26  1  0.33541200  0.27557100  0.44850100  1
  C  C27  1  0.66458800  0.72442900  0.55149900  1
  C  C28  1  0.16458800  0.72442900  0.94850100  1
  C  C29  1  0.83541200  0.27557100  0.05149900  1
  C  C30  1  0.53442000  0.18240700  0.63688500  1
  C  C31  1  0.46558000  0.81759300  0.36311500  1
  C  C32  1  0.96558000  0.81759300  0.13688500  1
  C  C33  1  0.03442000  0.18240700  0.86311500  1
  C  C34  1  0.08068100  0.44779600  0.29537100  1
  C  C35  1  0.91931900  0.55220400  0.70462900  1
  C  C36  1  0.41931900  0.55220400  0.79537100  1
  C  C37  1  0.58068100  0.44779600  0.20462900  1
