# generated using pymatgen
data_CuNiC62
_symmetry_space_group_name_H-M   'P 1'
_cell_length_a   8.56464300
_cell_length_b   8.56464300
_cell_length_c   8.57429700
_cell_angle_alpha   90.00000000
_cell_angle_beta   90.00000000
_cell_angle_gamma   90.00000000
_symmetry_Int_Tables_number   1
_chemical_formula_structural   CuNiC62
_chemical_formula_sum   'Cu1 Ni1 C62'
_cell_volume   628.95134859
_cell_formula_units_Z   1
loop_
 _symmetry_equiv_pos_site_id
 _symmetry_equiv_pos_as_xyz
  1  'x, y, z'
loop_
 _atom_site_type_symbol
 _atom_site_label
 _atom_site_symmetry_multiplicity
 _atom_site_fract_x
 _atom_site_fract_y
 _atom_site_fract_z
 _atom_site_occupancy
  C  C0  1  0.00000000  0.50000000  0.00000000  1
  C  C1  1  0.50000000  0.00000000  0.00000000  1
  C  C2  1  0.00000000  0.00000000  0.50000000  1
  C  C3  1  0.00000000  0.50000000  0.50000000  1
  C  C4  1  0.50000000  0.00000000  0.50000000  1
  C  C5  1  0.50000000  0.50000000  0.50000000  1
  C  C6  1  0.24841100  0.24841100  0.00000000  1
  C  C7  1  0.24841100  0.75158900  0.00000000  1
  C  C8  1  0.75158900  0.24841100  0.00000000  1
  C  C9  1  0.75158900  0.75158900  0.00000000  1
  C  C10  1  0.24992900  0.24992900  0.50000000  1
  C  C11  1  0.24992900  0.75007100  0.50000000  1
  C  C12  1  0.75007100  0.24992900  0.50000000  1
  C  C13  1  0.75007100  0.75007100  0.50000000  1
  C  C14  1  0.00000000  0.24993000  0.25030300  1
  C  C15  1  0.00000000  0.75007000  0.25030300  1
  C  C16  1  0.50000000  0.24761900  0.25227100  1
  C  C17  1  0.50000000  0.75238100  0.25227100  1
  C  C18  1  0.00000000  0.24993000  0.74969700  1
  C  C19  1  0.00000000  0.75007000  0.74969700  1
  C  C20  1  0.50000000  0.24761900  0.74772900  1
  C  C21  1  0.50000000  0.75238100  0.74772900  1
  C  C22  1  0.24993000  0.00000000  0.25030300  1
  C  C23  1  0.24761900  0.50000000  0.25227100  1
  C  C24  1  0.75007000  0.00000000  0.25030300  1
  C  C25  1  0.75238100  0.50000000  0.25227100  1
  C  C26  1  0.24993000  0.00000000  0.74969700  1
  C  C27  1  0.24761900  0.50000000  0.74772900  1
  C  C28  1  0.75007000  0.00000000  0.74969700  1
  C  C29  1  0.75238100  0.50000000  0.74772900  1
  Ni  Ni30  1  0.50000000  0.50000000  0.00000000  1
  Cu  Cu31  1  0.00000000  0.00000000  0.00000000  1
  C  C32  1  0.00000000  0.00000000  0.25607000  1
  C  C33  1  0.00000000  0.50000000  0.25205500  1
  C  C34  1  0.50000000  0.00000000  0.25205500  1
  C  C35  1  0.50000000  0.50000000  0.26378900  1
  C  C36  1  0.00000000  0.00000000  0.74393000  1
  C  C37  1  0.00000000  0.50000000  0.74794500  1
  C  C38  1  0.50000000  0.00000000  0.74794500  1
  C  C39  1  0.50000000  0.50000000  0.73621100  1
  C  C40  1  0.25026200  0.25026200  0.24915700  1
  C  C41  1  0.25026200  0.74973800  0.24915700  1
  C  C42  1  0.74973800  0.25026200  0.24915700  1
  C  C43  1  0.74973800  0.74973800  0.24915700  1
  C  C44  1  0.25026200  0.25026200  0.75084300  1
  C  C45  1  0.25026200  0.74973800  0.75084300  1
  C  C46  1  0.74973800  0.25026200  0.75084300  1
  C  C47  1  0.74973800  0.74973800  0.75084300  1
  C  C48  1  0.00000000  0.25137500  0.00000000  1
  C  C49  1  0.00000000  0.74862500  0.00000000  1
  C  C50  1  0.50000000  0.23643800  0.00000000  1
  C  C51  1  0.50000000  0.76356200  0.00000000  1
  C  C52  1  0.00000000  0.25034300  0.50000000  1
  C  C53  1  0.00000000  0.74965700  0.50000000  1
  C  C54  1  0.50000000  0.24818000  0.50000000  1
  C  C55  1  0.50000000  0.75182000  0.50000000  1
  C  C56  1  0.25137500  0.00000000  0.00000000  1
  C  C57  1  0.23643800  0.50000000  0.00000000  1
  C  C58  1  0.74862500  0.00000000  0.00000000  1
  C  C59  1  0.76356200  0.50000000  0.00000000  1
  C  C60  1  0.25034300  0.00000000  0.50000000  1
  C  C61  1  0.24818000  0.50000000  0.50000000  1
  C  C62  1  0.74965700  0.00000000  0.50000000  1
  C  C63  1  0.75182000  0.50000000  0.50000000  1
