# generated using pymatgen
data_Cu3(Ni3C2)4
_symmetry_space_group_name_H-M   'P 1'
_cell_length_a   7.18557000
_cell_length_b   7.23593709
_cell_length_c   7.46379676
_cell_angle_alpha   117.93817175
_cell_angle_beta   95.77554343
_cell_angle_gamma   107.36989457
_symmetry_Int_Tables_number   1
_chemical_formula_structural   Cu3(Ni3C2)4
_chemical_formula_sum   'Cu3 Ni12 C8'
_cell_volume   313.61825672
_cell_formula_units_Z   1
loop_
 _symmetry_equiv_pos_site_id
 _symmetry_equiv_pos_as_xyz
  1  'x, y, z'
loop_
 _atom_site_type_symbol
 _atom_site_label
 _atom_site_symmetry_multiplicity
 _atom_site_fract_x
 _atom_site_fract_y
 _atom_site_fract_z
 _atom_site_occupancy
  C  C0  1  0.51092000  0.03935600  0.11559300  1
  Ni  Ni1  1  0.05466100  0.99633500  0.74255800  1
  Ni  Ni2  1  0.59772500  0.83337500  0.84617500  1
  Ni  Ni3  1  0.04265600  0.04073100  0.07146600  1
  Ni  Ni4  1  0.26628500  0.47066900  0.83100900  1
  Ni  Ni5  1  0.13616600  0.88224300  0.56022900  1
  Ni  Ni6  1  0.03708500  0.67103100  0.49635700  1
  Ni  Ni7  1  0.29079600  0.76928000  0.53569800  1
  Ni  Ni8  1  0.80492100  0.24034400  0.33450500  1
  Ni  Ni9  1  0.73486300  0.70311800  0.21720200  1
  Ni  Ni10  1  0.95283200  0.08793000  0.05311800  1
  Ni  Ni11  1  0.13500000  0.20393500  0.23323500  1
  Ni  Ni12  1  0.99719200  0.88593100  0.78574300  1
  Cu  Cu13  1  0.21074500  0.60007000  0.81136000  1
  Cu  Cu14  1  0.16338200  0.73698600  0.58675800  1
  Cu  Cu15  1  0.71647200  0.15419800  0.25006400  1
  C  C16  1  0.34109100  0.85515400  0.28468700  1
  C  C17  1  0.82042800  0.59589500  0.33692500  1
  C  C18  1  0.58889300  0.80182300  0.73349600  1
  C  C19  1  0.22776400  0.19541900  0.36489600  1
  C  C20  1  0.60775700  0.86956300  0.03993300  1
  C  C21  1  0.35661100  0.24887800  0.88474300  1
  C  C22  1  0.01304800  0.50042200  0.84408300  1
