# generated using pymatgen
data_Cu5(NiC5)2
_symmetry_space_group_name_H-M   'P 1'
_cell_length_a   9.68253357
_cell_length_b   9.68253357
_cell_length_c   11.36584126
_cell_angle_alpha   71.30087471
_cell_angle_beta   71.30087471
_cell_angle_gamma   55.63929385
_symmetry_Int_Tables_number   1
_chemical_formula_structural   Cu5(NiC5)2
_chemical_formula_sum   'Cu10 Ni4 C20'
_cell_volume   819.79690464
_cell_formula_units_Z   2
loop_
 _symmetry_equiv_pos_site_id
 _symmetry_equiv_pos_as_xyz
  1  'x, y, z'
loop_
 _atom_site_type_symbol
 _atom_site_label
 _atom_site_symmetry_multiplicity
 _atom_site_fract_x
 _atom_site_fract_y
 _atom_site_fract_z
 _atom_site_occupancy
  C  C0  1  0.21794900  0.79197100  0.52136100  1
  C  C1  1  0.20802900  0.78205100  0.97863900  1
  C  C2  1  0.78205100  0.20802900  0.47863900  1
  C  C3  1  0.79197100  0.21794900  0.02136100  1
  C  C4  1  0.46790600  0.53209400  0.25000000  1
  C  C5  1  0.53209400  0.46790600  0.75000000  1
  Ni  Ni6  1  0.75357700  0.84254000  0.85483300  1
  Ni  Ni7  1  0.15746000  0.24642300  0.64516700  1
  Ni  Ni8  1  0.24642300  0.15746000  0.14516700  1
  Ni  Ni9  1  0.84254000  0.75357700  0.35483300  1
  C  C10  1  0.06120900  0.64366600  0.63547800  1
  C  C11  1  0.35633400  0.93879100  0.86452200  1
  C  C12  1  0.93879100  0.35633400  0.36452200  1
  C  C13  1  0.64366600  0.06120900  0.13547800  1
  C  C14  1  0.35999600  0.94402200  0.46423600  1
  C  C15  1  0.05597800  0.64000400  0.03576400  1
  C  C16  1  0.64000400  0.05597800  0.53576400  1
  C  C17  1  0.94402200  0.35999600  0.96423600  1
  C  C18  1  0.28142900  0.42333200  0.33149200  1
  C  C19  1  0.57666800  0.71857100  0.16850800  1
  C  C20  1  0.71857100  0.57666800  0.66850800  1
  C  C21  1  0.42333200  0.28142900  0.83149200  1
  C  C22  1  0.09053000  0.90947000  0.75000000  1
  C  C23  1  0.90947000  0.09053000  0.25000000  1
  Cu  Cu24  1  0.29058800  0.71134000  0.37769600  1
  Cu  Cu25  1  0.28866000  0.70941200  0.12230400  1
  Cu  Cu26  1  0.70941200  0.28866000  0.62230400  1
  Cu  Cu27  1  0.71134000  0.29058800  0.87769600  1
  Cu  Cu28  1  0.39656300  0.60620100  0.62516600  1
  Cu  Cu29  1  0.39379900  0.60343700  0.87483400  1
  Cu  Cu30  1  0.60343700  0.39379900  0.37483400  1
  Cu  Cu31  1  0.60620100  0.39656300  0.12516600  1
  Cu  Cu32  1  0.00000000  0.00000000  0.50000000  1
  Cu  Cu33  1  0.00000000  0.00000000  0.00000000  1
