# generated using pymatgen
data_Cu(NiC2)6
_symmetry_space_group_name_H-M   'P 1'
_cell_length_a   8.12779976
_cell_length_b   8.12779976
_cell_length_c   7.16744100
_cell_angle_alpha   90.00000000
_cell_angle_beta   90.00000000
_cell_angle_gamma   119.99999805
_symmetry_Int_Tables_number   1
_chemical_formula_structural   Cu(NiC2)6
_chemical_formula_sum   'Cu2 Ni12 C24'
_cell_volume   410.05372186
_cell_formula_units_Z   2
loop_
 _symmetry_equiv_pos_site_id
 _symmetry_equiv_pos_as_xyz
  1  'x, y, z'
loop_
 _atom_site_type_symbol
 _atom_site_label
 _atom_site_symmetry_multiplicity
 _atom_site_fract_x
 _atom_site_fract_y
 _atom_site_fract_z
 _atom_site_occupancy
  Ni  Ni0  1  0.74086600  0.00000000  0.00000000  1
  Ni  Ni1  1  0.00000000  0.74086600  0.00000000  1
  Ni  Ni2  1  0.74086600  0.00000000  0.50000000  1
  Ni  Ni3  1  0.25913400  0.25913400  0.00000000  1
  Ni  Ni4  1  0.00000000  0.74086600  0.50000000  1
  Ni  Ni5  1  0.25913400  0.25913400  0.50000000  1
  Ni  Ni6  1  0.42632400  0.04883900  0.25000000  1
  Ni  Ni7  1  0.95116100  0.37748500  0.25000000  1
  Ni  Ni8  1  0.04883900  0.42632400  0.75000000  1
  Ni  Ni9  1  0.62251500  0.57367600  0.25000000  1
  Ni  Ni10  1  0.37748500  0.95116100  0.75000000  1
  Ni  Ni11  1  0.57367600  0.62251500  0.75000000  1
  C  C12  1  0.33333300  0.66666700  0.05268100  1
  C  C13  1  0.33333300  0.66666700  0.44731900  1
  C  C14  1  0.66666700  0.33333300  0.94731900  1
  C  C15  1  0.66666700  0.33333300  0.55268100  1
  Cu  Cu16  1  0.00000000  0.00000000  0.25000000  1
  Cu  Cu17  1  0.00000000  0.00000000  0.75000000  1
  C  C18  1  0.28270100  0.00000000  0.00000000  1
  C  C19  1  0.00000000  0.28270100  0.00000000  1
  C  C20  1  0.28270100  0.00000000  0.50000000  1
  C  C21  1  0.71729900  0.71729900  0.00000000  1
  C  C22  1  0.00000000  0.28270100  0.50000000  1
  C  C23  1  0.71729900  0.71729900  0.50000000  1
  C  C24  1  0.40865700  0.29147800  0.25000000  1
  C  C25  1  0.70852200  0.11717900  0.25000000  1
  C  C26  1  0.29147800  0.40865700  0.75000000  1
  C  C27  1  0.88282100  0.59134300  0.25000000  1
  C  C28  1  0.11717900  0.70852200  0.75000000  1
  C  C29  1  0.59134300  0.88282100  0.75000000  1
  C  C30  1  0.11628200  0.23598700  0.25000000  1
  C  C31  1  0.76401300  0.88029500  0.25000000  1
  C  C32  1  0.23598700  0.11628200  0.75000000  1
  C  C33  1  0.11970500  0.88371800  0.25000000  1
  C  C34  1  0.88029500  0.76401300  0.75000000  1
  C  C35  1  0.88371800  0.11970500  0.75000000  1
  C  C36  1  0.00000000  0.00000000  0.00000000  1
  C  C37  1  0.00000000  0.00000000  0.50000000  1
