# generated using pymatgen
data_Cu14NiC24
_symmetry_space_group_name_H-M   'P 1'
_cell_length_a   8.85167123
_cell_length_b   8.99241814
_cell_length_c   8.94237160
_cell_angle_alpha   73.68982495
_cell_angle_beta   105.33475156
_cell_angle_gamma   106.29707489
_symmetry_Int_Tables_number   1
_chemical_formula_structural   Cu14NiC24
_chemical_formula_sum   'Cu14 Ni1 C24'
_cell_volume   642.24549348
_cell_formula_units_Z   1
loop_
 _symmetry_equiv_pos_site_id
 _symmetry_equiv_pos_as_xyz
  1  'x, y, z'
loop_
 _atom_site_type_symbol
 _atom_site_label
 _atom_site_symmetry_multiplicity
 _atom_site_fract_x
 _atom_site_fract_y
 _atom_site_fract_z
 _atom_site_occupancy
  Ni  Ni0  1  0.99082456  0.12602063  0.86362339  1
  Cu  Cu1  1  0.77605714  0.19869098  0.58458935  1
  Cu  Cu2  1  0.22014044  0.40722387  0.80244043  1
  Cu  Cu3  1  0.65947947  0.82671876  0.83229265  1
  Cu  Cu4  1  0.47808577  0.99643239  0.48621809  1
  Cu  Cu5  1  0.07532048  0.83373758  0.93551540  1
  Cu  Cu6  1  0.26735673  0.76294619  0.72846140  1
  Cu  Cu7  1  0.43265268  0.58109078  0.59167909  1
  Cu  Cu8  1  0.57633701  0.41823717  0.42671668  1
  Cu  Cu9  1  0.72238489  0.26097129  0.22645690  1
  Cu  Cu10  1  0.93223163  0.06672160  0.16518785  1
  Cu  Cu11  1  0.00322891  0.50789500  0.49589010  1
  Cu  Cu12  1  0.83732042  0.65824180  0.17088485  1
  Cu  Cu13  1  0.16374048  0.83143780  0.33769866  1
  Cu  Cu14  1  0.51953575  0.50342671  0.01551157  1
  C  C15  1  0.48884343  0.15842745  0.84683101  1
  C  C16  1  0.84095910  0.49054651  0.83496947  1
  C  C17  1  0.16213073  0.17086318  0.49913888  1
  C  C18  1  0.82910171  0.83226373  0.50186776  1
  C  C19  1  0.17388679  0.49132427  0.17208441  1
  C  C20  1  0.50070080  0.83265557  0.17103651  1
  C  C21  1  0.81247693  0.22923026  0.83436842  1
  C  C22  1  0.57495349  0.44414004  0.82508268  1
  C  C23  1  0.88913265  0.10475934  0.45324724  1
  C  C24  1  0.17742734  0.16014700  0.76643989  1
  C  C25  1  0.85205707  0.77780432  0.76894557  1
  C  C26  1  0.47655412  0.87830149  0.90506455  1
  C  C27  1  0.11766196  0.54498390  0.89950713  1
  C  C28  1  0.42460315  0.18303767  0.55294971  1
  C  C29  1  0.81386270  0.56324093  0.56256133  1
  C  C30  1  0.52157946  0.08723829  0.12177564  1
  C  C31  1  0.19306419  0.44094689  0.44253069  1
  C  C32  1  0.90118769  0.47544703  0.10881597  1
  C  C33  1  0.55629467  0.81131979  0.43946685  1
  C  C34  1  0.14824151  0.23306375  0.22763528  1
  C  C35  1  0.76896697  0.84015185  0.22907963  1
  C  C36  1  0.44555148  0.56277408  0.19615817  1
  C  C37  1  0.10369888  0.89973787  0.52071008  1
  C  C38  1  0.23178980  0.76266527  0.16112672  1
