# generated using pymatgen
data_Cu10NiC36
_symmetry_space_group_name_H-M   'P 1'
_cell_length_a   3.97024032
_cell_length_b   12.90127572
_cell_length_c   12.93143167
_cell_angle_alpha   89.08625744
_cell_angle_beta   90.00000000
_cell_angle_gamma   90.00000000
_symmetry_Int_Tables_number   1
_chemical_formula_structural   Cu10NiC36
_chemical_formula_sum   'Cu10 Ni1 C36'
_cell_volume   662.27876730
_cell_formula_units_Z   1
loop_
 _symmetry_equiv_pos_site_id
 _symmetry_equiv_pos_as_xyz
  1  'x, y, z'
loop_
 _atom_site_type_symbol
 _atom_site_label
 _atom_site_symmetry_multiplicity
 _atom_site_fract_x
 _atom_site_fract_y
 _atom_site_fract_z
 _atom_site_occupancy
  C  C0  1  0.50000000  0.17863885  0.66304746  1
  C  C1  1  0.50000000  0.83866572  0.30011575  1
  C  C2  1  0.50000000  0.32456320  0.15462804  1
  C  C3  1  0.50000000  0.65458398  0.81978824  1
  C  C4  1  0.50000000  0.02435853  0.97197238  1
  C  C5  1  0.50000000  0.46593159  0.47507385  1
  Ni  Ni6  1  0.50000000  0.87350646  0.60712873  1
  Cu  Cu7  1  -0.00000000  0.00997211  0.49304822  1
  Cu  Cu8  1  0.00000000  0.49907543  0.99169750  1
  Cu  Cu9  1  -0.00000000  0.05813791  0.19601992  1
  Cu  Cu10  1  0.00000000  0.92576820  0.79283557  1
  Cu  Cu11  1  -0.00000000  0.78310855  0.06891694  1
  Cu  Cu12  1  -0.00000000  0.42930872  0.70031635  1
  Cu  Cu13  1  -0.00000000  0.22209424  0.91302589  1
  Cu  Cu14  1  0.00000000  0.57050050  0.27808055  1
  Cu  Cu15  1  -0.00000000  0.69655342  0.57244485  1
  Cu  Cu16  1  0.00000000  0.27743831  0.40279183  1
  C  C17  1  0.50000000  0.06912903  0.18676735  1
  C  C18  1  0.50000000  0.93485503  0.80929046  1
  C  C19  1  0.50000000  0.79236121  0.07077373  1
  C  C20  1  0.50000000  0.42802825  0.67570096  1
  C  C21  1  0.50000000  0.19328353  0.91782623  1
  C  C22  1  0.50000000  0.56819825  0.31951700  1
  C  C23  1  0.50000000  0.71950283  0.58755064  1
  C  C24  1  0.50000000  0.29981305  0.42703783  1
  C  C25  1  -0.00000000  0.70646177  0.21494287  1
  C  C26  1  -0.00000000  0.29090918  0.77846544  1
  C  C27  1  -0.00000000  0.79555603  0.72473033  1
  C  C28  1  -0.00000000  0.21159669  0.27662135  1
  C  C29  1  0.50000000  0.99563476  0.50974355  1
  C  C30  1  0.50000000  0.49631121  0.00312704  1
  C  C31  1  0.00000000  0.11306859  0.05064677  1
  C  C32  1  0.00000000  0.89235563  0.95414620  1
  C  C33  1  0.00000000  0.91737701  0.16163007  1
  C  C34  1  -0.00000000  0.39424410  0.54941987  1
  C  C35  1  -0.00000000  0.07057219  0.86304910  1
  C  C36  1  -0.00000000  0.61041749  0.45626241  1
  C  C37  1  0.00000000  0.58236061  0.66811772  1
  C  C38  1  -0.00000000  0.42703120  0.35896567  1
  C  C39  1  -0.00000000  0.00601943  0.34747057  1
  C  C40  1  -0.00000000  0.99691167  0.65928455  1
  C  C41  1  0.00000000  0.65560088  0.99236199  1
  C  C42  1  -0.00000000  0.49042202  0.84563900  1
  C  C43  1  -0.00000000  0.33638042  0.00375469  1
  C  C44  1  -0.00000000  0.49719905  0.15696661  1
  C  C45  1  -0.00000000  0.84795888  0.51925090  1
  C  C46  1  -0.00000000  0.16156830  0.50480001  1
