# generated using pymatgen
data_Cu4Ni3C2
_symmetry_space_group_name_H-M   'P 1'
_cell_length_a   8.22007600
_cell_length_b   5.72622600
_cell_length_c   6.81198109
_cell_angle_alpha   75.59600372
_cell_angle_beta   90.00000000
_cell_angle_gamma   90.00000000
_symmetry_Int_Tables_number   1
_chemical_formula_structural   Cu4Ni3C2
_chemical_formula_sum   'Cu8 Ni6 C4'
_cell_volume   310.56097884
_cell_formula_units_Z   2
loop_
 _symmetry_equiv_pos_site_id
 _symmetry_equiv_pos_as_xyz
  1  'x, y, z'
loop_
 _atom_site_type_symbol
 _atom_site_label
 _atom_site_symmetry_multiplicity
 _atom_site_fract_x
 _atom_site_fract_y
 _atom_site_fract_z
 _atom_site_occupancy
  C  C0  1  0.55056800  0.07706600  0.24867700  1
  C  C1  1  0.05056800  0.42293400  0.75132300  1
  C  C2  1  0.44943200  0.92293400  0.75132300  1
  C  C3  1  0.94943200  0.57706600  0.24867700  1
  Ni  Ni4  1  0.20595700  0.12160400  0.10610200  1
  Ni  Ni5  1  0.70595700  0.37839600  0.89389800  1
  Ni  Ni6  1  0.79404300  0.87839600  0.89389800  1
  Ni  Ni7  1  0.29404300  0.62160400  0.10610200  1
  Ni  Ni8  1  0.00000000  0.00000000  0.50000000  1
  Ni  Ni9  1  0.50000000  0.50000000  0.50000000  1
  Cu  Cu10  1  0.90004000  0.11910200  0.13419000  1
  Cu  Cu11  1  0.40004000  0.38089800  0.86581000  1
  Cu  Cu12  1  0.09996000  0.88089800  0.86581000  1
  Cu  Cu13  1  0.59996000  0.61910200  0.13419000  1
  Cu  Cu14  1  0.75016600  0.22862400  0.57327100  1
  Cu  Cu15  1  0.25016600  0.27137600  0.42672900  1
  Cu  Cu16  1  0.24983400  0.77137600  0.42672900  1
  Cu  Cu17  1  0.74983400  0.72862400  0.57327100  1
