# generated using pymatgen
data_Cu5NiC2
_symmetry_space_group_name_H-M   'P 1'
_cell_length_a   5.30286669
_cell_length_b   13.49580891
_cell_length_c   5.30224545
_cell_angle_alpha   90.02359703
_cell_angle_beta   59.96142776
_cell_angle_gamma   90.00568740
_symmetry_Int_Tables_number   1
_chemical_formula_structural   Cu5NiC2
_chemical_formula_sum   'Cu15 Ni3 C6'
_cell_volume   328.49677973
_cell_formula_units_Z   3
loop_
 _symmetry_equiv_pos_site_id
 _symmetry_equiv_pos_as_xyz
  1  'x, y, z'
loop_
 _atom_site_type_symbol
 _atom_site_label
 _atom_site_symmetry_multiplicity
 _atom_site_fract_x
 _atom_site_fract_y
 _atom_site_fract_z
 _atom_site_occupancy
  C  C0  1  0.30856600  0.82612300  0.35009200  1
  C  C1  1  0.67934900  0.66730800  0.65535800  1
  C  C2  1  0.68324100  0.15969800  0.67582800  1
  C  C3  1  0.00880600  0.49299200  0.97486000  1
  C  C4  1  0.98870600  0.00007500  0.00079500  1
  C  C5  1  0.33178200  0.33412600  0.34662700  1
  Ni  Ni6  1  0.02623300  0.74999800  0.54962500  1
  Ni  Ni7  1  0.09102900  0.41694100  0.69250400  1
  Ni  Ni8  1  0.88550600  0.08423600  0.75468300  1
  Cu  Cu9  1  0.99688300  0.25011500  0.41447400  1
  Cu  Cu10  1  0.25491500  0.91588600  0.66433500  1
  Cu  Cu11  1  0.74721600  0.58293600  0.92157600  1
  Cu  Cu12  1  0.60012200  0.75049100  0.39494600  1
  Cu  Cu13  1  0.42840300  0.75612500  0.97951700  1
  Cu  Cu14  1  0.25857200  0.42293900  0.09538800  1
  Cu  Cu15  1  0.72909400  0.08431700  0.33887800  1
  Cu  Cu16  1  0.67165100  0.41713100  0.26609100  1
  Cu  Cu17  1  0.31448600  0.08940700  0.92318800  1
  Cu  Cu18  1  0.08672200  0.92023000  0.25456300  1
  Cu  Cu19  1  0.91560600  0.57911000  0.32616300  1
  Cu  Cu20  1  0.58563200  0.25376400  0.99189100  1
  Cu  Cu21  1  0.42465500  0.24602200  0.58255500  1
  Cu  Cu22  1  0.65771100  0.91274200  0.09120300  1
  Cu  Cu23  1  0.32511400  0.58729000  0.75485900  1
