# generated using pymatgen
data_CuNi2C
_symmetry_space_group_name_H-M   'P 1'
_cell_length_a   12.06717500
_cell_length_b   8.49748200
_cell_length_c   10.79151466
_cell_angle_alpha   56.92232108
_cell_angle_beta   90.00000000
_cell_angle_gamma   90.00000000
_symmetry_Int_Tables_number   1
_chemical_formula_structural   CuNi2C
_chemical_formula_sum   'Cu8 Ni16 C8'
_cell_volume   927.22842127
_cell_formula_units_Z   8
loop_
 _symmetry_equiv_pos_site_id
 _symmetry_equiv_pos_as_xyz
  1  'x, y, z'
loop_
 _atom_site_type_symbol
 _atom_site_label
 _atom_site_symmetry_multiplicity
 _atom_site_fract_x
 _atom_site_fract_y
 _atom_site_fract_z
 _atom_site_occupancy
  C  C0  1  0.93137300  0.71902600  0.03309500  1
  C  C1  1  0.06862700  0.28097400  0.96690500  1
  C  C2  1  0.43137300  0.28097400  0.46690500  1
  C  C3  1  0.56862700  0.71902600  0.53309500  1
  C  C4  1  0.50953100  0.75787900  0.97979300  1
  C  C5  1  0.49046900  0.24212100  0.02020700  1
  C  C6  1  0.00953100  0.24212100  0.52020700  1
  C  C7  1  0.99046900  0.75787900  0.47979300  1
  Ni  Ni8  1  0.85560200  0.39165500  0.37608200  1
  Ni  Ni9  1  0.14439800  0.60834500  0.62391800  1
  Ni  Ni10  1  0.35560200  0.60834500  0.12391800  1
  Ni  Ni11  1  0.64439800  0.39165500  0.87608200  1
  Ni  Ni12  1  0.58323900  0.19479900  0.23028300  1
  Ni  Ni13  1  0.41676100  0.80520100  0.76971700  1
  Ni  Ni14  1  0.08323900  0.80520100  0.26971700  1
  Ni  Ni15  1  0.91676100  0.19479900  0.73028300  1
  Ni  Ni16  1  0.83394200  0.91947300  0.34408700  1
  Ni  Ni17  1  0.16605800  0.08052700  0.65591300  1
  Ni  Ni18  1  0.33394200  0.08052700  0.15591300  1
  Ni  Ni19  1  0.66605800  0.91947300  0.84408700  1
  Ni  Ni20  1  0.61652700  0.71702600  0.18209900  1
  Ni  Ni21  1  0.38347300  0.28297400  0.81790100  1
  Ni  Ni22  1  0.11652700  0.28297400  0.31790100  1
  Ni  Ni23  1  0.88347300  0.71702600  0.68209900  1
  Cu  Cu24  1  0.94389500  0.60804000  0.83664900  1
  Cu  Cu25  1  0.05610500  0.39196000  0.16335100  1
  Cu  Cu26  1  0.44389500  0.39196000  0.66335100  1
  Cu  Cu27  1  0.55610500  0.60804000  0.33664900  1
  Cu  Cu28  1  0.91591700  0.99026900  0.10890400  1
  Cu  Cu29  1  0.08408300  0.00973100  0.89109600  1
  Cu  Cu30  1  0.41591700  0.00973100  0.39109600  1
  Cu  Cu31  1  0.58408300  0.99026900  0.60890400  1
