# generated using pymatgen
data_CuNiC2
_symmetry_space_group_name_H-M   'P 1'
_cell_length_a   4.57853977
_cell_length_b   4.57853977
_cell_length_c   6.55722000
_cell_angle_alpha   90.00000000
_cell_angle_beta   90.00000000
_cell_angle_gamma   135.43276013
_symmetry_Int_Tables_number   1
_chemical_formula_structural   CuNiC2
_chemical_formula_sum   'Cu2 Ni2 C4'
_cell_volume   96.46140231
_cell_formula_units_Z   2
loop_
 _symmetry_equiv_pos_site_id
 _symmetry_equiv_pos_as_xyz
  1  'x, y, z'
loop_
 _atom_site_type_symbol
 _atom_site_label
 _atom_site_symmetry_multiplicity
 _atom_site_fract_x
 _atom_site_fract_y
 _atom_site_fract_z
 _atom_site_occupancy
  C  C0  1  0.85271600  0.14728400  0.05466100  1
  C  C1  1  0.14728400  0.85271600  0.94533900  1
  C  C2  1  0.14728400  0.85271600  0.55466100  1
  C  C3  1  0.85271600  0.14728400  0.44533900  1
  Ni  Ni4  1  0.26865400  0.73134600  0.25000000  1
  Ni  Ni5  1  0.73134600  0.26865400  0.75000000  1
  Cu  Cu6  1  0.55480700  0.44519300  0.25000000  1
  Cu  Cu7  1  0.44519300  0.55480700  0.75000000  1
