# generated using pymatgen
data_Cu(Ni10C11)3
_symmetry_space_group_name_H-M   'P 1'
_cell_length_a   8.59154300
_cell_length_b   8.59154300
_cell_length_c   8.53706400
_cell_angle_alpha   90.00000000
_cell_angle_beta   90.00000000
_cell_angle_gamma   90.00000000
_symmetry_Int_Tables_number   1
_chemical_formula_structural   Cu(Ni10C11)3
_chemical_formula_sum   'Cu1 Ni30 C33'
_cell_volume   630.16005927
_cell_formula_units_Z   1
loop_
 _symmetry_equiv_pos_site_id
 _symmetry_equiv_pos_as_xyz
  1  'x, y, z'
loop_
 _atom_site_type_symbol
 _atom_site_label
 _atom_site_symmetry_multiplicity
 _atom_site_fract_x
 _atom_site_fract_y
 _atom_site_fract_z
 _atom_site_occupancy
  C  C0  1  0.00000000  0.00000000  0.50000000  1
  Ni  Ni1  1  0.50000000  0.00000000  0.00000000  1
  Ni  Ni2  1  0.50000000  0.00000000  0.50000000  1
  Ni  Ni3  1  0.00000000  0.50000000  0.00000000  1
  Ni  Ni4  1  0.00000000  0.50000000  0.50000000  1
  Ni  Ni5  1  0.50000000  0.50000000  0.00000000  1
  Ni  Ni6  1  0.50000000  0.50000000  0.50000000  1
  Ni  Ni7  1  0.25331600  0.00000000  0.25019100  1
  Ni  Ni8  1  0.25331600  0.00000000  0.74980900  1
  Ni  Ni9  1  0.74668400  0.00000000  0.25019100  1
  Ni  Ni10  1  0.74668400  0.00000000  0.74980900  1
  Ni  Ni11  1  0.25007400  0.50000000  0.25109600  1
  Ni  Ni12  1  0.25007400  0.50000000  0.74890400  1
  Ni  Ni13  1  0.74992600  0.50000000  0.25109600  1
  Ni  Ni14  1  0.74992600  0.50000000  0.74890400  1
  Ni  Ni15  1  0.00000000  0.25331600  0.25019100  1
  Ni  Ni16  1  0.00000000  0.25331600  0.74980900  1
  Ni  Ni17  1  0.50000000  0.25007400  0.25109600  1
  Ni  Ni18  1  0.50000000  0.25007400  0.74890400  1
  Ni  Ni19  1  0.00000000  0.74668400  0.25019100  1
  Ni  Ni20  1  0.00000000  0.74668400  0.74980900  1
  Ni  Ni21  1  0.50000000  0.74992600  0.25109600  1
  Ni  Ni22  1  0.50000000  0.74992600  0.74890400  1
  Ni  Ni23  1  0.25036200  0.25036200  0.00000000  1
  Ni  Ni24  1  0.25149600  0.25149600  0.50000000  1
  Ni  Ni25  1  0.74963800  0.25036200  0.00000000  1
  Ni  Ni26  1  0.74850400  0.25149600  0.50000000  1
  Ni  Ni27  1  0.25036200  0.74963800  0.00000000  1
  Ni  Ni28  1  0.25149600  0.74850400  0.50000000  1
  Ni  Ni29  1  0.74963800  0.74963800  0.00000000  1
  Ni  Ni30  1  0.74850400  0.74850400  0.50000000  1
  Cu  Cu31  1  0.00000000  0.00000000  0.00000000  1
  C  C32  1  0.00000000  0.24546000  0.00000000  1
  C  C33  1  0.00000000  0.27307600  0.50000000  1
  C  C34  1  0.50000000  0.24918000  0.00000000  1
  C  C35  1  0.50000000  0.25395400  0.50000000  1
  C  C36  1  0.00000000  0.75454000  0.00000000  1
  C  C37  1  0.00000000  0.72692400  0.50000000  1
  C  C38  1  0.50000000  0.75082000  0.00000000  1
  C  C39  1  0.50000000  0.74604600  0.50000000  1
  C  C40  1  0.24913600  0.24913600  0.24950300  1
  C  C41  1  0.24913600  0.24913600  0.75049700  1
  C  C42  1  0.75086400  0.24913600  0.24950300  1
  C  C43  1  0.75086400  0.24913600  0.75049700  1
  C  C44  1  0.24913600  0.75086400  0.24950300  1
  C  C45  1  0.24913600  0.75086400  0.75049700  1
  C  C46  1  0.75086400  0.75086400  0.24950300  1
  C  C47  1  0.75086400  0.75086400  0.75049700  1
  C  C48  1  0.00000000  0.00000000  0.22115200  1
  C  C49  1  0.00000000  0.00000000  0.77884800  1
  C  C50  1  0.50000000  0.00000000  0.24353500  1
  C  C51  1  0.50000000  0.00000000  0.75646500  1
  C  C52  1  0.00000000  0.50000000  0.24353500  1
  C  C53  1  0.00000000  0.50000000  0.75646500  1
  C  C54  1  0.50000000  0.50000000  0.24818400  1
  C  C55  1  0.50000000  0.50000000  0.75181600  1
  C  C56  1  0.24546000  0.00000000  0.00000000  1
  C  C57  1  0.27307600  0.00000000  0.50000000  1
  C  C58  1  0.75454000  0.00000000  0.00000000  1
  C  C59  1  0.72692400  0.00000000  0.50000000  1
  C  C60  1  0.24918000  0.50000000  0.00000000  1
  C  C61  1  0.25395400  0.50000000  0.50000000  1
  C  C62  1  0.75082000  0.50000000  0.00000000  1
  C  C63  1  0.74604600  0.50000000  0.50000000  1
