# generated using pymatgen
data_Cu2NiC5
_symmetry_space_group_name_H-M   'P 1'
_cell_length_a   6.43662900
_cell_length_b   9.75573800
_cell_length_c   17.39528100
_cell_angle_alpha   90.00000000
_cell_angle_beta   90.00000000
_cell_angle_gamma   90.00000000
_symmetry_Int_Tables_number   1
_chemical_formula_structural   Cu2NiC5
_chemical_formula_sum   'Cu16 Ni8 C40'
_cell_volume   1092.32042542
_cell_formula_units_Z   8
loop_
 _symmetry_equiv_pos_site_id
 _symmetry_equiv_pos_as_xyz
  1  'x, y, z'
loop_
 _atom_site_type_symbol
 _atom_site_label
 _atom_site_symmetry_multiplicity
 _atom_site_fract_x
 _atom_site_fract_y
 _atom_site_fract_z
 _atom_site_occupancy
  C  C0  1  0.79555900  0.75000000  0.31648900  1
  C  C1  1  0.20444100  0.25000000  0.68351100  1
  C  C2  1  0.20444100  0.75000000  0.81648900  1
  C  C3  1  0.79555900  0.25000000  0.18351100  1
  C  C4  1  0.61057000  0.75000000  0.53867400  1
  C  C5  1  0.38943000  0.25000000  0.46132600  1
  C  C6  1  0.38943000  0.75000000  0.03867400  1
  C  C7  1  0.61057000  0.25000000  0.96132600  1
  Ni  Ni8  1  0.61176300  0.93132000  0.86312400  1
  Ni  Ni9  1  0.38823700  0.06868000  0.13687600  1
  Ni  Ni10  1  0.38823700  0.43132000  0.13687600  1
  Ni  Ni11  1  0.38823700  0.56868000  0.36312400  1
  Ni  Ni12  1  0.61176300  0.56868000  0.86312400  1
  Ni  Ni13  1  0.61176300  0.43132000  0.63687600  1
  Ni  Ni14  1  0.61176300  0.06868000  0.63687600  1
  Ni  Ni15  1  0.38823700  0.93132000  0.36312400  1
  Cu  Cu16  1  0.13946300  0.75000000  0.48800900  1
  Cu  Cu17  1  0.86053700  0.25000000  0.51199100  1
  Cu  Cu18  1  0.86053700  0.75000000  0.98800900  1
  Cu  Cu19  1  0.13946300  0.25000000  0.01199100  1
  Cu  Cu20  1  0.94613900  0.92236200  0.13929100  1
  Cu  Cu21  1  0.05386100  0.07763800  0.86070900  1
  Cu  Cu22  1  0.05386100  0.42236200  0.86070900  1
  Cu  Cu23  1  0.05386100  0.57763800  0.63929100  1
  Cu  Cu24  1  0.94613900  0.57763800  0.13929100  1
  Cu  Cu25  1  0.94613900  0.42236200  0.36070900  1
  Cu  Cu26  1  0.94613900  0.07763800  0.36070900  1
  Cu  Cu27  1  0.05386100  0.92236200  0.63929100  1
  Cu  Cu28  1  0.77861400  0.75000000  0.73633300  1
  Cu  Cu29  1  0.22138600  0.25000000  0.26366700  1
  Cu  Cu30  1  0.22138600  0.75000000  0.23633300  1
  Cu  Cu31  1  0.77861400  0.25000000  0.76366700  1
  C  C32  1  0.90138900  0.88817700  0.82414600  1
  C  C33  1  0.09861100  0.11182300  0.17585400  1
  C  C34  1  0.09861100  0.38817700  0.17585400  1
  C  C35  1  0.09861100  0.61182300  0.32414600  1
  C  C36  1  0.90138900  0.61182300  0.82414600  1
  C  C37  1  0.90138900  0.38817700  0.67585400  1
  C  C38  1  0.90138900  0.11182300  0.67585400  1
  C  C39  1  0.09861100  0.88817700  0.32414600  1
  C  C40  1  0.31227400  0.96057800  0.85926700  1
  C  C41  1  0.68772600  0.03942200  0.14073300  1
  C  C42  1  0.68772600  0.46057800  0.14073300  1
  C  C43  1  0.68772600  0.53942200  0.35926700  1
  C  C44  1  0.31227400  0.53942200  0.85926700  1
  C  C45  1  0.31227400  0.46057800  0.64073300  1
  C  C46  1  0.31227400  0.03942200  0.64073300  1
  C  C47  1  0.68772600  0.96057800  0.35926700  1
  C  C48  1  0.67808400  0.90562200  0.97405400  1
  C  C49  1  0.32191600  0.09437800  0.02594600  1
  C  C50  1  0.32191600  0.40562200  0.02594600  1
  C  C51  1  0.32191600  0.59437800  0.47405400  1
  C  C52  1  0.67808400  0.59437800  0.97405400  1
  C  C53  1  0.67808400  0.40562200  0.52594600  1
  C  C54  1  0.67808400  0.09437800  0.52594600  1
  C  C55  1  0.32191600  0.90562200  0.47405400  1
  C  C56  1  0.72462800  0.87898200  0.63778500  1
  C  C57  1  0.27537200  0.12101800  0.36221500  1
  C  C58  1  0.27537200  0.37898200  0.36221500  1
  C  C59  1  0.27537200  0.62101800  0.13778500  1
  C  C60  1  0.72462800  0.62101800  0.63778500  1
  C  C61  1  0.72462800  0.37898200  0.86221500  1
  C  C62  1  0.72462800  0.12101800  0.86221500  1
  C  C63  1  0.27537200  0.87898200  0.13778500  1
