# generated using pymatgen
data_Cu5Ni
_symmetry_space_group_name_H-M   'P 1'
_cell_length_a   5.55613200
_cell_length_b   11.69600900
_cell_length_c   13.39952400
_cell_angle_alpha   90.00000000
_cell_angle_beta   90.00000000
_cell_angle_gamma   90.00000000
_symmetry_Int_Tables_number   1
_chemical_formula_structural   Cu5Ni
_chemical_formula_sum   'Cu80 Ni16'
_cell_volume   870.76230370
_cell_formula_units_Z   16
loop_
 _symmetry_equiv_pos_site_id
 _symmetry_equiv_pos_as_xyz
  1  'x, y, z'
loop_
 _atom_site_type_symbol
 _atom_site_label
 _atom_site_symmetry_multiplicity
 _atom_site_fract_x
 _atom_site_fract_y
 _atom_site_fract_z
 _atom_site_occupancy
  Ni  Ni0  1  0.76171700  0.80186100  0.26504700  1
  Ni  Ni1  1  0.26171700  0.19813900  0.23495300  1
  Ni  Ni2  1  0.23828300  0.69813900  0.76504700  1
  Ni  Ni3  1  0.73828300  0.30186100  0.73495300  1
  Ni  Ni4  1  0.23828300  0.19813900  0.73495300  1
  Ni  Ni5  1  0.73828300  0.80186100  0.76504700  1
  Ni  Ni6  1  0.76171700  0.30186100  0.23495300  1
  Ni  Ni7  1  0.26171700  0.69813900  0.26504700  1
  Ni  Ni8  1  0.75055600  0.81286100  0.95468200  1
  Ni  Ni9  1  0.25055600  0.18713900  0.54531800  1
  Ni  Ni10  1  0.24944400  0.68713900  0.45468200  1
  Ni  Ni11  1  0.74944400  0.31286100  0.04531800  1
  Ni  Ni12  1  0.24944400  0.18713900  0.04531800  1
  Ni  Ni13  1  0.74944400  0.81286100  0.45468200  1
  Ni  Ni14  1  0.75055600  0.31286100  0.54531800  1
  Ni  Ni15  1  0.25055600  0.68713900  0.95468200  1
  Cu  Cu16  1  0.55491600  0.94526400  0.07602500  1
  Cu  Cu17  1  0.05491600  0.05473600  0.42397500  1
  Cu  Cu18  1  0.44508400  0.55473600  0.57602500  1
  Cu  Cu19  1  0.94508400  0.44526400  0.92397500  1
  Cu  Cu20  1  0.44508400  0.05473600  0.92397500  1
  Cu  Cu21  1  0.94508400  0.94526400  0.57602500  1
  Cu  Cu22  1  0.55491600  0.44526400  0.42397500  1
  Cu  Cu23  1  0.05491600  0.55473600  0.07602500  1
  Cu  Cu24  1  0.85310500  0.95984800  0.02233000  1
  Cu  Cu25  1  0.35310500  0.04015200  0.47767000  1
  Cu  Cu26  1  0.14689500  0.54015200  0.52233000  1
  Cu  Cu27  1  0.64689500  0.45984800  0.97767000  1
  Cu  Cu28  1  0.14689500  0.04015200  0.97767000  1
  Cu  Cu29  1  0.64689500  0.95984800  0.52233000  1
  Cu  Cu30  1  0.85310500  0.45984800  0.47767000  1
  Cu  Cu31  1  0.35310500  0.54015200  0.02233000  1
  Cu  Cu32  1  0.48274900  0.08329800  0.13079600  1
  Cu  Cu33  1  0.98274900  0.91670200  0.36920400  1
  Cu  Cu34  1  0.51725100  0.41670200  0.63079600  1
  Cu  Cu35  1  0.01725100  0.58329800  0.86920400  1
  Cu  Cu36  1  0.51725100  0.91670200  0.86920400  1
  Cu  Cu37  1  0.01725100  0.08329800  0.63079600  1
  Cu  Cu38  1  0.48274900  0.58329800  0.36920400  1
  Cu  Cu39  1  0.98274900  0.41670200  0.13079600  1
  Cu  Cu40  1  0.59796100  0.96958500  0.20539300  1
  Cu  Cu41  1  0.09796100  0.03041500  0.29460700  1
  Cu  Cu42  1  0.40203900  0.53041500  0.70539300  1
  Cu  Cu43  1  0.90203900  0.46958500  0.79460700  1
  Cu  Cu44  1  0.40203900  0.03041500  0.79460700  1
  Cu  Cu45  1  0.90203900  0.96958500  0.70539300  1
  Cu  Cu46  1  0.59796100  0.46958500  0.29460700  1
  Cu  Cu47  1  0.09796100  0.53041500  0.20539300  1
  Cu  Cu48  1  0.86849500  0.92583900  0.14905000  1
  Cu  Cu49  1  0.36849500  0.07416100  0.35095000  1
  Cu  Cu50  1  0.13150500  0.57416100  0.64905000  1
  Cu  Cu51  1  0.63150500  0.42583900  0.85095000  1
  Cu  Cu52  1  0.13150500  0.07416100  0.85095000  1
  Cu  Cu53  1  0.63150500  0.92583900  0.64905000  1
  Cu  Cu54  1  0.86849500  0.42583900  0.35095000  1
  Cu  Cu55  1  0.36849500  0.57416100  0.14905000  1
  Cu  Cu56  1  0.74725000  0.16894600  0.12929000  1
  Cu  Cu57  1  0.24725000  0.83105400  0.37071000  1
  Cu  Cu58  1  0.25275000  0.33105400  0.62929000  1
  Cu  Cu59  1  0.75275000  0.66894600  0.87071000  1
  Cu  Cu60  1  0.25275000  0.83105400  0.87071000  1
  Cu  Cu61  1  0.75275000  0.16894600  0.62929000  1
  Cu  Cu62  1  0.74725000  0.66894600  0.37071000  1
  Cu  Cu63  1  0.24725000  0.33105400  0.12929000  1
  Cu  Cu64  1  0.59844100  0.11793600  0.24409800  1
  Cu  Cu65  1  0.09844100  0.88206400  0.25590200  1
  Cu  Cu66  1  0.40155900  0.38206400  0.74409800  1
  Cu  Cu67  1  0.90155900  0.61793600  0.75590200  1
  Cu  Cu68  1  0.40155900  0.88206400  0.75590200  1
  Cu  Cu69  1  0.90155900  0.11793600  0.74409800  1
  Cu  Cu70  1  0.59844100  0.61793600  0.25590200  1
  Cu  Cu71  1  0.09844100  0.38206400  0.24409800  1
  Cu  Cu72  1  0.88267600  0.06585700  0.21112300  1
  Cu  Cu73  1  0.38267600  0.93414300  0.28887700  1
  Cu  Cu74  1  0.11732400  0.43414300  0.71112300  1
  Cu  Cu75  1  0.61732400  0.56585700  0.78887700  1
  Cu  Cu76  1  0.11732400  0.93414300  0.78887700  1
  Cu  Cu77  1  0.61732400  0.06585700  0.71112300  1
  Cu  Cu78  1  0.88267600  0.56585700  0.28887700  1
  Cu  Cu79  1  0.38267600  0.43414300  0.21112300  1
  Cu  Cu80  1  0.95970700  0.07459100  0.08240000  1
  Cu  Cu81  1  0.45970700  0.92540900  0.41760000  1
  Cu  Cu82  1  0.04029300  0.42540900  0.58240000  1
  Cu  Cu83  1  0.54029300  0.57459100  0.91760000  1
  Cu  Cu84  1  0.04029300  0.92540900  0.91760000  1
  Cu  Cu85  1  0.54029300  0.07459100  0.58240000  1
  Cu  Cu86  1  0.95970700  0.57459100  0.41760000  1
  Cu  Cu87  1  0.45970700  0.42540900  0.08240000  1
  Cu  Cu88  1  0.64771400  0.08578700  0.02256700  1
  Cu  Cu89  1  0.14771400  0.91421300  0.47743300  1
  Cu  Cu90  1  0.35228600  0.41421300  0.52256700  1
  Cu  Cu91  1  0.85228600  0.58578700  0.97743300  1
  Cu  Cu92  1  0.35228600  0.91421300  0.97743300  1
  Cu  Cu93  1  0.85228600  0.08578700  0.52256700  1
  Cu  Cu94  1  0.64771400  0.58578700  0.47743300  1
  Cu  Cu95  1  0.14771400  0.41421300  0.02256700  1
