# generated using pymatgen
data_Cu3Ni6C5
_symmetry_space_group_name_H-M   'P 1'
_cell_length_a   8.13145533
_cell_length_b   8.13145533
_cell_length_c   8.13145533
_cell_angle_alpha   120.47331864
_cell_angle_beta   119.62437879
_cell_angle_gamma   89.91698698
_symmetry_Int_Tables_number   1
_chemical_formula_structural   Cu3Ni6C5
_chemical_formula_sum   'Cu6 Ni12 C10'
_cell_volume   379.87325756
_cell_formula_units_Z   2
loop_
 _symmetry_equiv_pos_site_id
 _symmetry_equiv_pos_as_xyz
  1  'x, y, z'
loop_
 _atom_site_type_symbol
 _atom_site_label
 _atom_site_symmetry_multiplicity
 _atom_site_fract_x
 _atom_site_fract_y
 _atom_site_fract_z
 _atom_site_occupancy
  Ni  Ni0  1  0.56932300  0.06932300  0.50000000  1
  Ni  Ni1  1  0.18329400  0.68329400  0.50000000  1
  Ni  Ni2  1  0.17969700  0.06932200  0.50108300  1
  Ni  Ni3  1  0.56824000  0.67861500  0.49891700  1
  Ni  Ni4  1  0.56824000  0.06932200  0.88962500  1
  Ni  Ni5  1  0.17969700  0.67861500  0.11037500  1
  Ni  Ni6  1  0.93209300  0.93209300  0.00000000  1
  Ni  Ni7  1  0.31677500  0.31677500  0.00000000  1
  Ni  Ni8  1  0.31746700  0.93595000  0.00256900  1
  Ni  Ni9  1  0.93338000  0.31489800  0.99743100  1
  Ni  Ni10  1  0.93338000  0.93595000  0.61848200  1
  Ni  Ni11  1  0.31746700  0.31489800  0.38151800  1
  Cu  Cu12  1  0.74145600  0.49467600  0.24678000  1
  Cu  Cu13  1  0.24789600  0.49467600  0.75322000  1
  Cu  Cu14  1  0.74949900  0.48281800  0.73331900  1
  Cu  Cu15  1  0.74949900  0.01618000  0.26668100  1
  Cu  Cu16  1  0.95388700  0.30104300  0.65284400  1
  Cu  Cu17  1  0.64820000  0.30104300  0.34715600  1
  C  C18  1  0.95893900  0.29565500  0.33671600  1
  C  C19  1  0.95893900  0.62222300  0.66328400  1
  C  C20  1  0.54383000  0.70624900  0.83758100  1
  C  C21  1  0.86866800  0.70624900  0.16241900  1
  C  C22  1  0.54334200  0.70634500  0.16300300  1
  C  C23  1  0.54334200  0.38033900  0.83699700  1
  C  C24  1  0.24707300  0.99755100  0.24952200  1
  C  C25  1  0.74803000  0.99755100  0.75047800  1
  C  C26  1  0.24917300  0.99873900  0.74956600  1
  C  C27  1  0.24917300  0.49960800  0.25043400  1
