# generated using pymatgen
data_Cu3NiC28
_symmetry_space_group_name_H-M   'P 1'
_cell_length_a   5.79355800
_cell_length_b   7.43443500
_cell_length_c   8.61955642
_cell_angle_alpha   89.62316841
_cell_angle_beta   90.00000000
_cell_angle_gamma   90.00000000
_symmetry_Int_Tables_number   1
_chemical_formula_structural   Cu3NiC28
_chemical_formula_sum   'Cu3 Ni1 C28'
_cell_volume   371.25204253
_cell_formula_units_Z   1
loop_
 _symmetry_equiv_pos_site_id
 _symmetry_equiv_pos_as_xyz
  1  'x, y, z'
loop_
 _atom_site_type_symbol
 _atom_site_label
 _atom_site_symmetry_multiplicity
 _atom_site_fract_x
 _atom_site_fract_y
 _atom_site_fract_z
 _atom_site_occupancy
  Ni  Ni0  1  0.00000000  0.36225100  0.67039000  1
  Cu  Cu1  1  0.00000000  0.64294400  0.32709500  1
  Cu  Cu2  1  0.00000000  0.86042500  0.83037200  1
  Cu  Cu3  1  0.00000000  0.13892200  0.17000100  1
  C  C4  1  0.50000000  0.08545100  0.85144600  1
  C  C5  1  0.50000000  0.91033000  0.15122900  1
  C  C6  1  0.50000000  0.59567100  0.64934500  1
  C  C7  1  0.50000000  0.41300500  0.34704300  1
  C  C8  1  0.74480200  0.50117100  0.00230500  1
  C  C9  1  0.25440000  0.99651400  0.49846000  1
  C  C10  1  0.25519800  0.50117100  0.00230500  1
  C  C11  1  0.74560000  0.99651400  0.49846000  1
  C  C12  1  0.00000000  0.33805400  0.95137900  1
  C  C13  1  0.00000000  0.66324500  0.05793600  1
  C  C14  1  0.00000000  0.83433800  0.55642100  1
  C  C15  1  0.00000000  0.15647800  0.43774600  1
  C  C16  1  0.75663800  0.09170900  0.70840200  1
  C  C17  1  0.75959300  0.89335200  0.29216600  1
  C  C18  1  0.24607900  0.61382500  0.79591900  1
  C  C19  1  0.23989900  0.39325900  0.20726400  1
  C  C20  1  0.24040700  0.89335200  0.29216600  1
  C  C21  1  0.24336200  0.09170900  0.70840200  1
  C  C22  1  0.76010100  0.39325900  0.20726400  1
  C  C23  1  0.75392100  0.61382500  0.79591900  1
  C  C24  1  0.50000000  0.34875300  0.93291900  1
  C  C25  1  0.50000000  0.65149300  0.06908300  1
  C  C26  1  0.50000000  0.84686100  0.56256800  1
  C  C27  1  0.50000000  0.15180100  0.43422100  1
  C  C28  1  0.72503700  0.50964600  0.49379600  1
  C  C29  1  0.26862100  0.00051300  0.00209100  1
  C  C30  1  0.27496300  0.50964600  0.49379600  1
  C  C31  1  0.73137900  0.00051300  0.00209100  1
