# generated using pymatgen
data_Cu15Ni3C
_symmetry_space_group_name_H-M   'P 1'
_cell_length_a   7.07305100
_cell_length_b   8.83646318
_cell_length_c   11.70079668
_cell_angle_alpha   110.99786470
_cell_angle_beta   88.49169300
_cell_angle_gamma   111.29596969
_symmetry_Int_Tables_number   1
_chemical_formula_structural   Cu15Ni3C
_chemical_formula_sum   'Cu30 Ni6 C2'
_cell_volume   631.57795879
_cell_formula_units_Z   2
loop_
 _symmetry_equiv_pos_site_id
 _symmetry_equiv_pos_as_xyz
  1  'x, y, z'
loop_
 _atom_site_type_symbol
 _atom_site_label
 _atom_site_symmetry_multiplicity
 _atom_site_fract_x
 _atom_site_fract_y
 _atom_site_fract_z
 _atom_site_occupancy
  C  C0  1  0.99566800  0.84484700  0.28835800  1
  C  C1  1  0.00433200  0.15515300  0.71164200  1
  Ni  Ni2  1  0.26455300  0.17776000  0.16425500  1
  Ni  Ni3  1  0.73544700  0.82224000  0.83574500  1
  Ni  Ni4  1  0.26404300  0.81802700  0.51916900  1
  Ni  Ni5  1  0.73595700  0.18197300  0.48083100  1
  Ni  Ni6  1  0.07601200  0.42039400  0.81909000  1
  Ni  Ni7  1  0.92398800  0.57960600  0.18091000  1
  Cu  Cu8  1  0.39192700  0.31159300  0.11945100  1
  Cu  Cu9  1  0.60807300  0.68840700  0.88054900  1
  Cu  Cu10  1  0.25835200  0.03049700  0.15744400  1
  Cu  Cu11  1  0.74164800  0.96950300  0.84255600  1
  Cu  Cu12  1  0.12442500  0.16484400  0.22276900  1
  Cu  Cu13  1  0.87557500  0.83515600  0.77723100  1
  Cu  Cu14  1  0.24647200  0.73411100  0.44529800  1
  Cu  Cu15  1  0.75352800  0.26588900  0.55470200  1
  Cu  Cu16  1  0.12885900  0.89664800  0.49282700  1
  Cu  Cu17  1  0.87114100  0.10335200  0.50717300  1
  Cu  Cu18  1  0.39990000  0.82111400  0.60462100  1
  Cu  Cu19  1  0.60010000  0.17888600  0.39537900  1
  Cu  Cu20  1  0.06728500  0.45430800  0.70085300  1
  Cu  Cu21  1  0.93271500  0.54569200  0.29914700  1
  Cu  Cu22  1  0.07995300  0.52579700  0.86196000  1
  Cu  Cu23  1  0.92004700  0.47420300  0.13804000  1
  Cu  Cu24  1  0.07514400  0.26315200  0.88669500  1
  Cu  Cu25  1  0.92485600  0.73684800  0.11330500  1
  Cu  Cu26  1  0.69957000  0.10809100  0.05818700  1
  Cu  Cu27  1  0.30043000  0.89190900  0.94181300  1
  Cu  Cu28  1  0.59264900  0.86552600  0.28580500  1
  Cu  Cu29  1  0.40735100  0.13447400  0.71419500  1
  Cu  Cu30  1  0.70183200  0.61987900  0.54370500  1
  Cu  Cu31  1  0.29816800  0.38012100  0.45629500  1
  Cu  Cu32  1  0.43315700  0.26069000  0.74680100  1
  Cu  Cu33  1  0.56684300  0.73931000  0.25319900  1
  Cu  Cu34  1  0.66488800  0.24483000  0.99374600  1
  Cu  Cu35  1  0.33511200  0.75517000  0.00625400  1
  Cu  Cu36  1  0.65190600  0.57437900  0.64673000  1
  Cu  Cu37  1  0.34809400  0.42562100  0.35327000  1
