# generated using pymatgen
data_Cu3Ni3C2
_symmetry_space_group_name_H-M   'P 1'
_cell_length_a   8.42803900
_cell_length_b   7.83662900
_cell_length_c   13.77650740
_cell_angle_alpha   56.00319637
_cell_angle_beta   90.00000000
_cell_angle_gamma   90.00000000
_symmetry_Int_Tables_number   1
_chemical_formula_structural   Cu3Ni3C2
_chemical_formula_sum   'Cu12 Ni12 C8'
_cell_volume   754.37190876
_cell_formula_units_Z   4
loop_
 _symmetry_equiv_pos_site_id
 _symmetry_equiv_pos_as_xyz
  1  'x, y, z'
loop_
 _atom_site_type_symbol
 _atom_site_label
 _atom_site_symmetry_multiplicity
 _atom_site_fract_x
 _atom_site_fract_y
 _atom_site_fract_z
 _atom_site_occupancy
  C  C0  1  0.07710500  0.27838700  0.24746800  1
  C  C1  1  0.42289500  0.27838700  0.74746800  1
  C  C2  1  0.92289500  0.72161300  0.75253200  1
  C  C3  1  0.57710500  0.72161300  0.25253200  1
  C  C4  1  0.00000000  0.50000000  0.50000000  1
  C  C5  1  0.50000000  0.50000000  0.00000000  1
  C  C6  1  0.50000000  0.00000000  0.50000000  1
  C  C7  1  0.00000000  0.00000000  0.00000000  1
  Ni  Ni8  1  0.37179100  0.25016000  0.46391800  1
  Ni  Ni9  1  0.12820900  0.25016000  0.96391800  1
  Ni  Ni10  1  0.62820900  0.74984000  0.53608200  1
  Ni  Ni11  1  0.87179100  0.74984000  0.03608200  1
  Ni  Ni12  1  0.70379700  0.17151400  0.45384900  1
  Ni  Ni13  1  0.79620300  0.17151400  0.95384900  1
  Ni  Ni14  1  0.29620300  0.82848600  0.54615100  1
  Ni  Ni15  1  0.20379700  0.82848600  0.04615100  1
  Ni  Ni16  1  0.47209500  0.08753400  0.33071700  1
  Ni  Ni17  1  0.02790500  0.08753400  0.83071700  1
  Ni  Ni18  1  0.52790500  0.91246600  0.66928300  1
  Ni  Ni19  1  0.97209500  0.91246600  0.16928300  1
  Cu  Cu20  1  0.29829700  0.39525900  0.44213600  1
  Cu  Cu21  1  0.20170300  0.39525900  0.94213600  1
  Cu  Cu22  1  0.70170300  0.60474100  0.55786400  1
  Cu  Cu23  1  0.79829700  0.60474100  0.05786400  1
  Cu  Cu24  1  0.81927300  0.27299500  0.42560800  1
  Cu  Cu25  1  0.68072700  0.27299500  0.92560800  1
  Cu  Cu26  1  0.18072700  0.72700500  0.57439200  1
  Cu  Cu27  1  0.31927300  0.72700500  0.07439200  1
  Cu  Cu28  1  0.45318900  0.13834300  0.23338600  1
  Cu  Cu29  1  0.04681100  0.13834300  0.73338600  1
  Cu  Cu30  1  0.54681100  0.86165700  0.76661400  1
  Cu  Cu31  1  0.95318900  0.86165700  0.26661400  1
