# generated using pymatgen
data_Cu2Ni2C13
_symmetry_space_group_name_H-M   'P 1'
_cell_length_a   9.01918300
_cell_length_b   4.89101000
_cell_length_c   10.72991957
_cell_angle_alpha   78.84313622
_cell_angle_beta   90.00000000
_cell_angle_gamma   90.00000000
_symmetry_Int_Tables_number   1
_chemical_formula_structural   Cu2Ni2C13
_chemical_formula_sum   'Cu4 Ni4 C26'
_cell_volume   464.38264761
_cell_formula_units_Z   2
loop_
 _symmetry_equiv_pos_site_id
 _symmetry_equiv_pos_as_xyz
  1  'x, y, z'
loop_
 _atom_site_type_symbol
 _atom_site_label
 _atom_site_symmetry_multiplicity
 _atom_site_fract_x
 _atom_site_fract_y
 _atom_site_fract_z
 _atom_site_occupancy
  Ni  Ni0  1  0.06136700  0.46712100  0.84991000  1
  Ni  Ni1  1  0.56136700  0.53287900  0.15009000  1
  Ni  Ni2  1  0.93863300  0.53287900  0.15009000  1
  Ni  Ni3  1  0.43863300  0.46712100  0.84991000  1
  Cu  Cu4  1  0.92813600  0.04229800  0.63265100  1
  Cu  Cu5  1  0.42813600  0.95770200  0.36734900  1
  Cu  Cu6  1  0.07186400  0.95770200  0.36734900  1
  Cu  Cu7  1  0.57186400  0.04229800  0.63265100  1
  C  C8  1  0.75000000  0.61376700  0.45319400  1
  C  C9  1  0.25000000  0.38623300  0.54680600  1
  C  C10  1  0.75000000  0.85842400  0.89873300  1
  C  C11  1  0.25000000  0.14157600  0.10126700  1
  C  C12  1  0.75000000  0.30755600  0.56839400  1
  C  C13  1  0.25000000  0.69244400  0.43160600  1
  C  C14  1  0.95965600  0.23820400  0.78742300  1
  C  C15  1  0.45965600  0.76179600  0.21257700  1
  C  C16  1  0.04034400  0.76179600  0.21257700  1
  C  C17  1  0.54034400  0.23820400  0.78742300  1
  C  C18  1  0.90032100  0.62340200  0.95303400  1
  C  C19  1  0.40032100  0.37659800  0.04696600  1
  C  C20  1  0.09967900  0.37659800  0.04696600  1
  C  C21  1  0.59967900  0.62340200  0.95303400  1
  C  C22  1  0.59777900  0.79222100  0.49820800  1
  C  C23  1  0.09777900  0.20777900  0.50179200  1
  C  C24  1  0.40222100  0.20777900  0.50179200  1
  C  C25  1  0.90222100  0.79222100  0.49820800  1
  C  C26  1  0.75000000  0.82936700  0.74432500  1
  C  C27  1  0.25000000  0.17063300  0.25567500  1
  C  C28  1  0.07562700  0.75829800  0.73975600  1
  C  C29  1  0.57562700  0.24170200  0.26024400  1
  C  C30  1  0.92437300  0.24170200  0.26024400  1
  C  C31  1  0.42437300  0.75829800  0.73975600  1
  C  C32  1  0.25000000  0.32188000  0.85036200  1
  C  C33  1  0.75000000  0.67812000  0.14963800  1
