# generated using pymatgen
data_Cu4NiC11
_symmetry_space_group_name_H-M   'P 1'
_cell_length_a   6.15075393
_cell_length_b   6.06077708
_cell_length_c   10.77651917
_cell_angle_alpha   89.47386534
_cell_angle_beta   107.75335271
_cell_angle_gamma   60.87919007
_symmetry_Int_Tables_number   1
_chemical_formula_structural   Cu4NiC11
_chemical_formula_sum   'Cu8 Ni2 C22'
_cell_volume   328.18812261
_cell_formula_units_Z   2
loop_
 _symmetry_equiv_pos_site_id
 _symmetry_equiv_pos_as_xyz
  1  'x, y, z'
loop_
 _atom_site_type_symbol
 _atom_site_label
 _atom_site_symmetry_multiplicity
 _atom_site_fract_x
 _atom_site_fract_y
 _atom_site_fract_z
 _atom_site_occupancy
  C  C0  1  0.00003600  0.75007300  0.24995500  1
  C  C1  1  0.00008200  0.24996300  0.75012900  1
  C  C2  1  0.01196700  0.50118700  0.99686500  1
  C  C3  1  0.98818900  0.99867400  0.50318600  1
  C  C4  1  0.50941200  0.49006000  0.49267500  1
  C  C5  1  0.49079800  0.00973700  0.00747800  1
  Ni  Ni6  1  0.48299300  0.99277700  0.49990000  1
  Ni  Ni7  1  0.51731600  0.50706300  0.00007300  1
  Cu  Cu8  1  0.00806800  0.99544000  0.00247100  1
  Cu  Cu9  1  0.99209100  0.50473500  0.49752200  1
  Cu  Cu10  1  0.99990700  0.25007100  0.24994900  1
  Cu  Cu11  1  0.00015300  0.74982100  0.75002900  1
  Cu  Cu12  1  0.50001100  0.75000600  0.24990500  1
  Cu  Cu13  1  0.50004400  0.24995500  0.75004100  1
  Cu  Cu14  1  0.50006400  0.74998100  0.75007500  1
  Cu  Cu15  1  0.49953100  0.25018200  0.24993400  1
  C  C16  1  0.27088900  0.87852200  0.38503700  1
  C  C17  1  0.24791500  0.41184000  0.87297800  1
  C  C18  1  0.75206700  0.08816900  0.62701500  1
  C  C19  1  0.72905300  0.62132700  0.11495600  1
  C  C20  1  0.77865100  0.86411800  0.86350200  1
  C  C21  1  0.74205900  0.36643100  0.36731700  1
  C  C22  1  0.25773700  0.13366900  0.13271100  1
  C  C23  1  0.22146200  0.63578100  0.63655600  1
  C  C24  1  0.26450800  0.11292500  0.61122400  1
  C  C25  1  0.27385300  0.60095200  0.12215700  1
  C  C26  1  0.72663400  0.63815000  0.60977000  1
  C  C27  1  0.72922400  0.14843500  0.11006000  1
  C  C28  1  0.27045100  0.35165700  0.38987100  1
  C  C29  1  0.27339400  0.86190500  0.89015500  1
  C  C30  1  0.72592400  0.89932100  0.37778700  1
  C  C31  1  0.73551800  0.38707000  0.88871600  1
