# generated using pymatgen
data_Cu4NiC4
_symmetry_space_group_name_H-M   'P 1'
_cell_length_a   6.45861000
_cell_length_b   7.86855800
_cell_length_c   13.44115300
_cell_angle_alpha   90.00000000
_cell_angle_beta   90.00000000
_cell_angle_gamma   90.00000000
_symmetry_Int_Tables_number   1
_chemical_formula_structural   Cu4NiC4
_chemical_formula_sum   'Cu16 Ni4 C16'
_cell_volume   683.07868825
_cell_formula_units_Z   4
loop_
 _symmetry_equiv_pos_site_id
 _symmetry_equiv_pos_as_xyz
  1  'x, y, z'
loop_
 _atom_site_type_symbol
 _atom_site_label
 _atom_site_symmetry_multiplicity
 _atom_site_fract_x
 _atom_site_fract_y
 _atom_site_fract_z
 _atom_site_occupancy
  C  C0  1  0.83102400  0.00364700  0.65611100  1
  C  C1  1  0.64594200  0.50703700  0.15811400  1
  C  C2  1  0.16897600  0.50364700  0.34388900  1
  C  C3  1  0.35405800  0.00703700  0.84188600  1
  C  C4  1  0.14594200  0.00703700  0.34188600  1
  C  C5  1  0.33102400  0.50364700  0.84388900  1
  C  C6  1  0.85405800  0.50703700  0.65811400  1
  C  C7  1  0.66897600  0.00364700  0.15611100  1
  C  C8  1  0.64963200  0.74707800  0.93278200  1
  C  C9  1  0.85036800  0.74707800  0.43278200  1
  C  C10  1  0.35036800  0.24707800  0.06721800  1
  C  C11  1  0.14963200  0.24707800  0.56721800  1
  C  C12  1  0.51278400  0.28929600  0.70217200  1
  C  C13  1  0.48721600  0.78929600  0.29782800  1
  C  C14  1  0.01278400  0.78929600  0.79782800  1
  C  C15  1  0.98721600  0.28929600  0.20217200  1
  Ni  Ni16  1  0.84927700  0.25033400  0.91013000  1
  Ni  Ni17  1  0.65072300  0.25033400  0.41013000  1
  Ni  Ni18  1  0.15072300  0.75033400  0.08987000  1
  Ni  Ni19  1  0.34927700  0.75033400  0.58987000  1
  Cu  Cu20  1  0.71559700  0.47570100  0.82758900  1
  Cu  Cu21  1  0.77203200  0.01665000  0.33090900  1
  Cu  Cu22  1  0.28440300  0.97570100  0.17241100  1
  Cu  Cu23  1  0.22796800  0.51665000  0.66909100  1
  Cu  Cu24  1  0.27203200  0.51665000  0.16909100  1
  Cu  Cu25  1  0.21559700  0.97570100  0.67241100  1
  Cu  Cu26  1  0.72796800  0.01665000  0.83090900  1
  Cu  Cu27  1  0.78440300  0.47570100  0.32758900  1
  Cu  Cu28  1  0.69245000  0.75164400  0.59318300  1
  Cu  Cu29  1  0.80755000  0.75164400  0.09318300  1
  Cu  Cu30  1  0.30755000  0.25164400  0.40681700  1
  Cu  Cu31  1  0.19245000  0.25164400  0.90681700  1
  Cu  Cu32  1  0.76658800  0.25561500  0.56727700  1
  Cu  Cu33  1  0.73341200  0.25561500  0.06727700  1
  Cu  Cu34  1  0.23341200  0.75561500  0.43272300  1
  Cu  Cu35  1  0.26658800  0.75561500  0.93272300  1
