# generated using pymatgen
data_Cu2(NiC3)3
_symmetry_space_group_name_H-M   'P 1'
_cell_length_a   4.80516400
_cell_length_b   6.09809800
_cell_length_c   10.42541800
_cell_angle_alpha   90.00000000
_cell_angle_beta   90.00000000
_cell_angle_gamma   90.00000000
_symmetry_Int_Tables_number   1
_chemical_formula_structural   Cu2(NiC3)3
_chemical_formula_sum   'Cu4 Ni6 C18'
_cell_volume   305.48936158
_cell_formula_units_Z   2
loop_
 _symmetry_equiv_pos_site_id
 _symmetry_equiv_pos_as_xyz
  1  'x, y, z'
loop_
 _atom_site_type_symbol
 _atom_site_label
 _atom_site_symmetry_multiplicity
 _atom_site_fract_x
 _atom_site_fract_y
 _atom_site_fract_z
 _atom_site_occupancy
  Ni  Ni0  1  0.25662300  0.00000000  0.22233500  1
  Ni  Ni1  1  0.74337700  0.00000000  0.72233500  1
  Ni  Ni2  1  0.24985700  0.74976800  0.50006900  1
  Ni  Ni3  1  0.75014300  0.25023200  0.00006900  1
  Ni  Ni4  1  0.24985700  0.25023200  0.50006900  1
  Ni  Ni5  1  0.75014300  0.74976800  0.00006900  1
  C  C6  1  0.23561000  0.50000000  0.77856000  1
  C  C7  1  0.76439000  0.50000000  0.27856000  1
  Cu  Cu8  1  0.67509000  0.50000000  0.59526000  1
  Cu  Cu9  1  0.32491000  0.50000000  0.09526000  1
  Cu  Cu10  1  0.82204800  0.00000000  0.40704200  1
  Cu  Cu11  1  0.17795200  0.00000000  0.90704200  1
  C  C12  1  0.53148500  0.71924100  0.66214300  1
  C  C13  1  0.46851500  0.28075900  0.16214300  1
  C  C14  1  0.97304900  0.21292500  0.33678300  1
  C  C15  1  0.02695100  0.78707500  0.83678300  1
  C  C16  1  0.97304900  0.78707500  0.33678300  1
  C  C17  1  0.02695100  0.21292500  0.83678300  1
  C  C18  1  0.53148500  0.28075900  0.66214300  1
  C  C19  1  0.46851500  0.71924100  0.16214300  1
  C  C20  1  0.01489800  0.50000000  0.58785000  1
  C  C21  1  0.98510200  0.50000000  0.08785000  1
  C  C22  1  0.48234600  0.00000000  0.40820800  1
  C  C23  1  0.51765400  0.00000000  0.90820800  1
  C  C24  1  0.47664100  0.50000000  0.95062100  1
  C  C25  1  0.52335900  0.50000000  0.45062100  1
  C  C26  1  0.02850800  0.00000000  0.05213400  1
  C  C27  1  0.97149200  0.00000000  0.55213400  1
