# generated using pymatgen
data_Cu4Ni2C
_symmetry_space_group_name_H-M   'P 1'
_cell_length_a   10.41712600
_cell_length_b   8.76976100
_cell_length_c   9.80749278
_cell_angle_alpha   74.55308548
_cell_angle_beta   90.00000000
_cell_angle_gamma   90.00000000
_symmetry_Int_Tables_number   1
_chemical_formula_structural   Cu4Ni2C
_chemical_formula_sum   'Cu32 Ni16 C8'
_cell_volume   863.60585478
_cell_formula_units_Z   8
loop_
 _symmetry_equiv_pos_site_id
 _symmetry_equiv_pos_as_xyz
  1  'x, y, z'
loop_
 _atom_site_type_symbol
 _atom_site_label
 _atom_site_symmetry_multiplicity
 _atom_site_fract_x
 _atom_site_fract_y
 _atom_site_fract_z
 _atom_site_occupancy
  C  C0  1  0.16382600  0.24562100  0.41895300  1
  C  C1  1  0.66382600  0.75437900  0.08104700  1
  C  C2  1  0.83617400  0.75437900  0.58104700  1
  C  C3  1  0.33617400  0.24562100  0.91895300  1
  C  C4  1  0.93133300  0.15634100  0.93129800  1
  C  C5  1  0.43133300  0.84365900  0.56870200  1
  C  C6  1  0.06866700  0.84365900  0.06870200  1
  C  C7  1  0.56866700  0.15634100  0.43129800  1
  Ni  Ni8  1  0.78293000  0.25847200  0.93657100  1
  Ni  Ni9  1  0.28293000  0.74152800  0.56342900  1
  Ni  Ni10  1  0.21707000  0.74152800  0.06342900  1
  Ni  Ni11  1  0.71707000  0.25847200  0.43657100  1
  Ni  Ni12  1  0.84938200  0.04925000  0.77597200  1
  Ni  Ni13  1  0.34938200  0.95075000  0.72402800  1
  Ni  Ni14  1  0.15061800  0.95075000  0.22402800  1
  Ni  Ni15  1  0.65061800  0.04925000  0.27597200  1
  Ni  Ni16  1  0.01747600  0.27656900  0.07361000  1
  Ni  Ni17  1  0.51747600  0.72343100  0.42639000  1
  Ni  Ni18  1  0.98252400  0.72343100  0.92639000  1
  Ni  Ni19  1  0.48252400  0.27656900  0.57361000  1
  Ni  Ni20  1  0.99475000  0.34216400  0.75205900  1
  Ni  Ni21  1  0.49475000  0.65783600  0.74794100  1
  Ni  Ni22  1  0.00525000  0.65783600  0.24794100  1
  Ni  Ni23  1  0.50525000  0.34216400  0.25205900  1
  Cu  Cu24  1  0.09567000  0.04787900  0.92718100  1
  Cu  Cu25  1  0.59567000  0.95212100  0.57281900  1
  Cu  Cu26  1  0.90433000  0.95212100  0.07281900  1
  Cu  Cu27  1  0.40433000  0.04787900  0.42718100  1
  Cu  Cu28  1  0.69054800  0.33277900  0.93418700  1
  Cu  Cu29  1  0.19054800  0.66722100  0.56581300  1
  Cu  Cu30  1  0.30945200  0.66722100  0.06581300  1
  Cu  Cu31  1  0.80945200  0.33277900  0.43418700  1
  Cu  Cu32  1  0.74452800  0.98365300  0.81082000  1
  Cu  Cu33  1  0.24452800  0.01634700  0.68918000  1
  Cu  Cu34  1  0.25547200  0.01634700  0.18918000  1
  Cu  Cu35  1  0.75547200  0.98365300  0.31082000  1
  Cu  Cu36  1  0.90388000  0.05149400  0.66276400  1
  Cu  Cu37  1  0.40388000  0.94850600  0.83723600  1
  Cu  Cu38  1  0.09612000  0.94850600  0.33723600  1
  Cu  Cu39  1  0.59612000  0.05149400  0.16276400  1
  Cu  Cu40  1  0.12396000  0.34204100  0.04980000  1
  Cu  Cu41  1  0.62396000  0.65795900  0.45020000  1
  Cu  Cu42  1  0.87604000  0.65795900  0.95020000  1
  Cu  Cu43  1  0.37604000  0.34204100  0.54980000  1
  Cu  Cu44  1  0.95501500  0.27204600  0.18243300  1
  Cu  Cu45  1  0.45501500  0.72795400  0.31756700  1
  Cu  Cu46  1  0.04498500  0.72795400  0.81756700  1
  Cu  Cu47  1  0.54498500  0.27204600  0.68243300  1
  Cu  Cu48  1  0.91597000  0.44241000  0.68709900  1
  Cu  Cu49  1  0.41597000  0.55759000  0.81290100  1
  Cu  Cu50  1  0.08403000  0.55759000  0.31290100  1
  Cu  Cu51  1  0.58403000  0.44241000  0.18709900  1
  Cu  Cu52  1  0.10792800  0.34071200  0.71268300  1
  Cu  Cu53  1  0.60792800  0.65928800  0.78731700  1
  Cu  Cu54  1  0.89207200  0.65928800  0.28731700  1
  Cu  Cu55  1  0.39207200  0.34071200  0.21268300  1
