# generated using pymatgen
data_Cu5Ni3C20
_symmetry_space_group_name_H-M   'P 1'
_cell_length_a   6.77190409
_cell_length_b   6.77190409
_cell_length_c   9.86034900
_cell_angle_alpha   90.00000000
_cell_angle_beta   90.00000000
_cell_angle_gamma   120.00000088
_symmetry_Int_Tables_number   1
_chemical_formula_structural   Cu5Ni3C20
_chemical_formula_sum   'Cu5 Ni3 C20'
_cell_volume   391.60164891
_cell_formula_units_Z   1
loop_
 _symmetry_equiv_pos_site_id
 _symmetry_equiv_pos_as_xyz
  1  'x, y, z'
loop_
 _atom_site_type_symbol
 _atom_site_label
 _atom_site_symmetry_multiplicity
 _atom_site_fract_x
 _atom_site_fract_y
 _atom_site_fract_z
 _atom_site_occupancy
  C  C0  1  0.66666700  0.33333300  0.75130900  1
  C  C1  1  0.66666700  0.33333300  0.24869100  1
  Ni  Ni2  1  0.25158900  0.37576000  0.00000000  1
  Ni  Ni3  1  0.12417000  0.74841100  0.00000000  1
  Ni  Ni4  1  0.62424000  0.87583000  0.00000000  1
  Cu  Cu5  1  0.00000000  0.00000000  0.75829300  1
  Cu  Cu6  1  0.00000000  0.00000000  0.24170700  1
  Cu  Cu7  1  0.11876000  0.35725100  0.50000000  1
  Cu  Cu8  1  0.64274900  0.76150900  0.50000000  1
  Cu  Cu9  1  0.23849100  0.88124000  0.50000000  1
  C  C10  1  0.23598700  0.23624200  0.86278500  1
  C  C11  1  0.00025500  0.76401300  0.86278500  1
  C  C12  1  0.76375800  0.99974500  0.86278500  1
  C  C13  1  0.23598700  0.23624200  0.13721500  1
  C  C14  1  0.00025500  0.76401300  0.13721500  1
  C  C15  1  0.76375800  0.99974500  0.13721500  1
  C  C16  1  0.97463600  0.21807900  0.35169400  1
  C  C17  1  0.78192100  0.75655700  0.35169400  1
  C  C18  1  0.24344300  0.02536400  0.35169400  1
  C  C19  1  0.97463600  0.21807900  0.64830600  1
  C  C20  1  0.78192100  0.75655700  0.64830600  1
  C  C21  1  0.24344300  0.02536400  0.64830600  1
  C  C22  1  0.07724800  0.48131500  0.00000000  1
  C  C23  1  0.40406700  0.92275200  0.00000000  1
  C  C24  1  0.51868500  0.59593300  0.00000000  1
  C  C25  1  0.41786700  0.46740200  0.50000000  1
  C  C26  1  0.53259800  0.95046500  0.50000000  1
  C  C27  1  0.04953500  0.58213300  0.50000000  1
