# generated using pymatgen
data_Cu2NiC10
_symmetry_space_group_name_H-M   'P 1'
_cell_length_a   7.18700200
_cell_length_b   7.44124004
_cell_length_c   7.96619726
_cell_angle_alpha   91.48220463
_cell_angle_beta   114.03875423
_cell_angle_gamma   96.26341165
_symmetry_Int_Tables_number   1
_chemical_formula_structural   Cu2NiC10
_chemical_formula_sum   'Cu4 Ni2 C20'
_cell_volume   385.59983261
_cell_formula_units_Z   2
loop_
 _symmetry_equiv_pos_site_id
 _symmetry_equiv_pos_as_xyz
  1  'x, y, z'
loop_
 _atom_site_type_symbol
 _atom_site_label
 _atom_site_symmetry_multiplicity
 _atom_site_fract_x
 _atom_site_fract_y
 _atom_site_fract_z
 _atom_site_occupancy
  Ni  Ni0  1  0.77190400  0.75321000  0.52165900  1
  Ni  Ni1  1  0.22809600  0.24679000  0.47834100  1
  Cu  Cu2  1  0.95109600  0.88148500  0.23964900  1
  Cu  Cu3  1  0.04890400  0.11851500  0.76035100  1
  Cu  Cu4  1  0.33873100  0.58809800  0.27061100  1
  Cu  Cu5  1  0.66126900  0.41190200  0.72938900  1
  C  C6  1  0.49096100  0.76043200  0.87709900  1
  C  C7  1  0.50903900  0.23956800  0.12290100  1
  C  C8  1  0.98530700  0.75161800  0.06973100  1
  C  C9  1  0.01469300  0.24838200  0.93026900  1
  C  C10  1  0.75046100  0.93805800  0.10704700  1
  C  C11  1  0.24953900  0.06194200  0.89295300  1
  C  C12  1  0.94342900  0.75482900  0.38430000  1
  C  C13  1  0.05657100  0.24517100  0.61570000  1
  C  C14  1  0.13575600  0.02743900  0.30882100  1
  C  C15  1  0.86424400  0.97256100  0.69117900  1
  C  C16  1  0.44276300  0.49864600  0.16527100  1
  C  C17  1  0.55723700  0.50135400  0.83472900  1
  C  C18  1  0.21435600  0.47147900  0.35098200  1
  C  C19  1  0.78564400  0.52852100  0.64901800  1
  C  C20  1  0.15565100  0.67266600  0.07869300  1
  C  C21  1  0.84434900  0.32733400  0.92130700  1
  C  C22  1  0.47007200  0.75581500  0.39301400  1
  C  C23  1  0.52992800  0.24418500  0.60698600  1
  C  C24  1  0.46014800  0.83839000  0.75204500  1
  C  C25  1  0.53985200  0.16161000  0.24795500  1
