# generated using pymatgen
data_Cu3Ni2C15
_symmetry_space_group_name_H-M   'P 1'
_cell_length_a   10.28216086
_cell_length_b   10.28216083
_cell_length_c   10.28216010
_cell_angle_alpha   112.47533622
_cell_angle_beta   107.99037215
_cell_angle_gamma   107.99037262
_symmetry_Int_Tables_number   1
_chemical_formula_structural   Cu3Ni2C15
_chemical_formula_sum   'Cu12 Ni8 C60'
_cell_volume   835.08325382
_cell_formula_units_Z   4
loop_
 _symmetry_equiv_pos_site_id
 _symmetry_equiv_pos_as_xyz
  1  'x, y, z'
loop_
 _atom_site_type_symbol
 _atom_site_label
 _atom_site_symmetry_multiplicity
 _atom_site_fract_x
 _atom_site_fract_y
 _atom_site_fract_z
 _atom_site_occupancy
  Ni  Ni0  1  0.00000000  0.00000000  0.00000000  1
  Ni  Ni1  1  0.00000000  0.50000000  0.00000000  1
  Ni  Ni2  1  0.00000000  0.00000000  0.50000000  1
  Ni  Ni3  1  0.00000000  0.50000000  0.50000000  1
  Ni  Ni4  1  0.50000000  0.00000000  0.50000000  1
  Ni  Ni5  1  0.50000000  0.50000000  0.00000000  1
  Ni  Ni6  1  0.50000000  0.50000000  0.50000000  1
  Ni  Ni7  1  0.50000000  0.00000000  0.00000000  1
  Cu  Cu8  1  0.36823500  0.75000000  0.11823500  1
  Cu  Cu9  1  0.13176500  0.25000000  0.38176500  1
  Cu  Cu10  1  0.36823500  0.11823500  0.25000000  1
  Cu  Cu11  1  0.13176500  0.38176500  0.75000000  1
  Cu  Cu12  1  0.86823500  0.75000000  0.61823500  1
  Cu  Cu13  1  0.75000000  0.12500000  0.37500000  1
  Cu  Cu14  1  0.75000000  0.62500000  0.87500000  1
  Cu  Cu15  1  0.63176500  0.25000000  0.88176500  1
  Cu  Cu16  1  0.25000000  0.87500000  0.62500000  1
  Cu  Cu17  1  0.86823500  0.61823500  0.25000000  1
  Cu  Cu18  1  0.63176500  0.88176500  0.75000000  1
  Cu  Cu19  1  0.25000000  0.37500000  0.12500000  1
  C  C20  1  0.25000000  0.12500000  0.87500000  1
  C  C21  1  0.75000000  0.87500000  0.12500000  1
  C  C22  1  0.37464300  0.25000000  0.62464300  1
  C  C23  1  0.62535700  0.37535700  0.25000000  1
  C  C24  1  0.12535700  0.75000000  0.87535700  1
  C  C25  1  0.87464300  0.12464300  0.75000000  1
  C  C26  1  0.75000000  0.37500000  0.62500000  1
  C  C27  1  0.37464300  0.62464300  0.75000000  1
  C  C28  1  0.12535700  0.87535700  0.25000000  1
  C  C29  1  0.87464300  0.25000000  0.12464300  1
  C  C30  1  0.62535700  0.75000000  0.37535700  1
  C  C31  1  0.25000000  0.62500000  0.37500000  1
  C  C32  1  0.29165300  0.48071400  0.37249500  1
  C  C33  1  0.01642600  0.31085800  0.89557200  1
  C  C34  1  0.12210300  0.60128300  0.90289000  1
  C  C35  1  0.20834700  0.58084100  0.18906000  1
  C  C36  1  0.20834700  0.12750500  0.01928600  1
  C  C37  1  0.58471400  0.18914200  0.20556900  1
  C  C38  1  0.60821900  0.18906000  0.48071400  1
  C  C39  1  0.19839300  0.21921300  0.59711000  1
  C  C40  1  0.89178100  0.37249500  0.58084100  1
  C  C41  1  0.30160700  0.90289000  0.28078700  1
  C  C42  1  0.91528600  0.29443100  0.31085800  1
  C  C43  1  0.01642600  0.20556900  0.12085500  1
  C  C44  1  0.19839300  0.47918200  0.60128300  1
  C  C45  1  0.58471400  0.89557200  0.37914500  1
  C  C46  1  0.12210300  0.02081800  0.21921300  1
  C  C47  1  0.48357400  0.60442800  0.18914200  1
  C  C48  1  0.37789700  0.59711000  0.89871700  1
  C  C49  1  0.89178100  0.01928600  0.31094000  1
  C  C50  1  0.60821900  0.91915900  0.12750500  1
  C  C51  1  0.10821900  0.62750600  0.41915900  1
  C  C52  1  0.91528600  0.12085500  0.60442800  1
  C  C53  1  0.37789700  0.28078700  0.47918200  1
  C  C54  1  0.30160700  0.89871700  0.02081800  1
  C  C55  1  0.29165300  0.31094000  0.91915900  1
  C  C56  1  0.70834700  0.51928600  0.62750600  1
  C  C57  1  0.98357400  0.68914200  0.10442800  1
  C  C58  1  0.87789700  0.39871700  0.09711000  1
  C  C59  1  0.79165300  0.41915900  0.81094000  1
  C  C60  1  0.79165300  0.87249400  0.98071400  1
  C  C61  1  0.41528600  0.81085800  0.79443100  1
  C  C62  1  0.39178100  0.81094000  0.51928600  1
  C  C63  1  0.80160700  0.78078700  0.40289000  1
  C  C64  1  0.70834700  0.68906000  0.08084100  1
  C  C65  1  0.69839300  0.10128300  0.97918200  1
  C  C66  1  0.62210300  0.71921300  0.52081800  1
  C  C67  1  0.51642600  0.62085500  0.70556900  1
  C  C68  1  0.08471400  0.87914500  0.39557200  1
  C  C69  1  0.39178100  0.08084100  0.87249400  1
  C  C70  1  0.10821900  0.98071400  0.68906000  1
  C  C71  1  0.62210300  0.40289000  0.10128300  1
  C  C72  1  0.51642600  0.39557200  0.81085800  1
  C  C73  1  0.87789700  0.97918200  0.78078700  1
  C  C74  1  0.41528600  0.10442800  0.62085500  1
  C  C75  1  0.80160700  0.52081800  0.39871700  1
  C  C76  1  0.98357400  0.79443100  0.87914500  1
  C  C77  1  0.08471400  0.70556900  0.68914200  1
  C  C78  1  0.69839300  0.09711000  0.71921300  1
  C  C79  1  0.48357400  0.37914500  0.29443100  1
