# generated using pymatgen
data_Cu3NiC
_symmetry_space_group_name_H-M   'P 1'
_cell_length_a   4.94107092
_cell_length_b   12.78720712
_cell_length_c   7.91533005
_cell_angle_alpha   89.99698938
_cell_angle_beta   90.00242293
_cell_angle_gamma   84.68707472
_symmetry_Int_Tables_number   1
_chemical_formula_structural   Cu3NiC
_chemical_formula_sum   'Cu24 Ni8 C8'
_cell_volume   497.96176153
_cell_formula_units_Z   8
loop_
 _symmetry_equiv_pos_site_id
 _symmetry_equiv_pos_as_xyz
  1  'x, y, z'
loop_
 _atom_site_type_symbol
 _atom_site_label
 _atom_site_symmetry_multiplicity
 _atom_site_fract_x
 _atom_site_fract_y
 _atom_site_fract_z
 _atom_site_occupancy
  C  C0  1  0.03281605  0.30343079  0.04839154  1
  C  C1  1  0.53404964  0.80339467  0.04841514  1
  C  C2  1  0.21581172  0.44664271  0.54855615  1
  C  C3  1  0.71708005  0.94659166  0.54842970  1
  C  C4  1  0.49929340  0.50615274  0.99891536  1
  C  C5  1  0.25064820  0.74414759  0.49880754  1
  C  C6  1  0.00073795  0.00577420  0.99840977  1
  C  C7  1  0.74977633  0.24401306  0.49803151  1
  Ni  Ni8  1  0.80679423  0.06131992  0.26106062  1
  Ni  Ni9  1  0.30485506  0.56132440  0.26184252  1
  Ni  Ni10  1  0.94327003  0.18867221  0.76105872  1
  Ni  Ni11  1  0.44520125  0.68860238  0.76164617  1
  Ni  Ni12  1  0.52419398  0.31815462  0.24613342  1
  Ni  Ni13  1  0.02536645  0.81792411  0.24622541  1
  Ni  Ni14  1  0.72459991  0.43204055  0.74633122  1
  Ni  Ni15  1  0.22564493  0.93189499  0.74614396  1
  Cu  Cu16  1  0.06938132  0.03942865  0.23584184  1
  Cu  Cu17  1  0.56757678  0.53908456  0.23704113  1
  Cu  Cu18  1  0.68072245  0.21061703  0.73562237  1
  Cu  Cu19  1  0.18254888  0.71076282  0.73660201  1
  Cu  Cu20  1  0.66234470  0.05721472  0.12412573  1
  Cu  Cu21  1  0.16115344  0.55728685  0.12449478  1
  Cu  Cu22  1  0.08782449  0.19272169  0.62413512  1
  Cu  Cu23  1  0.58906239  0.69276618  0.62442447  1
  Cu  Cu24  1  0.70818725  0.08195056  0.40722828  1
  Cu  Cu25  1  0.20509006  0.58198744  0.40780080  1
  Cu  Cu26  1  0.04176597  0.16804505  0.90724369  1
  Cu  Cu27  1  0.54458307  0.66800609  0.90777477  1
  Cu  Cu28  1  0.78706535  0.28903662  0.25147581  1
  Cu  Cu29  1  0.28821654  0.78855296  0.25132900  1
  Cu  Cu30  1  0.46176979  0.46142495  0.75147263  1
  Cu  Cu31  1  0.96280429  0.96108007  0.75153293  1
  Cu  Cu32  1  0.40538601  0.31547238  0.39522716  1
  Cu  Cu33  1  0.90671052  0.81537564  0.39543872  1
  Cu  Cu34  1  0.84327088  0.43464582  0.89552194  1
  Cu  Cu35  1  0.34462179  0.93447354  0.89521644  1
  Cu  Cu36  1  0.39916952  0.34453524  0.11126941  1
  Cu  Cu37  1  0.89978835  0.84460070  0.11167099  1
  Cu  Cu38  1  0.85011093  0.40539044  0.61175319  1
  Cu  Cu39  1  0.35070606  0.90545941  0.61131404  1
