# generated using pymatgen
data_CuNi13C6
_symmetry_space_group_name_H-M   'P 1'
_cell_length_a   8.09441300
_cell_length_b   8.09441300
_cell_length_c   13.46767248
_cell_angle_alpha   107.48840137
_cell_angle_beta   107.48840137
_cell_angle_gamma   90.00000000
_symmetry_Int_Tables_number   1
_chemical_formula_structural   CuNi13C6
_chemical_formula_sum   'Cu2 Ni26 C12'
_cell_volume   798.74298680
_cell_formula_units_Z   2
loop_
 _symmetry_equiv_pos_site_id
 _symmetry_equiv_pos_as_xyz
  1  'x, y, z'
loop_
 _atom_site_type_symbol
 _atom_site_label
 _atom_site_symmetry_multiplicity
 _atom_site_fract_x
 _atom_site_fract_y
 _atom_site_fract_z
 _atom_site_occupancy
  C  C0  1  0.60432400  0.60432400  0.20864700  1
  C  C1  1  0.10432400  0.10432400  0.20864700  1
  C  C2  1  0.39567600  0.39567600  0.79135300  1
  C  C3  1  0.89567600  0.89567600  0.79135300  1
  C  C4  1  0.97988700  0.47988700  0.63483600  1
  C  C5  1  0.65495000  0.15495000  0.63483600  1
  C  C6  1  0.15495000  0.97988700  0.63483600  1
  C  C7  1  0.47988700  0.65495000  0.63483600  1
  C  C8  1  0.02011300  0.52011300  0.36516400  1
  C  C9  1  0.34505000  0.84505000  0.36516400  1
  C  C10  1  0.84505000  0.02011300  0.36516400  1
  C  C11  1  0.52011300  0.34505000  0.36516400  1
  Ni  Ni12  1  0.00000000  0.50000000  0.00000000  1
  Ni  Ni13  1  0.50000000  0.00000000  0.00000000  1
  Ni  Ni14  1  0.70902400  0.56717000  0.00000000  1
  Ni  Ni15  1  0.29097600  0.43283000  0.00000000  1
  Ni  Ni16  1  0.79097600  0.06717000  0.00000000  1
  Ni  Ni17  1  0.20902400  0.93283000  0.00000000  1
  Ni  Ni18  1  0.56717000  0.29097600  0.00000000  1
  Ni  Ni19  1  0.43283000  0.70902400  0.00000000  1
  Ni  Ni20  1  0.06717000  0.20902400  0.00000000  1
  Ni  Ni21  1  0.93283000  0.79097600  0.00000000  1
  Ni  Ni22  1  0.12128000  0.62128000  0.88611500  1
  Ni  Ni23  1  0.76483600  0.26483600  0.88611500  1
  Ni  Ni24  1  0.26483600  0.12128000  0.88611500  1
  Ni  Ni25  1  0.62128000  0.76483600  0.88611500  1
  Ni  Ni26  1  0.87872000  0.37872000  0.11388500  1
  Ni  Ni27  1  0.23516400  0.73516400  0.11388500  1
  Ni  Ni28  1  0.73516400  0.87872000  0.11388500  1
  Ni  Ni29  1  0.37872000  0.23516400  0.11388500  1
  Ni  Ni30  1  0.29679200  0.79679200  0.81954700  1
  Ni  Ni31  1  0.52275500  0.02275500  0.81954700  1
  Ni  Ni32  1  0.02275500  0.29679200  0.81954700  1
  Ni  Ni33  1  0.79679200  0.52275500  0.81954700  1
  Ni  Ni34  1  0.70320800  0.20320800  0.18045300  1
  Ni  Ni35  1  0.47724500  0.97724500  0.18045300  1
  Ni  Ni36  1  0.97724500  0.70320800  0.18045300  1
  Ni  Ni37  1  0.20320800  0.47724500  0.18045300  1
  Cu  Cu38  1  0.25000000  0.25000000  0.50000000  1
  Cu  Cu39  1  0.75000000  0.75000000  0.50000000  1
