# generated using pymatgen
data_Cu13Ni3C80
_symmetry_space_group_name_H-M   'P 1'
_cell_length_a   5.05992900
_cell_length_b   8.75030630
_cell_length_c   19.52877393
_cell_angle_alpha   98.27646178
_cell_angle_beta   94.91990402
_cell_angle_gamma   89.83269539
_symmetry_Int_Tables_number   1
_chemical_formula_structural   Cu13Ni3C80
_chemical_formula_sum   'Cu13 Ni3 C80'
_cell_volume   852.45768879
_cell_formula_units_Z   1
loop_
 _symmetry_equiv_pos_site_id
 _symmetry_equiv_pos_as_xyz
  1  'x, y, z'
loop_
 _atom_site_type_symbol
 _atom_site_label
 _atom_site_symmetry_multiplicity
 _atom_site_fract_x
 _atom_site_fract_y
 _atom_site_fract_z
 _atom_site_occupancy
  C  C0  1  0.99138200  0.17293600  0.24952800  1
  C  C1  1  0.87680600  0.37488500  0.37426200  1
  C  C2  1  0.74688500  0.25067800  0.99979400  1
  C  C3  1  0.74023300  0.91895600  0.00096600  1
  C  C4  1  0.99045900  0.16881900  0.74998900  1
  C  C5  1  0.75472300  0.57997200  0.50048100  1
  C  C6  1  0.87330500  0.37510100  0.87582200  1
  C  C7  1  0.74437700  0.25193700  0.50049400  1
  C  C8  1  0.74361500  0.92205200  0.50020200  1
  C  C9  1  0.62530900  0.12521600  0.12518600  1
  C  C10  1  0.75829800  0.58049000  0.00060200  1
  C  C11  1  0.50817200  0.33327300  0.25003200  1
  C  C12  1  0.62587700  0.12589800  0.62524200  1
  C  C13  1  0.50374800  0.99899400  0.25007300  1
  C  C14  1  0.48542700  0.66579400  0.24949400  1
  C  C15  1  0.51521200  0.33058300  0.75047700  1
  C  C16  1  0.37635300  0.87414800  0.37504300  1
  C  C17  1  0.49134900  0.00239300  0.75006900  1
  C  C18  1  0.24484800  0.75334500  0.00071200  1
  C  C19  1  0.49205300  0.66883600  0.74966700  1
  C  C20  1  0.24250300  0.41943100  0.99948900  1
  C  C21  1  0.37355500  0.87598000  0.87483900  1
  C  C22  1  0.25561600  0.07818800  0.49924300  1
  C  C23  1  0.25781800  0.74673300  0.49967300  1
  C  C24  1  0.12482300  0.62495900  0.12495700  1
  C  C25  1  0.24265200  0.42304900  0.50012200  1
  C  C26  1  0.01039400  0.83012800  0.25009800  1
  C  C27  1  0.26327500  0.07934900  0.00009600  1
  C  C28  1  0.12741100  0.62469400  0.62422700  1
  C  C29  1  0.00447500  0.49694300  0.24961200  1
  C  C30  1  0.01004200  0.82954800  0.75036000  1
  C  C31  1  0.00061900  0.49899600  0.74994100  1
  Ni  Ni32  1  0.87500200  0.71213800  0.37645600  1
  Ni  Ni33  1  0.87383900  0.03727400  0.87339200  1
  Ni  Ni34  1  0.12869100  0.28853900  0.62651600  1
  Cu  Cu35  1  0.87395300  0.04729200  0.37474600  1
  Cu  Cu36  1  0.87623000  0.70267600  0.87527200  1
  Cu  Cu37  1  0.61496100  0.78853500  0.12377100  1
  Cu  Cu38  1  0.63517000  0.46142400  0.12660400  1
  Cu  Cu39  1  0.62240700  0.79666700  0.62418200  1
  Cu  Cu40  1  0.62858900  0.46151400  0.62500400  1
  Cu  Cu41  1  0.38027500  0.53836100  0.37466300  1
  Cu  Cu42  1  0.37004600  0.20301000  0.37355900  1
  Cu  Cu43  1  0.38003300  0.54760300  0.87644200  1
  Cu  Cu44  1  0.36908900  0.21213900  0.87536000  1
  Cu  Cu45  1  0.11375300  0.96048300  0.12389500  1
  Cu  Cu46  1  0.13677900  0.28947100  0.12605200  1
  Cu  Cu47  1  0.12183100  0.95235800  0.62451300  1
  C  C48  1  0.96469900  0.10144000  0.06812400  1
  C  C49  1  0.92026900  0.78161700  0.06896200  1
  C  C50  1  0.92133000  0.42522900  0.06854600  1
  C  C51  1  0.96420300  0.10381800  0.56863600  1
  C  C52  1  0.82797000  0.96213600  0.18054800  1
  C  C53  1  0.83004800  0.31887100  0.18215000  1
  C  C54  1  0.93622500  0.78804300  0.56850700  1
  C  C55  1  0.91929500  0.42919100  0.56732400  1
  C  C56  1  0.78573600  0.63807100  0.18180700  1
  C  C57  1  0.71505800  0.85944300  0.31811800  1
  C  C58  1  0.81376400  0.95960500  0.68152400  1
  C  C59  1  0.82622800  0.32066200  0.68395200  1
  C  C60  1  0.67065400  0.53291200  0.31845500  1
  C  C61  1  0.68464800  0.17461600  0.31715000  1
  C  C62  1  0.78421000  0.64102800  0.67977900  1
  C  C63  1  0.71219800  0.85221900  0.81820900  1
  C  C64  1  0.46294900  0.61215300  0.06873400  1
  C  C65  1  0.57503200  0.71750600  0.43250600  1
  C  C66  1  0.56519200  0.07771100  0.43234400  1
  C  C67  1  0.68833300  0.53749500  0.81893700  1
  C  C68  1  0.67408600  0.17949700  0.81795600  1
  C  C69  1  0.42108700  0.93142700  0.06784400  1
  C  C70  1  0.42323700  0.28821400  0.06950000  1
  C  C71  1  0.53262500  0.39444900  0.42982200  1
  C  C72  1  0.46080000  0.61122900  0.56879500  1
  C  C73  1  0.56347500  0.71343500  0.93147200  1
  C  C74  1  0.56899500  0.07488100  0.93248800  1
  C  C75  1  0.32820500  0.82463700  0.18158400  1
  C  C76  1  0.32867600  0.46816800  0.18095800  1
  C  C77  1  0.43447000  0.92516500  0.56746600  1
  C  C78  1  0.43154600  0.28750800  0.56851100  1
  C  C79  1  0.53862000  0.39865800  0.93184100  1
  C  C80  1  0.28620600  0.14807400  0.18140600  1
  C  C81  1  0.21188000  0.35214400  0.31855600  1
  C  C82  1  0.31374900  0.82480800  0.68230200  1
  C  C83  1  0.32592400  0.46671000  0.68150800  1
  C  C84  1  0.18102000  0.67554900  0.31735900  1
  C  C85  1  0.18553600  0.03724000  0.31811300  1
  C  C86  1  0.28767700  0.13973900  0.68160700  1
  C  C87  1  0.21756200  0.35586200  0.82007500  1
  C  C88  1  0.07567900  0.57037000  0.43195000  1
  C  C89  1  0.06215900  0.21211000  0.43097900  1
  C  C90  1  0.18500500  0.67244900  0.81737600  1
  C  C91  1  0.17460000  0.03305200  0.81741400  1
  C  C92  1  0.03791600  0.89726400  0.43141500  1
  C  C93  1  0.06479700  0.57495800  0.93293700  1
  C  C94  1  0.07967400  0.21688700  0.93199300  1
  C  C95  1  0.03448100  0.88996400  0.93124100  1
