# generated using pymatgen
data_CuNi3C8
_symmetry_space_group_name_H-M   'P 1'
_cell_length_a   14.32260095
_cell_length_b   14.32260095
_cell_length_c   5.97509347
_cell_angle_alpha   85.43764317
_cell_angle_beta   85.43764317
_cell_angle_gamma   13.79522093
_symmetry_Int_Tables_number   1
_chemical_formula_structural   CuNi3C8
_chemical_formula_sum   'Cu1 Ni3 C8'
_cell_volume   291.33437996
_cell_formula_units_Z   1
loop_
 _symmetry_equiv_pos_site_id
 _symmetry_equiv_pos_as_xyz
  1  'x, y, z'
loop_
 _atom_site_type_symbol
 _atom_site_label
 _atom_site_symmetry_multiplicity
 _atom_site_fract_x
 _atom_site_fract_y
 _atom_site_fract_z
 _atom_site_occupancy
  Ni  Ni0  1  0.74961800  0.74961800  0.75122700  1
  Ni  Ni1  1  0.49993600  0.49993600  0.51079500  1
  Ni  Ni2  1  0.24990800  0.24990800  0.24973100  1
  Cu  Cu3  1  0.99981400  0.99981400  0.98947200  1
  C  C4  1  0.06040300  0.06040300  0.64836200  1
  C  C5  1  0.80980300  0.80980300  0.39420300  1
  C  C6  1  0.55732300  0.55732300  0.14043900  1
  C  C7  1  0.30988300  0.30988300  0.89313800  1
  C  C8  1  0.68991700  0.68991700  0.43816700  1
  C  C9  1  0.44233600  0.44233600  0.18499400  1
  C  C10  1  0.18957700  0.18957700  0.93918500  1
  C  C11  1  0.93948300  0.93948300  0.69428600  1
