# generated using pymatgen
data_Cu3Ni5C
_symmetry_space_group_name_H-M   'P 1'
_cell_length_a   5.55663100
_cell_length_b   9.74040500
_cell_length_c   14.09823700
_cell_angle_alpha   90.00000000
_cell_angle_beta   90.00000000
_cell_angle_gamma   90.00000000
_symmetry_Int_Tables_number   1
_chemical_formula_structural   Cu3Ni5C
_chemical_formula_sum   'Cu12 Ni20 C4'
_cell_volume   763.05067257
_cell_formula_units_Z   4
loop_
 _symmetry_equiv_pos_site_id
 _symmetry_equiv_pos_as_xyz
  1  'x, y, z'
loop_
 _atom_site_type_symbol
 _atom_site_label
 _atom_site_symmetry_multiplicity
 _atom_site_fract_x
 _atom_site_fract_y
 _atom_site_fract_z
 _atom_site_occupancy
  C  C0  1  0.78688100  0.75000000  0.13782900  1
  C  C1  1  0.71311900  0.75000000  0.63782900  1
  C  C2  1  0.21311900  0.25000000  0.86217100  1
  C  C3  1  0.28688100  0.25000000  0.36217100  1
  Ni  Ni4  1  0.52025000  0.75000000  0.18953500  1
  Ni  Ni5  1  0.97975000  0.75000000  0.68953500  1
  Ni  Ni6  1  0.47975000  0.25000000  0.81046500  1
  Ni  Ni7  1  0.02025000  0.25000000  0.31046500  1
  Ni  Ni8  1  0.01271200  0.75000000  0.20623800  1
  Ni  Ni9  1  0.48728800  0.75000000  0.70623800  1
  Ni  Ni10  1  0.98728800  0.25000000  0.79376200  1
  Ni  Ni11  1  0.51271200  0.25000000  0.29376200  1
  Ni  Ni12  1  0.73115000  0.57170600  0.08717900  1
  Ni  Ni13  1  0.76885000  0.92829400  0.58717900  1
  Ni  Ni14  1  0.26885000  0.07170600  0.91282100  1
  Ni  Ni15  1  0.23115000  0.42829400  0.41282100  1
  Ni  Ni16  1  0.26885000  0.42829400  0.91282100  1
  Ni  Ni17  1  0.23115000  0.07170600  0.41282100  1
  Ni  Ni18  1  0.73115000  0.92829400  0.08717900  1
  Ni  Ni19  1  0.76885000  0.57170600  0.58717900  1
  Ni  Ni20  1  0.72413200  0.75000000  0.00185300  1
  Ni  Ni21  1  0.77586800  0.75000000  0.50185300  1
  Ni  Ni22  1  0.27586800  0.25000000  0.99814700  1
  Ni  Ni23  1  0.22413200  0.25000000  0.49814700  1
  Cu  Cu24  1  0.97225600  0.75000000  0.93473900  1
  Cu  Cu25  1  0.52774400  0.75000000  0.43473900  1
  Cu  Cu26  1  0.02774400  0.25000000  0.06526100  1
  Cu  Cu27  1  0.47225600  0.25000000  0.56526100  1
  Cu  Cu28  1  0.96736900  0.48279000  0.36759000  1
  Cu  Cu29  1  0.53263100  0.01721000  0.86759000  1
  Cu  Cu30  1  0.03263100  0.98279000  0.63241000  1
  Cu  Cu31  1  0.46736900  0.51721000  0.13241000  1
  Cu  Cu32  1  0.03263100  0.51721000  0.63241000  1
  Cu  Cu33  1  0.46736900  0.98279000  0.13241000  1
  Cu  Cu34  1  0.96736900  0.01721000  0.36759000  1
  Cu  Cu35  1  0.53263100  0.48279000  0.86759000  1
