# generated using pymatgen
data_CuNiC6
_symmetry_space_group_name_H-M   'P 1'
_cell_length_a   5.65272100
_cell_length_b   10.76354200
_cell_length_c   15.07638700
_cell_angle_alpha   90.00000000
_cell_angle_beta   90.00000000
_cell_angle_gamma   90.00000000
_symmetry_Int_Tables_number   1
_chemical_formula_structural   CuNiC6
_chemical_formula_sum   'Cu8 Ni8 C48'
_cell_volume   917.29713562
_cell_formula_units_Z   8
loop_
 _symmetry_equiv_pos_site_id
 _symmetry_equiv_pos_as_xyz
  1  'x, y, z'
loop_
 _atom_site_type_symbol
 _atom_site_label
 _atom_site_symmetry_multiplicity
 _atom_site_fract_x
 _atom_site_fract_y
 _atom_site_fract_z
 _atom_site_occupancy
  Ni  Ni0  1  0.42140100  0.35828200  0.52601800  1
  Ni  Ni1  1  0.92140100  0.14171800  0.52601800  1
  Ni  Ni2  1  0.92140100  0.64171800  0.97398200  1
  Ni  Ni3  1  0.07859900  0.35828200  0.02601800  1
  Ni  Ni4  1  0.57859900  0.14171800  0.02601800  1
  Ni  Ni5  1  0.07859900  0.85828200  0.47398200  1
  Ni  Ni6  1  0.57859900  0.64171800  0.47398200  1
  Ni  Ni7  1  0.42140100  0.85828200  0.97398200  1
  C  C8  1  0.92097800  0.38876800  0.40461400  1
  C  C9  1  0.57902200  0.88876800  0.59538600  1
  C  C10  1  0.07902200  0.61123200  0.59538600  1
  C  C11  1  0.42097800  0.11123200  0.40461400  1
  C  C12  1  0.07902200  0.11123200  0.90461400  1
  C  C13  1  0.92097800  0.88876800  0.09538600  1
  C  C14  1  0.57902200  0.38876800  0.90461400  1
  C  C15  1  0.42097800  0.61123200  0.09538600  1
  Cu  Cu16  1  0.02944500  0.84311900  0.77359200  1
  Cu  Cu17  1  0.97055500  0.15688100  0.22640800  1
  Cu  Cu18  1  0.47055500  0.34311900  0.22640800  1
  Cu  Cu19  1  0.97055500  0.65688100  0.27359200  1
  Cu  Cu20  1  0.52944500  0.15688100  0.72640800  1
  Cu  Cu21  1  0.52944500  0.65688100  0.77359200  1
  Cu  Cu22  1  0.47055500  0.84311900  0.27359200  1
  Cu  Cu23  1  0.02944500  0.34311900  0.72640800  1
  C  C24  1  0.79534200  0.29742800  0.31355600  1
  C  C25  1  0.33323400  0.04304900  0.95300200  1
  C  C26  1  0.16676600  0.54304900  0.04699800  1
  C  C27  1  0.35703100  0.80228900  0.84797000  1
  C  C28  1  0.14296900  0.30228900  0.15203000  1
  C  C29  1  0.79534200  0.79742800  0.18644400  1
  C  C30  1  0.14296900  0.80228900  0.34797000  1
  C  C31  1  0.70465800  0.79742800  0.68644400  1
  C  C32  1  0.33323400  0.54304900  0.54699800  1
  C  C33  1  0.20465800  0.70257200  0.68644400  1
  C  C34  1  0.70465800  0.29742800  0.81355600  1
  C  C35  1  0.58559100  0.19682200  0.48391700  1
  C  C36  1  0.83323400  0.95695100  0.54699800  1
  C  C37  1  0.64296900  0.69771100  0.34797000  1
  C  C38  1  0.10854500  0.99324100  0.15348000  1
  C  C39  1  0.83323400  0.45695100  0.95300200  1
  C  C40  1  0.20465800  0.20257200  0.81355600  1
  C  C41  1  0.85703100  0.19771100  0.65203000  1
  C  C42  1  0.08559100  0.80317800  0.01608300  1
  C  C43  1  0.16676600  0.04304900  0.45300200  1
  C  C44  1  0.41440900  0.80317800  0.51608300  1
  C  C45  1  0.89145500  0.00675900  0.84652000  1
  C  C46  1  0.64296900  0.19771100  0.15203000  1
  C  C47  1  0.60854500  0.00675900  0.34652000  1
  C  C48  1  0.41440900  0.30317800  0.98391700  1
  C  C49  1  0.08559100  0.30317800  0.48391700  1
  C  C50  1  0.66676600  0.45695100  0.45300200  1
  C  C51  1  0.66676600  0.95695100  0.04699800  1
  C  C52  1  0.60854500  0.50675900  0.15348000  1
  C  C53  1  0.91440900  0.69682200  0.51608300  1
  C  C54  1  0.91440900  0.19682200  0.98391700  1
  C  C55  1  0.58559100  0.69682200  0.01608300  1
  C  C56  1  0.89145500  0.50675900  0.65348000  1
  C  C57  1  0.85703100  0.69771100  0.84797000  1
  C  C58  1  0.35703100  0.30228900  0.65203000  1
  C  C59  1  0.10854500  0.49324100  0.34652000  1
  C  C60  1  0.39145500  0.49324100  0.84652000  1
  C  C61  1  0.29534200  0.20257200  0.31355600  1
  C  C62  1  0.39145500  0.99324100  0.65348000  1
  C  C63  1  0.29534200  0.70257200  0.18644400  1
