# generated using pymatgen
data_CuNi2C
_symmetry_space_group_name_H-M   'P 1'
_cell_length_a   4.83622300
_cell_length_b   8.31183600
_cell_length_c   11.68950700
_cell_angle_alpha   90.00000000
_cell_angle_beta   90.00000000
_cell_angle_gamma   90.00000000
_symmetry_Int_Tables_number   1
_chemical_formula_structural   CuNi2C
_chemical_formula_sum   'Cu4 Ni8 C4'
_cell_volume   469.89354501
_cell_formula_units_Z   4
loop_
 _symmetry_equiv_pos_site_id
 _symmetry_equiv_pos_as_xyz
  1  'x, y, z'
loop_
 _atom_site_type_symbol
 _atom_site_label
 _atom_site_symmetry_multiplicity
 _atom_site_fract_x
 _atom_site_fract_y
 _atom_site_fract_z
 _atom_site_occupancy
  C  C0  1  0.25000000  0.11397400  0.81742200  1
  C  C1  1  0.25000000  0.38602600  0.31742200  1
  C  C2  1  0.75000000  0.88602600  0.18257800  1
  C  C3  1  0.75000000  0.61397400  0.68257800  1
  Ni  Ni4  1  0.25000000  0.37110800  0.60351300  1
  Ni  Ni5  1  0.25000000  0.12889200  0.10351300  1
  Ni  Ni6  1  0.75000000  0.62889200  0.39648700  1
  Ni  Ni7  1  0.75000000  0.87110800  0.89648700  1
  Ni  Ni8  1  0.25000000  0.64189900  0.11171500  1
  Ni  Ni9  1  0.25000000  0.85810100  0.61171500  1
  Ni  Ni10  1  0.75000000  0.35810100  0.88828500  1
  Ni  Ni11  1  0.75000000  0.14189900  0.38828500  1
  Cu  Cu12  1  0.25000000  0.61512200  0.74226100  1
  Cu  Cu13  1  0.25000000  0.88487800  0.24226100  1
  Cu  Cu14  1  0.75000000  0.38487800  0.25773900  1
  Cu  Cu15  1  0.75000000  0.11512200  0.75773900  1
