# generated using pymatgen
data_Cu2Ni2C19
_symmetry_space_group_name_H-M   'P 1'
_cell_length_a   9.57682706
_cell_length_b   13.11271454
_cell_length_c   13.48816833
_cell_angle_alpha   101.49072726
_cell_angle_beta   90.00000000
_cell_angle_gamma   90.00000000
_symmetry_Int_Tables_number   1
_chemical_formula_structural   Cu2Ni2C19
_chemical_formula_sum   'Cu8 Ni8 C76'
_cell_volume   1659.87058843
_cell_formula_units_Z   4
loop_
 _symmetry_equiv_pos_site_id
 _symmetry_equiv_pos_as_xyz
  1  'x, y, z'
loop_
 _atom_site_type_symbol
 _atom_site_label
 _atom_site_symmetry_multiplicity
 _atom_site_fract_x
 _atom_site_fract_y
 _atom_site_fract_z
 _atom_site_occupancy
  C  C0  1  0.85037394  0.07452451  0.41941672  1
  C  C1  1  0.35037394  0.42547549  0.58058328  1
  C  C2  1  0.14962606  0.92547549  0.58058328  1
  C  C3  1  0.64962606  0.57452451  0.41941672  1
  C  C4  1  0.12050288  0.67382529  0.01807749  1
  C  C5  1  0.62050288  0.82617471  0.98192251  1
  C  C6  1  0.87949712  0.32617471  0.98192251  1
  C  C7  1  0.37949712  0.17382529  0.01807749  1
  Ni  Ni8  1  0.17607356  0.93100665  0.25357991  1
  Ni  Ni9  1  0.67607356  0.56899335  0.74642009  1
  Ni  Ni10  1  0.82392644  0.06899335  0.74642009  1
  Ni  Ni11  1  0.32392644  0.43100665  0.25357991  1
  Ni  Ni12  1  0.81042505  0.79010312  0.25236230  1
  Ni  Ni13  1  0.31042505  0.70989688  0.74763770  1
  Ni  Ni14  1  0.18957495  0.20989688  0.74763770  1
  Ni  Ni15  1  0.68957495  0.29010312  0.25236230  1
  Cu  Cu16  1  0.95239635  0.51878430  0.22493457  1
  Cu  Cu17  1  0.45239635  0.98121570  0.77506543  1
  Cu  Cu18  1  0.04760365  0.48121570  0.77506543  1
  Cu  Cu19  1  0.54760365  0.01878430  0.22493457  1
  Cu  Cu20  1  0.06300727  0.20892359  0.22066015  1
  Cu  Cu21  1  0.56300727  0.29107641  0.77933985  1
  Cu  Cu22  1  0.93699273  0.79107641  0.77933985  1
  Cu  Cu23  1  0.43699273  0.70892359  0.22066015  1
  C  C24  1  0.13328029  0.97377038  0.38796655  1
  C  C25  1  0.63328029  0.52622962  0.61203345  1
  C  C26  1  0.86671971  0.02622962  0.61203345  1
  C  C27  1  0.36671971  0.47377038  0.38796655  1
  C  C28  1  0.20715287  0.88482048  0.11929262  1
  C  C29  1  0.70715287  0.61517952  0.88070738  1
  C  C30  1  0.79284713  0.11517952  0.88070738  1
  C  C31  1  0.29284713  0.38482048  0.11929262  1
  C  C32  1  0.81681243  0.84645864  0.38730089  1
  C  C33  1  0.31681243  0.65354136  0.61269911  1
  C  C34  1  0.18318757  0.15354136  0.61269911  1
  C  C35  1  0.68318757  0.34645864  0.38730089  1
  C  C36  1  0.80894801  0.73889242  0.11679537  1
  C  C37  1  0.30894801  0.76110758  0.88320463  1
  C  C38  1  0.19105199  0.26110758  0.88320463  1
  C  C39  1  0.69105199  0.23889242  0.11679537  1
  C  C40  1  0.86372928  0.62504118  0.28470431  1
  C  C41  1  0.36372928  0.87495882  0.71529569  1
  C  C42  1  0.13627072  0.37495882  0.71529569  1
  C  C43  1  0.63627072  0.12504118  0.28470431  1
  C  C44  1  0.10574505  0.51053798  0.28213772  1
  C  C45  1  0.60574505  0.98946202  0.71786228  1
  C  C46  1  0.89425495  0.48946202  0.71786228  1
  C  C47  1  0.39425495  0.01053798  0.28213772  1
  C  C48  1  0.85654153  0.41216608  0.22842980  1
  C  C49  1  0.35654153  0.08783392  0.77157020  1
  C  C50  1  0.14345847  0.58783392  0.77157020  1
  C  C51  1  0.64345847  0.91216608  0.22842980  1
  C  C52  1  0.98067106  0.52464835  0.10800163  1
  C  C53  1  0.48067106  0.97535165  0.89199837  1
  C  C54  1  0.01932894  0.47535165  0.89199837  1
  C  C55  1  0.51932894  0.02464835  0.10800163  1
  C  C56  1  0.16459835  0.30492899  0.28392288  1
  C  C57  1  0.66459835  0.19507101  0.71607712  1
  C  C58  1  0.83540165  0.69507101  0.71607712  1
  C  C59  1  0.33540165  0.80492899  0.28392288  1
  C  C60  1  0.90393486  0.21214345  0.27590831  1
  C  C61  1  0.40393486  0.28785655  0.72409169  1
  C  C62  1  0.09606514  0.78785655  0.72409169  1
  C  C63  1  0.59606514  0.71214345  0.27590831  1
  C  C64  1  0.14014332  0.09454342  0.22316655  1
  C  C65  1  0.64014332  0.40545658  0.77683345  1
  C  C66  1  0.85985668  0.90545658  0.77683345  1
  C  C67  1  0.35985668  0.59454342  0.22316655  1
  C  C68  1  0.04846579  0.22171472  0.10457689  1
  C  C69  1  0.54846579  0.27828528  0.89542311  1
  C  C70  1  0.95153421  0.77828528  0.89542311  1
  C  C71  1  0.45153421  0.72171472  0.10457689  1
  C  C72  1  0.35093439  0.51004395  0.96309541  1
  C  C73  1  0.85093439  0.98995605  0.03690459  1
  C  C74  1  0.64906561  0.48995605  0.03690459  1
  C  C75  1  0.14906561  0.01004395  0.96309541  1
  C  C76  1  0.52262009  0.04412420  0.50309170  1
  C  C77  1  0.02262009  0.45587580  0.49690830  1
  C  C78  1  0.47737991  0.95587580  0.49690830  1
  C  C79  1  0.97737991  0.54412420  0.50309170  1
  C  C80  1  0.86487436  0.28386457  0.55168273  1
  C  C81  1  0.36487436  0.21613543  0.44831727  1
  C  C82  1  0.13512564  0.71613543  0.44831727  1
  C  C83  1  0.63512564  0.78386457  0.55168273  1
  C  C84  1  0.05397089  0.77341031  0.24536317  1
  C  C85  1  0.55397089  0.72658969  0.75463683  1
  C  C86  1  0.94602911  0.22658969  0.75463683  1
  C  C87  1  0.44602911  0.27341031  0.24536317  1
  C  C88  1  0.93071433  0.94294699  0.23138136  1
  C  C89  1  0.43071433  0.55705301  0.76861864  1
  C  C90  1  0.06928567  0.05705301  0.76861864  1
  C  C91  1  0.56928567  0.44294699  0.23138136  1
