# generated using pymatgen
data_Cu5Ni3C2
_symmetry_space_group_name_H-M   'P 1'
_cell_length_a   8.44826200
_cell_length_b   8.44826200
_cell_length_c   3.24184800
_cell_angle_alpha   90.00000000
_cell_angle_beta   90.00000000
_cell_angle_gamma   90.00000000
_symmetry_Int_Tables_number   1
_chemical_formula_structural   Cu5Ni3C2
_chemical_formula_sum   'Cu10 Ni6 C4'
_cell_volume   231.38084140
_cell_formula_units_Z   2
loop_
 _symmetry_equiv_pos_site_id
 _symmetry_equiv_pos_as_xyz
  1  'x, y, z'
loop_
 _atom_site_type_symbol
 _atom_site_label
 _atom_site_symmetry_multiplicity
 _atom_site_fract_x
 _atom_site_fract_y
 _atom_site_fract_z
 _atom_site_occupancy
  Ni  Ni0  1  0.67502900  0.17502900  0.00000000  1
  Ni  Ni1  1  0.32497100  0.82497100  0.00000000  1
  Ni  Ni2  1  0.17502900  0.32497100  0.00000000  1
  Ni  Ni3  1  0.82497100  0.67502900  0.00000000  1
  Ni  Ni4  1  0.00000000  0.00000000  0.00000000  1
  Ni  Ni5  1  0.50000000  0.50000000  0.00000000  1
  Cu  Cu6  1  0.50000000  0.00000000  0.50000000  1
  Cu  Cu7  1  0.00000000  0.50000000  0.50000000  1
  Cu  Cu8  1  0.22081400  0.06956600  0.50000000  1
  Cu  Cu9  1  0.77918600  0.93043400  0.50000000  1
  Cu  Cu10  1  0.06956600  0.77918600  0.50000000  1
  Cu  Cu11  1  0.72081400  0.43043400  0.50000000  1
  Cu  Cu12  1  0.93043400  0.22081400  0.50000000  1
  Cu  Cu13  1  0.27918600  0.56956600  0.50000000  1
  Cu  Cu14  1  0.56956600  0.72081400  0.50000000  1
  Cu  Cu15  1  0.43043400  0.27918600  0.50000000  1
  C  C16  1  0.11790500  0.61790500  0.00000000  1
  C  C17  1  0.88209500  0.38209500  0.00000000  1
  C  C18  1  0.61790500  0.88209500  0.00000000  1
  C  C19  1  0.38209500  0.11790500  0.00000000  1
