# generated using pymatgen
data_CuNiC2
_symmetry_space_group_name_H-M   'P 1'
_cell_length_a   7.84352800
_cell_length_b   8.97548100
_cell_length_c   9.77736500
_cell_angle_alpha   90.00000000
_cell_angle_beta   90.00000000
_cell_angle_gamma   90.00000000
_symmetry_Int_Tables_number   1
_chemical_formula_structural   CuNiC2
_chemical_formula_sum   'Cu12 Ni12 C24'
_cell_volume   688.32098682
_cell_formula_units_Z   12
loop_
 _symmetry_equiv_pos_site_id
 _symmetry_equiv_pos_as_xyz
  1  'x, y, z'
loop_
 _atom_site_type_symbol
 _atom_site_label
 _atom_site_symmetry_multiplicity
 _atom_site_fract_x
 _atom_site_fract_y
 _atom_site_fract_z
 _atom_site_occupancy
  Ni  Ni0  1  0.74518000  0.82560500  0.04855900  1
  Ni  Ni1  1  0.74518000  0.17439500  0.95144100  1
  Ni  Ni2  1  0.25482000  0.67439500  0.54855900  1
  Ni  Ni3  1  0.25482000  0.32560500  0.45144100  1
  Ni  Ni4  1  0.25482000  0.17439500  0.95144100  1
  Ni  Ni5  1  0.25482000  0.82560500  0.04855900  1
  Ni  Ni6  1  0.74518000  0.32560500  0.45144100  1
  Ni  Ni7  1  0.74518000  0.67439500  0.54855900  1
  Ni  Ni8  1  0.50000000  0.83175800  0.32133900  1
  Ni  Ni9  1  0.50000000  0.16824200  0.67866100  1
  Ni  Ni10  1  0.50000000  0.66824200  0.82133900  1
  Ni  Ni11  1  0.50000000  0.33175800  0.17866100  1
  Cu  Cu12  1  0.74936700  0.58363400  0.25323600  1
  Cu  Cu13  1  0.74936700  0.41636600  0.74676400  1
  Cu  Cu14  1  0.25063300  0.91636600  0.75323600  1
  Cu  Cu15  1  0.25063300  0.08363400  0.24676400  1
  Cu  Cu16  1  0.25063300  0.41636600  0.74676400  1
  Cu  Cu17  1  0.25063300  0.58363400  0.25323600  1
  Cu  Cu18  1  0.74936700  0.08363400  0.24676400  1
  Cu  Cu19  1  0.74936700  0.91636600  0.75323600  1
  Cu  Cu20  1  0.74512900  0.00000000  0.50000000  1
  Cu  Cu21  1  0.25487100  0.50000000  0.00000000  1
  Cu  Cu22  1  0.25487100  0.00000000  0.50000000  1
  Cu  Cu23  1  0.74512900  0.50000000  0.00000000  1
  C  C24  1  0.84998500  0.83428100  0.31922000  1
  C  C25  1  0.84998500  0.16571900  0.68078000  1
  C  C26  1  0.15001500  0.66571900  0.81922000  1
  C  C27  1  0.15001500  0.33428100  0.18078000  1
  C  C28  1  0.15001500  0.16571900  0.68078000  1
  C  C29  1  0.15001500  0.83428100  0.31922000  1
  C  C30  1  0.84998500  0.33428100  0.18078000  1
  C  C31  1  0.84998500  0.66571900  0.81922000  1
  C  C32  1  0.50000000  0.53831000  0.38041900  1
  C  C33  1  0.50000000  0.46169000  0.61958100  1
  C  C34  1  0.50000000  0.96169000  0.88041900  1
  C  C35  1  0.50000000  0.03831000  0.11958100  1
  C  C36  1  0.00000000  0.53941000  0.37592500  1
  C  C37  1  0.00000000  0.46059000  0.62407500  1
  C  C38  1  0.00000000  0.96059000  0.87592500  1
  C  C39  1  0.00000000  0.03941000  0.12407500  1
  C  C40  1  0.50000000  0.62395600  0.10601200  1
  C  C41  1  0.50000000  0.37604400  0.89398800  1
  C  C42  1  0.50000000  0.87604400  0.60601200  1
  C  C43  1  0.50000000  0.12395600  0.39398800  1
  C  C44  1  0.00000000  0.61146500  0.10180200  1
  C  C45  1  0.00000000  0.38853500  0.89819800  1
  C  C46  1  0.00000000  0.88853500  0.60180200  1
  C  C47  1  0.00000000  0.11146500  0.39819800  1
