# generated using pymatgen
data_Cu2Ni4C5
_symmetry_space_group_name_H-M   'P 1'
_cell_length_a   9.15966329
_cell_length_b   9.15966329
_cell_length_c   9.15966329
_cell_angle_alpha   131.45690358
_cell_angle_beta   119.61909666
_cell_angle_gamma   81.00848723
_symmetry_Int_Tables_number   1
_chemical_formula_structural   Cu2Ni4C5
_chemical_formula_sum   'Cu4 Ni8 C10'
_cell_volume   483.15272333
_cell_formula_units_Z   2
loop_
 _symmetry_equiv_pos_site_id
 _symmetry_equiv_pos_as_xyz
  1  'x, y, z'
loop_
 _atom_site_type_symbol
 _atom_site_label
 _atom_site_symmetry_multiplicity
 _atom_site_fract_x
 _atom_site_fract_y
 _atom_site_fract_z
 _atom_site_occupancy
  C  C0  1  0.73967700  0.51572100  0.25539800  1
  C  C1  1  0.26032300  0.48427900  0.74460200  1
  C  C2  1  0.23967700  0.98427900  0.22395700  1
  C  C3  1  0.76032200  0.01572100  0.77604300  1
  C  C4  1  0.25000000  0.75000000  0.50000000  1
  C  C5  1  0.75000000  0.25000000  0.50000000  1
  C  C6  1  0.42656700  0.25000000  0.17656700  1
  C  C7  1  0.07343300  0.25000000  0.82343300  1
  C  C8  1  0.57343300  0.75000000  0.82343300  1
  C  C9  1  0.92656700  0.75000000  0.17656700  1
  Ni  Ni10  1  0.16502700  0.35586600  0.31214200  1
  Ni  Ni11  1  0.04372400  0.85288500  0.68785800  1
  Ni  Ni12  1  0.45627600  0.14413400  0.80916200  1
  Ni  Ni13  1  0.33497300  0.64711500  0.19083800  1
  Ni  Ni14  1  0.83497300  0.64413400  0.68785800  1
  Ni  Ni15  1  0.95627600  0.14711500  0.31214200  1
  Ni  Ni16  1  0.54372400  0.85586600  0.19083800  1
  Ni  Ni17  1  0.66502700  0.35288500  0.80916200  1
  Cu  Cu18  1  0.95314900  0.26327500  0.21642500  1
  Cu  Cu19  1  0.04685100  0.73672500  0.78357500  1
  Cu  Cu20  1  0.45314900  0.23672500  0.68987400  1
  Cu  Cu21  1  0.54685100  0.76327500  0.31012600  1
