# generated using pymatgen
data_CuNiC8
_symmetry_space_group_name_H-M   'P 1'
_cell_length_a   8.02655400
_cell_length_b   8.02655400
_cell_length_c   7.98045400
_cell_angle_alpha   90.00000000
_cell_angle_beta   90.00000000
_cell_angle_gamma   90.00000000
_symmetry_Int_Tables_number   1
_chemical_formula_structural   CuNiC8
_chemical_formula_sum   'Cu4 Ni4 C32'
_cell_volume   514.14529075
_cell_formula_units_Z   4
loop_
 _symmetry_equiv_pos_site_id
 _symmetry_equiv_pos_as_xyz
  1  'x, y, z'
loop_
 _atom_site_type_symbol
 _atom_site_label
 _atom_site_symmetry_multiplicity
 _atom_site_fract_x
 _atom_site_fract_y
 _atom_site_fract_z
 _atom_site_occupancy
  Ni  Ni0  1  0.25291100  0.25291100  0.25403000  1
  Ni  Ni1  1  0.74708900  0.25291100  0.25403000  1
  Ni  Ni2  1  0.25291100  0.74708900  0.25403000  1
  Ni  Ni3  1  0.74708900  0.74708900  0.25403000  1
  Cu  Cu4  1  0.25333100  0.25333100  0.74563500  1
  Cu  Cu5  1  0.74666900  0.25333100  0.74563500  1
  Cu  Cu6  1  0.25333100  0.74666900  0.74563500  1
  Cu  Cu7  1  0.74666900  0.74666900  0.74563500  1
  C  C8  1  0.50000000  0.00000000  0.50178200  1
  C  C9  1  0.00000000  0.50000000  0.50178200  1
  C  C10  1  0.50000000  0.50000000  0.99784400  1
  C  C11  1  0.50000000  0.50000000  0.50385700  1
  C  C12  1  0.00000000  0.00000000  0.99955800  1
  C  C13  1  0.00000000  0.00000000  0.50497100  1
  C  C14  1  0.50000000  0.00000000  0.99670900  1
  C  C15  1  0.00000000  0.50000000  0.99670900  1
  C  C16  1  0.00000000  0.25358000  0.99501400  1
  C  C17  1  0.00000000  0.23828400  0.50526900  1
  C  C18  1  0.50000000  0.24277000  0.99485400  1
  C  C19  1  0.50000000  0.24934100  0.50621100  1
  C  C20  1  0.00000000  0.74642000  0.99501400  1
  C  C21  1  0.00000000  0.76171600  0.50526900  1
  C  C22  1  0.50000000  0.75723000  0.99485400  1
  C  C23  1  0.50000000  0.75065900  0.50621100  1
  C  C24  1  0.25358000  0.00000000  0.99501400  1
  C  C25  1  0.23828400  0.00000000  0.50526900  1
  C  C26  1  0.74642000  0.00000000  0.99501400  1
  C  C27  1  0.76171600  0.00000000  0.50526900  1
  C  C28  1  0.24277000  0.50000000  0.99485400  1
  C  C29  1  0.24934100  0.50000000  0.50621100  1
  C  C30  1  0.75723000  0.50000000  0.99485400  1
  C  C31  1  0.75065900  0.50000000  0.50621100  1
  C  C32  1  0.00000000  0.00000000  0.24466600  1
  C  C33  1  0.00000000  0.00000000  0.75591300  1
  C  C34  1  0.50000000  0.00000000  0.24012200  1
  C  C35  1  0.50000000  0.00000000  0.75683000  1
  C  C36  1  0.00000000  0.50000000  0.24012200  1
  C  C37  1  0.00000000  0.50000000  0.75683000  1
  C  C38  1  0.50000000  0.50000000  0.23585200  1
  C  C39  1  0.50000000  0.50000000  0.76240300  1
