# generated using pymatgen
data_CuNiC11
_symmetry_space_group_name_H-M   'P 1'
_cell_length_a   5.56536800
_cell_length_b   7.00574819
_cell_length_c   9.53612480
_cell_angle_alpha   110.95375668
_cell_angle_beta   101.53567765
_cell_angle_gamma   97.82171782
_symmetry_Int_Tables_number   1
_chemical_formula_structural   CuNiC11
_chemical_formula_sum   'Cu2 Ni2 C22'
_cell_volume   331.33511183
_cell_formula_units_Z   2
loop_
 _symmetry_equiv_pos_site_id
 _symmetry_equiv_pos_as_xyz
  1  'x, y, z'
loop_
 _atom_site_type_symbol
 _atom_site_label
 _atom_site_symmetry_multiplicity
 _atom_site_fract_x
 _atom_site_fract_y
 _atom_site_fract_z
 _atom_site_occupancy
  C  C0  1  0.20018400  0.75340400  0.04898500  1
  C  C1  1  0.79981600  0.24659600  0.95101500  1
  Ni  Ni2  1  0.33966600  0.72983800  0.65205400  1
  Ni  Ni3  1  0.66033400  0.27016200  0.34794600  1
  Cu  Cu4  1  0.07161800  0.27909600  0.55890600  1
  Cu  Cu5  1  0.92838200  0.72090400  0.44109400  1
  C  C6  1  0.15983400  0.19174900  0.22942300  1
  C  C7  1  0.84016600  0.80825100  0.77057700  1
  C  C8  1  0.53902400  0.72146200  0.30110100  1
  C  C9  1  0.46097600  0.27853800  0.69889900  1
  C  C10  1  0.92607200  0.65742100  0.89146400  1
  C  C11  1  0.44715300  0.26288100  0.21148500  1
  C  C12  1  0.89254400  0.02704200  0.77590600  1
  C  C13  1  0.26603800  0.42293800  0.69571100  1
  C  C14  1  0.55284700  0.73711900  0.78851500  1
  C  C15  1  0.43408900  0.17453400  0.57654300  1
  C  C16  1  0.56591100  0.82546600  0.42345700  1
  C  C17  1  0.39051300  0.12869900  0.86456800  1
  C  C18  1  0.10745600  0.97295800  0.22409400  1
  C  C19  1  0.60948700  0.87130100  0.13543200  1
  C  C20  1  0.07392800  0.34257900  0.10853600  1
  C  C21  1  0.97368200  0.18693200  0.39044800  1
  C  C22  1  0.02631800  0.81306800  0.60955200  1
  C  C23  1  0.25610100  0.58840000  0.35999000  1
  C  C24  1  0.73396200  0.57706200  0.30428900  1
  C  C25  1  0.74389900  0.41160000  0.64001000  1
