# generated using pymatgen
data_Cu(Ni2C)2
_symmetry_space_group_name_H-M   'P 1'
_cell_length_a   5.21362551
_cell_length_b   5.21362551
_cell_length_c   5.21362551
_cell_angle_alpha   143.57372256
_cell_angle_beta   102.03279885
_cell_angle_gamma   89.24979635
_symmetry_Int_Tables_number   1
_chemical_formula_structural   Cu(Ni2C)2
_chemical_formula_sum   'Cu1 Ni4 C2'
_cell_volume   79.32877763
_cell_formula_units_Z   1
loop_
 _symmetry_equiv_pos_site_id
 _symmetry_equiv_pos_as_xyz
  1  'x, y, z'
loop_
 _atom_site_type_symbol
 _atom_site_label
 _atom_site_symmetry_multiplicity
 _atom_site_fract_x
 _atom_site_fract_y
 _atom_site_fract_z
 _atom_site_occupancy
  C  C0  1  0.23375200  0.73375200  0.50000000  1
  C  C1  1  0.76624800  0.26624800  0.50000000  1
  Ni  Ni2  1  0.63436600  0.50000000  0.13436600  1
  Ni  Ni3  1  0.36563400  0.50000000  0.86563400  1
  Ni  Ni4  1  0.22822400  0.00000000  0.22822400  1
  Ni  Ni5  1  0.77177600  0.00000000  0.77177600  1
  Cu  Cu6  1  0.00000000  0.00000000  0.00000000  1
