# generated using pymatgen
data_Cu5Ni2C25
_symmetry_space_group_name_H-M   'P 1'
_cell_length_a   5.00162400
_cell_length_b   5.88610230
_cell_length_c   10.28546366
_cell_angle_alpha   90.11702814
_cell_angle_beta   98.34755851
_cell_angle_gamma   106.03512460
_symmetry_Int_Tables_number   1
_chemical_formula_structural   Cu5Ni2C25
_chemical_formula_sum   'Cu5 Ni2 C25'
_cell_volume   287.65726419
_cell_formula_units_Z   1
loop_
 _symmetry_equiv_pos_site_id
 _symmetry_equiv_pos_as_xyz
  1  'x, y, z'
loop_
 _atom_site_type_symbol
 _atom_site_label
 _atom_site_symmetry_multiplicity
 _atom_site_fract_x
 _atom_site_fract_y
 _atom_site_fract_z
 _atom_site_occupancy
  C  C0  1  0.00224200  0.25254900  0.26129500  1
  C  C1  1  0.50872900  0.87630600  0.62450600  1
  C  C2  1  0.00232300  0.00461000  0.50386500  1
  C  C3  1  0.49010100  0.61954700  0.86660000  1
  C  C4  1  0.00888500  0.74998200  0.74185300  1
  C  C5  1  0.49289200  0.37745400  0.12660700  1
  C  C6  1  0.99863000  0.49867600  0.99046600  1
  C  C7  1  0.50811400  0.12763900  0.38363700  1
  C  C8  1  0.00053500  0.24941900  0.74828200  1
  Ni  Ni9  1  0.99409200  0.99865200  0.99525800  1
  Ni  Ni10  1  0.49382300  0.12509600  0.86979300  1
  Cu  Cu11  1  0.50618000  0.62442500  0.37986000  1
  Cu  Cu12  1  0.49909100  0.87705200  0.12399700  1
  Cu  Cu13  1  0.99866700  0.49052400  0.50736200  1
  Cu  Cu14  1  0.99702200  0.75182500  0.25234300  1
  Cu  Cu15  1  0.49778600  0.37603600  0.63080200  1
  C  C16  1  0.73595200  0.16167300  0.05203900  1
  C  C17  1  0.25127900  0.79265300  0.43016300  1
  C  C18  1  0.75990500  0.92866100  0.30741000  1
  C  C19  1  0.26149700  0.55420800  0.67987200  1
  C  C20  1  0.75119000  0.68148100  0.55931600  1
  C  C21  1  0.24299300  0.27995000  0.93972200  1
  C  C22  1  0.72288700  0.41133200  0.81960000  1
  C  C23  1  0.24071300  0.04391400  0.16949700  1
  C  C24  1  0.26126800  0.32314700  0.44200600  1
  C  C25  1  0.74722500  0.94732700  0.83055800  1
  C  C26  1  0.28023500  0.06859500  0.70098600  1
  C  C27  1  0.75045200  0.71586500  0.06535000  1
  C  C28  1  0.23773400  0.83380000  0.93399800  1
  C  C29  1  0.74800500  0.45328800  0.31406300  1
  C  C30  1  0.25371400  0.59196900  0.18511900  1
  C  C31  1  0.75583700  0.21234200  0.56378100  1
