# generated using pymatgen
data_Cu2Ni3C23
_symmetry_space_group_name_H-M   'P 1'
_cell_length_a   5.96658500
_cell_length_b   5.98626969
_cell_length_c   9.74699367
_cell_angle_alpha   89.52651929
_cell_angle_beta   89.61672593
_cell_angle_gamma   60.10843529
_symmetry_Int_Tables_number   1
_chemical_formula_structural   Cu2Ni3C23
_chemical_formula_sum   'Cu2 Ni3 C23'
_cell_volume   301.81456172
_cell_formula_units_Z   1
loop_
 _symmetry_equiv_pos_site_id
 _symmetry_equiv_pos_as_xyz
  1  'x, y, z'
loop_
 _atom_site_type_symbol
 _atom_site_label
 _atom_site_symmetry_multiplicity
 _atom_site_fract_x
 _atom_site_fract_y
 _atom_site_fract_z
 _atom_site_occupancy
  C  C0  1  0.32891200  0.66890900  0.10384500  1
  C  C1  1  0.00245300  0.99921500  0.00656400  1
  C  C2  1  0.00027300  0.00002400  0.50648400  1
  C  C3  1  0.66730900  0.33664800  0.60533100  1
  C  C4  1  0.17006000  0.33854900  0.78548300  1
  C  C5  1  0.17659200  0.83359800  0.78231000  1
  C  C6  1  0.34440000  0.17643800  0.28290000  1
  Ni  Ni7  1  0.66364000  0.82905800  0.78753000  1
  Ni  Ni8  1  0.83030200  0.16969600  0.28492600  1
  Ni  Ni9  1  0.83631200  0.66296400  0.28698200  1
  Cu  Cu10  1  0.33480300  0.66422600  0.50831700  1
  Cu  Cu11  1  0.66658000  0.32997700  0.00689600  1
  C  C12  1  0.16148500  0.32156200  0.40030000  1
  C  C13  1  0.03536600  0.52105900  0.66252200  1
  C  C14  1  0.31999700  0.67095300  0.89140500  1
  C  C15  1  0.01020800  0.99501800  0.69330100  1
  C  C16  1  0.01465100  0.00617900  0.19368800  1
  C  C17  1  0.16812400  0.84586100  0.40022800  1
  C  C18  1  0.48677400  0.52199400  0.66264600  1
  C  C19  1  0.47356900  0.96683100  0.66378800  1
  C  C20  1  0.32118600  0.15803700  0.89915100  1
  C  C21  1  0.67993400  0.83691800  0.40020400  1
  C  C22  1  0.51275900  0.03382000  0.16070400  1
  C  C23  1  0.50231500  0.47000900  0.16298200  1
  C  C24  1  0.64889700  0.32292100  0.39276400  1
  C  C25  1  0.83740100  0.15532000  0.90021700  1
  C  C26  1  0.96228500  0.48576800  0.16015000  1
  C  C27  1  0.84341400  0.67814500  0.90054600  1
