# generated using pymatgen
data_Cu3(NiC4)2
_symmetry_space_group_name_H-M   'P 1'
_cell_length_a   6.77903070
_cell_length_b   6.77903070
_cell_length_c   9.61355200
_cell_angle_alpha   90.00000000
_cell_angle_beta   90.00000000
_cell_angle_gamma   120.00000682
_symmetry_Int_Tables_number   1
_chemical_formula_structural   Cu3(NiC4)2
_chemical_formula_sum   'Cu6 Ni4 C16'
_cell_volume   382.60415569
_cell_formula_units_Z   2
loop_
 _symmetry_equiv_pos_site_id
 _symmetry_equiv_pos_as_xyz
  1  'x, y, z'
loop_
 _atom_site_type_symbol
 _atom_site_label
 _atom_site_symmetry_multiplicity
 _atom_site_fract_x
 _atom_site_fract_y
 _atom_site_fract_z
 _atom_site_occupancy
  Ni  Ni0  1  0.66666700  0.33333300  0.04038600  1
  Ni  Ni1  1  0.33333300  0.66666700  0.54038600  1
  Ni  Ni2  1  0.66666700  0.33333300  0.40203300  1
  Ni  Ni3  1  0.33333300  0.66666700  0.90203300  1
  Cu  Cu4  1  0.66821200  0.83410600  0.24213800  1
  Cu  Cu5  1  0.83410600  0.16589400  0.74213800  1
  Cu  Cu6  1  0.16589400  0.33178800  0.24213800  1
  Cu  Cu7  1  0.83410600  0.66821200  0.74213800  1
  Cu  Cu8  1  0.33178800  0.16589400  0.74213800  1
  Cu  Cu9  1  0.16589400  0.83410600  0.24213800  1
  C  C10  1  0.82596000  0.17404000  0.13838900  1
  C  C11  1  0.65192000  0.82596000  0.63838900  1
  C  C12  1  0.17404000  0.34808000  0.63838900  1
  C  C13  1  0.82596000  0.65192000  0.13838900  1
  C  C14  1  0.34808000  0.17404000  0.13838900  1
  C  C15  1  0.17404000  0.82596000  0.63838900  1
  C  C16  1  0.51329700  0.48670300  0.88102000  1
  C  C17  1  0.02659500  0.51329700  0.38102000  1
  C  C18  1  0.48670300  0.97340500  0.38102000  1
  C  C19  1  0.51329700  0.02659500  0.88102000  1
  C  C20  1  0.00000000  0.00000000  0.35420000  1
  C  C21  1  0.00000000  0.00000000  0.85420000  1
  C  C22  1  0.33333300  0.66666700  0.11224700  1
  C  C23  1  0.97340500  0.48670300  0.88102000  1
  C  C24  1  0.48670300  0.51329700  0.38102000  1
  C  C25  1  0.66666700  0.33333300  0.61224700  1
