# generated using pymatgen
data_Cu6Ni3C26
_symmetry_space_group_name_H-M   'P 1'
_cell_length_a   6.05966500
_cell_length_b   6.20211452
_cell_length_c   13.67556018
_cell_angle_alpha   99.26823264
_cell_angle_beta   91.50462515
_cell_angle_gamma   109.04210624
_symmetry_Int_Tables_number   1
_chemical_formula_structural   Cu6Ni3C26
_chemical_formula_sum   'Cu6 Ni3 C26'
_cell_volume   477.78408547
_cell_formula_units_Z   1
loop_
 _symmetry_equiv_pos_site_id
 _symmetry_equiv_pos_as_xyz
  1  'x, y, z'
loop_
 _atom_site_type_symbol
 _atom_site_label
 _atom_site_symmetry_multiplicity
 _atom_site_fract_x
 _atom_site_fract_y
 _atom_site_fract_z
 _atom_site_occupancy
  C  C0  1  0.66655000  0.00807500  0.32961900  1
  C  C1  1  0.33345000  0.99192500  0.67038100  1
  Ni  Ni2  1  0.50000000  0.50000000  0.50000000  1
  Ni  Ni3  1  0.82817700  0.45716100  0.14409600  1
  Ni  Ni4  1  0.17182300  0.54283900  0.85590400  1
  Cu  Cu5  1  0.25854000  0.32541900  0.24744100  1
  Cu  Cu6  1  0.57856500  0.33082000  0.92283600  1
  Cu  Cu7  1  0.92450800  0.32676900  0.58648800  1
  Cu  Cu8  1  0.07549200  0.67323100  0.41351200  1
  Cu  Cu9  1  0.42143500  0.66918000  0.07716400  1
  Cu  Cu10  1  0.74146000  0.67458100  0.75255900  1
  C  C11  1  0.78002300  0.06897400  0.49411200  1
  C  C12  1  0.11656400  0.05278700  0.17582000  1
  C  C13  1  0.45144500  0.06546800  0.83060400  1
  C  C14  1  0.42952900  0.25146400  0.34759000  1
  C  C15  1  0.74159200  0.25145000  0.01693100  1
  C  C16  1  0.09010300  0.22073100  0.66846100  1
  C  C17  1  0.81152400  0.52225800  0.48881700  1
  C  C18  1  0.15062600  0.51911900  0.15643300  1
  C  C19  1  0.46942000  0.52900200  0.82408700  1
  C  C20  1  0.36024300  0.68416900  0.35077000  1
  C  C21  1  0.69165800  0.66599500  0.01579900  1
  C  C22  1  0.01947800  0.66126900  0.68146900  1
  C  C23  1  0.90989700  0.77926900  0.33153900  1
  C  C24  1  0.25840800  0.74855000  0.98306900  1
  C  C25  1  0.57047100  0.74853600  0.65241000  1
  C  C26  1  0.21997700  0.93102600  0.50588800  1
  C  C27  1  0.54855500  0.93453200  0.16939600  1
  C  C28  1  0.88343600  0.94721300  0.82418000  1
  C  C29  1  0.18847600  0.47774200  0.51118300  1
  C  C30  1  0.53058000  0.47099800  0.17591300  1
  C  C31  1  0.84937400  0.48088100  0.84356700  1
  C  C32  1  0.98052200  0.33873100  0.31853100  1
  C  C33  1  0.30834200  0.33400500  0.98420100  1
  C  C34  1  0.63975700  0.31583100  0.64923000  1
