# generated using pymatgen
data_Cu6Ni
_symmetry_space_group_name_H-M   'P 1'
_cell_length_a   5.03603100
_cell_length_b   19.32986300
_cell_length_c   5.65916458
_cell_angle_alpha   90.00000000
_cell_angle_beta   115.28362339
_cell_angle_gamma   90.00000000
_symmetry_Int_Tables_number   1
_chemical_formula_structural   Cu6Ni
_chemical_formula_sum   'Cu24 Ni4'
_cell_volume   498.12258969
_cell_formula_units_Z   4
loop_
 _symmetry_equiv_pos_site_id
 _symmetry_equiv_pos_as_xyz
  1  'x, y, z'
loop_
 _atom_site_type_symbol
 _atom_site_label
 _atom_site_symmetry_multiplicity
 _atom_site_fract_x
 _atom_site_fract_y
 _atom_site_fract_z
 _atom_site_occupancy
  Ni  Ni0  1  0.13954000  0.12267800  0.67731900  1
  Ni  Ni1  1  0.13954000  0.37732200  0.17731900  1
  Ni  Ni2  1  0.86046000  0.87732200  0.32268100  1
  Ni  Ni3  1  0.86046000  0.62267800  0.82268100  1
  Cu  Cu4  1  0.42431700  0.05264000  0.72406800  1
  Cu  Cu5  1  0.42431700  0.44736000  0.22406800  1
  Cu  Cu6  1  0.57568300  0.94736000  0.27593200  1
  Cu  Cu7  1  0.57568300  0.55264000  0.77593200  1
  Cu  Cu8  1  0.80227100  0.08605800  0.40344500  1
  Cu  Cu9  1  0.80227100  0.41394200  0.90344500  1
  Cu  Cu10  1  0.19772900  0.91394200  0.59655500  1
  Cu  Cu11  1  0.19772900  0.58605800  0.09655500  1
  Cu  Cu12  1  0.08258400  0.06108600  0.90903700  1
  Cu  Cu13  1  0.08258400  0.43891400  0.40903700  1
  Cu  Cu14  1  0.91741600  0.93891400  0.09096300  1
  Cu  Cu15  1  0.91741600  0.56108600  0.59096300  1
  Cu  Cu16  1  0.85892400  0.19396700  0.62980100  1
  Cu  Cu17  1  0.85892400  0.30603300  0.12980100  1
  Cu  Cu18  1  0.14107600  0.80603300  0.37019900  1
  Cu  Cu19  1  0.14107600  0.69396700  0.87019900  1
  Cu  Cu20  1  0.47875900  0.16222000  0.94556700  1
  Cu  Cu21  1  0.47875900  0.33778000  0.44556700  1
  Cu  Cu22  1  0.52124100  0.83778000  0.05443300  1
  Cu  Cu23  1  0.52124100  0.66222000  0.55443300  1
  Cu  Cu24  1  0.21650500  0.18631500  0.45998200  1
  Cu  Cu25  1  0.21650500  0.31368500  0.95998200  1
  Cu  Cu26  1  0.78349500  0.81368500  0.54001800  1
  Cu  Cu27  1  0.78349500  0.68631500  0.04001800  1
