# generated using pymatgen
data_Cu6NiC2
_symmetry_space_group_name_H-M   'P 1'
_cell_length_a   7.26262800
_cell_length_b   7.43816700
_cell_length_c   10.20777800
_cell_angle_alpha   90.00000000
_cell_angle_beta   90.00000000
_cell_angle_gamma   90.00000000
_symmetry_Int_Tables_number   1
_chemical_formula_structural   Cu6NiC2
_chemical_formula_sum   'Cu24 Ni4 C8'
_cell_volume   551.43069975
_cell_formula_units_Z   4
loop_
 _symmetry_equiv_pos_site_id
 _symmetry_equiv_pos_as_xyz
  1  'x, y, z'
loop_
 _atom_site_type_symbol
 _atom_site_label
 _atom_site_symmetry_multiplicity
 _atom_site_fract_x
 _atom_site_fract_y
 _atom_site_fract_z
 _atom_site_occupancy
  C  C0  1  0.69551300  0.25000000  0.22231500  1
  C  C1  1  0.19551300  0.25000000  0.27768500  1
  C  C2  1  0.30448700  0.75000000  0.77768500  1
  C  C3  1  0.80448700  0.75000000  0.72231500  1
  C  C4  1  0.50000000  0.00000000  0.50000000  1
  C  C5  1  0.00000000  0.50000000  0.00000000  1
  C  C6  1  0.50000000  0.50000000  0.50000000  1
  C  C7  1  0.00000000  0.00000000  0.00000000  1
  Ni  Ni8  1  0.50992500  0.25000000  0.87180900  1
  Ni  Ni9  1  0.00992500  0.25000000  0.62819100  1
  Ni  Ni10  1  0.49007500  0.75000000  0.12819100  1
  Ni  Ni11  1  0.99007500  0.75000000  0.37180900  1
  Cu  Cu12  1  0.43285800  0.25000000  0.18120900  1
  Cu  Cu13  1  0.93285800  0.25000000  0.31879100  1
  Cu  Cu14  1  0.56714200  0.75000000  0.81879100  1
  Cu  Cu15  1  0.06714200  0.75000000  0.68120900  1
  Cu  Cu16  1  0.54254100  0.25000000  0.55289700  1
  Cu  Cu17  1  0.04254100  0.25000000  0.94710300  1
  Cu  Cu18  1  0.45745900  0.75000000  0.44710300  1
  Cu  Cu19  1  0.95745900  0.75000000  0.05289700  1
  Cu  Cu20  1  0.63465900  0.45251000  0.33915400  1
  Cu  Cu21  1  0.13465900  0.04749000  0.16084600  1
  Cu  Cu22  1  0.36534100  0.95251000  0.66084600  1
  Cu  Cu23  1  0.86534100  0.54749000  0.83915400  1
  Cu  Cu24  1  0.36534100  0.54749000  0.66084600  1
  Cu  Cu25  1  0.86534100  0.95251000  0.83915400  1
  Cu  Cu26  1  0.63465900  0.04749000  0.33915400  1
  Cu  Cu27  1  0.13465900  0.45251000  0.16084600  1
  Cu  Cu28  1  0.27155000  0.42741700  0.40891400  1
  Cu  Cu29  1  0.77155000  0.07258300  0.09108600  1
  Cu  Cu30  1  0.72845000  0.92741700  0.59108600  1
  Cu  Cu31  1  0.22845000  0.57258300  0.90891400  1
  Cu  Cu32  1  0.72845000  0.57258300  0.59108600  1
  Cu  Cu33  1  0.22845000  0.92741700  0.90891400  1
  Cu  Cu34  1  0.27155000  0.07258300  0.40891400  1
  Cu  Cu35  1  0.77155000  0.42741700  0.09108600  1
