# generated using pymatgen
data_CuNiC29
_symmetry_space_group_name_H-M   'P 1'
_cell_length_a   8.40022738
_cell_length_b   8.83277334
_cell_length_c   4.37925810
_cell_angle_alpha   90.00000000
_cell_angle_beta   90.00000000
_cell_angle_gamma   90.00000000
_symmetry_Int_Tables_number   1
_chemical_formula_structural   CuNiC29
_chemical_formula_sum   'Cu1 Ni1 C29'
_cell_volume   324.92914652
_cell_formula_units_Z   1
loop_
 _symmetry_equiv_pos_site_id
 _symmetry_equiv_pos_as_xyz
  1  'x, y, z'
loop_
 _atom_site_type_symbol
 _atom_site_label
 _atom_site_symmetry_multiplicity
 _atom_site_fract_x
 _atom_site_fract_y
 _atom_site_fract_z
 _atom_site_occupancy
  Ni  Ni0  1  0.40909734  0.50000000  0.00000000  1
  Cu  Cu1  1  0.99498502  0.00000000  0.00000000  1
  C  C2  1  0.97723172  0.50000000  0.00000000  1
  C  C3  1  0.51218881  0.00000000  0.00000000  1
  C  C4  1  0.00292108  0.24622790  0.50000000  1
  C  C5  1  0.00292108  0.75377210  0.50000000  1
  C  C6  1  0.50775793  0.24448956  0.50000000  1
  C  C7  1  0.50775793  0.75551044  0.50000000  1
  C  C8  1  0.25069077  0.00000000  0.50000000  1
  C  C9  1  0.24385436  0.50000000  0.50000000  1
  C  C10  1  0.76322113  0.00000000  0.50000000  1
  C  C11  1  0.74040122  0.50000000  0.50000000  1
  C  C12  1  0.24988261  0.21579211  0.00000000  1
  C  C13  1  0.24988261  0.78420789  0.00000000  1
  C  C14  1  0.74864622  0.25020973  -0.00000000  1
  C  C15  1  0.74864622  0.74979027  -0.00000000  1
  C  C16  1  0.25341249  0.00000000  0.00000000  1
  C  C17  1  0.75697516  0.00000000  0.00000000  1
  C  C18  1  0.74911003  0.50000000  0.00000000  1
  C  C19  1  0.25572046  0.26250495  0.50000000  1
  C  C20  1  0.25572046  0.73749505  0.50000000  1
  C  C21  1  0.75603610  0.25007554  0.50000000  1
  C  C22  1  0.75603610  0.74992446  0.50000000  1
  C  C23  1  0.00982207  0.00000000  0.50000000  1
  C  C24  1  0.00965400  0.50000000  0.50000000  1
  C  C25  1  0.50050038  0.00000000  0.50000000  1
  C  C26  1  0.50303962  0.50000000  0.50000000  1
  C  C27  1  0.01778715  0.27346330  0.00000000  1
  C  C28  1  0.01778715  0.72653670  0.00000000  1
  C  C29  1  0.49915640  0.22785255  0.00000000  1
  C  C30  1  0.49915640  0.77214745  0.00000000  1
