# generated using pymatgen
data_Cu11NiC20
_symmetry_space_group_name_H-M   'P 1'
_cell_length_a   10.76254421
_cell_length_b   10.76254421
_cell_length_c   5.29577534
_cell_angle_alpha   82.67304726
_cell_angle_beta   82.67304726
_cell_angle_gamma   138.53219685
_symmetry_Int_Tables_number   1
_chemical_formula_structural   Cu11NiC20
_chemical_formula_sum   'Cu11 Ni1 C20'
_cell_volume   378.93641175
_cell_formula_units_Z   1
loop_
 _symmetry_equiv_pos_site_id
 _symmetry_equiv_pos_as_xyz
  1  'x, y, z'
loop_
 _atom_site_type_symbol
 _atom_site_label
 _atom_site_symmetry_multiplicity
 _atom_site_fract_x
 _atom_site_fract_y
 _atom_site_fract_z
 _atom_site_occupancy
  Ni  Ni0  1  0.47414900  0.47414900  0.60992500  1
  Cu  Cu1  1  0.21591900  0.40250900  0.26793100  1
  Cu  Cu2  1  0.71082600  0.90188500  0.26887100  1
  Cu  Cu3  1  0.78764300  0.09514800  0.73531100  1
  Cu  Cu4  1  0.28794400  0.59787400  0.73046600  1
  Cu  Cu5  1  0.40250900  0.21591900  0.26793100  1
  Cu  Cu6  1  0.90188500  0.71082600  0.26887100  1
  Cu  Cu7  1  0.59787400  0.28794400  0.73046600  1
  Cu  Cu8  1  0.09514800  0.78764300  0.73531100  1
  Cu  Cu9  1  0.97129500  0.97129500  0.60654200  1
  Cu  Cu10  1  0.52762900  0.02633600  0.38922700  1
  Cu  Cu11  1  0.02633600  0.52762900  0.38922700  1
  C  C12  1  0.25266500  0.25266500  0.45703300  1
  C  C13  1  0.76838500  0.76838500  0.45895600  1
  C  C14  1  0.74139300  0.24180200  0.53235800  1
  C  C15  1  0.24180200  0.74139400  0.53235800  1
  C  C16  1  0.16641000  0.53514400  0.09735900  1
  C  C17  1  0.66489200  0.03717700  0.09641000  1
  C  C18  1  0.83574800  0.96416300  0.89969900  1
  C  C19  1  0.32866900  0.46606200  0.91065200  1
  C  C20  1  0.03717700  0.66489200  0.09641000  1
  C  C21  1  0.53514400  0.16641000  0.09735900  1
  C  C22  1  0.96416300  0.83574800  0.89969900  1
  C  C23  1  0.46606200  0.32866900  0.91065200  1
  C  C24  1  0.05768200  0.37829300  0.62492500  1
  C  C25  1  0.55790100  0.87784200  0.63415700  1
  C  C26  1  0.94032900  0.12364200  0.37131100  1
  C  C27  1  0.43984800  0.62279400  0.37509600  1
  C  C28  1  0.87784200  0.55790100  0.63415700  1
  C  C29  1  0.37829300  0.05768200  0.62492500  1
  C  C30  1  0.12364200  0.94032900  0.37131100  1
  C  C31  1  0.62279400  0.43984800  0.37509600  1
