# generated using pymatgen
data_Cu4Ni2C3
_symmetry_space_group_name_H-M   'P 1'
_cell_length_a   8.82184500
_cell_length_b   7.05607300
_cell_length_c   7.55027479
_cell_angle_alpha   79.60723805
_cell_angle_beta   90.00000000
_cell_angle_gamma   90.00000000
_symmetry_Int_Tables_number   1
_chemical_formula_structural   Cu4Ni2C3
_chemical_formula_sum   'Cu16 Ni8 C12'
_cell_volume   462.27588103
_cell_formula_units_Z   4
loop_
 _symmetry_equiv_pos_site_id
 _symmetry_equiv_pos_as_xyz
  1  'x, y, z'
loop_
 _atom_site_type_symbol
 _atom_site_label
 _atom_site_symmetry_multiplicity
 _atom_site_fract_x
 _atom_site_fract_y
 _atom_site_fract_z
 _atom_site_occupancy
  C  C0  1  0.13764300  0.25000000  0.00000000  1
  C  C1  1  0.86235700  0.75000000  0.00000000  1
  C  C2  1  0.40245700  0.25000000  0.50000000  1
  C  C3  1  0.59754300  0.75000000  0.50000000  1
  C  C4  1  0.16166100  0.57138100  0.42803200  1
  C  C5  1  0.16166100  0.92861900  0.57196800  1
  C  C6  1  0.83833900  0.42861900  0.57196800  1
  C  C7  1  0.83833900  0.07138100  0.42803200  1
  C  C8  1  0.55949900  0.24092700  0.16355300  1
  C  C9  1  0.55949900  0.25907300  0.83644700  1
  C  C10  1  0.44050100  0.75907300  0.83644700  1
  C  C11  1  0.44050100  0.74092700  0.16355300  1
  Ni  Ni12  1  0.15168900  0.48619700  0.31888300  1
  Ni  Ni13  1  0.15168900  0.01380300  0.68111700  1
  Ni  Ni14  1  0.84831100  0.51380300  0.68111700  1
  Ni  Ni15  1  0.84831100  0.98619700  0.31888300  1
  Ni  Ni16  1  0.60033300  0.37557200  0.20352200  1
  Ni  Ni17  1  0.60033300  0.12442800  0.79647800  1
  Ni  Ni18  1  0.39966700  0.62442800  0.79647800  1
  Ni  Ni19  1  0.39966700  0.87557200  0.20352200  1
  Cu  Cu20  1  0.24381700  0.34572000  0.31966500  1
  Cu  Cu21  1  0.24381700  0.15428000  0.68033500  1
  Cu  Cu22  1  0.75618300  0.65428000  0.68033500  1
  Cu  Cu23  1  0.75618300  0.84572000  0.31966500  1
  Cu  Cu24  1  0.05154900  0.52800100  0.19934900  1
  Cu  Cu25  1  0.05154900  0.97199900  0.80065100  1
  Cu  Cu26  1  0.94845100  0.47199900  0.80065100  1
  Cu  Cu27  1  0.94845100  0.02800100  0.19934900  1
  Cu  Cu28  1  0.31501900  0.98499800  0.09886300  1
  Cu  Cu29  1  0.31501900  0.51500200  0.90113700  1
  Cu  Cu30  1  0.68498100  0.01500200  0.90113700  1
  Cu  Cu31  1  0.68498100  0.48499800  0.09886300  1
  Cu  Cu32  1  0.55710100  0.40869800  0.35775000  1
  Cu  Cu33  1  0.55710100  0.09130200  0.64225000  1
  Cu  Cu34  1  0.44289900  0.59130200  0.64225000  1
  Cu  Cu35  1  0.44289900  0.90869800  0.35775000  1
