# generated using pymatgen
data_CuNiC9
_symmetry_space_group_name_H-M   'P 1'
_cell_length_a   8.54904700
_cell_length_b   11.19340900
_cell_length_c   13.72540800
_cell_angle_alpha   90.00000000
_cell_angle_beta   90.00000000
_cell_angle_gamma   90.00000000
_symmetry_Int_Tables_number   1
_chemical_formula_structural   CuNiC9
_chemical_formula_sum   'Cu8 Ni8 C72'
_cell_volume   1313.42518817
_cell_formula_units_Z   8
loop_
 _symmetry_equiv_pos_site_id
 _symmetry_equiv_pos_as_xyz
  1  'x, y, z'
loop_
 _atom_site_type_symbol
 _atom_site_label
 _atom_site_symmetry_multiplicity
 _atom_site_fract_x
 _atom_site_fract_y
 _atom_site_fract_z
 _atom_site_occupancy
  C  C0  1  0.76202800  0.48579100  0.81136300  1
  C  C1  1  0.26202800  0.01420900  0.18863700  1
  C  C2  1  0.23797200  0.98579100  0.68863700  1
  C  C3  1  0.73797200  0.51420900  0.31136300  1
  C  C4  1  0.23797200  0.51420900  0.18863700  1
  C  C5  1  0.73797200  0.98579100  0.81136300  1
  C  C6  1  0.76202800  0.01420900  0.31136300  1
  C  C7  1  0.26202800  0.48579100  0.68863700  1
  C  C8  1  0.59871900  0.74210400  0.04614100  1
  C  C9  1  0.09871900  0.75789600  0.95385900  1
  C  C10  1  0.40128100  0.24210400  0.45385900  1
  C  C11  1  0.90128100  0.25789600  0.54614100  1
  C  C12  1  0.40128100  0.25789600  0.95385900  1
  C  C13  1  0.90128100  0.24210400  0.04614100  1
  C  C14  1  0.59871900  0.75789600  0.54614100  1
  C  C15  1  0.09871900  0.74210400  0.45385900  1
  Ni  Ni16  1  0.34420100  0.59277100  0.99041400  1
  Ni  Ni17  1  0.84420100  0.90722900  0.00958600  1
  Ni  Ni18  1  0.65579900  0.09277100  0.50958600  1
  Ni  Ni19  1  0.15579900  0.40722900  0.49041400  1
  Ni  Ni20  1  0.65579900  0.40722900  0.00958600  1
  Ni  Ni21  1  0.15579900  0.09277100  0.99041400  1
  Ni  Ni22  1  0.34420100  0.90722900  0.49041400  1
  Ni  Ni23  1  0.84420100  0.59277100  0.50958600  1
  Cu  Cu24  1  0.45439900  0.74392800  0.79837300  1
  Cu  Cu25  1  0.95439900  0.75607200  0.20162700  1
  Cu  Cu26  1  0.54560100  0.24392800  0.70162700  1
  Cu  Cu27  1  0.04560100  0.25607200  0.29837300  1
  Cu  Cu28  1  0.54560100  0.25607200  0.20162700  1
  Cu  Cu29  1  0.04560100  0.24392800  0.79837300  1
  Cu  Cu30  1  0.45439900  0.75607200  0.29837300  1
  Cu  Cu31  1  0.95439900  0.74392800  0.70162700  1
  C  C32  1  0.34011300  0.67720700  0.01095000  1
  C  C33  1  0.84011300  0.82279300  0.98905000  1
  C  C34  1  0.65988700  0.17720700  0.48905000  1
  C  C35  1  0.15988700  0.32279300  0.51095000  1
  C  C36  1  0.65988700  0.32279300  0.98905000  1
  C  C37  1  0.15988700  0.17720700  0.01095000  1
  C  C38  1  0.34011300  0.82279300  0.51095000  1
  C  C39  1  0.84011300  0.67720700  0.48905000  1
  C  C40  1  0.65760400  0.59110800  0.01185100  1
  C  C41  1  0.15760400  0.90889200  0.98814800  1
  C  C42  1  0.34239600  0.09110800  0.48814800  1
  C  C43  1  0.84239600  0.40889200  0.51185200  1
  C  C44  1  0.34239600  0.40889200  0.98814800  1
  C  C45  1  0.84239600  0.09110800  0.01185100  1
  C  C46  1  0.65760400  0.90889200  0.51185200  1
  C  C47  1  0.15760400  0.59110800  0.48814800  1
  C  C48  1  0.55682500  0.79613900  0.87659200  1
  C  C49  1  0.05682500  0.70386100  0.12340800  1
  C  C50  1  0.44317500  0.29613900  0.62340800  1
  C  C51  1  0.94317500  0.20386100  0.37659200  1
  C  C52  1  0.44317500  0.20386100  0.12340800  1
  C  C53  1  0.94317500  0.29613900  0.87659200  1
  C  C54  1  0.55682500  0.70386100  0.37659200  1
  C  C55  1  0.05682500  0.79613900  0.62340800  1
  C  C56  1  0.48607700  0.81224700  0.70615400  1
  C  C57  1  0.98607700  0.68775300  0.29384600  1
  C  C58  1  0.51392300  0.31224700  0.79384600  1
  C  C59  1  0.01392300  0.18775300  0.20615400  1
  C  C60  1  0.51392300  0.18775300  0.29384600  1
  C  C61  1  0.01392300  0.31224700  0.70615400  1
  C  C62  1  0.48607700  0.68775300  0.20615400  1
  C  C63  1  0.98607700  0.81224700  0.79384600  1
  C  C64  1  0.28685400  0.76895600  0.82219800  1
  C  C65  1  0.78685400  0.73104400  0.17780200  1
  C  C66  1  0.71314600  0.26895600  0.67780200  1
  C  C67  1  0.21314600  0.23104400  0.32219800  1
  C  C68  1  0.71314600  0.23104400  0.17780200  1
  C  C69  1  0.21314600  0.26895600  0.82219800  1
  C  C70  1  0.28685400  0.73104400  0.32219800  1
  C  C71  1  0.78685400  0.76895600  0.67780200  1
  C  C72  1  0.53880400  0.89206600  0.07584400  1
  C  C73  1  0.03880400  0.60793400  0.92415600  1
  C  C74  1  0.46119600  0.39206600  0.42415600  1
  C  C75  1  0.96119600  0.10793400  0.57584400  1
  C  C76  1  0.46119600  0.10793400  0.92415600  1
  C  C77  1  0.96119600  0.39206600  0.07584400  1
  C  C78  1  0.53880400  0.60793400  0.57584400  1
  C  C79  1  0.03880400  0.89206600  0.42415600  1
  C  C80  1  0.48287100  0.61586900  0.78843300  1
  C  C81  1  0.98287100  0.88413100  0.21156700  1
  C  C82  1  0.51712900  0.11586900  0.71156700  1
  C  C83  1  0.01712900  0.38413100  0.28843300  1
  C  C84  1  0.51712900  0.38413100  0.21156700  1
  C  C85  1  0.01712900  0.11586900  0.78843300  1
  C  C86  1  0.48287100  0.88413100  0.28843300  1
  C  C87  1  0.98287100  0.61586900  0.71156700  1
