# generated using pymatgen
data_CuNi3C
_symmetry_space_group_name_H-M   'P 1'
_cell_length_a   5.95601000
_cell_length_b   14.52697200
_cell_length_c   12.16005829
_cell_angle_alpha   90.00000000
_cell_angle_beta   99.34618792
_cell_angle_gamma   90.00000000
_symmetry_Int_Tables_number   1
_chemical_formula_structural   CuNi3C
_chemical_formula_sum   'Cu8 Ni24 C8'
_cell_volume   1038.15538241
_cell_formula_units_Z   8
loop_
 _symmetry_equiv_pos_site_id
 _symmetry_equiv_pos_as_xyz
  1  'x, y, z'
loop_
 _atom_site_type_symbol
 _atom_site_label
 _atom_site_symmetry_multiplicity
 _atom_site_fract_x
 _atom_site_fract_y
 _atom_site_fract_z
 _atom_site_occupancy
  C  C0  1  0.44525700  0.49024000  0.27923300  1
  C  C1  1  0.55474300  0.99024000  0.22076700  1
  C  C2  1  0.55474300  0.50976000  0.72076700  1
  C  C3  1  0.44525700  0.00976000  0.77923300  1
  C  C4  1  0.04149200  0.29788900  0.23281400  1
  C  C5  1  0.95850800  0.79788900  0.26718600  1
  C  C6  1  0.95850800  0.70211100  0.76718600  1
  C  C7  1  0.04149200  0.20211100  0.73281400  1
  Ni  Ni8  1  0.57216900  0.56111300  0.14301100  1
  Ni  Ni9  1  0.42783100  0.06111300  0.35698900  1
  Ni  Ni10  1  0.42783100  0.43888700  0.85698900  1
  Ni  Ni11  1  0.57216900  0.93888700  0.64301100  1
  Ni  Ni12  1  0.78827900  0.47416900  0.37711500  1
  Ni  Ni13  1  0.21172100  0.97416900  0.12288500  1
  Ni  Ni14  1  0.21172100  0.52583100  0.62288500  1
  Ni  Ni15  1  0.78827900  0.02583100  0.87711500  1
  Ni  Ni16  1  0.14188400  0.43493800  0.14491300  1
  Ni  Ni17  1  0.85811600  0.93493800  0.35508700  1
  Ni  Ni18  1  0.85811600  0.56506200  0.85508700  1
  Ni  Ni19  1  0.14188400  0.06506200  0.64491300  1
  Ni  Ni20  1  0.34386500  0.35334900  0.36674800  1
  Ni  Ni21  1  0.65613500  0.85334900  0.13325200  1
  Ni  Ni22  1  0.65613500  0.64665100  0.63325200  1
  Ni  Ni23  1  0.34386500  0.14665100  0.86674800  1
  Ni  Ni24  1  0.92264200  0.22543200  0.37052800  1
  Ni  Ni25  1  0.07735800  0.72543200  0.12947200  1
  Ni  Ni26  1  0.07735800  0.77456800  0.62947200  1
  Ni  Ni27  1  0.92264200  0.27456800  0.87052800  1
  Ni  Ni28  1  0.69435300  0.31412000  0.13967700  1
  Ni  Ni29  1  0.30564700  0.81412000  0.36032300  1
  Ni  Ni30  1  0.30564700  0.68588000  0.86032300  1
  Ni  Ni31  1  0.69435300  0.18588000  0.63967700  1
  Cu  Cu32  1  0.33202200  0.56713200  0.34226800  1
  Cu  Cu33  1  0.66797800  0.06713200  0.15773200  1
  Cu  Cu34  1  0.66797800  0.43286800  0.65773200  1
  Cu  Cu35  1  0.33202200  0.93286800  0.84226800  1
  Cu  Cu36  1  0.15148000  0.22199800  0.16691700  1
  Cu  Cu37  1  0.84852000  0.72199800  0.33308300  1
  Cu  Cu38  1  0.84852000  0.77800200  0.83308300  1
  Cu  Cu39  1  0.15148000  0.27800200  0.66691700  1
