# generated using pymatgen
data_CuNi6C
_symmetry_space_group_name_H-M   'P 1'
_cell_length_a   5.20708400
_cell_length_b   6.33936100
_cell_length_c   11.03544200
_cell_angle_alpha   90.00000000
_cell_angle_beta   90.00000000
_cell_angle_gamma   90.00000000
_symmetry_Int_Tables_number   1
_chemical_formula_structural   CuNi6C
_chemical_formula_sum   'Cu2 Ni12 C2'
_cell_volume   364.27536329
_cell_formula_units_Z   2
loop_
 _symmetry_equiv_pos_site_id
 _symmetry_equiv_pos_as_xyz
  1  'x, y, z'
loop_
 _atom_site_type_symbol
 _atom_site_label
 _atom_site_symmetry_multiplicity
 _atom_site_fract_x
 _atom_site_fract_y
 _atom_site_fract_z
 _atom_site_occupancy
  Ni  Ni0  1  0.50000000  0.74903200  0.91634600  1
  Ni  Ni1  1  0.50000000  0.25096800  0.91634600  1
  Ni  Ni2  1  0.00000000  0.26089600  0.58242300  1
  Ni  Ni3  1  0.00000000  0.73910400  0.58242300  1
  Ni  Ni4  1  0.00000000  0.50000000  0.83035500  1
  Ni  Ni5  1  0.00000000  0.00000000  0.83782600  1
  Ni  Ni6  1  0.50000000  0.24903200  0.41634600  1
  Ni  Ni7  1  0.50000000  0.75096800  0.41634600  1
  Ni  Ni8  1  0.00000000  0.76089600  0.08242300  1
  Ni  Ni9  1  0.00000000  0.23910400  0.08242300  1
  Ni  Ni10  1  0.00000000  0.00000000  0.33035500  1
  Ni  Ni11  1  0.00000000  0.50000000  0.33782600  1
  Cu  Cu12  1  0.50000000  0.50000000  0.66680800  1
  Cu  Cu13  1  0.50000000  0.00000000  0.16680800  1
  C  C14  1  0.50000000  0.00000000  0.66746800  1
  C  C15  1  0.50000000  0.50000000  0.16746800  1
