# generated using pymatgen
data_CuNi2C7
_symmetry_space_group_name_H-M   'P 1'
_cell_length_a   5.40344600
_cell_length_b   5.44218556
_cell_length_c   5.80802112
_cell_angle_alpha   64.00579946
_cell_angle_beta   69.84084467
_cell_angle_gamma   75.84916084
_symmetry_Int_Tables_number   1
_chemical_formula_structural   CuNi2C7
_chemical_formula_sum   'Cu1 Ni2 C7'
_cell_volume   143.22534041
_cell_formula_units_Z   1
loop_
 _symmetry_equiv_pos_site_id
 _symmetry_equiv_pos_as_xyz
  1  'x, y, z'
loop_
 _atom_site_type_symbol
 _atom_site_label
 _atom_site_symmetry_multiplicity
 _atom_site_fract_x
 _atom_site_fract_y
 _atom_site_fract_z
 _atom_site_occupancy
  Ni  Ni0  1  0.62573700  0.13067500  0.67532000  1
  Ni  Ni1  1  0.12748700  0.62357200  0.61762600  1
  Cu  Cu2  1  0.40536800  0.41529100  0.12807500  1
  C  C3  1  0.02884000  0.01872200  0.99467800  1
  C  C4  1  0.37156900  0.82238300  0.92832700  1
  C  C5  1  0.71691700  0.27166400  0.90883000  1
  C  C6  1  0.89359500  0.78782300  0.32890500  1
  C  C7  1  0.96869100  0.91827900  0.72641500  1
  C  C8  1  0.14698300  0.29697700  0.02461400  1
  C  C9  1  0.38162200  0.37824800  0.47977200  1
