# generated using pymatgen
data_CuNiC14
_symmetry_space_group_name_H-M   'P 1'
_cell_length_a   5.56022266
_cell_length_b   5.56022266
_cell_length_c   7.17668441
_cell_angle_alpha   75.81323848
_cell_angle_beta   75.81323848
_cell_angle_gamma   105.86506848
_symmetry_Int_Tables_number   1
_chemical_formula_structural   CuNiC14
_chemical_formula_sum   'Cu1 Ni1 C14'
_cell_volume   194.98435916
_cell_formula_units_Z   1
loop_
 _symmetry_equiv_pos_site_id
 _symmetry_equiv_pos_as_xyz
  1  'x, y, z'
loop_
 _atom_site_type_symbol
 _atom_site_label
 _atom_site_symmetry_multiplicity
 _atom_site_fract_x
 _atom_site_fract_y
 _atom_site_fract_z
 _atom_site_occupancy
  C  C0  1  0.82603300  0.17396700  0.50000000  1
  C  C1  1  0.17248800  0.82751200  0.00000000  1
  C  C2  1  0.50015800  0.50484100  0.74626900  1
  C  C3  1  0.49515900  0.49984200  0.25373100  1
  Ni  Ni4  1  0.18007400  0.81992600  0.50000000  1
  Cu  Cu5  1  0.81722500  0.18277500  0.00000000  1
  C  C6  1  0.38538600  0.81160400  0.63266300  1
  C  C7  1  0.18839600  0.61461400  0.36733700  1
  C  C8  1  0.60207300  0.18470200  0.85517300  1
  C  C9  1  0.81529800  0.39792700  0.14482700  1
  C  C10  1  0.75351700  0.86558900  0.17153500  1
  C  C11  1  0.13441100  0.24648300  0.82846500  1
  C  C12  1  0.25058300  0.12109600  0.34213800  1
  C  C13  1  0.87890400  0.74941700  0.65786200  1
  C  C14  1  0.43256100  0.56743900  0.00000000  1
  C  C15  1  0.56773600  0.43226400  0.50000000  1
