# generated using pymatgen
data_Cu3NiC10
_symmetry_space_group_name_H-M   'P 1'
_cell_length_a   7.23621600
_cell_length_b   7.33651100
_cell_length_c   10.29541000
_cell_angle_alpha   90.00000000
_cell_angle_beta   90.00000000
_cell_angle_gamma   90.00000000
_symmetry_Int_Tables_number   1
_chemical_formula_structural   Cu3NiC10
_chemical_formula_sum   'Cu6 Ni2 C20'
_cell_volume   546.56867973
_cell_formula_units_Z   2
loop_
 _symmetry_equiv_pos_site_id
 _symmetry_equiv_pos_as_xyz
  1  'x, y, z'
loop_
 _atom_site_type_symbol
 _atom_site_label
 _atom_site_symmetry_multiplicity
 _atom_site_fract_x
 _atom_site_fract_y
 _atom_site_fract_z
 _atom_site_occupancy
  Ni  Ni0  1  0.50000000  0.79106500  0.25000000  1
  Ni  Ni1  1  0.50000000  0.20893500  0.75000000  1
  Cu  Cu2  1  0.73487600  0.00000000  0.50000000  1
  Cu  Cu3  1  0.74112100  0.50000000  0.50000000  1
  Cu  Cu4  1  0.25887900  0.50000000  0.00000000  1
  Cu  Cu5  1  0.00000000  0.75927300  0.25000000  1
  Cu  Cu6  1  0.26512400  0.00000000  0.00000000  1
  Cu  Cu7  1  0.00000000  0.24072700  0.75000000  1
  C  C8  1  0.77448700  0.71787900  0.88138300  1
  C  C9  1  0.22551300  0.28212100  0.38138300  1
  C  C10  1  0.22551300  0.71787900  0.61861700  1
  C  C11  1  0.77448700  0.28212100  0.11861700  1
  C  C12  1  0.75747500  0.99900800  0.26233800  1
  C  C13  1  0.51363800  0.74863500  0.48644000  1
  C  C14  1  0.74838500  0.54321500  0.26466600  1
  C  C15  1  0.48636200  0.25136500  0.98644000  1
  C  C16  1  0.25161500  0.54321500  0.23533400  1
  C  C17  1  0.04719900  0.75450700  0.01747900  1
  C  C18  1  0.24252500  0.99900800  0.23766200  1
  C  C19  1  0.48636200  0.74863500  0.01356000  1
  C  C20  1  0.25161500  0.45678500  0.76466600  1
  C  C21  1  0.04719900  0.24549300  0.98252100  1
  C  C22  1  0.24252500  0.00099200  0.76233800  1
  C  C23  1  0.95280100  0.75450700  0.48252100  1
  C  C24  1  0.75747500  0.00099200  0.73766200  1
  C  C25  1  0.51363800  0.25136500  0.51356000  1
  C  C26  1  0.74838500  0.45678500  0.73533400  1
  C  C27  1  0.95280100  0.24549300  0.51747900  1
