# generated using pymatgen
data_Cu3NiC9
_symmetry_space_group_name_H-M   'P 1'
_cell_length_a   7.25532034
_cell_length_b   7.25532034
_cell_length_c   11.48388117
_cell_angle_alpha   86.26295206
_cell_angle_beta   86.26295206
_cell_angle_gamma   78.94298084
_symmetry_Int_Tables_number   1
_chemical_formula_structural   Cu3NiC9
_chemical_formula_sum   'Cu12 Ni4 C36'
_cell_volume   591.16761184
_cell_formula_units_Z   4
loop_
 _symmetry_equiv_pos_site_id
 _symmetry_equiv_pos_as_xyz
  1  'x, y, z'
loop_
 _atom_site_type_symbol
 _atom_site_label
 _atom_site_symmetry_multiplicity
 _atom_site_fract_x
 _atom_site_fract_y
 _atom_site_fract_z
 _atom_site_occupancy
  C  C0  1  0.71216100  0.28798900  0.24988000  1
  C  C1  1  0.28798900  0.71216100  0.74988000  1
  C  C2  1  0.03018400  0.41589200  0.27718700  1
  C  C3  1  0.58665400  0.96956200  0.22024800  1
  C  C4  1  0.96956200  0.58665400  0.72024800  1
  C  C5  1  0.41589200  0.03018400  0.77718700  1
  C  C6  1  0.91212500  0.54786000  0.17151300  1
  C  C7  1  0.45447700  0.08565500  0.32686500  1
  C  C8  1  0.08565500  0.45447700  0.82686500  1
  C  C9  1  0.54786000  0.91212500  0.67151300  1
  C  C10  1  0.74100900  0.43970400  0.03517600  1
  C  C11  1  0.56203700  0.25795200  0.46455900  1
  C  C12  1  0.25795200  0.56203700  0.96455900  1
  C  C13  1  0.43970400  0.74100900  0.53517600  1
  C  C14  1  0.84506500  0.57667900  0.31072700  1
  C  C15  1  0.42418700  0.15466000  0.18849500  1
  C  C16  1  0.15466000  0.42418700  0.68849500  1
  C  C17  1  0.57667900  0.84506500  0.81072700  1
  C  C18  1  0.59502500  0.28914300  0.03834700  1
  C  C19  1  0.71276100  0.40428800  0.46124000  1
  C  C20  1  0.40428800  0.71276100  0.96124000  1
  C  C21  1  0.28914300  0.59502500  0.53834700  1
  C  C22  1  0.82522500  0.21208000  0.02906700  1
  C  C23  1  0.79021700  0.17361100  0.46877700  1
  C  C24  1  0.17361100  0.79021700  0.96877700  1
  C  C25  1  0.21208000  0.82522500  0.52906700  1
  C  C26  1  0.98626500  0.03236300  0.17174400  1
  C  C27  1  0.03236300  0.98626500  0.67174400  1
  C  C28  1  0.89466100  0.95247900  0.29832700  1
  C  C29  1  0.95247900  0.89466100  0.79832700  1
  C  C30  1  0.03966100  0.10015500  0.29952900  1
  C  C31  1  0.10015500  0.03966100  0.79952900  1
  Ni  Ni32  1  0.19894900  0.20963700  0.47943600  1
  Ni  Ni33  1  0.78630700  0.79586400  0.00868000  1
  Ni  Ni34  1  0.79586400  0.78630700  0.50868000  1
  Ni  Ni35  1  0.20963700  0.19894900  0.97943600  1
  Cu  Cu36  1  0.49684300  0.50155200  0.24950300  1
  Cu  Cu37  1  0.50155200  0.49684300  0.74950300  1
  Cu  Cu38  1  0.89884800  0.47720500  0.25148300  1
  Cu  Cu39  1  0.52468000  0.10015000  0.24677000  1
  Cu  Cu40  1  0.10015000  0.52468000  0.74677000  1
  Cu  Cu41  1  0.47720500  0.89884800  0.75148300  1
  Cu  Cu42  1  0.93305300  0.06830300  0.25394100  1
  Cu  Cu43  1  0.06830300  0.93305300  0.75394100  1
  Cu  Cu44  1  0.72040200  0.30865300  0.06707100  1
  Cu  Cu45  1  0.69254600  0.27914100  0.43238900  1
  Cu  Cu46  1  0.27914100  0.69254600  0.93238900  1
  Cu  Cu47  1  0.30865300  0.72040200  0.56707100  1
  C  C48  1  0.36475800  0.49621000  0.18744700  1
  C  C49  1  0.50156400  0.63355000  0.31159800  1
  C  C50  1  0.63355000  0.50156400  0.81159800  1
  C  C51  1  0.49621000  0.36475800  0.68744700  1
