# generated using pymatgen
data_Cu2NiC3
_symmetry_space_group_name_H-M   'P 1'
_cell_length_a   5.55735686
_cell_length_b   5.55735686
_cell_length_c   17.16865069
_cell_angle_alpha   80.63937508
_cell_angle_beta   80.63937508
_cell_angle_gamma   89.55058728
_symmetry_Int_Tables_number   1
_chemical_formula_structural   Cu2NiC3
_chemical_formula_sum   'Cu8 Ni4 C12'
_cell_volume   516.11881192
_cell_formula_units_Z   4
loop_
 _symmetry_equiv_pos_site_id
 _symmetry_equiv_pos_as_xyz
  1  'x, y, z'
loop_
 _atom_site_type_symbol
 _atom_site_label
 _atom_site_symmetry_multiplicity
 _atom_site_fract_x
 _atom_site_fract_y
 _atom_site_fract_z
 _atom_site_occupancy
  C  C0  1  0.00827900  0.00827900  0.99813600  1
  C  C1  1  0.67083900  0.67083900  0.65938600  1
  C  C2  1  0.34320900  0.34320900  0.33008500  1
  C  C3  1  0.57898400  0.07812500  0.84182100  1
  C  C4  1  0.26158400  0.73598600  0.50247400  1
  C  C5  1  0.92792200  0.40068100  0.17041500  1
  C  C6  1  0.07812500  0.57898400  0.84182100  1
  C  C7  1  0.73598600  0.26158400  0.50247400  1
  C  C8  1  0.40068100  0.92792200  0.17041500  1
  C  C9  1  0.49511800  0.49511800  0.99991600  1
  C  C10  1  0.16865600  0.16865600  0.66185400  1
  C  C11  1  0.82807500  0.82807500  0.33152900  1
  Ni  Ni12  1  0.38203600  0.38203600  0.75487500  1
  Ni  Ni13  1  0.04764500  0.04764500  0.42184500  1
  Ni  Ni14  1  0.71362800  0.71362800  0.09040600  1
  Ni  Ni15  1  0.86128200  0.86128200  0.75527000  1
  Cu  Cu16  1  0.53123900  0.53123900  0.42036900  1
  Cu  Cu17  1  0.19736200  0.19736200  0.08766200  1
  Cu  Cu18  1  0.28659000  0.80007400  0.91200400  1
  Cu  Cu19  1  0.95718700  0.46909200  0.57418300  1
  Cu  Cu20  1  0.62177000  0.13481900  0.24343700  1
  Cu  Cu21  1  0.80007400  0.28659000  0.91200400  1
  Cu  Cu22  1  0.46909200  0.95718700  0.57418300  1
  Cu  Cu23  1  0.13481900  0.62177000  0.24343700  1
