# generated using pymatgen
data_CuNiC7
_symmetry_space_group_name_H-M   'P 1'
_cell_length_a   7.68646457
_cell_length_b   7.58126300
_cell_length_c   7.67118277
_cell_angle_alpha   90.00000000
_cell_angle_beta   89.81816141
_cell_angle_gamma   90.00000000
_symmetry_Int_Tables_number   1
_chemical_formula_structural   CuNiC7
_chemical_formula_sum   'Cu4 Ni4 C28'
_cell_volume   447.02142164
_cell_formula_units_Z   4
loop_
 _symmetry_equiv_pos_site_id
 _symmetry_equiv_pos_as_xyz
  1  'x, y, z'
loop_
 _atom_site_type_symbol
 _atom_site_label
 _atom_site_symmetry_multiplicity
 _atom_site_fract_x
 _atom_site_fract_y
 _atom_site_fract_z
 _atom_site_occupancy
  C  C0  1  0.25304300  0.26701800  0.24088600  1
  C  C1  1  0.26027400  0.25554800  0.75668300  1
  C  C2  1  0.25304300  0.73298200  0.24088600  1
  C  C3  1  0.26027400  0.74445200  0.75668300  1
  C  C4  1  0.79410800  0.26705700  0.21137400  1
  C  C5  1  0.72465200  0.26995800  0.72912600  1
  C  C6  1  0.79410800  0.73294300  0.21137400  1
  C  C7  1  0.72465200  0.73004200  0.72912600  1
  Ni  Ni8  1  0.01981800  0.50000000  0.97667800  1
  Ni  Ni9  1  0.00933800  0.50000000  0.47153800  1
  Ni  Ni10  1  0.50377700  0.00000000  0.02864100  1
  Ni  Ni11  1  0.50899000  0.00000000  0.49588300  1
  Cu  Cu12  1  0.99236300  0.00000000  0.95089500  1
  Cu  Cu13  1  0.97253900  0.00000000  0.52413300  1
  Cu  Cu14  1  0.50864500  0.50000000  0.97707600  1
  Cu  Cu15  1  0.49988600  0.50000000  0.51029300  1
  C  C16  1  0.99543200  0.50000000  0.22557000  1
  C  C17  1  0.01532900  0.50000000  0.72090200  1
  C  C18  1  0.40273500  0.00000000  0.26449000  1
  C  C19  1  0.44085800  0.00000000  0.78707500  1
  C  C20  1  0.50383500  0.50000000  0.74489000  1
  C  C21  1  0.07196100  0.00000000  0.73096500  1
  C  C22  1  0.26799800  0.50000000  0.99129400  1
  C  C23  1  0.27316100  0.50000000  0.44137600  1
  C  C24  1  0.77429200  0.00000000  0.02518200  1
  C  C25  1  0.75096600  0.00000000  0.58646800  1
  C  C26  1  0.76275800  0.50000000  0.97700900  1
  C  C27  1  0.73689100  0.50000000  0.46142800  1
  C  C28  1  0.06318100  0.21018100  0.01260800  1
  C  C29  1  0.01465500  0.20246100  0.42432400  1
  C  C30  1  0.06318100  0.78981900  0.01260800  1
  C  C31  1  0.01465500  0.79753900  0.42432400  1
  C  C32  1  0.51498900  0.26614500  0.04543200  1
  C  C33  1  0.49431200  0.24917100  0.50867500  1
  C  C34  1  0.51498900  0.73385500  0.04543200  1
  C  C35  1  0.49431200  0.75082900  0.50867500  1
