# generated using pymatgen
data_CuNiC4
_symmetry_space_group_name_H-M   'P 1'
_cell_length_a   3.40130205
_cell_length_b   3.40130205
_cell_length_c   38.71129300
_cell_angle_alpha   90.00000000
_cell_angle_beta   90.00000000
_cell_angle_gamma   120.00000105
_symmetry_Int_Tables_number   1
_chemical_formula_structural   CuNiC4
_chemical_formula_sum   'Cu2 Ni2 C8'
_cell_volume   387.84545565
_cell_formula_units_Z   2
loop_
 _symmetry_equiv_pos_site_id
 _symmetry_equiv_pos_as_xyz
  1  'x, y, z'
loop_
 _atom_site_type_symbol
 _atom_site_label
 _atom_site_symmetry_multiplicity
 _atom_site_fract_x
 _atom_site_fract_y
 _atom_site_fract_z
 _atom_site_occupancy
  C  C0  1  0.33333300  0.66666700  0.04551300  1
  C  C1  1  0.33333300  0.66666700  0.42091000  1
  C  C2  1  0.33333300  0.66666700  0.14235800  1
  C  C3  1  0.33333300  0.66666700  0.51832600  1
  C  C4  1  0.00000000  0.00000000  0.09391000  1
  C  C5  1  0.33333300  0.66666700  0.28179500  1
  C  C6  1  0.00000000  0.00000000  0.46963200  1
  C  C7  1  0.33333300  0.66666700  0.65758700  1
  Ni  Ni8  1  0.00000000  0.00000000  0.70034700  1
  Ni  Ni9  1  0.00000000  0.00000000  0.61479000  1
  Cu  Cu10  1  0.00000000  0.00000000  0.32055500  1
  Cu  Cu11  1  0.00000000  0.00000000  0.24302700  1
