# generated using pymatgen
data_Cu3NiC20
_symmetry_space_group_name_H-M   'P 1'
_cell_length_a   5.84119590
_cell_length_b   5.84119590
_cell_length_c   9.32937619
_cell_angle_alpha   83.76788616
_cell_angle_beta   83.76788616
_cell_angle_gamma   74.00718649
_symmetry_Int_Tables_number   1
_chemical_formula_structural   Cu3NiC20
_chemical_formula_sum   'Cu3 Ni1 C20'
_cell_volume   303.15407666
_cell_formula_units_Z   1
loop_
 _symmetry_equiv_pos_site_id
 _symmetry_equiv_pos_as_xyz
  1  'x, y, z'
loop_
 _atom_site_type_symbol
 _atom_site_label
 _atom_site_symmetry_multiplicity
 _atom_site_fract_x
 _atom_site_fract_y
 _atom_site_fract_z
 _atom_site_occupancy
  Ni  Ni0  1  0.31246000  0.31246000  0.93747800  1
  Cu  Cu1  1  0.81254200  0.81254200  0.43753300  1
  Cu  Cu2  1  0.68747300  0.68747300  0.06227100  1
  Cu  Cu3  1  0.18753300  0.18753300  0.56272500  1
  C  C4  1  0.93785700  0.93785700  0.81301400  1
  C  C5  1  0.43713900  0.43713900  0.31196200  1
  C  C6  1  0.06296600  0.06296600  0.18712700  1
  C  C7  1  0.56204400  0.56204400  0.68788800  1
  C  C8  1  0.10327800  0.10327800  0.82154900  1
  C  C9  1  0.60248900  0.60248900  0.32012500  1
  C  C10  1  0.96933300  0.31500400  0.10784800  1
  C  C11  1  0.46763400  0.81387300  0.60923100  1
  C  C12  1  0.31500400  0.96933300  0.10784800  1
  C  C13  1  0.81387300  0.46763400  0.60923100  1
  C  C14  1  0.92959300  0.92959300  0.64787000  1
  C  C15  1  0.42869600  0.42869600  0.14636300  1
  C  C16  1  0.89766100  0.89766100  0.17918400  1
  C  C17  1  0.39645100  0.39645100  0.68077400  1
  C  C18  1  0.03311900  0.68485200  0.89122400  1
  C  C19  1  0.53228500  0.18564600  0.39081600  1
  C  C20  1  0.68485200  0.03311900  0.89122400  1
  C  C21  1  0.18564600  0.53228500  0.39081600  1
  C  C22  1  0.07081900  0.07081900  0.35232100  1
  C  C23  1  0.56925300  0.56925300  0.85357700  1
