# generated using pymatgen
data_Cu3Ni2C3
_symmetry_space_group_name_H-M   'P 1'
_cell_length_a   5.06628034
_cell_length_b   5.06628034
_cell_length_c   10.43785900
_cell_angle_alpha   90.00000000
_cell_angle_beta   90.00000000
_cell_angle_gamma   119.51940629
_symmetry_Int_Tables_number   1
_chemical_formula_structural   Cu3Ni2C3
_chemical_formula_sum   'Cu6 Ni4 C6'
_cell_volume   233.13279997
_cell_formula_units_Z   2
loop_
 _symmetry_equiv_pos_site_id
 _symmetry_equiv_pos_as_xyz
  1  'x, y, z'
loop_
 _atom_site_type_symbol
 _atom_site_label
 _atom_site_symmetry_multiplicity
 _atom_site_fract_x
 _atom_site_fract_y
 _atom_site_fract_z
 _atom_site_occupancy
  C  C0  1  0.81951600  0.18048400  0.57404000  1
  C  C1  1  0.18048400  0.81951600  0.07404000  1
  C  C2  1  0.81951600  0.18048400  0.92596000  1
  C  C3  1  0.18048400  0.81951600  0.42596000  1
  C  C4  1  0.51935000  0.48065000  0.25000000  1
  C  C5  1  0.48065000  0.51935000  0.75000000  1
  Ni  Ni6  1  0.85331300  0.14668700  0.25000000  1
  Ni  Ni7  1  0.14668700  0.85331300  0.75000000  1
  Ni  Ni8  1  0.50000000  0.50000000  0.50000000  1
  Ni  Ni9  1  0.50000000  0.50000000  0.00000000  1
  Cu  Cu10  1  0.99962400  0.43968300  0.25000000  1
  Cu  Cu11  1  0.00037600  0.56031700  0.75000000  1
  Cu  Cu12  1  0.43968300  0.99962400  0.75000000  1
  Cu  Cu13  1  0.56031700  0.00037600  0.25000000  1
  Cu  Cu14  1  0.00166500  0.99833500  0.25000000  1
  Cu  Cu15  1  0.99833500  0.00166500  0.75000000  1
