# generated using pymatgen
data_Cu4NiC7
_symmetry_space_group_name_H-M   'P 1'
_cell_length_a   4.27968800
_cell_length_b   4.49426200
_cell_length_c   10.98269800
_cell_angle_alpha   90.00000000
_cell_angle_beta   90.00000000
_cell_angle_gamma   90.00000000
_symmetry_Int_Tables_number   1
_chemical_formula_structural   Cu4NiC7
_chemical_formula_sum   'Cu8 Ni2 C14'
_cell_volume   211.24164331
_cell_formula_units_Z   2
loop_
 _symmetry_equiv_pos_site_id
 _symmetry_equiv_pos_as_xyz
  1  'x, y, z'
loop_
 _atom_site_type_symbol
 _atom_site_label
 _atom_site_symmetry_multiplicity
 _atom_site_fract_x
 _atom_site_fract_y
 _atom_site_fract_z
 _atom_site_occupancy
  Ni  Ni0  1  0.60482600  0.83350400  0.50000000  1
  Ni  Ni1  1  0.10482600  0.16649600  0.00000000  1
  Cu  Cu2  1  0.55648500  0.67221200  0.12260700  1
  Cu  Cu3  1  0.02592400  0.82412500  0.75120100  1
  Cu  Cu4  1  0.52592400  0.17587500  0.74879900  1
  Cu  Cu5  1  0.05648500  0.32778800  0.37739300  1
  Cu  Cu6  1  0.05648500  0.32778800  0.62260700  1
  Cu  Cu7  1  0.55648500  0.67221200  0.87739300  1
  Cu  Cu8  1  0.02592400  0.82412500  0.24879900  1
  Cu  Cu9  1  0.52592400  0.17587500  0.25120100  1
  C  C10  1  0.94833000  0.23604100  0.50000000  1
  C  C11  1  0.44833000  0.76395900  0.00000000  1
  C  C12  1  0.37926800  0.87287100  0.21779600  1
  C  C13  1  0.87926800  0.12712900  0.28220400  1
  C  C14  1  0.87926800  0.12712900  0.71779600  1
  C  C15  1  0.37926800  0.87287100  0.78220400  1
  C  C16  1  0.47990600  0.36024900  0.14422000  1
  C  C17  1  0.97990600  0.63975100  0.35578000  1
  C  C18  1  0.97990600  0.63975100  0.64422000  1
  C  C19  1  0.47990600  0.36024900  0.85578000  1
  C  C20  1  0.88521900  0.73186100  0.13773700  1
  C  C21  1  0.38521900  0.26813900  0.36226300  1
  C  C22  1  0.38521900  0.26813900  0.63773700  1
  C  C23  1  0.88521900  0.73186100  0.86226300  1
