# generated using pymatgen
data_CuNi13C10
_symmetry_space_group_name_H-M   'P 1'
_cell_length_a   12.14183300
_cell_length_b   7.42578300
_cell_length_c   15.26854136
_cell_angle_alpha   90.00000000
_cell_angle_beta   118.65540011
_cell_angle_gamma   90.00000000
_symmetry_Int_Tables_number   1
_chemical_formula_structural   CuNi13C10
_chemical_formula_sum   'Cu4 Ni52 C40'
_cell_volume   1208.03895617
_cell_formula_units_Z   4
loop_
 _symmetry_equiv_pos_site_id
 _symmetry_equiv_pos_as_xyz
  1  'x, y, z'
loop_
 _atom_site_type_symbol
 _atom_site_label
 _atom_site_symmetry_multiplicity
 _atom_site_fract_x
 _atom_site_fract_y
 _atom_site_fract_z
 _atom_site_occupancy
  C  C0  1  0.78868100  0.64676300  0.43741400  1
  C  C1  1  0.78868100  0.85323700  0.93741400  1
  C  C2  1  0.21131900  0.35323700  0.56258600  1
  C  C3  1  0.21131900  0.14676200  0.06258600  1
  C  C4  1  0.76152500  0.61330500  0.54059000  1
  C  C5  1  0.76152500  0.88669500  0.04059000  1
  C  C6  1  0.23847500  0.38669500  0.45941000  1
  C  C7  1  0.23847500  0.11330500  0.95941000  1
  C  C8  1  0.63289800  0.65150900  0.42022000  1
  C  C9  1  0.63289800  0.84849100  0.92022000  1
  C  C10  1  0.36710200  0.34849100  0.57978000  1
  C  C11  1  0.36710200  0.15150900  0.07978000  1
  C  C12  1  0.67228000  0.77790800  0.34039300  1
  C  C13  1  0.67228000  0.72209200  0.84039300  1
  C  C14  1  0.32772000  0.22209200  0.65960700  1
  C  C15  1  0.32772000  0.27790800  0.15960700  1
  C  C16  1  0.88599200  0.75459100  0.55049500  1
  C  C17  1  0.88599200  0.74540900  0.05049500  1
  C  C18  1  0.11400800  0.24540900  0.44950500  1
  C  C19  1  0.11400800  0.25459100  0.94950500  1
  C  C20  1  0.79701000  0.80374500  0.61308600  1
  C  C21  1  0.79701000  0.69625500  0.11308600  1
  C  C22  1  0.20299000  0.19625500  0.38691400  1
  C  C23  1  0.20299000  0.30374500  0.88691400  1
  C  C24  1  0.63715200  0.76422900  0.52223300  1
  C  C25  1  0.63715200  0.73577100  0.02223300  1
  C  C26  1  0.36284800  0.23577100  0.47776700  1
  C  C27  1  0.36284800  0.26422900  0.97776700  1
  C  C28  1  0.57851200  0.87304100  0.39053600  1
  C  C29  1  0.57851200  0.62695900  0.89053600  1
  C  C30  1  0.42148800  0.12695900  0.60946400  1
  C  C31  1  0.42148800  0.37304100  0.10946400  1
  C  C32  1  0.68903100  0.00298500  0.37264500  1
  C  C33  1  0.68903100  0.49701500  0.87264500  1
  C  C34  1  0.31096900  0.99701500  0.62735500  1
  C  C35  1  0.31096900  0.50298500  0.12735500  1
  C  C36  1  0.82642100  0.86668800  0.41933700  1
  C  C37  1  0.82642100  0.63331200  0.91933700  1
  C  C38  1  0.17357900  0.13331200  0.58066300  1
  C  C39  1  0.17357900  0.36668800  0.08066300  1
  Ni  Ni40  1  0.83865000  0.53041100  0.41530800  1
  Ni  Ni41  1  0.83865000  0.96958900  0.91530800  1
  Ni  Ni42  1  0.16135000  0.46958900  0.58469200  1
  Ni  Ni43  1  0.16135000  0.03041100  0.08469200  1
  Ni  Ni44  1  0.55258000  0.53908000  0.38587500  1
  Ni  Ni45  1  0.55258000  0.96092000  0.88587500  1
  Ni  Ni46  1  0.44742000  0.46092000  0.61412500  1
  Ni  Ni47  1  0.44742000  0.03908000  0.11412500  1
  Ni  Ni48  1  0.63397900  0.73208600  0.25586600  1
  Ni  Ni49  1  0.63397900  0.76791400  0.75586600  1
  Ni  Ni50  1  0.36602100  0.26791400  0.74413400  1
  Ni  Ni51  1  0.36602100  0.23208600  0.24413400  1
  Ni  Ni52  1  0.99548600  0.72305100  0.59887600  1
  Ni  Ni53  1  0.99548600  0.77694900  0.09887600  1
  Ni  Ni54  1  0.00451400  0.27694900  0.40112400  1
  Ni  Ni55  1  0.00451400  0.22305100  0.90112400  1
  Ni  Ni56  1  0.83648900  0.82127800  0.70050300  1
  Ni  Ni57  1  0.83648900  0.67872200  0.20050300  1
  Ni  Ni58  1  0.16351100  0.17872200  0.29949700  1
  Ni  Ni59  1  0.16351100  0.32127800  0.79949700  1
  Ni  Ni60  1  0.56071200  0.74149300  0.54904400  1
  Ni  Ni61  1  0.56071200  0.75850700  0.04904400  1
  Ni  Ni62  1  0.43928800  0.25850700  0.45095600  1
  Ni  Ni63  1  0.43928800  0.24149300  0.95095600  1
  Ni  Ni64  1  0.46956500  0.90777000  0.34396400  1
  Ni  Ni65  1  0.46956500  0.59223000  0.84396400  1
  Ni  Ni66  1  0.53043500  0.09223000  0.65603600  1
  Ni  Ni67  1  0.53043500  0.40777000  0.15603600  1
  Ni  Ni68  1  0.66718600  0.13424100  0.32263500  1
  Ni  Ni69  1  0.66718600  0.36575900  0.82263500  1
  Ni  Ni70  1  0.33281400  0.86575900  0.67736500  1
  Ni  Ni71  1  0.33281400  0.63424100  0.17736500  1
  Ni  Ni72  1  0.90412000  0.89772700  0.39475500  1
  Ni  Ni73  1  0.90412000  0.60227300  0.89475500  1
  Ni  Ni74  1  0.09588000  0.10227300  0.60524500  1
  Ni  Ni75  1  0.09588000  0.39772700  0.10524500  1
  Ni  Ni76  1  0.80563300  0.02467400  0.44935400  1
  Ni  Ni77  1  0.80563300  0.47532600  0.94935400  1
  Ni  Ni78  1  0.19436700  0.97532600  0.55064600  1
  Ni  Ni79  1  0.19436700  0.52467400  0.05064600  1
  Ni  Ni80  1  0.63303300  0.02915200  0.42940300  1
  Ni  Ni81  1  0.63303300  0.47084800  0.92940300  1
  Ni  Ni82  1  0.36696700  0.97084800  0.57059700  1
  Ni  Ni83  1  0.36696700  0.52915200  0.07059700  1
  Ni  Ni84  1  0.86962700  0.90572100  0.58844600  1
  Ni  Ni85  1  0.86962700  0.59427900  0.08844600  1
  Ni  Ni86  1  0.13037300  0.09427900  0.41155400  1
  Ni  Ni87  1  0.13037300  0.40572100  0.91155400  1
  Ni  Ni88  1  0.69710000  0.91327900  0.56801200  1
  Ni  Ni89  1  0.69710000  0.58672100  0.06801200  1
  Ni  Ni90  1  0.30290000  0.08672100  0.43198800  1
  Ni  Ni91  1  0.30290000  0.41327900  0.93198800  1
  Cu  Cu92  1  0.79569500  0.35070100  0.61689900  1
  Cu  Cu93  1  0.79569500  0.14929900  0.11689900  1
  Cu  Cu94  1  0.20430500  0.64929900  0.38310100  1
  Cu  Cu95  1  0.20430500  0.85070100  0.88310100  1
