# generated using pymatgen
data_CuNi7
_symmetry_space_group_name_H-M   'P 1'
_cell_length_a   6.31781364
_cell_length_b   6.31781364
_cell_length_c   5.08186800
_cell_angle_alpha   90.00000000
_cell_angle_beta   90.00000000
_cell_angle_gamma   119.99999619
_symmetry_Int_Tables_number   1
_chemical_formula_structural   CuNi7
_chemical_formula_sum   'Cu1 Ni7'
_cell_volume   175.66597491
_cell_formula_units_Z   1
loop_
 _symmetry_equiv_pos_site_id
 _symmetry_equiv_pos_as_xyz
  1  'x, y, z'
loop_
 _atom_site_type_symbol
 _atom_site_label
 _atom_site_symmetry_multiplicity
 _atom_site_fract_x
 _atom_site_fract_y
 _atom_site_fract_z
 _atom_site_occupancy
  Ni  Ni0  1  0.83353600  0.66707200  0.00000000  1
  Ni  Ni1  1  0.33292800  0.16646400  0.00000000  1
  Ni  Ni2  1  0.83353600  0.16646400  0.00000000  1
  Ni  Ni3  1  0.49863400  0.50136600  0.50000000  1
  Ni  Ni4  1  0.00273100  0.50136600  0.50000000  1
  Ni  Ni5  1  0.49863400  0.99726900  0.50000000  1
  Ni  Ni6  1  0.00000000  0.00000000  0.50000000  1
  Cu  Cu7  1  0.33333300  0.66666700  0.00000000  1
