# generated using pymatgen
data_Cu5NiC3
_symmetry_space_group_name_H-M   'P 1'
_cell_length_a   8.58825000
_cell_length_b   9.23929900
_cell_length_c   24.71595100
_cell_angle_alpha   90.00000000
_cell_angle_beta   90.00000000
_cell_angle_gamma   90.00000000
_symmetry_Int_Tables_number   1
_chemical_formula_structural   Cu5NiC3
_chemical_formula_sum   'Cu40 Ni8 C24'
_cell_volume   1961.19612046
_cell_formula_units_Z   8
loop_
 _symmetry_equiv_pos_site_id
 _symmetry_equiv_pos_as_xyz
  1  'x, y, z'
loop_
 _atom_site_type_symbol
 _atom_site_label
 _atom_site_symmetry_multiplicity
 _atom_site_fract_x
 _atom_site_fract_y
 _atom_site_fract_z
 _atom_site_occupancy
  C  C0  1  0.50000000  0.60586200  0.38787200  1
  C  C1  1  0.50000000  0.39413800  0.61212800  1
  C  C2  1  0.50000000  0.10586200  0.11212800  1
  C  C3  1  0.50000000  0.89413800  0.88787200  1
  C  C4  1  0.00000000  0.73938900  0.35802400  1
  C  C5  1  0.00000000  0.26061100  0.64197600  1
  C  C6  1  0.00000000  0.23938900  0.14197600  1
  C  C7  1  0.00000000  0.76061100  0.85802400  1
  Ni  Ni8  1  0.50000000  0.76031300  0.02790700  1
  Ni  Ni9  1  0.50000000  0.23968700  0.97209300  1
  Ni  Ni10  1  0.50000000  0.26031300  0.47209300  1
  Ni  Ni11  1  0.50000000  0.73968700  0.52790700  1
  Ni  Ni12  1  0.00000000  0.59194300  0.22068600  1
  Ni  Ni13  1  0.00000000  0.40805700  0.77931400  1
  Ni  Ni14  1  0.00000000  0.09194300  0.27931400  1
  Ni  Ni15  1  0.00000000  0.90805700  0.72068600  1
  Cu  Cu16  1  0.19017500  0.53706500  0.40908800  1
  Cu  Cu17  1  0.19017500  0.46293500  0.59091200  1
  Cu  Cu18  1  0.80982500  0.03706500  0.09091200  1
  Cu  Cu19  1  0.80982500  0.96293500  0.90908800  1
  Cu  Cu20  1  0.80982500  0.46293500  0.59091200  1
  Cu  Cu21  1  0.80982500  0.53706500  0.40908800  1
  Cu  Cu22  1  0.19017500  0.96293500  0.90908800  1
  Cu  Cu23  1  0.19017500  0.03706500  0.09091200  1
  Cu  Cu24  1  0.31563800  0.64402300  0.05016100  1
  Cu  Cu25  1  0.31563800  0.35597700  0.94983900  1
  Cu  Cu26  1  0.68436200  0.14402300  0.44983900  1
  Cu  Cu27  1  0.68436200  0.85597700  0.55016100  1
  Cu  Cu28  1  0.68436200  0.35597700  0.94983900  1
  Cu  Cu29  1  0.68436200  0.64402300  0.05016100  1
  Cu  Cu30  1  0.31563800  0.85597700  0.55016100  1
  Cu  Cu31  1  0.31563800  0.14402300  0.44983900  1
  Cu  Cu32  1  0.18463700  0.69839500  0.19237500  1
  Cu  Cu33  1  0.18463700  0.30160500  0.80762500  1
  Cu  Cu34  1  0.81536300  0.19839500  0.30762500  1
  Cu  Cu35  1  0.81536300  0.80160500  0.69237500  1
  Cu  Cu36  1  0.81536300  0.30160500  0.80762500  1
  Cu  Cu37  1  0.81536300  0.69839500  0.19237500  1
  Cu  Cu38  1  0.18463700  0.80160500  0.69237500  1
  Cu  Cu39  1  0.18463700  0.19839500  0.30762500  1
  Cu  Cu40  1  0.30949200  0.81339000  0.34049200  1
  Cu  Cu41  1  0.30949200  0.18661000  0.65950800  1
  Cu  Cu42  1  0.69050800  0.31339000  0.15950800  1
  Cu  Cu43  1  0.69050800  0.68661000  0.84049200  1
  Cu  Cu44  1  0.69050800  0.18661000  0.65950800  1
  Cu  Cu45  1  0.69050800  0.81339000  0.34049200  1
  Cu  Cu46  1  0.30949200  0.68661000  0.84049200  1
  Cu  Cu47  1  0.30949200  0.31339000  0.15950800  1
  Cu  Cu48  1  0.50000000  0.95334900  0.19723200  1
  Cu  Cu49  1  0.50000000  0.04665100  0.80276800  1
  Cu  Cu50  1  0.50000000  0.45334900  0.30276800  1
  Cu  Cu51  1  0.50000000  0.54665100  0.69723200  1
  Cu  Cu52  1  0.00000000  0.90761700  0.43875900  1
  Cu  Cu53  1  0.00000000  0.09238300  0.56124100  1
  Cu  Cu54  1  0.00000000  0.40761700  0.06124100  1
  Cu  Cu55  1  0.00000000  0.59238300  0.93875900  1
  C  C56  1  0.50000000  0.72847200  0.46628700  1
  C  C57  1  0.50000000  0.27152800  0.53371300  1
  C  C58  1  0.50000000  0.22847200  0.03371300  1
  C  C59  1  0.50000000  0.77152800  0.96628700  1
  C  C60  1  0.50000000  0.90296300  0.05782100  1
  C  C61  1  0.50000000  0.09703700  0.94217900  1
  C  C62  1  0.50000000  0.40296300  0.44217900  1
  C  C63  1  0.50000000  0.59703700  0.55782100  1
  C  C64  1  0.00000000  0.60640900  0.28234800  1
  C  C65  1  0.00000000  0.39359100  0.71765200  1
  C  C66  1  0.00000000  0.10640900  0.21765200  1
  C  C67  1  0.00000000  0.89359100  0.78234800  1
  C  C68  1  0.00000000  0.93765100  0.29966200  1
  C  C69  1  0.00000000  0.06234900  0.70033800  1
  C  C70  1  0.00000000  0.43765100  0.20033800  1
  C  C71  1  0.00000000  0.56234900  0.79966200  1
