# generated using pymatgen
data_Cu(NiC11)2
_symmetry_space_group_name_H-M   'P 1'
_cell_length_a   7.63758900
_cell_length_b   9.73534500
_cell_length_c   14.90394800
_cell_angle_alpha   90.00000000
_cell_angle_beta   90.00000000
_cell_angle_gamma   90.00000000
_symmetry_Int_Tables_number   1
_chemical_formula_structural   Cu(NiC11)2
_chemical_formula_sum   'Cu4 Ni8 C88'
_cell_volume   1108.17655368
_cell_formula_units_Z   4
loop_
 _symmetry_equiv_pos_site_id
 _symmetry_equiv_pos_as_xyz
  1  'x, y, z'
loop_
 _atom_site_type_symbol
 _atom_site_label
 _atom_site_symmetry_multiplicity
 _atom_site_fract_x
 _atom_site_fract_y
 _atom_site_fract_z
 _atom_site_occupancy
  C  C0  1  0.33985100  0.25000000  0.93757500  1
  C  C1  1  0.83985100  0.25000000  0.56242500  1
  C  C2  1  0.66014900  0.75000000  0.06242500  1
  C  C3  1  0.16014900  0.75000000  0.43757500  1
  Ni  Ni4  1  0.54451100  0.09391000  0.13293800  1
  Ni  Ni5  1  0.04451100  0.40609000  0.36706200  1
  Ni  Ni6  1  0.45548900  0.59391000  0.86706200  1
  Ni  Ni7  1  0.95548900  0.90609000  0.63293800  1
  Ni  Ni8  1  0.45548900  0.90609000  0.86706200  1
  Ni  Ni9  1  0.95548900  0.59391000  0.63293800  1
  Ni  Ni10  1  0.54451100  0.40609000  0.13293800  1
  Ni  Ni11  1  0.04451100  0.09391000  0.36706200  1
  C  C12  1  0.74917700  0.25000000  0.06748000  1
  C  C13  1  0.24917700  0.25000000  0.43252000  1
  C  C14  1  0.25082300  0.75000000  0.93252000  1
  C  C15  1  0.75082300  0.75000000  0.56748000  1
  C  C16  1  0.76355100  0.25000000  0.18704100  1
  C  C17  1  0.26355100  0.25000000  0.31295900  1
  C  C18  1  0.23644900  0.75000000  0.81295900  1
  C  C19  1  0.73644900  0.75000000  0.68704100  1
  C  C20  1  0.29342000  0.16937400  0.73415800  1
  C  C21  1  0.79342000  0.33062600  0.76584200  1
  C  C22  1  0.70658000  0.66937400  0.26584200  1
  C  C23  1  0.20658000  0.83062600  0.23415800  1
  C  C24  1  0.70658000  0.83062600  0.26584200  1
  C  C25  1  0.20658000  0.66937400  0.23415800  1
  C  C26  1  0.29342000  0.33062600  0.73415800  1
  C  C27  1  0.79342000  0.16937400  0.76584200  1
  C  C28  1  0.52358500  0.03579600  0.27846000  1
  C  C29  1  0.02358500  0.46420400  0.22154000  1
  C  C30  1  0.47641500  0.53579600  0.72154000  1
  C  C31  1  0.97641500  0.96420400  0.77846000  1
  C  C32  1  0.47641500  0.96420400  0.72154000  1
  C  C33  1  0.97641500  0.53579600  0.77846000  1
  C  C34  1  0.52358500  0.46420400  0.27846000  1
  C  C35  1  0.02358500  0.03579600  0.22154000  1
  C  C36  1  0.71309600  0.00393200  0.38621500  1
  C  C37  1  0.21309600  0.49606800  0.11378500  1
  C  C38  1  0.28690400  0.50393200  0.61378500  1
  C  C39  1  0.78690400  0.99606800  0.88621500  1
  C  C40  1  0.28690400  0.99606800  0.61378500  1
  C  C41  1  0.78690400  0.50393200  0.88621500  1
  C  C42  1  0.71309600  0.49606800  0.38621500  1
  C  C43  1  0.21309600  0.00393200  0.11378500  1
  C  C44  1  0.54818600  0.90319000  0.39493100  1
  C  C45  1  0.04818600  0.59681000  0.10506900  1
  C  C46  1  0.45181400  0.40319000  0.60506900  1
  C  C47  1  0.95181400  0.09681000  0.89493100  1
  C  C48  1  0.45181400  0.09681000  0.60506900  1
  C  C49  1  0.95181400  0.40319000  0.89493100  1
  C  C50  1  0.54818600  0.59681000  0.39493100  1
  C  C51  1  0.04818600  0.90319000  0.10506900  1
  Cu  Cu52  1  0.67234700  0.25000000  0.12984200  1
  Cu  Cu53  1  0.17234700  0.25000000  0.37015800  1
  Cu  Cu54  1  0.32765300  0.75000000  0.87015800  1
  Cu  Cu55  1  0.82765300  0.75000000  0.62984200  1
  C  C56  1  0.57370900  0.25000000  0.91835100  1
  C  C57  1  0.07370900  0.25000000  0.58164900  1
  C  C58  1  0.42629100  0.75000000  0.08164900  1
  C  C59  1  0.92629100  0.75000000  0.41835100  1
  C  C60  1  0.10193100  0.25000000  0.95675500  1
  C  C61  1  0.60193100  0.25000000  0.54324500  1
  C  C62  1  0.89806900  0.75000000  0.04324500  1
  C  C63  1  0.39806900  0.75000000  0.45675500  1
  C  C64  1  0.32924300  0.02575700  0.88353000  1
  C  C65  1  0.82924300  0.47424300  0.61647000  1
  C  C66  1  0.67075700  0.52575700  0.11647000  1
  C  C67  1  0.17075700  0.97424300  0.38353000  1
  C  C68  1  0.67075700  0.97424300  0.11647000  1
  C  C69  1  0.17075700  0.52575700  0.38353000  1
  C  C70  1  0.32924300  0.47424300  0.88353000  1
  C  C71  1  0.82924300  0.02575700  0.61647000  1
  C  C72  1  0.39155900  0.10490100  0.06622300  1
  C  C73  1  0.89155900  0.39509900  0.43377700  1
  C  C74  1  0.60844100  0.60490100  0.93377700  1
  C  C75  1  0.10844100  0.89509900  0.56622300  1
  C  C76  1  0.60844100  0.89509900  0.93377700  1
  C  C77  1  0.10844100  0.60490100  0.56622300  1
  C  C78  1  0.39155900  0.39509900  0.06622300  1
  C  C79  1  0.89155900  0.10490100  0.43377700  1
  C  C80  1  0.27333500  0.25000000  0.77318400  1
  C  C81  1  0.77333500  0.25000000  0.72681600  1
  C  C82  1  0.72666500  0.75000000  0.22681600  1
  C  C83  1  0.22666500  0.75000000  0.27318400  1
  C  C84  1  0.45615000  0.08390400  0.22812200  1
  C  C85  1  0.95615000  0.41609600  0.27187800  1
  C  C86  1  0.54385000  0.58390400  0.77187800  1
  C  C87  1  0.04385000  0.91609600  0.72812200  1
  C  C88  1  0.54385000  0.91609600  0.77187800  1
  C  C89  1  0.04385000  0.58390400  0.72812200  1
  C  C90  1  0.45615000  0.41609600  0.22812200  1
  C  C91  1  0.95615000  0.08390400  0.27187800  1
  C  C92  1  0.62178000  0.95341600  0.35205800  1
  C  C93  1  0.12178000  0.54658400  0.14794200  1
  C  C94  1  0.37822000  0.45341600  0.64794200  1
  C  C95  1  0.87822000  0.04658400  0.85205800  1
  C  C96  1  0.37822000  0.04658400  0.64794200  1
  C  C97  1  0.87822000  0.45341600  0.85205800  1
  C  C98  1  0.62178000  0.54658400  0.35205800  1
  C  C99  1  0.12178000  0.95341600  0.14794200  1
