# generated using pymatgen
data_CuNiC
_symmetry_space_group_name_H-M   'P 1'
_cell_length_a   5.10442200
_cell_length_b   5.85117000
_cell_length_c   9.83070500
_cell_angle_alpha   90.00000000
_cell_angle_beta   90.00000000
_cell_angle_gamma   90.00000000
_symmetry_Int_Tables_number   1
_chemical_formula_structural   CuNiC
_chemical_formula_sum   'Cu4 Ni4 C4'
_cell_volume   293.61210191
_cell_formula_units_Z   4
loop_
 _symmetry_equiv_pos_site_id
 _symmetry_equiv_pos_as_xyz
  1  'x, y, z'
loop_
 _atom_site_type_symbol
 _atom_site_label
 _atom_site_symmetry_multiplicity
 _atom_site_fract_x
 _atom_site_fract_y
 _atom_site_fract_z
 _atom_site_occupancy
  C  C0  1  0.99040900  0.09879500  0.07629900  1
  C  C1  1  0.49040900  0.90120500  0.92370100  1
  C  C2  1  0.99040900  0.59879500  0.92370100  1
  C  C3  1  0.49040900  0.40120500  0.07629900  1
  Ni  Ni4  1  0.09243600  0.99853500  0.31579300  1
  Ni  Ni5  1  0.59243600  0.00146500  0.68420700  1
  Ni  Ni6  1  0.09243600  0.49853500  0.68420700  1
  Ni  Ni7  1  0.59243600  0.50146500  0.31579300  1
  Cu  Cu8  1  0.14615600  0.37199000  0.02758800  1
  Cu  Cu9  1  0.64615600  0.62801000  0.97241200  1
  Cu  Cu10  1  0.14615600  0.87199000  0.97241200  1
  Cu  Cu11  1  0.64615600  0.12801000  0.02758800  1
