# generated using pymatgen
data_CuNiC5
_symmetry_space_group_name_H-M   'P 1'
_cell_length_a   5.19102900
_cell_length_b   6.48984100
_cell_length_c   11.27346200
_cell_angle_alpha   90.00000000
_cell_angle_beta   90.00000000
_cell_angle_gamma   90.00000000
_symmetry_Int_Tables_number   1
_chemical_formula_structural   CuNiC5
_chemical_formula_sum   'Cu4 Ni4 C20'
_cell_volume   379.79112962
_cell_formula_units_Z   4
loop_
 _symmetry_equiv_pos_site_id
 _symmetry_equiv_pos_as_xyz
  1  'x, y, z'
loop_
 _atom_site_type_symbol
 _atom_site_label
 _atom_site_symmetry_multiplicity
 _atom_site_fract_x
 _atom_site_fract_y
 _atom_site_fract_z
 _atom_site_occupancy
  Ni  Ni0  1  0.50000000  0.50000000  0.00000000  1
  Ni  Ni1  1  0.50000000  0.00000000  0.00000000  1
  Ni  Ni2  1  0.00000000  0.00000000  0.50000000  1
  Ni  Ni3  1  0.00000000  0.50000000  0.50000000  1
  Cu  Cu4  1  0.49900100  0.25000000  0.28043800  1
  Cu  Cu5  1  0.50099900  0.75000000  0.71956200  1
  Cu  Cu6  1  0.00099900  0.25000000  0.78043800  1
  Cu  Cu7  1  0.99900100  0.75000000  0.21956200  1
  C  C8  1  0.56115800  0.75000000  0.39993600  1
  C  C9  1  0.93884200  0.75000000  0.89993600  1
  C  C10  1  0.43884200  0.25000000  0.60006400  1
  C  C11  1  0.06115800  0.25000000  0.10006400  1
  C  C12  1  0.74902600  0.25000000  0.11343300  1
  C  C13  1  0.25097400  0.75000000  0.88656700  1
  C  C14  1  0.75097400  0.25000000  0.61343300  1
  C  C15  1  0.24902600  0.75000000  0.38656700  1
  C  C16  1  0.83376400  0.75000000  0.03707100  1
  C  C17  1  0.16623600  0.25000000  0.96292900  1
  C  C18  1  0.66623600  0.75000000  0.53707100  1
  C  C19  1  0.33376400  0.25000000  0.46292900  1
  C  C20  1  0.70087500  0.55246500  0.32853600  1
  C  C21  1  0.29912500  0.05246500  0.67146400  1
  C  C22  1  0.79912500  0.55246500  0.82853600  1
  C  C23  1  0.20087500  0.05246500  0.17146400  1
  C  C24  1  0.20087500  0.44753500  0.17146400  1
  C  C25  1  0.79912500  0.94753500  0.82853600  1
  C  C26  1  0.29912500  0.44753500  0.67146400  1
  C  C27  1  0.70087500  0.94753500  0.32853600  1
