# generated using pymatgen
data_Cu14Ni2C3
_symmetry_space_group_name_H-M   'P 1'
_cell_length_a   12.22803400
_cell_length_b   5.90081500
_cell_length_c   8.88613830
_cell_angle_alpha   78.18012112
_cell_angle_beta   90.00000000
_cell_angle_gamma   90.00000000
_symmetry_Int_Tables_number   1
_chemical_formula_structural   Cu14Ni2C3
_chemical_formula_sum   'Cu28 Ni4 C6'
_cell_volume   627.58717386
_cell_formula_units_Z   2
loop_
 _symmetry_equiv_pos_site_id
 _symmetry_equiv_pos_as_xyz
  1  'x, y, z'
loop_
 _atom_site_type_symbol
 _atom_site_label
 _atom_site_symmetry_multiplicity
 _atom_site_fract_x
 _atom_site_fract_y
 _atom_site_fract_z
 _atom_site_occupancy
  C  C0  1  0.65713900  0.83625100  0.86722900  1
  C  C1  1  0.34286100  0.16374900  0.13277100  1
  C  C2  1  0.15713900  0.16374900  0.63277100  1
  C  C3  1  0.84286100  0.83625100  0.36722900  1
  C  C4  1  0.50000000  0.50000000  0.50000000  1
  C  C5  1  0.00000000  0.50000000  0.00000000  1
  Ni  Ni6  1  0.35946400  0.75856400  0.89989900  1
  Ni  Ni7  1  0.64053600  0.24143600  0.10010100  1
  Ni  Ni8  1  0.85946500  0.24143600  0.60010100  1
  Ni  Ni9  1  0.14053600  0.75856400  0.39989900  1
  Cu  Cu10  1  0.31823000  0.53318400  0.87445100  1
  Cu  Cu11  1  0.68177000  0.46681600  0.12554900  1
  Cu  Cu12  1  0.81823000  0.46681600  0.62554900  1
  Cu  Cu13  1  0.18177000  0.53318400  0.37445100  1
  Cu  Cu14  1  0.07838900  0.73176500  0.54570000  1
  Cu  Cu15  1  0.92161100  0.26823500  0.45430000  1
  Cu  Cu16  1  0.57838900  0.26823500  0.95430000  1
  Cu  Cu17  1  0.42161100  0.73176500  0.04570000  1
  Cu  Cu18  1  0.38829700  0.30956500  0.62178200  1
  Cu  Cu19  1  0.61170300  0.69043500  0.37821800  1
  Cu  Cu20  1  0.88829700  0.69043500  0.87821800  1
  Cu  Cu21  1  0.11170300  0.30956500  0.12178200  1
  Cu  Cu22  1  0.43949100  0.86081800  0.77305800  1
  Cu  Cu23  1  0.56050900  0.13918200  0.22694200  1
  Cu  Cu24  1  0.93949100  0.13918200  0.72694200  1
  Cu  Cu25  1  0.06050900  0.86081800  0.27305800  1
  Cu  Cu26  1  0.11278300  0.39112000  0.87876500  1
  Cu  Cu27  1  0.88721700  0.60888000  0.12123500  1
  Cu  Cu28  1  0.61278300  0.60888000  0.62123500  1
  Cu  Cu29  1  0.38721700  0.39112000  0.37876500  1
  Cu  Cu30  1  0.44974200  0.85412500  0.50949900  1
  Cu  Cu31  1  0.55025800  0.14587500  0.49050100  1
  Cu  Cu32  1  0.94974200  0.14587500  0.99050100  1
  Cu  Cu33  1  0.05025800  0.85412500  0.00949900  1
  Cu  Cu34  1  0.26659200  0.92129600  0.89591600  1
  Cu  Cu35  1  0.73340800  0.07870400  0.10408400  1
  Cu  Cu36  1  0.76659200  0.07870400  0.60408400  1
  Cu  Cu37  1  0.23340800  0.92129600  0.39591600  1
