# generated using pymatgen
data_Cu3Ni3C5
_symmetry_space_group_name_H-M   'P 1'
_cell_length_a   5.59730465
_cell_length_b   6.23793254
_cell_length_c   8.12180001
_cell_angle_alpha   105.97379473
_cell_angle_beta   113.56225760
_cell_angle_gamma   99.91906824
_symmetry_Int_Tables_number   1
_chemical_formula_structural   Cu3Ni3C5
_chemical_formula_sum   'Cu6 Ni6 C10'
_cell_volume   236.73173090
_cell_formula_units_Z   2
loop_
 _symmetry_equiv_pos_site_id
 _symmetry_equiv_pos_as_xyz
  1  'x, y, z'
loop_
 _atom_site_type_symbol
 _atom_site_label
 _atom_site_symmetry_multiplicity
 _atom_site_fract_x
 _atom_site_fract_y
 _atom_site_fract_z
 _atom_site_occupancy
  Ni  Ni0  1  0.90886700  0.44339000  0.64199800  1
  Ni  Ni1  1  0.09113300  0.55661000  0.35800200  1
  Ni  Ni2  1  0.68984800  0.78646200  0.94689700  1
  Ni  Ni3  1  0.31015200  0.21353800  0.05310300  1
  Ni  Ni4  1  0.62926500  0.59397300  0.20667300  1
  Ni  Ni5  1  0.37073500  0.40602700  0.79332700  1
  Cu  Cu6  1  0.82441300  0.24884700  0.91574700  1
  Cu  Cu7  1  0.17558700  0.75115300  0.08425300  1
  Cu  Cu8  1  0.70171500  0.91268600  0.55511400  1
  Cu  Cu9  1  0.29828500  0.08731400  0.44488600  1
  Cu  Cu10  1  0.19758600  0.89149300  0.72081200  1
  Cu  Cu11  1  0.80241400  0.10850700  0.27918800  1
  C  C12  1  0.04458000  0.15330700  0.76995600  1
  C  C13  1  0.95542000  0.84669300  0.23004400  1
  C  C14  1  0.85607400  0.67387600  0.50420400  1
  C  C15  1  0.14392600  0.32612400  0.49579600  1
  C  C16  1  0.76127100  0.50742500  0.83203500  1
  C  C17  1  0.23872900  0.49257500  0.16796500  1
  C  C18  1  0.46981300  0.98896300  0.65960100  1
  C  C19  1  0.53018700  0.01103700  0.34039900  1
  C  C20  1  0.30227500  0.73561500  0.89329000  1
  C  C21  1  0.69772500  0.26438500  0.10671000  1
