# generated using pymatgen
data_Cu2NiC4
_symmetry_space_group_name_H-M   'P 1'
_cell_length_a   2.94878800
_cell_length_b   9.93337600
_cell_length_c   9.97048700
_cell_angle_alpha   90.00000000
_cell_angle_beta   90.00000000
_cell_angle_gamma   90.00000000
_symmetry_Int_Tables_number   1
_chemical_formula_structural   Cu2NiC4
_chemical_formula_sum   'Cu8 Ni4 C16'
_cell_volume   292.04972181
_cell_formula_units_Z   4
loop_
 _symmetry_equiv_pos_site_id
 _symmetry_equiv_pos_as_xyz
  1  'x, y, z'
loop_
 _atom_site_type_symbol
 _atom_site_label
 _atom_site_symmetry_multiplicity
 _atom_site_fract_x
 _atom_site_fract_y
 _atom_site_fract_z
 _atom_site_occupancy
  Ni  Ni0  1  0.50000000  0.63038300  0.43050600  1
  Ni  Ni1  1  0.50000000  0.36961700  0.56949400  1
  Ni  Ni2  1  0.50000000  0.63038300  0.06949400  1
  Ni  Ni3  1  0.50000000  0.36961700  0.93050600  1
  Cu  Cu4  1  0.00000000  0.37606200  0.25000000  1
  Cu  Cu5  1  0.00000000  0.62393800  0.75000000  1
  Cu  Cu6  1  0.50000000  0.89040900  0.25000000  1
  Cu  Cu7  1  0.50000000  0.10959100  0.75000000  1
  Cu  Cu8  1  0.00000000  0.12698900  0.42492900  1
  Cu  Cu9  1  0.00000000  0.87301100  0.57507100  1
  Cu  Cu10  1  0.00000000  0.12698900  0.07507100  1
  Cu  Cu11  1  0.00000000  0.87301100  0.92492900  1
  C  C12  1  0.00000000  0.50000000  0.50000000  1
  C  C13  1  0.00000000  0.50000000  0.00000000  1
  C  C14  1  0.50000000  0.00000000  0.50000000  1
  C  C15  1  0.50000000  0.00000000  0.00000000  1
  C  C16  1  0.50000000  0.54442200  0.25000000  1
  C  C17  1  0.50000000  0.45557800  0.75000000  1
  C  C18  1  0.00000000  0.03493100  0.25000000  1
  C  C19  1  0.00000000  0.96506900  0.75000000  1
  C  C20  1  0.50000000  0.28969000  0.10994400  1
  C  C21  1  0.50000000  0.71031000  0.89005600  1
  C  C22  1  0.50000000  0.28969000  0.39005600  1
  C  C23  1  0.50000000  0.71031000  0.60994400  1
  C  C24  1  0.00000000  0.75941200  0.11449300  1
  C  C25  1  0.00000000  0.24058800  0.88550700  1
  C  C26  1  0.00000000  0.75941200  0.38550700  1
  C  C27  1  0.00000000  0.24058800  0.61449300  1
