# generated using pymatgen
data_Cu14NiC16
_symmetry_space_group_name_H-M   'P 1'
_cell_length_a   8.56777928
_cell_length_b   8.61335736
_cell_length_c   4.29318947
_cell_angle_alpha   90.00000000
_cell_angle_beta   90.00000000
_cell_angle_gamma   90.00000000
_symmetry_Int_Tables_number   1
_chemical_formula_structural   Cu14NiC16
_chemical_formula_sum   'Cu14 Ni1 C16'
_cell_volume   316.82598327
_cell_formula_units_Z   1
loop_
 _symmetry_equiv_pos_site_id
 _symmetry_equiv_pos_as_xyz
  1  'x, y, z'
loop_
 _atom_site_type_symbol
 _atom_site_label
 _atom_site_symmetry_multiplicity
 _atom_site_fract_x
 _atom_site_fract_y
 _atom_site_fract_z
 _atom_site_occupancy
  C  C0  1  -0.00000348  0.00000000  0.00000000  1
  Ni  Ni1  1  0.00772751  0.50000000  0.00000000  1
  Cu  Cu2  1  0.50019872  0.00000000  0.00000000  1
  Cu  Cu3  1  0.49986870  0.50000000  0.00000000  1
  Cu  Cu4  1  0.00089195  0.23380428  0.50000000  1
  Cu  Cu5  1  0.00089195  0.76619572  0.50000000  1
  Cu  Cu6  1  0.49933672  0.24728499  0.50000000  1
  Cu  Cu7  1  0.49933672  0.75271501  0.50000000  1
  Cu  Cu8  1  0.24594059  0.00000000  0.50000000  1
  Cu  Cu9  1  0.25321955  0.50000000  0.50000000  1
  Cu  Cu10  1  0.75411158  0.00000000  0.50000000  1
  Cu  Cu11  1  0.74415780  0.50000000  0.50000000  1
  Cu  Cu12  1  0.25369304  0.23887214  0.00000000  1
  Cu  Cu13  1  0.25369304  0.76112786  0.00000000  1
  Cu  Cu14  1  0.74690585  0.24150457  0.00000000  1
  Cu  Cu15  1  0.74690585  0.75849543  0.00000000  1
  C  C16  1  0.25731440  0.00000000  0.00000000  1
  C  C17  1  0.74289159  0.00000000  0.00000000  1
  C  C18  1  0.74567698  0.50000000  0.00000000  1
  C  C19  1  0.24963302  0.24549946  0.50000000  1
  C  C20  1  0.24963302  0.75450054  0.50000000  1
  C  C21  1  0.75137125  0.25091761  0.50000000  1
  C  C22  1  0.75137125  0.74908239  0.50000000  1
  C  C23  1  0.99929392  0.00000000  0.50000000  1
  C  C24  1  0.99468272  0.50000000  0.50000000  1
  C  C25  1  0.50116549  0.00000000  0.50000000  1
  C  C26  1  0.49995525  0.50000000  0.50000000  1
  C  C27  1  0.99971460  0.25922816  -0.00000000  1
  C  C28  1  0.99971460  0.74077184  0.00000000  1
  C  C29  1  0.50035290  0.25224022  0.00000000  1
  C  C30  1  0.50035290  0.74775978  0.00000000  1
