# generated using pymatgen
data_Cu16NiC15
_symmetry_space_group_name_H-M   'P 1'
_cell_length_a   8.67826500
_cell_length_b   8.67826500
_cell_length_c   4.31858300
_cell_angle_alpha   90.00000000
_cell_angle_beta   90.00000000
_cell_angle_gamma   90.00000000
_symmetry_Int_Tables_number   1
_chemical_formula_structural   Cu16NiC15
_chemical_formula_sum   'Cu16 Ni1 C15'
_cell_volume   325.24234683
_cell_formula_units_Z   1
loop_
 _symmetry_equiv_pos_site_id
 _symmetry_equiv_pos_as_xyz
  1  'x, y, z'
loop_
 _atom_site_type_symbol
 _atom_site_label
 _atom_site_symmetry_multiplicity
 _atom_site_fract_x
 _atom_site_fract_y
 _atom_site_fract_z
 _atom_site_occupancy
  C  C0  1  0.00000000  0.00000000  0.00000000  1
  C  C1  1  0.50000000  0.00000000  0.00000000  1
  C  C2  1  0.00000000  0.50000000  0.00000000  1
  C  C3  1  0.26543100  0.00000000  0.50000000  1
  C  C4  1  0.73456900  0.00000000  0.50000000  1
  C  C5  1  0.25763600  0.50000000  0.50000000  1
  C  C6  1  0.74236400  0.50000000  0.50000000  1
  C  C7  1  0.00000000  0.26543100  0.50000000  1
  C  C8  1  0.50000000  0.25763600  0.50000000  1
  C  C9  1  0.00000000  0.73456900  0.50000000  1
  C  C10  1  0.50000000  0.74236400  0.50000000  1
  C  C11  1  0.26313000  0.26313000  0.00000000  1
  C  C12  1  0.73687000  0.26313000  0.00000000  1
  C  C13  1  0.26313000  0.73687000  0.00000000  1
  C  C14  1  0.73687000  0.73687000  0.00000000  1
  Ni  Ni15  1  0.50000000  0.50000000  0.00000000  1
  Cu  Cu16  1  0.00000000  0.25750200  0.00000000  1
  Cu  Cu17  1  0.50000000  0.23369600  0.00000000  1
  Cu  Cu18  1  0.00000000  0.74249800  0.00000000  1
  Cu  Cu19  1  0.50000000  0.76630400  0.00000000  1
  Cu  Cu20  1  0.24977400  0.24977400  0.50000000  1
  Cu  Cu21  1  0.75022600  0.24977400  0.50000000  1
  Cu  Cu22  1  0.24977400  0.75022600  0.50000000  1
  Cu  Cu23  1  0.75022600  0.75022600  0.50000000  1
  Cu  Cu24  1  0.00000000  0.00000000  0.50000000  1
  Cu  Cu25  1  0.50000000  0.00000000  0.50000000  1
  Cu  Cu26  1  0.00000000  0.50000000  0.50000000  1
  Cu  Cu27  1  0.50000000  0.50000000  0.50000000  1
  Cu  Cu28  1  0.25750200  0.00000000  0.00000000  1
  Cu  Cu29  1  0.74249800  0.00000000  0.00000000  1
  Cu  Cu30  1  0.23369600  0.50000000  0.00000000  1
  Cu  Cu31  1  0.76630400  0.50000000  0.00000000  1
