# generated using pymatgen
data_Cu(NiC2)2
_symmetry_space_group_name_H-M   'P 1'
_cell_length_a   8.07509465
_cell_length_b   8.07509465
_cell_length_c   8.07509465
_cell_angle_alpha   131.56932244
_cell_angle_beta   131.56932244
_cell_angle_gamma   70.91009173
_symmetry_Int_Tables_number   1
_chemical_formula_structural   Cu(NiC2)2
_chemical_formula_sum   'Cu1 Ni2 C4'
_cell_volume   288.63806552
_cell_formula_units_Z   1
loop_
 _symmetry_equiv_pos_site_id
 _symmetry_equiv_pos_as_xyz
  1  'x, y, z'
loop_
 _atom_site_type_symbol
 _atom_site_label
 _atom_site_symmetry_multiplicity
 _atom_site_fract_x
 _atom_site_fract_y
 _atom_site_fract_z
 _atom_site_occupancy
  Ni  Ni0  1  0.75000000  0.25000000  0.50000000  1
  Ni  Ni1  1  0.25000000  0.75000000  0.50000000  1
  Cu  Cu2  1  0.50000000  0.50000000  0.00000000  1
  C  C3  1  0.37360400  0.87604900  0.00000000  1
  C  C4  1  0.12395100  0.12395100  0.49755500  1
  C  C5  1  0.87604900  0.37360400  0.00000000  1
  C  C6  1  0.62639600  0.62639600  0.50244500  1
