# generated using pymatgen
data_Cu2NiC5
_symmetry_space_group_name_H-M   'P 1'
_cell_length_a   5.68060000
_cell_length_b   6.57009600
_cell_length_c   17.55262500
_cell_angle_alpha   90.00000000
_cell_angle_beta   90.00000000
_cell_angle_gamma   90.00000000
_symmetry_Int_Tables_number   1
_chemical_formula_structural   Cu2NiC5
_chemical_formula_sum   'Cu8 Ni4 C20'
_cell_volume   655.10060325
_cell_formula_units_Z   4
loop_
 _symmetry_equiv_pos_site_id
 _symmetry_equiv_pos_as_xyz
  1  'x, y, z'
loop_
 _atom_site_type_symbol
 _atom_site_label
 _atom_site_symmetry_multiplicity
 _atom_site_fract_x
 _atom_site_fract_y
 _atom_site_fract_z
 _atom_site_occupancy
  Ni  Ni0  1  0.25000000  0.98419500  0.91041700  1
  Ni  Ni1  1  0.25000000  0.51580500  0.41041700  1
  Ni  Ni2  1  0.75000000  0.01580500  0.08958300  1
  Ni  Ni3  1  0.75000000  0.48419500  0.58958300  1
  Cu  Cu4  1  0.25000000  0.82279000  0.61791200  1
  Cu  Cu5  1  0.25000000  0.67721000  0.11791200  1
  Cu  Cu6  1  0.75000000  0.17721000  0.38208800  1
  Cu  Cu7  1  0.75000000  0.32279000  0.88208800  1
  Cu  Cu8  1  0.25000000  0.24777500  0.75896400  1
  Cu  Cu9  1  0.25000000  0.25222500  0.25896400  1
  Cu  Cu10  1  0.75000000  0.75222500  0.24103600  1
  Cu  Cu11  1  0.75000000  0.74777500  0.74103600  1
  C  C12  1  0.25000000  0.12828500  0.02674500  1
  C  C13  1  0.25000000  0.37171500  0.52674500  1
  C  C14  1  0.75000000  0.87171500  0.97325500  1
  C  C15  1  0.75000000  0.62828500  0.47325500  1
  C  C16  1  0.25000000  0.65333300  0.87720100  1
  C  C17  1  0.25000000  0.84666700  0.37720100  1
  C  C18  1  0.75000000  0.34666700  0.12279900  1
  C  C19  1  0.75000000  0.15333300  0.62279900  1
  C  C20  1  0.25000000  0.96878200  0.71688100  1
  C  C21  1  0.25000000  0.53121800  0.21688100  1
  C  C22  1  0.75000000  0.03121800  0.28311900  1
  C  C23  1  0.75000000  0.46878200  0.78311900  1
  C  C24  1  0.98189800  0.65104700  0.65937000  1
  C  C25  1  0.51810200  0.84895300  0.15937000  1
  C  C26  1  0.48189800  0.34895300  0.34063000  1
  C  C27  1  0.01810200  0.15104700  0.84063000  1
  C  C28  1  0.01810200  0.34895300  0.34063000  1
  C  C29  1  0.48189800  0.15104700  0.84063000  1
  C  C30  1  0.51810200  0.65104700  0.65937000  1
  C  C31  1  0.98189800  0.84895300  0.15937000  1
