# generated using pymatgen
data_Cu3Ni3C23
_symmetry_space_group_name_H-M   'P 1'
_cell_length_a   7.44630203
_cell_length_b   7.44630203
_cell_length_c   7.44630278
_cell_angle_alpha   60.01359758
_cell_angle_beta   60.01359758
_cell_angle_gamma   60.01359404
_symmetry_Int_Tables_number   1
_chemical_formula_structural   Cu3Ni3C23
_chemical_formula_sum   'Cu3 Ni3 C23'
_cell_volume   292.03898783
_cell_formula_units_Z   1
loop_
 _symmetry_equiv_pos_site_id
 _symmetry_equiv_pos_as_xyz
  1  'x, y, z'
loop_
 _atom_site_type_symbol
 _atom_site_label
 _atom_site_symmetry_multiplicity
 _atom_site_fract_x
 _atom_site_fract_y
 _atom_site_fract_z
 _atom_site_occupancy
  C  C0  1  0.00039500  0.34480700  0.00039500  1
  C  C1  1  0.34480700  0.00039500  0.00039500  1
  C  C2  1  0.00039500  0.00039500  0.34480700  1
  C  C3  1  0.34103900  0.99629900  0.65950300  1
  C  C4  1  0.99629900  0.34103900  0.65950300  1
  C  C5  1  0.00020800  0.00020800  0.66330800  1
  C  C6  1  0.65950300  0.99629900  0.34103900  1
  C  C7  1  0.66330800  0.00020800  0.00020800  1
  C  C8  1  0.65950300  0.34103900  0.99629900  1
  C  C9  1  0.00020800  0.66330800  0.00020800  1
  C  C10  1  0.99629900  0.65950300  0.34103900  1
  C  C11  1  0.34103900  0.65950300  0.99629900  1
  C  C12  1  0.38044600  0.38044600  0.38044600  1
  C  C13  1  0.38460500  0.38460500  0.85063200  1
  C  C14  1  0.85063200  0.38460500  0.38460500  1
  C  C15  1  0.38460500  0.85063200  0.38460500  1
  C  C16  1  0.61585600  0.61585600  0.61585600  1
  C  C17  1  0.61987400  0.61987400  0.14557100  1
  C  C18  1  0.14557100  0.61987400  0.61987400  1
  C  C19  1  0.61987400  0.14557100  0.61987400  1
  C  C20  1  0.00409000  0.00409000  0.00409000  1
  C  C21  1  0.24892900  0.24892900  0.24892900  1
  C  C22  1  0.74916900  0.74916900  0.74916900  1
  Ni  Ni23  1  0.27512700  0.72350300  0.27512700  1
  Ni  Ni24  1  0.72350300  0.27512700  0.27512700  1
  Ni  Ni25  1  0.27512700  0.27512700  0.72350300  1
  Cu  Cu26  1  0.72122300  0.27714100  0.72122300  1
  Cu  Cu27  1  0.27714100  0.72122300  0.72122300  1
  Cu  Cu28  1  0.72122300  0.72122300  0.27714100  1
