# generated using pymatgen
data_Cu2NiC3
_symmetry_space_group_name_H-M   'P 1'
_cell_length_a   5.74244941
_cell_length_b   5.74244941
_cell_length_c   5.44150200
_cell_angle_alpha   90.00000000
_cell_angle_beta   90.00000000
_cell_angle_gamma   119.20914519
_symmetry_Int_Tables_number   1
_chemical_formula_structural   Cu2NiC3
_chemical_formula_sum   'Cu4 Ni2 C6'
_cell_volume   156.62095835
_cell_formula_units_Z   2
loop_
 _symmetry_equiv_pos_site_id
 _symmetry_equiv_pos_as_xyz
  1  'x, y, z'
loop_
 _atom_site_type_symbol
 _atom_site_label
 _atom_site_symmetry_multiplicity
 _atom_site_fract_x
 _atom_site_fract_y
 _atom_site_fract_z
 _atom_site_occupancy
  Ni  Ni0  1  0.33010600  0.33010600  0.51312000  1
  Ni  Ni1  1  0.66989400  0.66989400  0.01312000  1
  Cu  Cu2  1  0.66641600  0.00892900  0.50300800  1
  Cu  Cu3  1  0.00892900  0.66641600  0.50300800  1
  Cu  Cu4  1  0.33358400  0.99107100  0.00300800  1
  Cu  Cu5  1  0.99107100  0.33358400  0.00300800  1
  C  C6  1  0.67049100  0.99017400  0.12490900  1
  C  C7  1  0.99017400  0.67049100  0.12490900  1
  C  C8  1  0.32950900  0.00982600  0.62490900  1
  C  C9  1  0.00982600  0.32950900  0.62490900  1
  C  C10  1  0.34368300  0.34368300  0.14304400  1
  C  C11  1  0.65631700  0.65631700  0.64304400  1
