# generated using pymatgen
data_CuNiC20
_symmetry_space_group_name_H-M   'P 1'
_cell_length_a   6.62569200
_cell_length_b   7.98931200
_cell_length_c   14.08633765
_cell_angle_alpha   55.69694330
_cell_angle_beta   90.00000000
_cell_angle_gamma   90.00000000
_symmetry_Int_Tables_number   1
_chemical_formula_structural   CuNiC20
_chemical_formula_sum   'Cu2 Ni2 C40'
_cell_volume   615.96301893
_cell_formula_units_Z   2
loop_
 _symmetry_equiv_pos_site_id
 _symmetry_equiv_pos_as_xyz
  1  'x, y, z'
loop_
 _atom_site_type_symbol
 _atom_site_label
 _atom_site_symmetry_multiplicity
 _atom_site_fract_x
 _atom_site_fract_y
 _atom_site_fract_z
 _atom_site_occupancy
  Ni  Ni0  1  0.29580900  0.50000000  0.75000000  1
  Ni  Ni1  1  0.70419100  0.50000000  0.25000000  1
  Cu  Cu2  1  0.69270000  0.00000000  0.25000000  1
  Cu  Cu3  1  0.30730000  0.00000000  0.75000000  1
  C  C4  1  0.82951500  0.30278000  0.91056400  1
  C  C5  1  0.17048500  0.69722000  0.08943600  1
  C  C6  1  0.82951500  0.69722000  0.58943600  1
  C  C7  1  0.17048500  0.30278000  0.41056400  1
  C  C8  1  0.82308600  0.81211300  0.90136400  1
  C  C9  1  0.17691400  0.18788700  0.09863600  1
  C  C10  1  0.82308600  0.18788700  0.59863600  1
  C  C11  1  0.17691400  0.81211300  0.40136400  1
  C  C12  1  0.84690600  0.31351900  0.43374500  1
  C  C13  1  0.15309400  0.68648100  0.56625500  1
  C  C14  1  0.84606500  0.41158600  0.59612600  1
  C  C15  1  0.15393500  0.58841400  0.40387400  1
  C  C16  1  0.84157900  0.09003000  0.90357000  1
  C  C17  1  0.15842100  0.90997000  0.09643000  1
  C  C18  1  0.94007000  0.00000000  0.75000000  1
  C  C19  1  0.05993000  0.00000000  0.25000000  1
  C  C20  1  0.29854000  0.26803300  0.74879100  1
  C  C21  1  0.70146000  0.73196700  0.25120900  1
  C  C22  1  0.43338900  0.86982600  0.36809200  1
  C  C23  1  0.56661100  0.13017400  0.63190800  1
  C  C24  1  0.15309400  0.31351900  0.93374500  1
  C  C25  1  0.84690600  0.68648100  0.06625500  1
  C  C26  1  0.29854000  0.73196700  0.75120900  1
  C  C27  1  0.70146000  0.26803300  0.24879100  1
  C  C28  1  0.84429600  0.18188800  0.06743100  1
  C  C29  1  0.15570400  0.81811200  0.93256900  1
  C  C30  1  0.56959700  0.37375300  0.87260200  1
  C  C31  1  0.43040300  0.62624700  0.12739800  1
  C  C32  1  0.56661100  0.86982600  0.86809200  1
  C  C33  1  0.43338900  0.13017400  0.13190800  1
  C  C34  1  0.15842100  0.09003000  0.40357000  1
  C  C35  1  0.84157900  0.90997000  0.59643000  1
  C  C36  1  0.94079400  0.50000000  0.75000000  1
  C  C37  1  0.05920600  0.50000000  0.25000000  1
  C  C38  1  0.56959700  0.62624700  0.62739800  1
  C  C39  1  0.43040300  0.37375300  0.37260200  1
  C  C40  1  0.84606500  0.58841400  0.90387400  1
  C  C41  1  0.15393500  0.41158600  0.09612600  1
  C  C42  1  0.84429600  0.81811200  0.43256900  1
  C  C43  1  0.15570400  0.18188800  0.56743100  1
