# generated using pymatgen
data_Cu3Ni2C
_symmetry_space_group_name_H-M   'P 1'
_cell_length_a   9.17171905
_cell_length_b   9.17171905
_cell_length_c   3.82494400
_cell_angle_alpha   90.00000000
_cell_angle_beta   90.00000000
_cell_angle_gamma   120.00000759
_symmetry_Int_Tables_number   1
_chemical_formula_structural   Cu3Ni2C
_chemical_formula_sum   'Cu9 Ni6 C3'
_cell_volume   278.64879261
_cell_formula_units_Z   3
loop_
 _symmetry_equiv_pos_site_id
 _symmetry_equiv_pos_as_xyz
  1  'x, y, z'
loop_
 _atom_site_type_symbol
 _atom_site_label
 _atom_site_symmetry_multiplicity
 _atom_site_fract_x
 _atom_site_fract_y
 _atom_site_fract_z
 _atom_site_occupancy
  C  C0  1  0.00000000  0.00000000  0.00000000  1
  C  C1  1  0.66666700  0.33333300  0.50000000  1
  C  C2  1  0.33333300  0.66666700  0.50000000  1
  Ni  Ni3  1  0.68293600  0.68293600  0.50000000  1
  Ni  Ni4  1  0.31706400  0.00000000  0.50000000  1
  Ni  Ni5  1  0.00000000  0.31706400  0.50000000  1
  Ni  Ni6  1  0.31706400  0.31706400  0.50000000  1
  Ni  Ni7  1  0.68293600  0.00000000  0.50000000  1
  Ni  Ni8  1  0.00000000  0.68293600  0.50000000  1
  Cu  Cu9  1  0.50000000  0.50000000  0.00000000  1
  Cu  Cu10  1  0.50000000  0.00000000  0.00000000  1
  Cu  Cu11  1  0.00000000  0.50000000  0.00000000  1
  Cu  Cu12  1  0.81750300  0.18249700  0.00000000  1
  Cu  Cu13  1  0.81750300  0.63500500  0.00000000  1
  Cu  Cu14  1  0.36499500  0.18249700  0.00000000  1
  Cu  Cu15  1  0.18249700  0.81750300  0.00000000  1
  Cu  Cu16  1  0.63500500  0.81750300  0.00000000  1
  Cu  Cu17  1  0.18249700  0.36499500  0.00000000  1
