# generated using pymatgen
data_Cu9NiC
_symmetry_space_group_name_H-M   'P 1'
_cell_length_a   11.10029900
_cell_length_b   6.49236900
_cell_length_c   10.59969611
_cell_angle_alpha   55.45687664
_cell_angle_beta   90.00000000
_cell_angle_gamma   90.00000000
_symmetry_Int_Tables_number   1
_chemical_formula_structural   Cu9NiC
_chemical_formula_sum   'Cu36 Ni4 C4'
_cell_volume   629.21659699
_cell_formula_units_Z   4
loop_
 _symmetry_equiv_pos_site_id
 _symmetry_equiv_pos_as_xyz
  1  'x, y, z'
loop_
 _atom_site_type_symbol
 _atom_site_label
 _atom_site_symmetry_multiplicity
 _atom_site_fract_x
 _atom_site_fract_y
 _atom_site_fract_z
 _atom_site_occupancy
  C  C0  1  0.58317100  0.77061100  0.19299100  1
  C  C1  1  0.41682900  0.22938900  0.80700900  1
  C  C2  1  0.08317100  0.22938900  0.30700900  1
  C  C3  1  0.91682900  0.77061100  0.69299100  1
  Ni  Ni4  1  0.82711600  0.97818100  0.26294800  1
  Ni  Ni5  1  0.17288400  0.02181900  0.73705200  1
  Ni  Ni6  1  0.32711600  0.02181900  0.23705200  1
  Ni  Ni7  1  0.67288400  0.97818100  0.76294800  1
  Cu  Cu8  1  0.92662800  0.92186400  0.43119400  1
  Cu  Cu9  1  0.07337200  0.07813600  0.56880600  1
  Cu  Cu10  1  0.42662800  0.07813600  0.06880600  1
  Cu  Cu11  1  0.57337200  0.92186400  0.93119400  1
  Cu  Cu12  1  0.23813300  0.95215000  0.40745000  1
  Cu  Cu13  1  0.76186700  0.04785000  0.59255000  1
  Cu  Cu14  1  0.73813300  0.04785000  0.09255000  1
  Cu  Cu15  1  0.26186700  0.95215000  0.90745000  1
  Cu  Cu16  1  0.72858200  0.47141700  0.19498000  1
  Cu  Cu17  1  0.27141800  0.52858300  0.80502000  1
  Cu  Cu18  1  0.22858200  0.52858300  0.30502000  1
  Cu  Cu19  1  0.77141800  0.47141700  0.69498000  1
  Cu  Cu20  1  0.71683500  0.72694200  0.38422000  1
  Cu  Cu21  1  0.28316500  0.27305800  0.61578000  1
  Cu  Cu22  1  0.21683500  0.27305800  0.11578000  1
  Cu  Cu23  1  0.78316500  0.72694200  0.88422000  1
  Cu  Cu24  1  0.57809300  0.35755500  0.41320100  1
  Cu  Cu25  1  0.42190700  0.64244500  0.58679900  1
  Cu  Cu26  1  0.07809300  0.64244500  0.08679900  1
  Cu  Cu27  1  0.92190700  0.35755500  0.91320100  1
  Cu  Cu28  1  0.43534500  0.51797800  0.15059000  1
  Cu  Cu29  1  0.56465500  0.48202200  0.84941000  1
  Cu  Cu30  1  0.93534500  0.48202200  0.34941000  1
  Cu  Cu31  1  0.06465500  0.51797800  0.65059000  1
  Cu  Cu32  1  0.19661600  0.76046600  0.23696800  1
  Cu  Cu33  1  0.80338400  0.23953400  0.76303200  1
  Cu  Cu34  1  0.69661600  0.23953400  0.26303200  1
  Cu  Cu35  1  0.30338400  0.76046600  0.73696800  1
  Cu  Cu36  1  0.44273600  0.76600000  0.35273100  1
  Cu  Cu37  1  0.55726400  0.23400000  0.64726900  1
  Cu  Cu38  1  0.94273600  0.23400000  0.14726900  1
  Cu  Cu39  1  0.05726400  0.76600000  0.85273100  1
  Cu  Cu40  1  0.94135300  0.71540700  0.23541800  1
  Cu  Cu41  1  0.05864700  0.28459300  0.76458200  1
  Cu  Cu42  1  0.44135300  0.28459300  0.26458200  1
  Cu  Cu43  1  0.55864700  0.71540700  0.73541800  1
