# generated using pymatgen
data_Cu8(Ni2C)5
_symmetry_space_group_name_H-M   'P 1'
_cell_length_a   8.36887144
_cell_length_b   8.36887144
_cell_length_c   13.15363900
_cell_angle_alpha   90.00000000
_cell_angle_beta   90.00000000
_cell_angle_gamma   119.05447340
_symmetry_Int_Tables_number   1
_chemical_formula_structural   Cu8(Ni2C)5
_chemical_formula_sum   'Cu16 Ni20 C10'
_cell_volume   805.32250943
_cell_formula_units_Z   2
loop_
 _symmetry_equiv_pos_site_id
 _symmetry_equiv_pos_as_xyz
  1  'x, y, z'
loop_
 _atom_site_type_symbol
 _atom_site_label
 _atom_site_symmetry_multiplicity
 _atom_site_fract_x
 _atom_site_fract_y
 _atom_site_fract_z
 _atom_site_occupancy
  C  C0  1  0.91256100  0.92226800  0.25000000  1
  C  C1  1  0.92226800  0.91256100  0.75000000  1
  C  C2  1  0.45959500  0.19986800  0.25000000  1
  C  C3  1  0.19986800  0.45959500  0.75000000  1
  C  C4  1  0.76587200  0.17247800  0.52521700  1
  C  C5  1  0.17247800  0.76587200  0.47478300  1
  C  C6  1  0.76587200  0.17247800  0.97478300  1
  C  C7  1  0.17247800  0.76587200  0.02521700  1
  C  C8  1  0.57470700  0.57470700  0.50000000  1
  C  C9  1  0.57470700  0.57470700  0.00000000  1
  Ni  Ni10  1  0.87474700  0.17253500  0.40522200  1
  Ni  Ni11  1  0.17253500  0.87474700  0.59477800  1
  Ni  Ni12  1  0.87474700  0.17253500  0.09477800  1
  Ni  Ni13  1  0.17253500  0.87474700  0.90522200  1
  Ni  Ni14  1  0.63876300  0.15920200  0.63818700  1
  Ni  Ni15  1  0.15920200  0.63876300  0.36181300  1
  Ni  Ni16  1  0.63876300  0.15920200  0.86181300  1
  Ni  Ni17  1  0.15920200  0.63876300  0.13818700  1
  Ni  Ni18  1  0.53104300  0.61281000  0.36974800  1
  Ni  Ni19  1  0.61281000  0.53104300  0.63025200  1
  Ni  Ni20  1  0.53104300  0.61281000  0.13025200  1
  Ni  Ni21  1  0.61281000  0.53104300  0.86974800  1
  Ni  Ni22  1  0.28577200  0.28577200  0.50000000  1
  Ni  Ni23  1  0.28577200  0.28577200  0.00000000  1
  Ni  Ni24  1  0.18680300  0.33071000  0.25000000  1
  Ni  Ni25  1  0.33071000  0.18680300  0.75000000  1
  Ni  Ni26  1  0.82902400  0.53970900  0.25000000  1
  Ni  Ni27  1  0.53970900  0.82902400  0.75000000  1
  Ni  Ni28  1  0.58363600  0.93652000  0.25000000  1
  Ni  Ni29  1  0.93652000  0.58363600  0.75000000  1
  Cu  Cu30  1  0.61474300  0.33317200  0.44931900  1
  Cu  Cu31  1  0.33317200  0.61474300  0.55068100  1
  Cu  Cu32  1  0.61474300  0.33317200  0.05068100  1
  Cu  Cu33  1  0.33317200  0.61474300  0.94931900  1
  Cu  Cu34  1  0.48365600  0.95997400  0.45406600  1
  Cu  Cu35  1  0.95997400  0.48365600  0.54593400  1
  Cu  Cu36  1  0.48365600  0.95997400  0.04593400  1
  Cu  Cu37  1  0.95997400  0.48365600  0.95406600  1
  Cu  Cu38  1  0.98818900  0.19373800  0.62305500  1
  Cu  Cu39  1  0.19373800  0.98818900  0.37694500  1
  Cu  Cu40  1  0.98818900  0.19373800  0.87694500  1
  Cu  Cu41  1  0.19373800  0.98818900  0.12305500  1
  Cu  Cu42  1  0.71247200  0.87377900  0.55270000  1
  Cu  Cu43  1  0.87377900  0.71247200  0.44730000  1
  Cu  Cu44  1  0.71247200  0.87377900  0.94730000  1
  Cu  Cu45  1  0.87377900  0.71247200  0.05270000  1
