# generated using pymatgen
data_Cu2NiC16
_symmetry_space_group_name_H-M   'P 1'
_cell_length_a   7.50583790
_cell_length_b   7.68058949
_cell_length_c   8.26448119
_cell_angle_alpha   89.03030138
_cell_angle_beta   70.83168002
_cell_angle_gamma   120.56980490
_symmetry_Int_Tables_number   1
_chemical_formula_structural   Cu2NiC16
_chemical_formula_sum   'Cu2 Ni1 C16'
_cell_volume   377.43943925
_cell_formula_units_Z   1
loop_
 _symmetry_equiv_pos_site_id
 _symmetry_equiv_pos_as_xyz
  1  'x, y, z'
loop_
 _atom_site_type_symbol
 _atom_site_label
 _atom_site_symmetry_multiplicity
 _atom_site_fract_x
 _atom_site_fract_y
 _atom_site_fract_z
 _atom_site_occupancy
  C  C0  1  0.90370900  0.41078100  0.21804700  1
  C  C1  1  0.25814200  0.58528600  0.66559400  1
  Ni  Ni2  1  0.22727500  0.11256300  0.26451300  1
  Cu  Cu3  1  0.49884200  0.50217500  0.01458600  1
  Cu  Cu4  1  0.47842700  0.97482700  0.01351600  1
  C  C5  1  0.86276500  0.93775400  0.62031300  1
  C  C6  1  0.00686500  0.01367200  0.99263500  1
  C  C7  1  0.94084500  0.98174200  0.23734300  1
  C  C8  1  0.55650400  0.28310900  0.00460100  1
  C  C9  1  0.22843500  0.93862300  0.94556500  1
  C  C10  1  0.32785200  0.40227000  0.25854900  1
  C  C11  1  0.22837300  0.31033400  0.94280700  1
  C  C12  1  0.32757200  0.92471800  0.25689000  1
  C  C13  1  0.07858900  0.05133900  0.73120600  1
  C  C14  1  0.39146500  0.69697900  0.00429900  1
  C  C15  1  0.78363300  0.08102900  0.01289500  1
  C  C16  1  0.67770700  0.65121700  0.71759900  1
  C  C17  1  0.78658100  0.71977700  0.01978400  1
  C  C18  1  0.67749000  0.03787600  0.70888700  1
