# generated using pymatgen
data_Cu2NiC2
_symmetry_space_group_name_H-M   'P 1'
_cell_length_a   9.48587000
_cell_length_b   8.22438000
_cell_length_c   9.34390088
_cell_angle_alpha   58.33957320
_cell_angle_beta   90.00000000
_cell_angle_gamma   90.00000000
_symmetry_Int_Tables_number   1
_chemical_formula_structural   Cu2NiC2
_chemical_formula_sum   'Cu16 Ni8 C16'
_cell_volume   620.47862868
_cell_formula_units_Z   8
loop_
 _symmetry_equiv_pos_site_id
 _symmetry_equiv_pos_as_xyz
  1  'x, y, z'
loop_
 _atom_site_type_symbol
 _atom_site_label
 _atom_site_symmetry_multiplicity
 _atom_site_fract_x
 _atom_site_fract_y
 _atom_site_fract_z
 _atom_site_occupancy
  Ni  Ni0  1  0.92986900  0.99626900  0.05980100  1
  Ni  Ni1  1  0.07013100  0.00373100  0.94019900  1
  Ni  Ni2  1  0.42986900  0.00373100  0.44019900  1
  Ni  Ni3  1  0.57013100  0.99626900  0.55980100  1
  Ni  Ni4  1  0.55749700  0.50303700  0.06954800  1
  Ni  Ni5  1  0.44250300  0.49696300  0.93045200  1
  Ni  Ni6  1  0.05749700  0.49696300  0.43045200  1
  Ni  Ni7  1  0.94250300  0.50303700  0.56954800  1
  Cu  Cu8  1  0.77424400  0.50203300  0.45217900  1
  Cu  Cu9  1  0.22575600  0.49796700  0.54782100  1
  Cu  Cu10  1  0.27424400  0.49796700  0.04782100  1
  Cu  Cu11  1  0.72575600  0.50203300  0.95217900  1
  Cu  Cu12  1  0.72126100  0.99130400  0.07725900  1
  Cu  Cu13  1  0.27873900  0.00869600  0.92274100  1
  Cu  Cu14  1  0.22126100  0.00869600  0.42274100  1
  Cu  Cu15  1  0.77873900  0.99130400  0.57725900  1
  Cu  Cu16  1  0.57281500  0.50779200  0.27906000  1
  Cu  Cu17  1  0.42718500  0.49220800  0.72094000  1
  Cu  Cu18  1  0.07281500  0.49220800  0.22094000  1
  Cu  Cu19  1  0.92718500  0.50779200  0.77906000  1
  Cu  Cu20  1  0.54563800  0.00344500  0.26885100  1
  Cu  Cu21  1  0.45436200  0.99655500  0.73114900  1
  Cu  Cu22  1  0.04563800  0.99655500  0.23114900  1
  Cu  Cu23  1  0.95436200  0.00344500  0.76885100  1
  C  C24  1  0.50216400  0.50506200  0.20486000  1
  C  C25  1  0.49783600  0.49493800  0.79514000  1
  C  C26  1  0.00216400  0.49493800  0.29514000  1
  C  C27  1  0.99783600  0.50506200  0.70486000  1
  C  C28  1  0.70142500  0.50373900  0.05253000  1
  C  C29  1  0.29857500  0.49626100  0.94747000  1
  C  C30  1  0.20142500  0.49626100  0.44747000  1
  C  C31  1  0.79857500  0.50373900  0.55253000  1
  C  C32  1  0.94605500  0.99346500  0.20758500  1
  C  C33  1  0.05394500  0.00653500  0.79241500  1
  C  C34  1  0.44605500  0.00653500  0.29241500  1
  C  C35  1  0.55394500  0.99346500  0.70758500  1
  C  C36  1  0.79598200  0.99475600  0.00432900  1
  C  C37  1  0.20401800  0.00524400  0.99567100  1
  C  C38  1  0.29598200  0.00524400  0.49567100  1
  C  C39  1  0.70401800  0.99475600  0.50432900  1
