# generated using pymatgen
data_Cu(NiC5)2
_symmetry_space_group_name_H-M   'P 1'
_cell_length_a   9.43004800
_cell_length_b   12.45074500
_cell_length_c   14.43319610
_cell_angle_alpha   90.00000000
_cell_angle_beta   115.69902370
_cell_angle_gamma   90.00000000
_symmetry_Int_Tables_number   1
_chemical_formula_structural   Cu(NiC5)2
_chemical_formula_sum   'Cu8 Ni16 C80'
_cell_volume   1526.99364750
_cell_formula_units_Z   8
loop_
 _symmetry_equiv_pos_site_id
 _symmetry_equiv_pos_as_xyz
  1  'x, y, z'
loop_
 _atom_site_type_symbol
 _atom_site_label
 _atom_site_symmetry_multiplicity
 _atom_site_fract_x
 _atom_site_fract_y
 _atom_site_fract_z
 _atom_site_occupancy
  C  C0  1  0.10197700  0.95712300  0.37416100  1
  C  C1  1  0.10197700  0.54287700  0.87416100  1
  C  C2  1  0.89802300  0.04287700  0.62583900  1
  C  C3  1  0.89802300  0.45712300  0.12583900  1
  C  C4  1  0.26924000  0.87319200  0.39617800  1
  C  C5  1  0.26924000  0.62680800  0.89617800  1
  C  C6  1  0.73076000  0.12680800  0.60382200  1
  C  C7  1  0.73076000  0.37319200  0.10382200  1
  C  C8  1  0.27698800  0.01412200  0.37051500  1
  C  C9  1  0.27698800  0.48587800  0.87051500  1
  C  C10  1  0.72301200  0.98587800  0.62948500  1
  C  C11  1  0.72301200  0.51412200  0.12948500  1
  C  C12  1  0.23963600  0.11622700  0.62226500  1
  C  C13  1  0.23963600  0.38377300  0.12226500  1
  C  C14  1  0.76036400  0.88377300  0.37773500  1
  C  C15  1  0.76036400  0.61622700  0.87773500  1
  C  C16  1  0.08084200  0.08518300  0.49718100  1
  C  C17  1  0.08084200  0.41481700  0.99718100  1
  C  C18  1  0.91915800  0.91481700  0.50281900  1
  C  C19  1  0.91915800  0.58518300  0.00281900  1
  C  C20  1  0.24902600  0.16126000  0.50651100  1
  C  C21  1  0.24902600  0.33874000  0.00651100  1
  C  C22  1  0.75097400  0.83874000  0.49348900  1
  C  C23  1  0.75097400  0.66126000  0.99348900  1
  C  C24  1  0.96624200  0.67684000  0.30240100  1
  C  C25  1  0.96624200  0.82316000  0.80240100  1
  C  C26  1  0.03375800  0.32316000  0.69759900  1
  C  C27  1  0.03375800  0.17684000  0.19759900  1
  C  C28  1  0.89512200  0.67524500  0.40056200  1
  C  C29  1  0.89512200  0.82475500  0.90056200  1
  C  C30  1  0.10487800  0.32475500  0.59943800  1
  C  C31  1  0.10487800  0.17524500  0.09943800  1
  C  C32  1  0.87856400  0.55618600  0.32685600  1
  C  C33  1  0.87856400  0.94381400  0.82685600  1
  C  C34  1  0.12143600  0.44381400  0.67314400  1
  C  C35  1  0.12143600  0.05618600  0.17314400  1
  C  C36  1  0.33332000  0.49916600  0.42391700  1
  C  C37  1  0.33332000  0.00083400  0.92391700  1
  C  C38  1  0.66668000  0.50083400  0.57608300  1
  C  C39  1  0.66668000  0.99916600  0.07608300  1
  C  C40  1  0.20490500  0.57928300  0.31515900  1
  C  C41  1  0.20490500  0.92071700  0.81515900  1
  C  C42  1  0.79509500  0.42071700  0.68484100  1
  C  C43  1  0.79509500  0.07928300  0.18484100  1
  C  C44  1  0.13993700  0.45098600  0.34244800  1
  C  C45  1  0.13993700  0.04901400  0.84244800  1
  C  C46  1  0.86006300  0.54901400  0.65755200  1
  C  C47  1  0.86006300  0.95098600  0.15755200  1
  C  C48  1  0.33930800  0.74268500  0.64405400  1
  C  C49  1  0.33930800  0.75731500  0.14405400  1
  C  C50  1  0.66069200  0.25731500  0.35594600  1
  C  C51  1  0.66069200  0.24268500  0.85594600  1
  Ni  Ni52  1  0.23060800  0.95367200  0.40562800  1
  Ni  Ni53  1  0.23060800  0.54632800  0.90562800  1
  Ni  Ni54  1  0.76939200  0.04632800  0.59437200  1
  Ni  Ni55  1  0.76939200  0.45367200  0.09437200  1
  Ni  Ni56  1  0.20799000  0.09733700  0.54148100  1
  Ni  Ni57  1  0.20799000  0.40266300  0.04148100  1
  Ni  Ni58  1  0.79201000  0.90266300  0.45851900  1
  Ni  Ni59  1  0.79201000  0.59733700  0.95851900  1
  Ni  Ni60  1  0.94954000  0.62834000  0.36040600  1
  Ni  Ni61  1  0.94954000  0.87166000  0.86040600  1
  Ni  Ni62  1  0.05046000  0.37166000  0.63959400  1
  Ni  Ni63  1  0.05046000  0.12834000  0.13959400  1
  Ni  Ni64  1  0.21165900  0.52299200  0.37541400  1
  Ni  Ni65  1  0.21165900  0.97700800  0.87541400  1
  Ni  Ni66  1  0.78834100  0.47700800  0.62458600  1
  Ni  Ni67  1  0.78834100  0.02299200  0.12458600  1
  Cu  Cu68  1  0.13621600  0.58489100  0.45707000  1
  Cu  Cu69  1  0.13621600  0.91510900  0.95707000  1
  Cu  Cu70  1  0.86378400  0.41510900  0.54293000  1
  Cu  Cu71  1  0.86378400  0.08489100  0.04293000  1
  Cu  Cu72  1  0.31408800  0.97801400  0.54143800  1
  Cu  Cu73  1  0.31408800  0.52198600  0.04143800  1
  Cu  Cu74  1  0.68591200  0.02198600  0.45856200  1
  Cu  Cu75  1  0.68591200  0.47801400  0.95856200  1
  C  C76  1  0.43468300  0.78423600  0.77042100  1
  C  C77  1  0.43468300  0.71576400  0.27042100  1
  C  C78  1  0.56531700  0.21576400  0.22957900  1
  C  C79  1  0.56531700  0.28423600  0.72957900  1
  C  C80  1  0.56423500  0.77562600  0.61207400  1
  C  C81  1  0.56423500  0.72437400  0.11207400  1
  C  C82  1  0.43576500  0.22437400  0.38792600  1
  C  C83  1  0.43576500  0.27562600  0.88792600  1
  C  C84  1  0.42238500  0.56412200  0.69201200  1
  C  C85  1  0.42238500  0.93587800  0.19201200  1
  C  C86  1  0.57761500  0.43587800  0.30798800  1
  C  C87  1  0.57761500  0.06412200  0.80798800  1
  C  C88  1  0.09620700  0.70579400  0.65399000  1
  C  C89  1  0.09620700  0.79420600  0.15399000  1
  C  C90  1  0.90379300  0.29420600  0.34601000  1
  C  C91  1  0.90379300  0.20579400  0.84601000  1
  C  C92  1  0.23181600  0.69135800  0.49143900  1
  C  C93  1  0.23181600  0.80864200  0.99143900  1
  C  C94  1  0.76818400  0.30864200  0.50856100  1
  C  C95  1  0.76818400  0.19135800  0.00856100  1
  C  C96  1  0.23239300  0.89290500  0.58197600  1
  C  C97  1  0.23239300  0.60709500  0.08197600  1
  C  C98  1  0.76760700  0.10709500  0.41802400  1
  C  C99  1  0.76760700  0.39290500  0.91802400  1
  C  C100  1  0.50159600  0.80284300  0.85827800  1
  C  C101  1  0.50159600  0.69715700  0.35827800  1
  C  C102  1  0.49840400  0.19715700  0.14172200  1
  C  C103  1  0.49840400  0.30284300  0.64172200  1
