# generated using pymatgen
data_Cu18NiC17
_symmetry_space_group_name_H-M   'P 1'
_cell_length_a   5.64374600
_cell_length_b   6.30587931
_cell_length_c   12.73058188
_cell_angle_alpha   76.37133345
_cell_angle_beta   84.05105879
_cell_angle_gamma   66.53068603
_symmetry_Int_Tables_number   1
_chemical_formula_structural   Cu18NiC17
_chemical_formula_sum   'Cu18 Ni1 C17'
_cell_volume   403.85938485
_cell_formula_units_Z   1
loop_
 _symmetry_equiv_pos_site_id
 _symmetry_equiv_pos_as_xyz
  1  'x, y, z'
loop_
 _atom_site_type_symbol
 _atom_site_label
 _atom_site_symmetry_multiplicity
 _atom_site_fract_x
 _atom_site_fract_y
 _atom_site_fract_z
 _atom_site_occupancy
  C  C0  1  0.00615100  0.29353600  0.89953200  1
  C  C1  1  0.99595600  0.70025000  0.09848300  1
  C  C2  1  0.49774700  0.21010500  0.09142200  1
  C  C3  1  0.50191100  0.78940100  0.90473600  1
  C  C4  1  0.80537200  0.40769800  0.36128400  1
  C  C5  1  0.16070300  0.60888500  0.63808000  1
  C  C6  1  0.95798800  0.06824700  0.70309800  1
  C  C7  1  0.03047600  0.92868100  0.29352500  1
  C  C8  1  0.37095500  0.93329700  0.20077500  1
  C  C9  1  0.62604400  0.07262200  0.79781500  1
  C  C10  1  0.00133400  0.48100300  0.50788500  1
  C  C11  1  0.02180900  0.96664600  0.53019000  1
  C  C12  1  0.74623000  0.32048500  0.69719600  1
  C  C13  1  0.27086500  0.68969900  0.30611900  1
  C  C14  1  0.61805900  0.40422400  0.19071000  1
  C  C15  1  0.37759400  0.59562700  0.80669300  1
  C  C16  1  0.47985000  0.51477900  0.51420600  1
  Ni  Ni17  1  0.63756300  0.04806200  0.42286700  1
  Cu  Cu18  1  0.53188600  0.53994100  0.39757300  1
  Cu  Cu19  1  0.44538400  0.48798300  0.59813600  1
  Cu  Cu20  1  0.84591700  0.10275300  0.40490900  1
  Cu  Cu21  1  0.08377100  0.89057600  0.60498800  1
  Cu  Cu22  1  0.53048800  0.96328300  0.17083700  1
  Cu  Cu23  1  0.46802800  0.03729500  0.82611000  1
  Cu  Cu24  1  0.45765100  0.39980900  0.16210100  1
  Cu  Cu25  1  0.53913900  0.60336700  0.83201500  1
  Cu  Cu26  1  0.24768100  0.31898000  0.02915600  1
  Cu  Cu27  1  0.75252200  0.67993300  0.96651900  1
  Cu  Cu28  1  0.84721500  0.17671000  0.74979400  1
  Cu  Cu29  1  0.15293900  0.81988000  0.25077200  1
  Cu  Cu30  1  0.84634800  0.43209000  0.23945900  1
  Cu  Cu31  1  0.15299500  0.55255700  0.76036200  1
  Cu  Cu32  1  0.75598000  0.14664200  0.03217000  1
  Cu  Cu33  1  0.24527000  0.84943200  0.96503700  1
  Cu  Cu34  1  0.02484500  0.40643000  0.42030300  1
  Cu  Cu35  1  0.97093300  0.54719200  0.58574300  1
