# generated using pymatgen
data_CuNiC9
_symmetry_space_group_name_H-M   'P 1'
_cell_length_a   8.40833800
_cell_length_b   7.83621400
_cell_length_c   13.73955915
_cell_angle_alpha   56.08404127
_cell_angle_beta   90.00000000
_cell_angle_gamma   90.00000000
_symmetry_Int_Tables_number   1
_chemical_formula_structural   CuNiC9
_chemical_formula_sum   'Cu4 Ni4 C36'
_cell_volume   751.26379151
_cell_formula_units_Z   4
loop_
 _symmetry_equiv_pos_site_id
 _symmetry_equiv_pos_as_xyz
  1  'x, y, z'
loop_
 _atom_site_type_symbol
 _atom_site_label
 _atom_site_symmetry_multiplicity
 _atom_site_fract_x
 _atom_site_fract_y
 _atom_site_fract_z
 _atom_site_occupancy
  Ni  Ni0  1  0.26056500  0.70916600  0.53324400  1
  Ni  Ni1  1  0.23943500  0.70916600  0.03324400  1
  Ni  Ni2  1  0.73943500  0.29083400  0.46675600  1
  Ni  Ni3  1  0.76056500  0.29083400  0.96675600  1
  Cu  Cu4  1  0.23974600  0.36767700  0.37647400  1
  Cu  Cu5  1  0.26025400  0.36767700  0.87647400  1
  Cu  Cu6  1  0.76025400  0.63232300  0.62352600  1
  Cu  Cu7  1  0.73974600  0.63232300  0.12352600  1
  C  C8  1  0.43027800  0.00040900  0.22701100  1
  C  C9  1  0.06972200  0.00040900  0.72701100  1
  C  C10  1  0.56972200  0.99959100  0.77298900  1
  C  C11  1  0.93027800  0.99959100  0.27298900  1
  C  C12  1  0.45753500  0.87175500  0.35270500  1
  C  C13  1  0.04246500  0.87175500  0.85270500  1
  C  C14  1  0.54246500  0.12824500  0.64729500  1
  C  C15  1  0.95753500  0.12824500  0.14729500  1
  C  C16  1  0.57141200  0.07896900  0.15363700  1
  C  C17  1  0.92858800  0.07896900  0.65363700  1
  C  C18  1  0.42858800  0.92103100  0.84636300  1
  C  C19  1  0.07141200  0.92103100  0.34636300  1
  C  C20  1  0.27524500  0.07983200  0.49273700  1
  C  C21  1  0.22475500  0.07983200  0.99273700  1
  C  C22  1  0.72475500  0.92016800  0.50726300  1
  C  C23  1  0.77524500  0.92016800  0.00726300  1
  C  C24  1  0.20457800  0.65293400  0.25589800  1
  C  C25  1  0.29542200  0.65293400  0.75589800  1
  C  C26  1  0.79542200  0.34706600  0.74410200  1
  C  C27  1  0.70457800  0.34706600  0.24410200  1
  C  C28  1  0.46141100  0.42126600  0.38266900  1
  C  C29  1  0.03858900  0.42126600  0.88266900  1
  C  C30  1  0.53858900  0.57873400  0.61733100  1
  C  C31  1  0.96141100  0.57873400  0.11733100  1
  C  C32  1  0.27920400  0.32583500  0.25330600  1
  C  C33  1  0.22079600  0.32583500  0.75330600  1
  C  C34  1  0.72079600  0.67416500  0.74669400  1
  C  C35  1  0.77920400  0.67416500  0.24669400  1
  C  C36  1  0.01735400  0.30689800  0.37839400  1
  C  C37  1  0.48264600  0.30689800  0.87839400  1
  C  C38  1  0.98264600  0.69310200  0.62160600  1
  C  C39  1  0.51735400  0.69310200  0.12160600  1
  C  C40  1  0.19870300  0.42273100  0.49454300  1
  C  C41  1  0.30129700  0.42273100  0.99454300  1
  C  C42  1  0.80129700  0.57726900  0.50545700  1
  C  C43  1  0.69870300  0.57726900  0.00545700  1
