# generated using pymatgen
data_CuNiC8
_symmetry_space_group_name_H-M   'P 1'
_cell_length_a   5.20531344
_cell_length_b   5.55136273
_cell_length_c   9.03442728
_cell_angle_alpha   74.62706146
_cell_angle_beta   90.95135868
_cell_angle_gamma   62.58621971
_symmetry_Int_Tables_number   1
_chemical_formula_structural   CuNiC8
_chemical_formula_sum   'Cu2 Ni2 C16'
_cell_volume   220.50449104
_cell_formula_units_Z   2
loop_
 _symmetry_equiv_pos_site_id
 _symmetry_equiv_pos_as_xyz
  1  'x, y, z'
loop_
 _atom_site_type_symbol
 _atom_site_label
 _atom_site_symmetry_multiplicity
 _atom_site_fract_x
 _atom_site_fract_y
 _atom_site_fract_z
 _atom_site_occupancy
  C  C0  1  0.67572400  0.64273600  0.88534300  1
  C  C1  1  0.17577100  0.64269100  0.38534100  1
  C  C2  1  0.93484800  0.14111600  0.63318000  1
  C  C3  1  0.43495700  0.14117200  0.13316500  1
  Ni  Ni4  1  0.73883200  0.51773700  0.23884900  1
  Ni  Ni5  1  0.23880200  0.51777000  0.73881400  1
  Cu  Cu6  1  0.98694100  0.02367800  0.98772300  1
  Cu  Cu7  1  0.48686200  0.02369900  0.48770400  1
  C  C8  1  0.48834400  0.29641900  0.59329100  1
  C  C9  1  0.98854000  0.29641000  0.09321200  1
  C  C10  1  0.96047400  0.81066200  0.85595800  1
  C  C11  1  0.46067700  0.81074900  0.35584800  1
  C  C12  1  0.39743800  0.80964500  0.68023400  1
  C  C13  1  0.89748200  0.80944300  0.18016000  1
  C  C14  1  0.43047600  0.80640300  0.04448900  1
  C  C15  1  0.93036100  0.80632400  0.54453100  1
  C  C16  1  0.04440300  0.30775800  0.43183800  1
  C  C17  1  0.54438600  0.30774900  0.93183100  1
  C  C18  1  0.01259100  0.30850100  0.79330800  1
  C  C19  1  0.51256600  0.30852700  0.29327500  1
