# generated using pymatgen
data_Cu2NiC4
_symmetry_space_group_name_H-M   'P 1'
_cell_length_a   15.06204892
_cell_length_b   15.06204892
_cell_length_c   15.06204967
_cell_angle_alpha   16.34373727
_cell_angle_beta   16.34373727
_cell_angle_gamma   16.34373661
_symmetry_Int_Tables_number   1
_chemical_formula_structural   Cu2NiC4
_chemical_formula_sum   'Cu2 Ni1 C4'
_cell_volume   235.91924788
_cell_formula_units_Z   1
loop_
 _symmetry_equiv_pos_site_id
 _symmetry_equiv_pos_as_xyz
  1  'x, y, z'
loop_
 _atom_site_type_symbol
 _atom_site_label
 _atom_site_symmetry_multiplicity
 _atom_site_fract_x
 _atom_site_fract_y
 _atom_site_fract_z
 _atom_site_occupancy
  Ni  Ni0  1  0.38141100  0.38141100  0.38141100  1
  Cu  Cu1  1  0.87089400  0.87089400  0.87089400  1
  Cu  Cu2  1  0.62757300  0.62757300  0.62757300  1
  C  C3  1  0.49889800  0.49889800  0.49889800  1
  C  C4  1  0.24974500  0.24974500  0.24974500  1
  C  C5  1  0.00002600  0.00002600  0.00002600  1
  C  C6  1  0.74645200  0.74645200  0.74645200  1
