# generated using pymatgen
data_Cu5Ni7
_symmetry_space_group_name_H-M   'P 1'
_cell_length_a   7.00020308
_cell_length_b   7.00020308
_cell_length_c   9.73039332
_cell_angle_alpha   69.66172789
_cell_angle_beta   69.66172789
_cell_angle_gamma   36.49444562
_symmetry_Int_Tables_number   1
_chemical_formula_structural   Cu5Ni7
_chemical_formula_sum   'Cu5 Ni7'
_cell_volume   263.91179287
_cell_formula_units_Z   1
loop_
 _symmetry_equiv_pos_site_id
 _symmetry_equiv_pos_as_xyz
  1  'x, y, z'
loop_
 _atom_site_type_symbol
 _atom_site_label
 _atom_site_symmetry_multiplicity
 _atom_site_fract_x
 _atom_site_fract_y
 _atom_site_fract_z
 _atom_site_occupancy
  Ni  Ni0  1  0.25299000  0.24034000  0.38060500  1
  Ni  Ni1  1  0.75966000  0.74701000  0.61939500  1
  Ni  Ni2  1  0.22650800  0.22865600  0.88327700  1
  Ni  Ni3  1  0.77134400  0.77349200  0.11672300  1
  Ni  Ni4  1  0.48779300  0.49735200  0.82542100  1
  Ni  Ni5  1  0.50264800  0.51220700  0.17457900  1
  Ni  Ni6  1  0.82451700  0.17548300  0.50000000  1
  Cu  Cu7  1  0.12744500  0.13184000  0.19698700  1
  Cu  Cu8  1  0.86816000  0.87255500  0.80301300  1
  Cu  Cu9  1  0.12022100  0.11198400  0.68015600  1
  Cu  Cu10  1  0.88801600  0.87977900  0.31984400  1
  Cu  Cu11  1  0.99089800  0.00910200  0.00000000  1
