# generated using pymatgen
data_CuNiC4
_symmetry_space_group_name_H-M   'P 1'
_cell_length_a   11.59820752
_cell_length_b   11.59820752
_cell_length_c   10.51021728
_cell_angle_alpha   74.98081626
_cell_angle_beta   74.98081626
_cell_angle_gamma   29.60163597
_symmetry_Int_Tables_number   1
_chemical_formula_structural   CuNiC4
_chemical_formula_sum   'Cu8 Ni8 C32'
_cell_volume   672.82445916
_cell_formula_units_Z   8
loop_
 _symmetry_equiv_pos_site_id
 _symmetry_equiv_pos_as_xyz
  1  'x, y, z'
loop_
 _atom_site_type_symbol
 _atom_site_label
 _atom_site_symmetry_multiplicity
 _atom_site_fract_x
 _atom_site_fract_y
 _atom_site_fract_z
 _atom_site_occupancy
  C  C0  1  0.86970300  0.37960500  0.66951300  1
  C  C1  1  0.62039500  0.13029700  0.83048700  1
  C  C2  1  0.13029700  0.62039500  0.33048700  1
  C  C3  1  0.37960500  0.86970300  0.16951300  1
  C  C4  1  0.08767900  0.51946700  0.71904800  1
  C  C5  1  0.48053300  0.91232100  0.78095200  1
  C  C6  1  0.91232100  0.48053300  0.28095200  1
  C  C7  1  0.51946700  0.08767900  0.21904800  1
  Ni  Ni8  1  0.22801000  0.25590800  0.98005200  1
  Ni  Ni9  1  0.74409200  0.77199000  0.51994800  1
  Ni  Ni10  1  0.77199000  0.74409200  0.01994800  1
  Ni  Ni11  1  0.25590800  0.22801000  0.48005200  1
  Ni  Ni12  1  0.68459800  0.33003600  0.59821000  1
  Ni  Ni13  1  0.66996400  0.31540200  0.90179000  1
  Ni  Ni14  1  0.31540200  0.66996400  0.40179000  1
  Ni  Ni15  1  0.33003600  0.68459800  0.09821000  1
  Cu  Cu16  1  0.20321300  0.72042300  0.62568200  1
  Cu  Cu17  1  0.27957700  0.79678700  0.87431800  1
  Cu  Cu18  1  0.79678700  0.27957700  0.37431800  1
  Cu  Cu19  1  0.72042300  0.20321300  0.12568200  1
  Cu  Cu20  1  0.91925600  0.39528700  0.96682700  1
  Cu  Cu21  1  0.60471300  0.08074400  0.53317300  1
  Cu  Cu22  1  0.08074400  0.60471300  0.03317300  1
  Cu  Cu23  1  0.39528700  0.91925600  0.46682700  1
  C  C24  1  0.76163800  0.60982400  0.06032800  1
  C  C25  1  0.39017600  0.23836200  0.43967200  1
  C  C26  1  0.23836200  0.39017600  0.93967200  1
  C  C27  1  0.60982400  0.76163800  0.56032800  1
  C  C28  1  0.18976800  0.72019400  0.45364500  1
  C  C29  1  0.27980600  0.81023200  0.04635500  1
  C  C30  1  0.81023200  0.27980600  0.54635500  1
  C  C31  1  0.72019400  0.18976800  0.95364500  1
  C  C32  1  0.89134100  0.50338500  0.81032700  1
  C  C33  1  0.49661500  0.10865900  0.68967300  1
  C  C34  1  0.10865900  0.49661500  0.18967300  1
  C  C35  1  0.50338500  0.89134100  0.31032700  1
  C  C36  1  0.22201600  0.17018200  0.99222000  1
  C  C37  1  0.82981800  0.77798400  0.50778000  1
  C  C38  1  0.77798400  0.82981800  0.00778000  1
  C  C39  1  0.17018200  0.22201600  0.49222000  1
  C  C40  1  0.98952800  0.80569700  0.69719400  1
  C  C41  1  0.19430300  0.01047200  0.80280600  1
  C  C42  1  0.01047200  0.19430300  0.30280600  1
  C  C43  1  0.80569700  0.98952800  0.19719400  1
  C  C44  1  0.45931000  0.42822700  0.66509400  1
  C  C45  1  0.57177300  0.54069000  0.83490600  1
  C  C46  1  0.54069000  0.57177300  0.33490600  1
  C  C47  1  0.42822700  0.45931000  0.16509400  1
