# generated using pymatgen
data_CuNiC
_symmetry_space_group_name_H-M   'P 1'
_cell_length_a   3.21835900
_cell_length_b   6.35570600
_cell_length_c   10.86995200
_cell_angle_alpha   90.00000000
_cell_angle_beta   90.00000000
_cell_angle_gamma   90.00000000
_symmetry_Int_Tables_number   1
_chemical_formula_structural   CuNiC
_chemical_formula_sum   'Cu6 Ni6 C6'
_cell_volume   222.34425516
_cell_formula_units_Z   6
loop_
 _symmetry_equiv_pos_site_id
 _symmetry_equiv_pos_as_xyz
  1  'x, y, z'
loop_
 _atom_site_type_symbol
 _atom_site_label
 _atom_site_symmetry_multiplicity
 _atom_site_fract_x
 _atom_site_fract_y
 _atom_site_fract_z
 _atom_site_occupancy
  Ni  Ni0  1  0.00000000  0.22286700  0.95629100  1
  Ni  Ni1  1  0.00000000  0.77713300  0.04370900  1
  Ni  Ni2  1  0.00000000  0.22286700  0.54370900  1
  Ni  Ni3  1  0.00000000  0.77713300  0.45629100  1
  Ni  Ni4  1  0.00000000  0.14485100  0.25000000  1
  Ni  Ni5  1  0.00000000  0.85514900  0.75000000  1
  C  C6  1  0.50000000  0.04898700  0.08485600  1
  C  C7  1  0.50000000  0.95101300  0.91514400  1
  C  C8  1  0.50000000  0.04898700  0.41514400  1
  C  C9  1  0.50000000  0.95101300  0.58485600  1
  C  C10  1  0.00000000  0.55144000  0.25000000  1
  C  C11  1  0.00000000  0.44856000  0.75000000  1
  Cu  Cu12  1  0.50000000  0.42582100  0.12490200  1
  Cu  Cu13  1  0.50000000  0.57417900  0.87509800  1
  Cu  Cu14  1  0.50000000  0.42582100  0.37509800  1
  Cu  Cu15  1  0.50000000  0.57417900  0.62490200  1
  Cu  Cu16  1  0.50000000  0.79845300  0.25000000  1
  Cu  Cu17  1  0.50000000  0.20154700  0.75000000  1
