# generated using pymatgen
data_Cu2NiC2
_symmetry_space_group_name_H-M   'P 1'
_cell_length_a   7.00605436
_cell_length_b   7.00605436
_cell_length_c   5.63700300
_cell_angle_alpha   90.00000000
_cell_angle_beta   90.00000000
_cell_angle_gamma   132.39979053
_symmetry_Int_Tables_number   1
_chemical_formula_structural   Cu2NiC2
_chemical_formula_sum   'Cu4 Ni2 C4'
_cell_volume   204.32474078
_cell_formula_units_Z   2
loop_
 _symmetry_equiv_pos_site_id
 _symmetry_equiv_pos_as_xyz
  1  'x, y, z'
loop_
 _atom_site_type_symbol
 _atom_site_label
 _atom_site_symmetry_multiplicity
 _atom_site_fract_x
 _atom_site_fract_y
 _atom_site_fract_z
 _atom_site_occupancy
  C  C0  1  0.06986200  0.93013800  0.50000000  1
  C  C1  1  0.61220000  0.38780000  0.00000000  1
  C  C2  1  0.39188700  0.60811300  0.50000000  1
  C  C3  1  0.89806700  0.10193300  0.00000000  1
  Ni  Ni4  1  0.25663900  0.74336100  0.00000000  1
  Ni  Ni5  1  0.74782000  0.25218000  0.50000000  1
  Cu  Cu6  1  0.77388900  0.76212700  0.26758000  1
  Cu  Cu7  1  0.77388900  0.76212700  0.73242000  1
  Cu  Cu8  1  0.23787300  0.22611100  0.26758000  1
  Cu  Cu9  1  0.23787300  0.22611100  0.73242000  1
