# generated using pymatgen
data_CuNi3C20
_symmetry_space_group_name_H-M   'P 1'
_cell_length_a   10.50619458
_cell_length_b   10.50619458
_cell_length_c   5.51039900
_cell_angle_alpha   90.00000000
_cell_angle_beta   90.00000000
_cell_angle_gamma   149.57579544
_symmetry_Int_Tables_number   1
_chemical_formula_structural   CuNi3C20
_chemical_formula_sum   'Cu1 Ni3 C20'
_cell_volume   308.01082737
_cell_formula_units_Z   1
loop_
 _symmetry_equiv_pos_site_id
 _symmetry_equiv_pos_as_xyz
  1  'x, y, z'
loop_
 _atom_site_type_symbol
 _atom_site_label
 _atom_site_symmetry_multiplicity
 _atom_site_fract_x
 _atom_site_fract_y
 _atom_site_fract_z
 _atom_site_occupancy
  C  C0  1  0.49987700  0.50012300  0.00000000  1
  C  C1  1  0.99983700  0.00016300  0.50000000  1
  C  C2  1  0.81709100  0.18290900  0.50000000  1
  C  C3  1  0.31726200  0.68273800  0.00000000  1
  C  C4  1  0.68305000  0.31695000  0.00000000  1
  C  C5  1  0.18267000  0.81733000  0.50000000  1
  Ni  Ni6  1  0.90258700  0.09741300  0.00000000  1
  Ni  Ni7  1  0.09747200  0.90252800  0.00000000  1
  Ni  Ni8  1  0.59762500  0.40237500  0.50000000  1
  Cu  Cu9  1  0.40300400  0.59699600  0.50000000  1
  C  C10  1  0.80627400  0.19372600  0.00000000  1
  C  C11  1  0.30561500  0.69438500  0.50000000  1
  C  C12  1  0.69309700  0.30690300  0.50000000  1
  C  C13  1  0.19274100  0.80725900  0.00000000  1
  C  C14  1  0.50076400  0.49923600  0.50000000  1
  C  C15  1  0.00068600  0.99931400  0.00000000  1
  C  C16  1  0.65641100  0.84791700  0.75232400  1
  C  C17  1  0.15208300  0.34358900  0.24767600  1
  C  C18  1  0.15208300  0.34358900  0.75232400  1
  C  C19  1  0.65641100  0.84791700  0.24767600  1
  C  C20  1  0.84577600  0.65409600  0.75014900  1
  C  C21  1  0.34590400  0.15422400  0.24985100  1
  C  C22  1  0.34590400  0.15422400  0.75014900  1
  C  C23  1  0.84577600  0.65409600  0.24985100  1
