# generated using pymatgen
data_CuNiC8
_symmetry_space_group_name_H-M   'P 1'
_cell_length_a   5.47833800
_cell_length_b   5.33278500
_cell_length_c   9.35771013
_cell_angle_alpha   55.81012900
_cell_angle_beta   90.00000000
_cell_angle_gamma   90.00000000
_symmetry_Int_Tables_number   1
_chemical_formula_structural   CuNiC8
_chemical_formula_sum   'Cu2 Ni2 C16'
_cell_volume   226.13744157
_cell_formula_units_Z   2
loop_
 _symmetry_equiv_pos_site_id
 _symmetry_equiv_pos_as_xyz
  1  'x, y, z'
loop_
 _atom_site_type_symbol
 _atom_site_label
 _atom_site_symmetry_multiplicity
 _atom_site_fract_x
 _atom_site_fract_y
 _atom_site_fract_z
 _atom_site_occupancy
  C  C0  1  0.21276100  0.74138200  0.25262900  1
  C  C1  1  0.78723900  0.74138200  0.75262900  1
  C  C2  1  0.69728500  0.26448200  0.25316300  1
  C  C3  1  0.30271500  0.26448200  0.75316300  1
  Ni  Ni4  1  0.25418500  0.50090100  0.00072200  1
  Ni  Ni5  1  0.74581500  0.50090100  0.50072200  1
  Cu  Cu6  1  0.25042100  0.99978500  0.50154500  1
  Cu  Cu7  1  0.74957900  0.99978500  0.00154500  1
  C  C8  1  0.70055500  0.17345600  0.74718900  1
  C  C9  1  0.46466300  0.72748900  0.04438500  1
  C  C10  1  0.47336700  0.33683300  0.44209500  1
  C  C11  1  0.94627700  0.62624800  0.06055400  1
  C  C12  1  0.93931100  0.25554700  0.44581700  1
  C  C13  1  0.22508000  0.87387700  0.75190100  1
  C  C14  1  0.29944500  0.17345600  0.24718900  1
  C  C15  1  0.53533700  0.72748900  0.54438500  1
  C  C16  1  0.52663300  0.33683300  0.94209500  1
  C  C17  1  0.05372300  0.62624800  0.56055400  1
  C  C18  1  0.06068900  0.25554700  0.94581700  1
  C  C19  1  0.77492000  0.87387700  0.25190100  1
