# generated using pymatgen
data_CuNiC
_symmetry_space_group_name_H-M   'P 1'
_cell_length_a   3.89924600
_cell_length_b   3.91757900
_cell_length_c   17.52312400
_cell_angle_alpha   90.00000000
_cell_angle_beta   90.00000000
_cell_angle_gamma   90.00000000
_symmetry_Int_Tables_number   1
_chemical_formula_structural   CuNiC
_chemical_formula_sum   'Cu4 Ni4 C4'
_cell_volume   267.67630737
_cell_formula_units_Z   4
loop_
 _symmetry_equiv_pos_site_id
 _symmetry_equiv_pos_as_xyz
  1  'x, y, z'
loop_
 _atom_site_type_symbol
 _atom_site_label
 _atom_site_symmetry_multiplicity
 _atom_site_fract_x
 _atom_site_fract_y
 _atom_site_fract_z
 _atom_site_occupancy
  C  C0  1  0.75000000  0.24052900  0.86085000  1
  C  C1  1  0.75000000  0.25947100  0.36085000  1
  C  C2  1  0.25000000  0.75947100  0.13915000  1
  C  C3  1  0.25000000  0.74052900  0.63915000  1
  Ni  Ni4  1  0.25000000  0.21946900  0.50102300  1
  Ni  Ni5  1  0.25000000  0.28053100  0.00102300  1
  Ni  Ni6  1  0.75000000  0.78053100  0.49897700  1
  Ni  Ni7  1  0.75000000  0.71946900  0.99897700  1
  Cu  Cu8  1  0.75000000  0.24241300  0.68782700  1
  Cu  Cu9  1  0.75000000  0.25758700  0.18782700  1
  Cu  Cu10  1  0.25000000  0.75758700  0.31217300  1
  Cu  Cu11  1  0.25000000  0.74241300  0.81217300  1
