# generated using pymatgen
data_Cu17NiC12
_symmetry_space_group_name_H-M   'P 1'
_cell_length_a   6.09550011
_cell_length_b   12.26311568
_cell_length_c   27.67129772
_cell_angle_alpha   90.00000000
_cell_angle_beta   90.00000000
_cell_angle_gamma   90.00000000
_symmetry_Int_Tables_number   1
_chemical_formula_structural   Cu17NiC12
_chemical_formula_sum   'Cu68 Ni4 C48'
_cell_volume   2068.42460610
_cell_formula_units_Z   4
loop_
 _symmetry_equiv_pos_site_id
 _symmetry_equiv_pos_as_xyz
  1  'x, y, z'
loop_
 _atom_site_type_symbol
 _atom_site_label
 _atom_site_symmetry_multiplicity
 _atom_site_fract_x
 _atom_site_fract_y
 _atom_site_fract_z
 _atom_site_occupancy
  C  C0  1  0.50830731  0.00425901  0.32677249  1
  C  C1  1  0.99169269  0.99574099  0.82677249  1
  C  C2  1  0.49169269  0.50425901  0.17322751  1
  C  C3  1  0.00830731  0.49574099  0.67322751  1
  C  C4  1  0.03872674  0.81913182  0.45958684  1
  C  C5  1  0.46127326  0.18086818  0.95958684  1
  C  C6  1  0.96127326  0.31913182  0.04041316  1
  C  C7  1  0.53872674  0.68086818  0.54041316  1
  C  C8  1  0.20345887  0.31487612  0.53974049  1
  C  C9  1  0.29654113  0.68512388  0.03974049  1
  C  C10  1  0.79654113  0.81487612  0.96025951  1
  C  C11  1  0.70345887  0.18512388  0.46025951  1
  C  C12  1  0.51335749  0.17319845  0.12438598  1
  C  C13  1  0.98664251  0.82680155  0.62438598  1
  C  C14  1  0.48664251  0.67319845  0.37561402  1
  C  C15  1  0.01335749  0.32680155  0.87561402  1
  C  C16  1  0.47639655  0.35378032  0.33755405  1
  C  C17  1  0.02360345  0.64621968  0.83755405  1
  C  C18  1  0.52360345  0.85378032  0.16244595  1
  C  C19  1  0.97639655  0.14621968  0.66244595  1
  C  C20  1  0.03314835  0.01031745  0.21201405  1
  C  C21  1  0.46685165  0.98968255  0.71201405  1
  C  C22  1  0.96685165  0.51031745  0.28798595  1
  C  C23  1  0.53314835  0.48968255  0.78798595  1
  C  C24  1  0.05931167  0.31364909  0.18204242  1
  C  C25  1  0.44068833  0.68635091  0.68204242  1
  C  C26  1  0.94068833  0.81364909  0.31795758  1
  C  C27  1  0.55931167  0.18635091  0.81795758  1
  C  C28  1  0.08993822  0.01023805  0.07546911  1
  C  C29  1  0.41006178  0.98976195  0.57546911  1
  C  C30  1  0.91006178  0.51023805  0.42453089  1
  C  C31  1  0.58993822  0.48976195  0.92453089  1
  C  C32  1  0.00806975  0.69722413  0.16773571  1
  C  C33  1  0.49193025  0.30277587  0.66773571  1
  C  C34  1  0.99193025  0.19722413  0.33226429  1
  C  C35  1  0.50806975  0.80277587  0.83226429  1
  C  C36  1  0.41506402  0.38203730  0.44027053  1
  C  C37  1  0.08493598  0.61796270  0.94027053  1
  C  C38  1  0.58493598  0.88203730  0.05972947  1
  C  C39  1  0.91506402  0.11796270  0.55972947  1
  C  C40  1  0.51315037  0.20632064  0.26008282  1
  C  C41  1  0.98684963  0.79367936  0.76008282  1
  C  C42  1  0.48684963  0.70632064  0.23991718  1
  C  C43  1  0.01315037  0.29367936  0.73991718  1
  C  C44  1  0.17863937  0.14183187  0.46040681  1
  C  C45  1  0.32136063  0.85816813  0.96040681  1
  C  C46  1  0.82136063  0.64183187  0.03959319  1
  C  C47  1  0.67863937  0.35816813  0.53959319  1
  Ni  Ni48  1  0.45756479  0.41412212  0.05148986  1
  Ni  Ni49  1  0.04243521  0.58587788  0.55148986  1
  Ni  Ni50  1  0.54243521  0.91412212  0.44851014  1
  Ni  Ni51  1  0.95756479  0.08587788  0.94851014  1
  Cu  Cu52  1  0.23084267  0.68208814  0.13391854  1
  Cu  Cu53  1  0.26915733  0.31791186  0.63391854  1
  Cu  Cu54  1  0.76915733  0.18208814  0.36608146  1
  Cu  Cu55  1  0.73084267  0.81791186  0.86608146  1
  Cu  Cu56  1  0.47805301  0.11168712  0.55332450  1
  Cu  Cu57  1  0.02194699  0.88831288  0.05332450  1
  Cu  Cu58  1  0.52194699  0.61168712  0.94667550  1
  Cu  Cu59  1  0.97805301  0.38831288  0.44667550  1
  Cu  Cu60  1  0.19518284  0.02589568  0.73588896  1
  Cu  Cu61  1  0.30481716  0.97410432  0.23588896  1
  Cu  Cu62  1  0.80481716  0.52589568  0.76411104  1
  Cu  Cu63  1  0.69518284  0.47410432  0.26411104  1
  Cu  Cu64  1  0.46295392  0.31264807  0.04141577  1
  Cu  Cu65  1  0.03704608  0.68735193  0.54141577  1
  Cu  Cu66  1  0.53704608  0.81264807  0.45858423  1
  Cu  Cu67  1  0.96295392  0.18735193  0.95858423  1
  Cu  Cu68  1  0.29030635  0.06405245  0.04359392  1
  Cu  Cu69  1  0.20969365  0.93594755  0.54359392  1
  Cu  Cu70  1  0.70969365  0.56405245  0.45640608  1
  Cu  Cu71  1  0.79030635  0.43594755  0.95640608  1
  Cu  Cu72  1  0.18512959  0.99931611  0.13485808  1
  Cu  Cu73  1  0.31487041  0.00068389  0.63485808  1
  Cu  Cu74  1  0.81487041  0.49931611  0.36514192  1
  Cu  Cu75  1  0.68512959  0.50068389  0.86514192  1
  Cu  Cu76  1  0.21635911  0.16471026  0.36178844  1
  Cu  Cu77  1  0.28364089  0.83528974  0.86178844  1
  Cu  Cu78  1  0.78364089  0.66471026  0.13821156  1
  Cu  Cu79  1  0.71635911  0.33528974  0.63821156  1
  Cu  Cu80  1  0.11884042  0.59489181  0.42489624  1
  Cu  Cu81  1  0.38115958  0.40510819  0.92489624  1
  Cu  Cu82  1  0.88115958  0.09489181  0.07510376  1
  Cu  Cu83  1  0.61884042  0.90510819  0.57510376  1
  Cu  Cu84  1  0.14969467  0.18587318  0.19585205  1
  Cu  Cu85  1  0.35030533  0.81412682  0.69585205  1
  Cu  Cu86  1  0.85030533  0.68587318  0.30414795  1
  Cu  Cu87  1  0.64969467  0.31412682  0.80414795  1
  Cu  Cu88  1  0.13167942  0.40249554  0.22601125  1
  Cu  Cu89  1  0.36832058  0.59750446  0.72601125  1
  Cu  Cu90  1  0.86832058  0.90249554  0.27398875  1
  Cu  Cu91  1  0.63167942  0.09750446  0.77398875  1
  Cu  Cu92  1  0.03467151  0.61857151  0.21702233  1
  Cu  Cu93  1  0.46532849  0.38142849  0.71702233  1
  Cu  Cu94  1  0.96532849  0.11857151  0.28297767  1
  Cu  Cu95  1  0.53467151  0.88142849  0.78297767  1
  Cu  Cu96  1  0.29553697  0.47078501  0.03816623  1
  Cu  Cu97  1  0.20446303  0.52921499  0.53816623  1
  Cu  Cu98  1  0.70446303  0.97078501  0.46183377  1
  Cu  Cu99  1  0.79553697  0.02921499  0.96183377  1
  Cu  Cu100  1  0.79438143  0.31459724  0.17357511  1
  Cu  Cu101  1  0.70561857  0.68540276  0.67357511  1
  Cu  Cu102  1  0.20561857  0.81459724  0.32642489  1
  Cu  Cu103  1  0.29438143  0.18540276  0.82642489  1
  Cu  Cu104  1  0.61357295  0.45680486  0.07504403  1
  Cu  Cu105  1  0.88642705  0.54319514  0.57504403  1
  Cu  Cu106  1  0.38642705  0.95680486  0.42495597  1
  Cu  Cu107  1  0.11357295  0.04319514  0.92495597  1
  Cu  Cu108  1  0.18513265  0.35041525  0.13209315  1
  Cu  Cu109  1  0.31486735  0.64958475  0.63209315  1
  Cu  Cu110  1  0.81486735  0.85041525  0.36790685  1
  Cu  Cu111  1  0.68513265  0.14958475  0.86790685  1
  Cu  Cu112  1  0.24049578  0.53968553  0.31265563  1
  Cu  Cu113  1  0.25950422  0.46031447  0.81265563  1
  Cu  Cu114  1  0.75950422  0.03968553  0.18734437  1
  Cu  Cu115  1  0.74049578  0.96031447  0.68734437  1
  Cu  Cu116  1  0.01468976  0.32926316  0.31576741  1
  Cu  Cu117  1  0.48531024  0.67073684  0.81576741  1
  Cu  Cu118  1  0.98531024  0.82926316  0.18423259  1
  Cu  Cu119  1  0.51468976  0.17073684  0.68423259  1
