# generated using pymatgen
data_Cu4Ni5C4
_symmetry_space_group_name_H-M   'P 1'
_cell_length_a   7.09083145
_cell_length_b   7.09083145
_cell_length_c   7.09083145
_cell_angle_alpha   60.00000000
_cell_angle_beta   60.00000000
_cell_angle_gamma   60.00000000
_symmetry_Int_Tables_number   1
_chemical_formula_structural   Cu4Ni5C4
_chemical_formula_sum   'Cu4 Ni5 C4'
_cell_volume   252.10211448
_cell_formula_units_Z   1
loop_
 _symmetry_equiv_pos_site_id
 _symmetry_equiv_pos_as_xyz
  1  'x, y, z'
loop_
 _atom_site_type_symbol
 _atom_site_label
 _atom_site_symmetry_multiplicity
 _atom_site_fract_x
 _atom_site_fract_y
 _atom_site_fract_z
 _atom_site_occupancy
  C  C0  1  0.40110500  0.40110500  0.40110500  1
  C  C1  1  0.40110500  0.40110500  0.79668600  1
  C  C2  1  0.40110500  0.79668600  0.40110500  1
  C  C3  1  0.79668600  0.40110500  0.40110500  1
  Ni  Ni4  1  0.00000000  0.00000000  0.00000000  1
  Ni  Ni5  1  0.14465700  0.14465700  0.14465700  1
  Ni  Ni6  1  0.14465700  0.14465700  0.56603000  1
  Ni  Ni7  1  0.14465700  0.56603000  0.14465700  1
  Ni  Ni8  1  0.56603000  0.14465700  0.14465700  1
  Cu  Cu9  1  0.63087200  0.63087200  0.63087200  1
  Cu  Cu10  1  0.63087200  0.63087200  0.10738300  1
  Cu  Cu11  1  0.63087200  0.10738300  0.63087200  1
  Cu  Cu12  1  0.10738300  0.63087200  0.63087200  1
