# generated using pymatgen
data_Cu2Ni2C9
_symmetry_space_group_name_H-M   'P 1'
_cell_length_a   6.00815100
_cell_length_b   10.77241500
_cell_length_c   12.98467600
_cell_angle_alpha   90.00000000
_cell_angle_beta   90.00000000
_cell_angle_gamma   90.00000000
_symmetry_Int_Tables_number   1
_chemical_formula_structural   Cu2Ni2C9
_chemical_formula_sum   'Cu8 Ni8 C36'
_cell_volume   840.39804295
_cell_formula_units_Z   4
loop_
 _symmetry_equiv_pos_site_id
 _symmetry_equiv_pos_as_xyz
  1  'x, y, z'
loop_
 _atom_site_type_symbol
 _atom_site_label
 _atom_site_symmetry_multiplicity
 _atom_site_fract_x
 _atom_site_fract_y
 _atom_site_fract_z
 _atom_site_occupancy
  C  C0  1  0.25000000  0.24808300  0.12294300  1
  C  C1  1  0.75000000  0.25191700  0.62294300  1
  C  C2  1  0.75000000  0.75191700  0.87705700  1
  C  C3  1  0.25000000  0.74808300  0.37705700  1
  Ni  Ni4  1  0.25000000  0.88209500  0.10146700  1
  Ni  Ni5  1  0.75000000  0.01318500  0.26887100  1
  Ni  Ni6  1  0.75000000  0.61790500  0.60146700  1
  Ni  Ni7  1  0.75000000  0.11790500  0.89853300  1
  Ni  Ni8  1  0.25000000  0.38209500  0.39853300  1
  Ni  Ni9  1  0.75000000  0.51318500  0.23112900  1
  Ni  Ni10  1  0.25000000  0.98681500  0.73112900  1
  Ni  Ni11  1  0.25000000  0.48681500  0.76887100  1
  Cu  Cu12  1  0.25000000  0.55887000  0.00591400  1
  Cu  Cu13  1  0.75000000  0.94113000  0.50591400  1
  Cu  Cu14  1  0.75000000  0.45373200  0.30073700  1
  Cu  Cu15  1  0.25000000  0.05887000  0.49408600  1
  Cu  Cu16  1  0.75000000  0.44113000  0.99408600  1
  Cu  Cu17  1  0.75000000  0.95373200  0.19926300  1
  Cu  Cu18  1  0.25000000  0.54626800  0.69926300  1
  Cu  Cu19  1  0.25000000  0.04626800  0.80073700  1
  C  C20  1  0.44607800  0.21690200  0.24009300  1
  C  C21  1  0.04033000  0.12800300  0.07222900  1
  C  C22  1  0.54033000  0.87199700  0.92777100  1
  C  C23  1  0.45967000  0.12800300  0.07222900  1
  C  C24  1  0.95967000  0.87199700  0.92777100  1
  C  C25  1  0.94607800  0.28309800  0.74009300  1
  C  C26  1  0.55392200  0.28309800  0.74009300  1
  C  C27  1  0.25000000  0.28996500  0.97890100  1
  C  C28  1  0.45774000  0.88713600  0.37800700  1
  C  C29  1  0.25000000  0.78996500  0.52109900  1
  C  C30  1  0.55392200  0.78309800  0.75990700  1
  C  C31  1  0.75000000  0.71003500  0.02109900  1
  C  C32  1  0.75000000  0.05155100  0.81027800  1
  C  C33  1  0.54226000  0.61286400  0.87800700  1
  C  C34  1  0.25000000  0.44844900  0.31027800  1
  C  C35  1  0.04226000  0.38713600  0.12199300  1
  C  C36  1  0.95774000  0.11286400  0.62199300  1
  C  C37  1  0.75000000  0.21003500  0.47890100  1
  C  C38  1  0.95774000  0.61286400  0.87800700  1
  C  C39  1  0.75000000  0.55155100  0.68972200  1
  C  C40  1  0.04033000  0.62800300  0.42777100  1
  C  C41  1  0.04226000  0.88713600  0.37800700  1
  C  C42  1  0.45967000  0.62800300  0.42777100  1
  C  C43  1  0.05392200  0.21690200  0.24009300  1
  C  C44  1  0.54226000  0.11286400  0.62199300  1
  C  C45  1  0.95967000  0.37199700  0.57222900  1
  C  C46  1  0.44607800  0.71690200  0.25990700  1
  C  C47  1  0.05392200  0.71690200  0.25990700  1
  C  C48  1  0.25000000  0.94844900  0.18972200  1
  C  C49  1  0.45774000  0.38713600  0.12199300  1
  C  C50  1  0.54033000  0.37199700  0.57222900  1
  C  C51  1  0.94607800  0.78309800  0.75990700  1
