# generated using pymatgen
data_CuNiC13
_symmetry_space_group_name_H-M   'P 1'
_cell_length_a   9.88592466
_cell_length_b   9.88592466
_cell_length_c   13.53479400
_cell_angle_alpha   90.00000000
_cell_angle_beta   90.00000000
_cell_angle_gamma   90.94831177
_symmetry_Int_Tables_number   1
_chemical_formula_structural   CuNiC13
_chemical_formula_sum   'Cu4 Ni4 C52'
_cell_volume   1322.59463023
_cell_formula_units_Z   4
loop_
 _symmetry_equiv_pos_site_id
 _symmetry_equiv_pos_as_xyz
  1  'x, y, z'
loop_
 _atom_site_type_symbol
 _atom_site_label
 _atom_site_symmetry_multiplicity
 _atom_site_fract_x
 _atom_site_fract_y
 _atom_site_fract_z
 _atom_site_occupancy
  C  C0  1  0.04274900  0.62566100  0.31700000  1
  C  C1  1  0.37433900  0.95725100  0.68300000  1
  C  C2  1  0.54274900  0.12566100  0.18300000  1
  C  C3  1  0.87433900  0.45725100  0.81700000  1
  C  C4  1  0.09114300  0.12787100  0.18710700  1
  C  C5  1  0.87212900  0.90885700  0.81289300  1
  C  C6  1  0.59114300  0.62787100  0.31289300  1
  C  C7  1  0.37212900  0.40885700  0.68710700  1
  C  C8  1  0.32026000  0.33760000  0.39917900  1
  C  C9  1  0.66240000  0.67974000  0.60082100  1
  C  C10  1  0.82026000  0.83760100  0.10082100  1
  C  C11  1  0.16239900  0.17974000  0.89917900  1
  C  C12  1  0.32863100  0.44984400  0.10370900  1
  C  C13  1  0.55015600  0.67136900  0.89629100  1
  C  C14  1  0.82863100  0.94984400  0.39629100  1
  C  C15  1  0.05015600  0.17136900  0.60370900  1
  Ni  Ni16  1  0.82379600  0.38677800  0.09132100  1
  Ni  Ni17  1  0.61322200  0.17620400  0.90867900  1
  Ni  Ni18  1  0.32379600  0.88677800  0.40867900  1
  Ni  Ni19  1  0.11322200  0.67620400  0.59132100  1
  Cu  Cu20  1  0.83148800  0.33001100  0.38681000  1
  Cu  Cu21  1  0.66998900  0.16851200  0.61319000  1
  Cu  Cu22  1  0.33148800  0.83001100  0.11319000  1
  Cu  Cu23  1  0.16998900  0.66851200  0.88681000  1
  C  C24  1  0.01507500  0.16355800  0.40077600  1
  C  C25  1  0.83644200  0.98492500  0.59922400  1
  C  C26  1  0.51507500  0.66355800  0.09922400  1
  C  C27  1  0.33644200  0.48492500  0.90077600  1
  C  C28  1  0.14727500  0.66253200  0.08150500  1
  C  C29  1  0.33746800  0.85272500  0.91849500  1
  C  C30  1  0.64727500  0.16253200  0.41849500  1
  C  C31  1  0.83746800  0.35272500  0.58150500  1
  C  C32  1  0.81846000  0.20410100  0.19724400  1
  C  C33  1  0.79589900  0.18154000  0.80275600  1
  C  C34  1  0.31846000  0.70410100  0.30275600  1
  C  C35  1  0.29589900  0.68154000  0.69724400  1
  C  C36  1  0.82157300  0.57746400  0.19090400  1
  C  C37  1  0.42253600  0.17842700  0.80909600  1
  C  C38  1  0.32157300  0.07746400  0.30909600  1
  C  C39  1  0.92253600  0.67842700  0.69090400  1
  C  C40  1  0.12500600  0.87499400  0.50000000  1
  C  C41  1  0.62500600  0.37499400  0.00000000  1
  C  C42  1  0.11671600  0.49197100  0.48872900  1
  C  C43  1  0.50802900  0.88328400  0.51127100  1
  C  C44  1  0.61671600  0.99197100  0.01127100  1
  C  C45  1  0.00802900  0.38328400  0.98872900  1
  C  C46  1  0.81162400  0.68143600  0.43160200  1
  C  C47  1  0.31856400  0.18837600  0.56839800  1
  C  C48  1  0.31162400  0.18143600  0.06839800  1
  C  C49  1  0.81856400  0.68837600  0.93160200  1
  C  C50  1  0.00284200  0.88163200  0.24852400  1
  C  C51  1  0.11836800  0.99715800  0.75147600  1
  C  C52  1  0.50284200  0.38163200  0.25147600  1
  C  C53  1  0.61836800  0.49715800  0.74852400  1
  C  C54  1  0.49946400  0.50053600  0.50000000  1
  C  C55  1  0.99946400  0.00053600  0.00000000  1
  C  C56  1  0.14233400  0.39049700  0.24541300  1
  C  C57  1  0.60950300  0.85766600  0.75458700  1
  C  C58  1  0.64233400  0.89049700  0.25458700  1
  C  C59  1  0.10950300  0.35766600  0.74541300  1
