# generated using pymatgen
data_Cu2Ni11C8
_symmetry_space_group_name_H-M   'P 1'
_cell_length_a   7.14732407
_cell_length_b   7.14732407
_cell_length_c   13.67043022
_cell_angle_alpha   88.75481013
_cell_angle_beta   88.75481013
_cell_angle_gamma   37.77899110
_symmetry_Int_Tables_number   1
_chemical_formula_structural   Cu2Ni11C8
_chemical_formula_sum   'Cu4 Ni22 C16'
_cell_volume   427.70447586
_cell_formula_units_Z   2
loop_
 _symmetry_equiv_pos_site_id
 _symmetry_equiv_pos_as_xyz
  1  'x, y, z'
loop_
 _atom_site_type_symbol
 _atom_site_label
 _atom_site_symmetry_multiplicity
 _atom_site_fract_x
 _atom_site_fract_y
 _atom_site_fract_z
 _atom_site_occupancy
  C  C0  1  0.45866300  0.42349700  0.37017900  1
  C  C1  1  0.57650300  0.54133700  0.12982100  1
  C  C2  1  0.54133700  0.57650300  0.62982100  1
  C  C3  1  0.42349700  0.45866300  0.87017900  1
  C  C4  1  0.73433100  0.70463500  0.36962200  1
  C  C5  1  0.29536500  0.26566900  0.13037800  1
  C  C6  1  0.26566900  0.29536500  0.63037800  1
  C  C7  1  0.70463500  0.73433100  0.86962200  1
  C  C8  1  0.06807700  0.11926700  0.28632400  1
  C  C9  1  0.88073300  0.93192300  0.21367600  1
  C  C10  1  0.93192300  0.88073300  0.71367600  1
  C  C11  1  0.11926700  0.06807700  0.78632400  1
  C  C12  1  0.86142500  0.94641700  0.52283900  1
  C  C13  1  0.05358300  0.13857500  0.97716100  1
  C  C14  1  0.13857500  0.05358300  0.47716100  1
  C  C15  1  0.94641700  0.86142500  0.02283900  1
  Ni  Ni16  1  0.95004100  0.22583900  0.39514200  1
  Ni  Ni17  1  0.77416100  0.04995900  0.10485800  1
  Ni  Ni18  1  0.04995900  0.77416100  0.60485800  1
  Ni  Ni19  1  0.22583900  0.95004100  0.89514200  1
  Ni  Ni20  1  0.63735600  0.01033400  0.25709200  1
  Ni  Ni21  1  0.98966600  0.36264400  0.24290800  1
  Ni  Ni22  1  0.36264400  0.98966600  0.74290800  1
  Ni  Ni23  1  0.01033400  0.63735600  0.75709200  1
  Ni  Ni24  1  0.58743400  0.25504700  0.53354200  1
  Ni  Ni25  1  0.74495300  0.41256600  0.96645800  1
  Ni  Ni26  1  0.41256600  0.74495300  0.46645800  1
  Ni  Ni27  1  0.25504700  0.58743400  0.03354200  1
  Ni  Ni28  1  0.83988000  0.16012000  0.25000000  1
  Ni  Ni29  1  0.16012000  0.83988000  0.75000000  1
  Ni  Ni30  1  0.94805600  0.82046500  0.43186300  1
  Ni  Ni31  1  0.17953500  0.05194400  0.06813700  1
  Ni  Ni32  1  0.05194400  0.17953500  0.56813700  1
  Ni  Ni33  1  0.82046500  0.94805600  0.93186300  1
  Ni  Ni34  1  0.37912200  0.81761000  0.27635100  1
  Ni  Ni35  1  0.18239000  0.62087800  0.22364900  1
  Ni  Ni36  1  0.62087800  0.18239000  0.72364900  1
  Ni  Ni37  1  0.81761000  0.37912200  0.77635100  1
  Cu  Cu38  1  0.29623800  0.24176500  0.42421200  1
  Cu  Cu39  1  0.75823500  0.70376200  0.07578800  1
  Cu  Cu40  1  0.70376200  0.75823500  0.57578800  1
  Cu  Cu41  1  0.24176500  0.29623800  0.92421200  1
