# generated using pymatgen
data_Cu7Ni3C
_symmetry_space_group_name_H-M   'P 1'
_cell_length_a   8.25715763
_cell_length_b   10.88206998
_cell_length_c   6.69523336
_cell_angle_alpha   90.20150822
_cell_angle_beta   100.82260777
_cell_angle_gamma   59.00917342
_symmetry_Int_Tables_number   1
_chemical_formula_structural   Cu7Ni3C
_chemical_formula_sum   'Cu14 Ni6 C2'
_cell_volume   503.43806274
_cell_formula_units_Z   2
loop_
 _symmetry_equiv_pos_site_id
 _symmetry_equiv_pos_as_xyz
  1  'x, y, z'
loop_
 _atom_site_type_symbol
 _atom_site_label
 _atom_site_symmetry_multiplicity
 _atom_site_fract_x
 _atom_site_fract_y
 _atom_site_fract_z
 _atom_site_occupancy
  C  C0  1  0.30597500  0.80446300  0.83182800  1
  C  C1  1  0.69399600  0.19553800  0.16826200  1
  Ni  Ni2  1  0.33926600  0.52185000  0.23165200  1
  Ni  Ni3  1  0.66070800  0.47817900  0.76832300  1
  Ni  Ni4  1  0.23181700  0.97759100  0.26942600  1
  Ni  Ni5  1  0.76819300  0.02242000  0.73055900  1
  Ni  Ni6  1  0.22822300  0.21906700  0.86071200  1
  Ni  Ni7  1  0.77177000  0.78094800  0.13924800  1
  Cu  Cu8  1  0.97924700  0.90462400  0.65064500  1
  Cu  Cu9  1  0.02076100  0.09536800  0.34930800  1
  Cu  Cu10  1  0.38014000  0.83850500  0.59388400  1
  Cu  Cu11  1  0.61977500  0.16147900  0.40631500  1
  Cu  Cu12  1  0.08237100  0.58819300  0.67944500  1
  Cu  Cu13  1  0.91768400  0.41176800  0.32052600  1
  Cu  Cu14  1  0.21115300  0.46261100  0.67257000  1
  Cu  Cu15  1  0.78890100  0.53735200  0.32738500  1
  Cu  Cu16  1  0.15611800  0.02865900  0.99773500  1
  Cu  Cu17  1  0.84389600  0.97136300  0.00224600  1
  Cu  Cu18  1  0.30160900  0.65811900  0.04255600  1
  Cu  Cu19  1  0.69840200  0.34190900  0.95736400  1
  Cu  Cu20  1  0.53388300  0.81405800  0.09515300  1
  Cu  Cu21  1  0.46611200  0.18593800  0.90486000  1
