# generated using pymatgen
data_CuNiC4
_symmetry_space_group_name_H-M   'P 1'
_cell_length_a   3.34668815
_cell_length_b   3.34668815
_cell_length_c   38.04901100
_cell_angle_alpha   90.00000000
_cell_angle_beta   90.00000000
_cell_angle_gamma   120.00000297
_symmetry_Int_Tables_number   1
_chemical_formula_structural   CuNiC4
_chemical_formula_sum   'Cu2 Ni2 C8'
_cell_volume   369.06637859
_cell_formula_units_Z   2
loop_
 _symmetry_equiv_pos_site_id
 _symmetry_equiv_pos_as_xyz
  1  'x, y, z'
loop_
 _atom_site_type_symbol
 _atom_site_label
 _atom_site_symmetry_multiplicity
 _atom_site_fract_x
 _atom_site_fract_y
 _atom_site_fract_z
 _atom_site_occupancy
  C  C0  1  0.33333300  0.66666700  0.70763400  1
  C  C1  1  0.33333300  0.66666700  0.60744400  1
  Ni  Ni2  1  0.33333300  0.66666700  0.09389800  1
  Ni  Ni3  1  0.33333300  0.66666700  0.46965800  1
  Cu  Cu4  1  0.66666700  0.33333300  0.28180600  1
  Cu  Cu5  1  0.66666700  0.33333300  0.65756700  1
  C  C6  1  0.33333300  0.66666700  0.32580800  1
  C  C7  1  0.66666700  0.33333300  0.05013500  1
  C  C8  1  0.66666700  0.33333300  0.13768700  1
  C  C9  1  0.33333300  0.66666700  0.23779200  1
  C  C10  1  0.66666700  0.33333300  0.42982900  1
  C  C11  1  0.66666700  0.33333300  0.50949000  1
