# generated using pymatgen
data_Cu8NiC32
_symmetry_space_group_name_H-M   'P 1'
_cell_length_a   5.40349884
_cell_length_b   8.98844875
_cell_length_c   13.02854190
_cell_angle_alpha   87.09155596
_cell_angle_beta   93.87833138
_cell_angle_gamma   99.95482148
_symmetry_Int_Tables_number   1
_chemical_formula_structural   Cu8NiC32
_chemical_formula_sum   'Cu8 Ni1 C32'
_cell_volume   621.33883229
_cell_formula_units_Z   1
loop_
 _symmetry_equiv_pos_site_id
 _symmetry_equiv_pos_as_xyz
  1  'x, y, z'
loop_
 _atom_site_type_symbol
 _atom_site_label
 _atom_site_symmetry_multiplicity
 _atom_site_fract_x
 _atom_site_fract_y
 _atom_site_fract_z
 _atom_site_occupancy
  Ni  Ni0  1  0.40205494  0.27706752  0.86925775  1
  Cu  Cu1  1  0.32473737  0.61498887  0.91363061  1
  Cu  Cu2  1  0.66254274  0.89823315  0.41258049  1
  Cu  Cu3  1  0.61111457  0.41104576  0.10876257  1
  Cu  Cu4  1  0.38331022  0.10368465  0.58202006  1
  Cu  Cu5  1  0.09864162  0.18356968  0.25326130  1
  Cu  Cu6  1  0.95199163  0.22890622  0.74341959  1
  Cu  Cu7  1  0.87684314  0.80583581  0.73202001  1
  Cu  Cu8  1  0.10486410  0.69194107  0.25086612  1
  C  C9  1  0.56319492  0.48499885  0.68881408  1
  C  C10  1  0.49569877  0.02511178  0.17965624  1
  C  C11  1  0.52669419  0.52509196  0.32740308  1
  C  C12  1  0.47327485  0.96247589  0.79603752  1
  C  C13  1  0.09566964  0.76324942  0.50337736  1
  C  C14  1  0.89877764  0.74909255  0.00852246  1
  C  C15  1  0.93885888  0.24906367  0.48074693  1
  C  C16  1  0.98582930  0.25816073  0.00812058  1
  C  C17  1  0.71831195  0.02686136  0.26306526  1
  C  C18  1  0.44543294  0.48441504  0.79646202  1
  C  C19  1  0.23630603  0.94418056  0.72154518  1
  C  C20  1  0.73324203  0.54045471  0.24541443  1
  C  C21  1  0.23430469  0.38214658  0.98815459  1
  C  C22  1  0.68889396  0.13354786  0.48204351  1
  C  C23  1  0.65642631  0.62313866  0.01436138  1
  C  C24  1  0.33701389  0.88815638  0.50438334  1
  C  C25  1  0.75306817  0.31531512  0.95400531  1
  C  C26  1  0.10472551  0.17428472  0.41391557  1
  C  C27  1  0.08940373  0.68866244  0.08546664  1
  C  C28  1  0.90157130  0.83611259  0.55797441  1
  C  C29  1  0.68193968  0.01755488  0.71702626  1
  C  C30  1  0.28884390  0.44880185  0.26603074  1
  C  C31  1  0.26148331  0.94681283  0.23489107  1
  C  C32  1  0.82927982  0.57380273  0.70557699  1
  C  C33  1  0.01164699  0.72959290  0.90310330  1
  C  C34  1  0.97893679  0.77077454  0.39104250  1
  C  C35  1  0.93974898  0.29363586  0.12185337  1
  C  C36  1  0.07775307  0.22696624  0.58894910  1
  C  C37  1  0.52694427  0.80027962  0.82058332  1
  C  C38  1  0.46559233  0.68842085  0.33398517  1
  C  C39  1  0.43833065  0.19159879  0.17316131  1
  C  C40  1  0.60551118  0.31670532  0.68576546  1
