# generated using pymatgen
data_Cu4NiC19
_symmetry_space_group_name_H-M   'P 1'
_cell_length_a   5.78992900
_cell_length_b   10.01660700
_cell_length_c   12.08968310
_cell_angle_alpha   89.94737559
_cell_angle_beta   90.00000000
_cell_angle_gamma   90.00000000
_symmetry_Int_Tables_number   1
_chemical_formula_structural   Cu4NiC19
_chemical_formula_sum   'Cu8 Ni2 C38'
_cell_volume   701.14623558
_cell_formula_units_Z   2
loop_
 _symmetry_equiv_pos_site_id
 _symmetry_equiv_pos_as_xyz
  1  'x, y, z'
loop_
 _atom_site_type_symbol
 _atom_site_label
 _atom_site_symmetry_multiplicity
 _atom_site_fract_x
 _atom_site_fract_y
 _atom_site_fract_z
 _atom_site_occupancy
  C  C0  1  0.75000000  0.74864700  0.99881300  1
  C  C1  1  0.25000000  0.25135300  0.00118700  1
  C  C2  1  0.75000000  0.08179300  0.57769600  1
  C  C3  1  0.25000000  0.58482100  0.57849400  1
  C  C4  1  0.25000000  0.91820700  0.42230400  1
  C  C5  1  0.75000000  0.41517900  0.42150600  1
  C  C6  1  0.75000000  0.08666200  0.23040800  1
  C  C7  1  0.25000000  0.57987100  0.22872100  1
  C  C8  1  0.25000000  0.91333800  0.76959200  1
  C  C9  1  0.75000000  0.42012900  0.77127900  1
  Ni  Ni10  1  0.25000000  0.25021000  0.70603000  1
  Ni  Ni11  1  0.75000000  0.74979000  0.29397000  1
  Cu  Cu12  1  0.75000000  0.08503400  0.86170800  1
  Cu  Cu13  1  0.25000000  0.58198600  0.86337600  1
  Cu  Cu14  1  0.25000000  0.91496600  0.13829200  1
  Cu  Cu15  1  0.75000000  0.41801400  0.13662400  1
  Cu  Cu16  1  0.75000000  0.74903500  0.70251400  1
  Cu  Cu17  1  0.25000000  0.25096500  0.29748600  1
  Cu  Cu18  1  0.75000000  0.75018000  0.50132900  1
  Cu  Cu19  1  0.25000000  0.24982000  0.49867100  1
  C  C20  1  0.00566700  0.16911600  0.80438800  1
  C  C21  1  0.50419000  0.66762000  0.80752000  1
  C  C22  1  0.49433300  0.16911600  0.80438800  1
  C  C23  1  0.99581000  0.66762000  0.80752000  1
  C  C24  1  0.75000000  0.91737900  0.80818300  1
  C  C25  1  0.25000000  0.41173800  0.80406800  1
  C  C26  1  0.99433300  0.83088400  0.19561200  1
  C  C27  1  0.49581000  0.33238000  0.19248000  1
  C  C28  1  0.50566700  0.83088400  0.19561200  1
  C  C29  1  0.00419000  0.33238000  0.19248000  1
  C  C30  1  0.25000000  0.08262100  0.19181700  1
  C  C31  1  0.75000000  0.58826200  0.19593200  1
  C  C32  1  0.75000000  0.08518700  0.00541900  1
  C  C33  1  0.25000000  0.58148100  0.00741800  1
  C  C34  1  0.25000000  0.91481300  0.99458100  1
  C  C35  1  0.75000000  0.41851900  0.99258200  1
  C  C36  1  0.02527100  0.17537700  0.40018300  1
  C  C37  1  0.52954600  0.67638700  0.39535700  1
  C  C38  1  0.47472900  0.17537700  0.40018300  1
  C  C39  1  0.97045400  0.67638700  0.39535700  1
  C  C40  1  0.75000000  0.89649900  0.39515700  1
  C  C41  1  0.25000000  0.40207100  0.40187700  1
  C  C42  1  0.97472900  0.82462300  0.59981700  1
  C  C43  1  0.47045400  0.32361300  0.60464300  1
  C  C44  1  0.52527100  0.82462300  0.59981700  1
  C  C45  1  0.02954600  0.32361300  0.60464300  1
  C  C46  1  0.25000000  0.10350100  0.60484300  1
  C  C47  1  0.75000000  0.59792900  0.59812300  1
