# generated using pymatgen
data_CuNiC2
_symmetry_space_group_name_H-M   'P 1'
_cell_length_a   6.56503938
_cell_length_b   6.56503938
_cell_length_c   6.56503938
_cell_angle_alpha   131.58099400
_cell_angle_beta   131.58099400
_cell_angle_gamma   70.89161183
_symmetry_Int_Tables_number   1
_chemical_formula_structural   CuNiC2
_chemical_formula_sum   'Cu2 Ni2 C4'
_cell_volume   155.05146527
_cell_formula_units_Z   2
loop_
 _symmetry_equiv_pos_site_id
 _symmetry_equiv_pos_as_xyz
  1  'x, y, z'
loop_
 _atom_site_type_symbol
 _atom_site_label
 _atom_site_symmetry_multiplicity
 _atom_site_fract_x
 _atom_site_fract_y
 _atom_site_fract_z
 _atom_site_occupancy
  Ni  Ni0  1  0.25000000  0.75000000  0.50000000  1
  Ni  Ni1  1  0.50000000  0.50000000  0.00000000  1
  Cu  Cu2  1  0.75000000  0.25000000  0.50000000  1
  Cu  Cu3  1  0.00000000  0.00000000  0.00000000  1
  C  C4  1  0.37500000  0.85598100  0.98098100  1
  C  C5  1  0.60598100  0.62500000  0.48098100  1
  C  C6  1  0.14401900  0.12500000  0.51901900  1
  C  C7  1  0.87500000  0.39401900  0.01901900  1
