# generated using pymatgen
data_Cu7NiC28
_symmetry_space_group_name_H-M   'P 1'
_cell_length_a   11.05823444
_cell_length_b   11.20448757
_cell_length_c   17.69623495
_cell_angle_alpha   108.39372987
_cell_angle_beta   108.33213285
_cell_angle_gamma   90.01151149
_symmetry_Int_Tables_number   1
_chemical_formula_structural   Cu7NiC28
_chemical_formula_sum   'Cu28 Ni4 C112'
_cell_volume   1962.91304711
_cell_formula_units_Z   4
loop_
 _symmetry_equiv_pos_site_id
 _symmetry_equiv_pos_as_xyz
  1  'x, y, z'
loop_
 _atom_site_type_symbol
 _atom_site_label
 _atom_site_symmetry_multiplicity
 _atom_site_fract_x
 _atom_site_fract_y
 _atom_site_fract_z
 _atom_site_occupancy
  C  C0  1  0.30790600  0.05827100  0.60790800  1
  C  C1  1  0.30945700  0.55901600  0.60838900  1
  C  C2  1  0.80742300  0.05883200  0.60821700  1
  C  C3  1  0.80763400  0.55861900  0.60971800  1
  C  C4  1  0.19749500  0.43884800  0.38845600  1
  C  C5  1  0.19930400  0.44021900  0.89133800  1
  C  C6  1  0.69784700  0.43926000  0.38855000  1
  C  C7  1  0.69852100  0.94091900  0.38762200  1
  C  C8  1  0.69981800  0.94123000  0.89051200  1
  C  C9  1  0.05918000  0.29883000  0.60861300  1
  C  C10  1  0.05990700  0.80093000  0.60953800  1
  C  C11  1  0.55915800  0.30226700  0.61023300  1
  C  C12  1  0.55892700  0.80001600  0.60914100  1
  C  C13  1  0.44819000  0.19918500  0.38856100  1
  C  C14  1  0.44860300  0.20508100  0.89106500  1
  C  C15  1  0.44683700  0.70015800  0.38842300  1
  C  C16  1  0.44346500  0.69575500  0.89030900  1
  C  C17  1  0.94796100  0.19582800  0.38728800  1
  C  C18  1  0.94773300  0.20292700  0.89008100  1
  C  C19  1  0.94975100  0.69979300  0.38803800  1
  C  C20  1  0.30565000  0.06583200  0.10839700  1
  C  C21  1  0.30966100  0.56586500  0.10724900  1
  C  C22  1  0.80442600  0.06773700  0.10896100  1
  C  C23  1  0.80100000  0.56128000  0.10886800  1
  C  C24  1  0.19838400  0.93711200  0.39367200  1
  C  C25  1  0.19568600  0.93733000  0.89234600  1
  C  C26  1  0.69740400  0.43463000  0.89388300  1
  C  C27  1  0.05492100  0.29240400  0.10911900  1
  C  C28  1  0.05992500  0.79595300  0.11007300  1
  C  C29  1  0.55412200  0.29469800  0.10782300  1
  C  C30  1  0.54949600  0.79307700  0.10970400  1
  C  C31  1  0.95258200  0.70632000  0.89482200  1
  Ni  Ni32  1  0.00912300  0.00138600  0.00414600  1
  Ni  Ni33  1  0.00762200  0.50558800  0.00627600  1
  Ni  Ni34  1  0.50305800  0.00014400  0.00050000  1
  Ni  Ni35  1  0.75604600  0.74919200  0.00350100  1
  Cu  Cu36  1  0.00368200  0.99730000  0.49682800  1
  Cu  Cu37  1  0.00302400  0.49948200  0.49887500  1
  Cu  Cu38  1  0.50274400  0.99974300  0.49811200  1
  Cu  Cu39  1  0.50657200  0.50033400  0.00372400  1
  Cu  Cu40  1  0.50459200  0.50104500  0.49998000  1
  Cu  Cu41  1  0.25554100  0.25154900  0.00350900  1
  Cu  Cu42  1  0.25259800  0.24774400  0.49641600  1
  Cu  Cu43  1  0.25597100  0.75347600  0.00396100  1
  Cu  Cu44  1  0.25424700  0.74975300  0.49872200  1
  Cu  Cu45  1  0.75758900  0.25275900  0.00438200  1
  Cu  Cu46  1  0.75371900  0.24967600  0.49911100  1
  Cu  Cu47  1  0.75450200  0.74920200  0.49988900  1
  Cu  Cu48  1  0.10710600  0.09052500  0.24616200  1
  Cu  Cu49  1  0.11111900  0.09421600  0.75082400  1
  Cu  Cu50  1  0.10973000  0.59696300  0.24620900  1
  Cu  Cu51  1  0.10856900  0.59988000  0.75144300  1
  Cu  Cu52  1  0.60548400  0.09120500  0.24278100  1
  Cu  Cu53  1  0.61068600  0.09981400  0.74939600  1
  Cu  Cu54  1  0.60817000  0.59216000  0.24644700  1
  Cu  Cu55  1  0.61998800  0.59763000  0.75487700  1
  Cu  Cu56  1  0.35642700  0.40219500  0.24646300  1
  Cu  Cu57  1  0.36412800  0.40372600  0.74992300  1
  Cu  Cu58  1  0.35368900  0.90527100  0.24926100  1
  Cu  Cu59  1  0.36262000  0.90407800  0.75261100  1
  Cu  Cu60  1  0.85890700  0.40212600  0.24703000  1
  Cu  Cu61  1  0.86139800  0.40951000  0.75755300  1
  Cu  Cu62  1  0.86052400  0.90081200  0.24391500  1
  Cu  Cu63  1  0.86817600  0.90218900  0.75260900  1
  C  C64  1  0.12591400  0.11876600  0.49178500  1
  C  C65  1  0.12669700  0.11909500  0.99112300  1
  C  C66  1  0.12428100  0.62161400  0.49300700  1
  C  C67  1  0.12127100  0.62602200  0.99024400  1
  C  C68  1  0.62547100  0.12402800  0.49481600  1
  C  C69  1  0.62683800  0.12168600  0.99643700  1
  C  C70  1  0.62457800  0.62247200  0.49282000  1
  C  C71  1  0.63303200  0.62312000  0.99186800  1
  C  C72  1  0.13428600  0.38353400  0.01494500  1
  C  C73  1  0.13029700  0.37537500  0.50381900  1
  C  C74  1  0.13747300  0.88269500  0.01439200  1
  C  C75  1  0.13129100  0.87748100  0.50384900  1
  C  C76  1  0.64014500  0.37684900  0.01422800  1
  C  C77  1  0.62962400  0.37604000  0.50247200  1
  C  C78  1  0.64006700  0.88003000  0.01715000  1
  C  C79  1  0.62936600  0.87658300  0.50299100  1
  C  C80  1  0.37180900  0.11681500  0.49003200  1
  C  C81  1  0.37465200  0.11510800  0.99283900  1
  C  C82  1  0.37495300  0.62053400  0.49229000  1
  C  C83  1  0.37347300  0.62739100  0.99830100  1
  C  C84  1  0.87674000  0.12111200  0.49493500  1
  C  C85  1  0.87944900  0.12053500  0.99510300  1
  C  C86  1  0.87471000  0.62141500  0.49334400  1
  C  C87  1  0.87644100  0.61806400  0.98712500  1
  C  C88  1  0.38323200  0.37875300  0.01491500  1
  C  C89  1  0.38081000  0.37738100  0.50360700  1
  C  C90  1  0.38820300  0.88500200  0.01619100  1
  C  C91  1  0.37970100  0.87874800  0.50341300  1
  C  C92  1  0.88613000  0.38822400  0.01382500  1
  C  C93  1  0.88046500  0.37753500  0.50348500  1
  C  C94  1  0.89166200  0.88523800  0.01579300  1
  C  C95  1  0.88088800  0.87729300  0.50308900  1
  C  C96  1  0.08415500  0.09081500  0.12849200  1
  C  C97  1  0.07704600  0.07887400  0.63522800  1
  C  C98  1  0.07692600  0.59642600  0.12609900  1
  C  C99  1  0.07112500  0.58175000  0.63597600  1
  C  C100  1  0.57734100  0.09204600  0.12970700  1
  C  C101  1  0.57230900  0.08245400  0.63408800  1
  C  C102  1  0.58549400  0.59800000  0.13744300  1
  C  C103  1  0.57713500  0.58083400  0.63380600  1
  C  C104  1  0.43628400  0.42069700  0.36188200  1
  C  C105  1  0.44478700  0.41662400  0.86522200  1
  C  C106  1  0.43878700  0.92159000  0.36358400  1
  C  C107  1  0.45185900  0.91561300  0.87752000  1
  C  C108  1  0.93538000  0.42025000  0.36257500  1
  C  C109  1  0.94778800  0.41692300  0.87284800  1
  C  C110  1  0.94391200  0.91931700  0.36576800  1
  C  C111  1  0.95108000  0.91081200  0.87515700  1
  C  C112  1  0.33477000  0.28607300  0.13934100  1
  C  C113  1  0.32456200  0.30150300  0.63536000  1
  C  C114  1  0.32808800  0.79028800  0.14102400  1
  C  C115  1  0.32109700  0.80053600  0.63093000  1
  C  C116  1  0.84081800  0.28843200  0.13967500  1
  C  C117  1  0.82606300  0.31224500  0.64341200  1
  C  C118  1  0.83705900  0.77864500  0.12587000  1
  C  C119  1  0.82428200  0.80250800  0.63368100  1
  C  C120  1  0.18475500  0.19550900  0.36289900  1
  C  C121  1  0.18945800  0.20374200  0.86202500  1
  C  C122  1  0.19020600  0.70580000  0.36704900  1
  C  C123  1  0.19163900  0.71275000  0.86295700  1
  C  C124  1  0.68285900  0.18757900  0.35688800  1
  C  C125  1  0.69116600  0.20836200  0.86276500  1
  C  C126  1  0.68551100  0.69151200  0.36110000  1
  C  C127  1  0.70578800  0.71385100  0.87619700  1
  C  C128  1  0.42333200  0.06348300  0.24014400  1
  C  C129  1  0.43752700  0.07137900  0.75223900  1
  C  C130  1  0.42897800  0.56327800  0.23969700  1
  C  C131  1  0.43779900  0.56406700  0.75157100  1
  C  C132  1  0.92420300  0.06907000  0.23903200  1
  C  C133  1  0.93701000  0.07097500  0.75141300  1
  C  C134  1  0.92406000  0.55966900  0.23986400  1
  C  C135  1  0.93581300  0.57682500  0.76018100  1
  C  C136  1  0.17988100  0.42247100  0.24006600  1
  C  C137  1  0.18693700  0.43954600  0.75238600  1
  C  C138  1  0.17603500  0.91939000  0.24859300  1
  C  C139  1  0.18400400  0.93498300  0.75993500  1
  C  C140  1  0.67539600  0.42281600  0.24002100  1
  C  C141  1  0.68769400  0.42691600  0.76056900  1
  C  C142  1  0.67372700  0.92725700  0.23875900  1
  C  C143  1  0.69040300  0.94208300  0.75237500  1
