# generated using pymatgen
data_CuNiC14
_symmetry_space_group_name_H-M   'P 1'
_cell_length_a   8.66460097
_cell_length_b   4.24219132
_cell_length_c   4.24219132
_cell_angle_alpha   90.00000000
_cell_angle_beta   90.00000000
_cell_angle_gamma   90.00000000
_symmetry_Int_Tables_number   1
_chemical_formula_structural   CuNiC14
_chemical_formula_sum   'Cu1 Ni1 C14'
_cell_volume   155.92978103
_cell_formula_units_Z   1
loop_
 _symmetry_equiv_pos_site_id
 _symmetry_equiv_pos_as_xyz
  1  'x, y, z'
loop_
 _atom_site_type_symbol
 _atom_site_label
 _atom_site_symmetry_multiplicity
 _atom_site_fract_x
 _atom_site_fract_y
 _atom_site_fract_z
 _atom_site_occupancy
  C  C0  1  0.50000000  -0.00000000  0.00000000  1
  C  C1  1  0.50000000  0.50000000  0.50000000  1
  C  C2  1  0.24883507  0.00000000  0.50000000  1
  C  C3  1  0.75116493  -0.00000000  0.50000000  1
  C  C4  1  0.24883507  0.50000000  -0.00000000  1
  C  C5  1  0.75116493  0.50000000  0.00000000  1
  Ni  Ni6  1  0.00000000  0.50000000  0.50000000  1
  Cu  Cu7  1  0.00000000  -0.00000000  0.00000000  1
  C  C8  1  0.26221653  -0.00000000  0.00000000  1
  C  C9  1  0.73778347  0.00000000  -0.00000000  1
  C  C10  1  0.24363352  0.50000000  0.50000000  1
  C  C11  1  0.75636648  0.50000000  0.50000000  1
  C  C12  1  0.00000000  -0.00000000  0.50000000  1
  C  C13  1  0.50000000  -0.00000000  0.50000000  1
  C  C14  1  0.00000000  0.50000000  0.00000000  1
  C  C15  1  0.50000000  0.50000000  0.00000000  1
