# generated using pymatgen
data_CuNiC19
_symmetry_space_group_name_H-M   'P 1'
_cell_length_a   6.09037400
_cell_length_b   10.46424400
_cell_length_c   14.30145501
_cell_angle_alpha   89.94748554
_cell_angle_beta   90.00000000
_cell_angle_gamma   90.00000000
_symmetry_Int_Tables_number   1
_chemical_formula_structural   CuNiC19
_chemical_formula_sum   'Cu4 Ni4 C76'
_cell_volume   911.44792855
_cell_formula_units_Z   4
loop_
 _symmetry_equiv_pos_site_id
 _symmetry_equiv_pos_as_xyz
  1  'x, y, z'
loop_
 _atom_site_type_symbol
 _atom_site_label
 _atom_site_symmetry_multiplicity
 _atom_site_fract_x
 _atom_site_fract_y
 _atom_site_fract_z
 _atom_site_occupancy
  C  C0  1  0.74935400  0.00148600  0.66705800  1
  C  C1  1  0.25031000  0.00111200  0.99968100  1
  C  C2  1  0.74969000  0.00111200  0.99968100  1
  C  C3  1  0.25037200  0.00144800  0.33333300  1
  C  C4  1  0.74962800  0.00144800  0.33333300  1
  C  C5  1  0.25064600  0.00148600  0.66705800  1
  C  C6  1  0.25055600  0.49876400  0.50057900  1
  C  C7  1  0.74944400  0.49876400  0.50057900  1
  C  C8  1  0.25053200  0.49854400  0.16698900  1
  C  C9  1  0.74946800  0.49854400  0.16698900  1
  C  C10  1  0.25096000  0.49888000  0.83297400  1
  C  C11  1  0.74904000  0.49888000  0.83297400  1
  Ni  Ni12  1  0.50000000  0.78128900  0.16003600  1
  Ni  Ni13  1  0.00000000  0.71859000  0.66021000  1
  Ni  Ni14  1  0.00000000  0.71959500  0.99306600  1
  Ni  Ni15  1  0.00000000  0.71919300  0.32698700  1
  Cu  Cu16  1  0.50000000  0.78133100  0.49283700  1
  Cu  Cu17  1  0.50000000  0.78148500  0.82542000  1
  Cu  Cu18  1  0.50000000  0.27987600  0.00787600  1
  Cu  Cu19  1  0.50000000  0.27979400  0.34171600  1
  C  C20  1  0.50000000  0.27698700  0.67403100  1
  C  C21  1  0.00000000  0.22202400  0.84000900  1
  C  C22  1  0.00000000  0.21888400  0.50648200  1
  C  C23  1  0.00000000  0.21851900  0.17278700  1
  C  C24  1  0.00000000  0.90893900  0.80645900  1
  C  C25  1  0.00000000  0.90954700  0.13901400  1
  C  C26  1  0.00000000  0.90870100  0.47336400  1
  C  C27  1  0.50000000  0.59182400  0.30597300  1
  C  C28  1  0.50000000  0.59250000  0.63837800  1
  C  C29  1  0.50000000  0.59241900  0.97089600  1
  C  C30  1  0.00000000  0.40345500  0.36110700  1
  C  C31  1  0.00000000  0.40356700  0.02773400  1
  C  C32  1  0.00000000  0.40302400  0.69420900  1
  C  C33  1  0.50000000  0.09533100  0.86042700  1
  C  C34  1  0.50000000  0.09661400  0.19428800  1
  C  C35  1  0.50000000  0.09609200  0.52761500  1
  C  C36  1  0.50000000  0.95967600  0.23706300  1
  C  C37  1  0.50000000  0.95869700  0.56942900  1
  C  C38  1  0.50000000  0.95762200  0.90200100  1
  C  C39  1  0.00000000  0.90625300  0.58059400  1
  C  C40  1  0.00000000  0.90607800  0.91390600  1
  C  C41  1  0.00000000  0.90581900  0.24635100  1
  C  C42  1  0.20169000  0.83882800  0.09435700  1
  C  C43  1  0.79831000  0.83882800  0.09435700  1
  C  C44  1  0.20288300  0.83733900  0.42948800  1
  C  C45  1  0.79711700  0.83733900  0.42948800  1
  C  C46  1  0.20277400  0.83705200  0.76280200  1
  C  C47  1  0.79722600  0.83705200  0.76280200  1
  C  C48  1  0.70145600  0.66311500  0.59287500  1
  C  C49  1  0.29854400  0.66311500  0.59287500  1
  C  C50  1  0.70223800  0.66216600  0.26089400  1
  C  C51  1  0.29776200  0.66216600  0.26089400  1
  C  C52  1  0.70185400  0.66323300  0.92618600  1
  C  C53  1  0.29814600  0.66323300  0.92618600  1
  C  C54  1  0.50000000  0.59570200  0.41325900  1
  C  C55  1  0.50000000  0.59516500  0.07853100  1
  C  C56  1  0.50000000  0.59694600  0.74595100  1
  C  C57  1  0.00000000  0.54040200  0.40300800  1
  C  C58  1  0.00000000  0.54065100  0.06951700  1
  C  C59  1  0.00000000  0.54024600  0.73629100  1
  C  C60  1  0.50000000  0.45454900  0.26471000  1
  C  C61  1  0.50000000  0.45480000  0.93049900  1
  C  C62  1  0.50000000  0.45393600  0.59903600  1
  C  C63  1  0.00000000  0.40163600  0.25333800  1
  C  C64  1  0.00000000  0.40131700  0.92005500  1
  C  C65  1  0.00000000  0.40147000  0.58659000  1
  C  C66  1  0.20226200  0.33262000  0.07230300  1
  C  C67  1  0.20214300  0.33243800  0.40571600  1
  C  C68  1  0.20353000  0.33227400  0.73836200  1
  C  C69  1  0.79647000  0.33227400  0.73836200  1
  C  C70  1  0.79773800  0.33262000  0.07230300  1
  C  C71  1  0.79785700  0.33243800  0.40571600  1
  C  C72  1  0.70420000  0.16539700  0.90425900  1
  C  C73  1  0.29580000  0.16539700  0.90425900  1
  C  C74  1  0.70429600  0.16704800  0.23808200  1
  C  C75  1  0.70328000  0.16765100  0.57182300  1
  C  C76  1  0.29570400  0.16704800  0.23808200  1
  C  C77  1  0.29672000  0.16765100  0.57182300  1
  C  C78  1  0.50000000  0.09830800  0.75261800  1
  C  C79  1  0.50000000  0.09665700  0.42005800  1
  C  C80  1  0.50000000  0.09636300  0.08666100  1
  C  C81  1  0.00000000  0.04586600  0.76464000  1
  C  C82  1  0.00000000  0.04742200  0.09806200  1
  C  C83  1  0.00000000  0.04605300  0.43137700  1
