# generated using pymatgen
data_Cu6NiC22
_symmetry_space_group_name_H-M   'P 1'
_cell_length_a   7.90879033
_cell_length_b   7.90879033
_cell_length_c   15.10391998
_cell_angle_alpha   88.20117146
_cell_angle_beta   88.20117146
_cell_angle_gamma   62.63058071
_symmetry_Int_Tables_number   1
_chemical_formula_structural   Cu6NiC22
_chemical_formula_sum   'Cu12 Ni2 C44'
_cell_volume   838.41527737
_cell_formula_units_Z   2
loop_
 _symmetry_equiv_pos_site_id
 _symmetry_equiv_pos_as_xyz
  1  'x, y, z'
loop_
 _atom_site_type_symbol
 _atom_site_label
 _atom_site_symmetry_multiplicity
 _atom_site_fract_x
 _atom_site_fract_y
 _atom_site_fract_z
 _atom_site_occupancy
  C  C0  1  0.96718100  0.69692200  0.92166900  1
  C  C1  1  0.30307800  0.03281900  0.57833100  1
  C  C2  1  0.03281900  0.30307800  0.07833100  1
  C  C3  1  0.69692200  0.96718100  0.42166900  1
  Ni  Ni4  1  0.35971000  0.64029000  0.75000000  1
  Ni  Ni5  1  0.64029000  0.35971000  0.25000000  1
  Cu  Cu6  1  0.94807800  0.88812900  0.62056100  1
  Cu  Cu7  1  0.11187100  0.05192200  0.87943900  1
  Cu  Cu8  1  0.05192200  0.11187100  0.37943900  1
  Cu  Cu9  1  0.88812900  0.94807800  0.12056100  1
  Cu  Cu10  1  0.78117300  0.40882700  0.87079000  1
  Cu  Cu11  1  0.59117300  0.21882700  0.62921000  1
  Cu  Cu12  1  0.21882700  0.59117300  0.12921000  1
  Cu  Cu13  1  0.40882700  0.78117300  0.37079000  1
  Cu  Cu14  1  0.10081000  0.35731900  0.75465100  1
  Cu  Cu15  1  0.64268100  0.89919000  0.74534900  1
  Cu  Cu16  1  0.89919000  0.64268100  0.24534900  1
  Cu  Cu17  1  0.35731900  0.10081000  0.25465100  1
  C  C18  1  0.78052700  0.53299600  0.53652600  1
  C  C19  1  0.46700400  0.21947300  0.96347400  1
  C  C20  1  0.21947300  0.46700400  0.46347400  1
  C  C21  1  0.53299600  0.78052700  0.03652600  1
  C  C22  1  0.87430700  0.44243700  0.77856100  1
  C  C23  1  0.55756300  0.12569300  0.72143900  1
  C  C24  1  0.12569300  0.55756300  0.22143900  1
  C  C25  1  0.44243700  0.87430700  0.27856100  1
  C  C26  1  0.17533300  0.47175200  0.80431200  1
  C  C27  1  0.52824800  0.82466700  0.69568800  1
  C  C28  1  0.82466700  0.52824800  0.19568800  1
  C  C29  1  0.47175200  0.17533300  0.30431200  1
  C  C30  1  0.15733900  0.85079500  0.85683200  1
  C  C31  1  0.14920500  0.84266100  0.64316800  1
  C  C32  1  0.84266100  0.14920500  0.14316800  1
  C  C33  1  0.85079500  0.15733900  0.35683200  1
  C  C34  1  0.92159300  0.81465400  0.53399300  1
  C  C35  1  0.18534600  0.07840700  0.96600700  1
  C  C36  1  0.07840700  0.18534600  0.46600700  1
  C  C37  1  0.81465400  0.92159300  0.03399300  1
  C  C38  1  0.57122700  0.48283400  0.85865400  1
  C  C39  1  0.51716600  0.42877300  0.64134600  1
  C  C40  1  0.42877300  0.51716600  0.14134600  1
  C  C41  1  0.48283400  0.57122700  0.35865400  1
  C  C42  1  0.84428100  0.47637000  0.94927400  1
  C  C43  1  0.52363000  0.15571900  0.55072600  1
  C  C44  1  0.15571900  0.52363000  0.05072600  1
  C  C45  1  0.47637000  0.84428100  0.44927400  1
  C  C46  1  0.18559900  0.14381100  0.79994900  1
  C  C47  1  0.85618900  0.81440100  0.70005100  1
  C  C48  1  0.81440100  0.85618900  0.20005100  1
  C  C49  1  0.14381100  0.18559900  0.29994900  1
  C  C50  1  0.13418300  0.33167400  0.65728600  1
  C  C51  1  0.66832600  0.86581700  0.84271400  1
  C  C52  1  0.86581700  0.66832600  0.34271400  1
  C  C53  1  0.33167400  0.13418300  0.15728600  1
  C  C54  1  0.88196400  0.17672700  0.87377900  1
  C  C55  1  0.82327300  0.11803600  0.62622100  1
  C  C56  1  0.11803600  0.82327300  0.12622100  1
  C  C57  1  0.17672700  0.88196400  0.37377900  1
