# generated using pymatgen
data_Cu2Ni
_symmetry_space_group_name_H-M   'P 1'
_cell_length_a   7.32674800
_cell_length_b   7.61182100
_cell_length_c   8.89691577
_cell_angle_alpha   77.63796499
_cell_angle_beta   90.00000000
_cell_angle_gamma   90.00000000
_symmetry_Int_Tables_number   1
_chemical_formula_structural   Cu2Ni
_chemical_formula_sum   'Cu16 Ni8'
_cell_volume   484.67579525
_cell_formula_units_Z   8
loop_
 _symmetry_equiv_pos_site_id
 _symmetry_equiv_pos_as_xyz
  1  'x, y, z'
loop_
 _atom_site_type_symbol
 _atom_site_label
 _atom_site_symmetry_multiplicity
 _atom_site_fract_x
 _atom_site_fract_y
 _atom_site_fract_z
 _atom_site_occupancy
  Ni  Ni0  1  0.59607600  0.27546800  0.39250700  1
  Ni  Ni1  1  0.09607600  0.22453200  0.60749300  1
  Ni  Ni2  1  0.40392400  0.72453200  0.60749300  1
  Ni  Ni3  1  0.90392400  0.77546800  0.39250700  1
  Ni  Ni4  1  0.24688700  0.10601900  0.08074100  1
  Ni  Ni5  1  0.74688700  0.39398100  0.91925900  1
  Ni  Ni6  1  0.75311300  0.89398100  0.91925900  1
  Ni  Ni7  1  0.25311300  0.60601900  0.08074100  1
  Cu  Cu8  1  0.75597700  0.10459400  0.07797400  1
  Cu  Cu9  1  0.25597700  0.39540600  0.92202600  1
  Cu  Cu10  1  0.24402300  0.89540600  0.92202600  1
  Cu  Cu11  1  0.74402300  0.60459400  0.07797400  1
  Cu  Cu12  1  0.98385300  0.07238000  0.24201200  1
  Cu  Cu13  1  0.48385300  0.42762000  0.75798800  1
  Cu  Cu14  1  0.01614700  0.92762000  0.75798800  1
  Cu  Cu15  1  0.51614700  0.57238000  0.24201200  1
  Cu  Cu16  1  0.57313700  0.78358700  0.37457700  1
  Cu  Cu17  1  0.07313700  0.71641300  0.62542300  1
  Cu  Cu18  1  0.42686300  0.21641300  0.62542300  1
  Cu  Cu19  1  0.92686300  0.28358700  0.37457700  1
  Cu  Cu20  1  0.98050500  0.55911600  0.23513400  1
  Cu  Cu21  1  0.48050500  0.94088400  0.76486600  1
  Cu  Cu22  1  0.01949500  0.44088400  0.76486600  1
  Cu  Cu23  1  0.51949500  0.05911600  0.23513400  1
