# generated using pymatgen
data_CuNiC8
_symmetry_space_group_name_H-M   'P 1'
_cell_length_a   5.58035446
_cell_length_b   7.91438621
_cell_length_c   5.62918900
_cell_angle_alpha   89.99996521
_cell_angle_beta   89.99958092
_cell_angle_gamma   90.03628536
_symmetry_Int_Tables_number   1
_chemical_formula_structural   CuNiC8
_chemical_formula_sum   'Cu2 Ni2 C16'
_cell_volume   248.61353457
_cell_formula_units_Z   2
loop_
 _symmetry_equiv_pos_site_id
 _symmetry_equiv_pos_as_xyz
  1  'x, y, z'
loop_
 _atom_site_type_symbol
 _atom_site_label
 _atom_site_symmetry_multiplicity
 _atom_site_fract_x
 _atom_site_fract_y
 _atom_site_fract_z
 _atom_site_occupancy
  C  C0  1  0.50414100  0.24968500  0.97575900  1
  C  C1  1  0.00413100  0.74969200  0.52427500  1
  C  C2  1  0.49294600  0.75180100  0.03890700  1
  C  C3  1  0.99292300  0.25181600  0.46110800  1
  Ni  Ni4  1  0.49996700  0.49975400  0.50104400  1
  Ni  Ni5  1  0.99995100  0.99973100  0.99886700  1
  Cu  Cu6  1  0.99999600  0.50027900  0.99844000  1
  Cu  Cu7  1  0.49998700  0.00023900  0.50149500  1
  C  C8  1  0.79043400  0.46085700  0.70834000  1
  C  C9  1  0.29043400  0.96086200  0.79167600  1
  C  C10  1  0.22045300  0.52985100  0.27952400  1
  C  C11  1  0.72046800  0.02986000  0.22049200  1
  C  C12  1  0.72086200  0.46770300  0.22146000  1
  C  C13  1  0.22085700  0.96770400  0.27855300  1
  C  C14  1  0.29295400  0.54012800  0.78952600  1
  C  C15  1  0.79295400  0.04013400  0.71049300  1
  C  C16  1  0.55680800  0.74949000  0.48046200  1
  C  C17  1  0.05681900  0.24948000  0.01956400  1
  C  C18  1  0.42145500  0.25046500  0.51209900  1
  C  C19  1  0.92145900  0.75047100  0.98791500  1
