# generated using pymatgen
data_Cu2Ni8C15
_symmetry_space_group_name_H-M   'P 1'
_cell_length_a   8.10623500
_cell_length_b   7.56078800
_cell_length_c   12.05304840
_cell_angle_alpha   70.34438334
_cell_angle_beta   90.00000000
_cell_angle_gamma   90.00000000
_symmetry_Int_Tables_number   1
_chemical_formula_structural   Cu2Ni8C15
_chemical_formula_sum   'Cu4 Ni16 C30'
_cell_volume   695.68108747
_cell_formula_units_Z   2
loop_
 _symmetry_equiv_pos_site_id
 _symmetry_equiv_pos_as_xyz
  1  'x, y, z'
loop_
 _atom_site_type_symbol
 _atom_site_label
 _atom_site_symmetry_multiplicity
 _atom_site_fract_x
 _atom_site_fract_y
 _atom_site_fract_z
 _atom_site_occupancy
  C  C0  1  0.88781100  0.28569800  0.25830700  1
  C  C1  1  0.61218900  0.28569800  0.75830700  1
  C  C2  1  0.11218900  0.71430200  0.74169300  1
  C  C3  1  0.38781100  0.71430200  0.24169300  1
  C  C4  1  0.50000000  0.00000000  0.50000000  1
  C  C5  1  0.00000000  0.00000000  0.00000000  1
  Ni  Ni6  1  0.45130500  0.18939200  0.28067700  1
  Ni  Ni7  1  0.04869500  0.18939200  0.78067700  1
  Ni  Ni8  1  0.54869500  0.81060800  0.71932300  1
  Ni  Ni9  1  0.95130500  0.81060800  0.21932300  1
  Ni  Ni10  1  0.34100000  0.26715100  0.36860900  1
  Ni  Ni11  1  0.15900000  0.26715100  0.86860900  1
  Ni  Ni12  1  0.65900000  0.73284900  0.63139100  1
  Ni  Ni13  1  0.84100000  0.73284900  0.13139100  1
  Ni  Ni14  1  0.84939800  0.16609000  0.56830200  1
  Ni  Ni15  1  0.65060200  0.16609000  0.06830200  1
  Ni  Ni16  1  0.15060200  0.83391000  0.43169800  1
  Ni  Ni17  1  0.34939800  0.83391000  0.93169800  1
  Ni  Ni18  1  0.72859300  0.31791200  0.48668500  1
  Ni  Ni19  1  0.77140700  0.31791200  0.98668500  1
  Ni  Ni20  1  0.27140700  0.68208800  0.51331500  1
  Ni  Ni21  1  0.22859300  0.68208800  0.01331500  1
  Cu  Cu22  1  0.28831800  0.26684200  0.06914500  1
  Cu  Cu23  1  0.21168200  0.26684200  0.56914500  1
  Cu  Cu24  1  0.71168200  0.73315800  0.93085500  1
  Cu  Cu25  1  0.78831800  0.73315800  0.43085500  1
  C  C26  1  0.22817500  0.44358200  0.11270300  1
  C  C27  1  0.27182500  0.44358200  0.61270300  1
  C  C28  1  0.77182500  0.55641800  0.88729700  1
  C  C29  1  0.72817500  0.55641800  0.38729700  1
  C  C30  1  0.67668400  0.66302000  0.07608200  1
  C  C31  1  0.82331600  0.66302000  0.57608200  1
  C  C32  1  0.32331600  0.33698000  0.92391800  1
  C  C33  1  0.17668400  0.33698000  0.42391800  1
  C  C34  1  0.95757000  0.83414100  0.35485700  1
  C  C35  1  0.54243000  0.83414100  0.85485700  1
  C  C36  1  0.04243000  0.16585900  0.64514300  1
  C  C37  1  0.45757000  0.16585900  0.14514300  1
  C  C38  1  0.63692600  0.89906200  0.39394600  1
  C  C39  1  0.86307400  0.89906200  0.89394600  1
  C  C40  1  0.36307400  0.10093800  0.60605400  1
  C  C41  1  0.13692600  0.10093800  0.10605400  1
  C  C42  1  0.45256700  0.21787800  0.35627300  1
  C  C43  1  0.04743300  0.21787800  0.85627300  1
  C  C44  1  0.54743300  0.78212200  0.64372700  1
  C  C45  1  0.95256700  0.78212200  0.14372700  1
  C  C46  1  0.73758700  0.18286300  0.53418900  1
  C  C47  1  0.76241300  0.18286300  0.03418900  1
  C  C48  1  0.26241300  0.81713700  0.46581100  1
  C  C49  1  0.23758700  0.81713700  0.96581100  1
