# generated using pymatgen
data_Cu(NiC3)2
_symmetry_space_group_name_H-M   'P 1'
_cell_length_a   5.37389000
_cell_length_b   5.37699266
_cell_length_c   10.42020249
_cell_angle_alpha   89.43047779
_cell_angle_beta   103.47041629
_cell_angle_gamma   115.87455846
_symmetry_Int_Tables_number   1
_chemical_formula_structural   Cu(NiC3)2
_chemical_formula_sum   'Cu1 Ni2 C6'
_cell_volume   262.00723456
_cell_formula_units_Z   1
loop_
 _symmetry_equiv_pos_site_id
 _symmetry_equiv_pos_as_xyz
  1  'x, y, z'
loop_
 _atom_site_type_symbol
 _atom_site_label
 _atom_site_symmetry_multiplicity
 _atom_site_fract_x
 _atom_site_fract_y
 _atom_site_fract_z
 _atom_site_occupancy
  Ni  Ni0  1  0.32952700  0.17002900  0.49997800  1
  Ni  Ni1  1  0.67047300  0.82997100  0.50002200  1
  Cu  Cu2  1  0.00000000  0.50000000  0.50000000  1
  C  C3  1  0.37105900  0.55016100  0.58637000  1
  C  C4  1  0.75464100  0.22710800  0.58380600  1
  C  C5  1  0.07871300  0.84231400  0.58663700  1
  C  C6  1  0.62894100  0.44983900  0.41363000  1
  C  C7  1  0.92128700  0.15768600  0.41336300  1
  C  C8  1  0.24535900  0.77289200  0.41619400  1
