# generated using pymatgen
data_Cu12Ni2C
_symmetry_space_group_name_H-M   'P 1'
_cell_length_a   4.79150251
_cell_length_b   7.39685894
_cell_length_c   16.23281200
_cell_angle_alpha   90.00000000
_cell_angle_beta   90.00000000
_cell_angle_gamma   110.00563712
_symmetry_Int_Tables_number   1
_chemical_formula_structural   Cu12Ni2C
_chemical_formula_sum   'Cu24 Ni4 C2'
_cell_volume   540.60875892
_cell_formula_units_Z   2
loop_
 _symmetry_equiv_pos_site_id
 _symmetry_equiv_pos_as_xyz
  1  'x, y, z'
loop_
 _atom_site_type_symbol
 _atom_site_label
 _atom_site_symmetry_multiplicity
 _atom_site_fract_x
 _atom_site_fract_y
 _atom_site_fract_z
 _atom_site_occupancy
  C  C0  1  0.50000000  0.50000000  0.50000000  1
  C  C1  1  0.00000000  0.00000000  0.00000000  1
  Ni  Ni2  1  0.19415900  0.53372800  0.76593700  1
  Ni  Ni3  1  0.30584100  0.96627200  0.26593700  1
  Ni  Ni4  1  0.80584100  0.46627200  0.23406300  1
  Ni  Ni5  1  0.69415900  0.03372800  0.73406300  1
  Cu  Cu6  1  0.40016600  0.73295100  0.54249600  1
  Cu  Cu7  1  0.09983400  0.76704900  0.04249600  1
  Cu  Cu8  1  0.59983400  0.26704900  0.45750400  1
  Cu  Cu9  1  0.90016600  0.23295100  0.95750400  1
  Cu  Cu10  1  0.36345400  0.29783000  0.62067400  1
  Cu  Cu11  1  0.13654600  0.20217000  0.12067400  1
  Cu  Cu12  1  0.63654600  0.70217000  0.37932600  1
  Cu  Cu13  1  0.86345400  0.79783000  0.87932600  1
  Cu  Cu14  1  0.09703900  0.40093900  0.44109200  1
  Cu  Cu15  1  0.40296100  0.09906100  0.94109200  1
  Cu  Cu16  1  0.90296100  0.59906100  0.55890800  1
  Cu  Cu17  1  0.59703900  0.90093900  0.05890800  1
  Cu  Cu18  1  0.13780900  0.60219100  0.24529300  1
  Cu  Cu19  1  0.36219100  0.89780900  0.74529300  1
  Cu  Cu20  1  0.86219100  0.39780900  0.75470700  1
  Cu  Cu21  1  0.63780900  0.10219100  0.25470700  1
  Cu  Cu22  1  0.36679000  0.74846200  0.03003100  1
  Cu  Cu23  1  0.13321000  0.75153800  0.53003100  1
  Cu  Cu24  1  0.63321000  0.25153800  0.96996900  1
  Cu  Cu25  1  0.86679000  0.24846200  0.46996900  1
  Cu  Cu26  1  0.30285000  0.37321100  0.11790500  1
  Cu  Cu27  1  0.19715000  0.12678900  0.61790500  1
  Cu  Cu28  1  0.69715000  0.62678900  0.88209500  1
  Cu  Cu29  1  0.80285000  0.87321100  0.38209500  1
