# generated using pymatgen
data_Cu3NiC10
_symmetry_space_group_name_H-M   'P 1'
_cell_length_a   7.74751800
_cell_length_b   8.88265200
_cell_length_c   12.93207900
_cell_angle_alpha   90.00000000
_cell_angle_beta   90.00000000
_cell_angle_gamma   90.00000000
_symmetry_Int_Tables_number   1
_chemical_formula_structural   Cu3NiC10
_chemical_formula_sum   'Cu12 Ni4 C40'
_cell_volume   889.96635959
_cell_formula_units_Z   4
loop_
 _symmetry_equiv_pos_site_id
 _symmetry_equiv_pos_as_xyz
  1  'x, y, z'
loop_
 _atom_site_type_symbol
 _atom_site_label
 _atom_site_symmetry_multiplicity
 _atom_site_fract_x
 _atom_site_fract_y
 _atom_site_fract_z
 _atom_site_occupancy
  C  C0  1  0.75209400  0.27813300  0.32946100  1
  C  C1  1  0.74790600  0.72186700  0.82946100  1
  C  C2  1  0.25209400  0.22186700  0.67053900  1
  C  C3  1  0.24790600  0.77813300  0.17053900  1
  Ni  Ni4  1  0.78395200  0.70923800  0.52775700  1
  Ni  Ni5  1  0.71604800  0.29076200  0.02775700  1
  Ni  Ni6  1  0.28395200  0.79076200  0.47224300  1
  Ni  Ni7  1  0.21604800  0.20923800  0.97224300  1
  Cu  Cu8  1  0.43646200  0.54966100  0.67613100  1
  Cu  Cu9  1  0.06353800  0.45033900  0.17613100  1
  Cu  Cu10  1  0.93646200  0.95033900  0.32386900  1
  Cu  Cu11  1  0.56353800  0.04966100  0.82386900  1
  Cu  Cu12  1  0.57367300  0.59954900  0.27666900  1
  Cu  Cu13  1  0.92632700  0.40045100  0.77666900  1
  Cu  Cu14  1  0.07367300  0.90045100  0.72333100  1
  Cu  Cu15  1  0.42632700  0.09954900  0.22333100  1
  Cu  Cu16  1  0.59067900  0.09112800  0.54379300  1
  Cu  Cu17  1  0.90932100  0.90887200  0.04379300  1
  Cu  Cu18  1  0.09067900  0.40887200  0.45620700  1
  Cu  Cu19  1  0.40932100  0.59112800  0.95620700  1
  C  C20  1  0.46293000  0.35846600  0.66971000  1
  C  C21  1  0.03707000  0.64153400  0.16971000  1
  C  C22  1  0.96293000  0.14153400  0.33029000  1
  C  C23  1  0.53707000  0.85846600  0.83029000  1
  C  C24  1  0.64624300  0.59900100  0.71010400  1
  C  C25  1  0.85375700  0.40099900  0.21010400  1
  C  C26  1  0.14624300  0.90099900  0.28989600  1
  C  C27  1  0.35375700  0.09900100  0.78989600  1
  C  C28  1  0.45556400  0.60405800  0.54528500  1
  C  C29  1  0.04443600  0.39594200  0.04528500  1
  C  C30  1  0.95556400  0.89594200  0.45471500  1
  C  C31  1  0.54443600  0.10405800  0.95471500  1
  C  C32  1  0.67860300  0.71065100  0.36699200  1
  C  C33  1  0.82139700  0.28934900  0.86699200  1
  C  C34  1  0.17860300  0.78934900  0.63300800  1
  C  C35  1  0.32139700  0.21065100  0.13300800  1
  C  C36  1  0.36224800  0.66508300  0.29631000  1
  C  C37  1  0.13775200  0.33491700  0.79631000  1
  C  C38  1  0.86224800  0.83491700  0.70369000  1
  C  C39  1  0.63775200  0.16508300  0.20369000  1
  C  C40  1  0.55659600  0.42571900  0.33453200  1
  C  C41  1  0.94340400  0.57428100  0.83453200  1
  C  C42  1  0.05659600  0.07428100  0.66546800  1
  C  C43  1  0.44340400  0.92571900  0.16546800  1
  C  C44  1  0.58348600  0.89335300  0.54212700  1
  C  C45  1  0.91651400  0.10664700  0.04212700  1
  C  C46  1  0.08348600  0.60664700  0.45787300  1
  C  C47  1  0.41651400  0.39335300  0.95787300  1
  C  C48  1  0.36887700  0.10809200  0.55294600  1
  C  C49  1  0.13112300  0.89190800  0.05294600  1
  C  C50  1  0.86887700  0.39190800  0.44705400  1
  C  C51  1  0.63112300  0.60809200  0.94705400  1
  C  C52  1  0.62264100  0.12667500  0.41517100  1
  C  C53  1  0.87735900  0.87332500  0.91517100  1
  C  C54  1  0.12264100  0.37332500  0.58482900  1
  C  C55  1  0.37735900  0.62667500  0.08482900  1
