# generated using pymatgen
data_Cu4NiC4
_symmetry_space_group_name_H-M   'P 1'
_cell_length_a   7.50027000
_cell_length_b   8.07524000
_cell_length_c   15.34818700
_cell_angle_alpha   90.00000000
_cell_angle_beta   90.00000000
_cell_angle_gamma   90.00000000
_symmetry_Int_Tables_number   1
_chemical_formula_structural   Cu4NiC4
_chemical_formula_sum   'Cu16 Ni4 C16'
_cell_volume   929.58566580
_cell_formula_units_Z   4
loop_
 _symmetry_equiv_pos_site_id
 _symmetry_equiv_pos_as_xyz
  1  'x, y, z'
loop_
 _atom_site_type_symbol
 _atom_site_label
 _atom_site_symmetry_multiplicity
 _atom_site_fract_x
 _atom_site_fract_y
 _atom_site_fract_z
 _atom_site_occupancy
  Ni  Ni0  1  0.65685500  0.96700600  0.75000000  1
  Ni  Ni1  1  0.15685500  0.53299400  0.75000000  1
  Ni  Ni2  1  0.34314500  0.03299400  0.25000000  1
  Ni  Ni3  1  0.84314500  0.46700600  0.25000000  1
  Cu  Cu4  1  0.52571200  0.30993500  0.10154100  1
  Cu  Cu5  1  0.02571200  0.19006500  0.39845900  1
  Cu  Cu6  1  0.47428800  0.69006500  0.60154100  1
  Cu  Cu7  1  0.97428800  0.80993500  0.89845900  1
  Cu  Cu8  1  0.47428800  0.69006500  0.89845900  1
  Cu  Cu9  1  0.97428800  0.80993500  0.60154100  1
  Cu  Cu10  1  0.52571200  0.30993500  0.39845900  1
  Cu  Cu11  1  0.02571200  0.19006500  0.10154100  1
  Cu  Cu12  1  0.82435400  0.32155300  0.62821900  1
  Cu  Cu13  1  0.32435400  0.17844700  0.87178100  1
  Cu  Cu14  1  0.17564600  0.67844700  0.12821900  1
  Cu  Cu15  1  0.67564600  0.82155300  0.37178100  1
  Cu  Cu16  1  0.17564600  0.67844700  0.37178100  1
  Cu  Cu17  1  0.67564600  0.82155300  0.12821900  1
  Cu  Cu18  1  0.82435400  0.32155300  0.87178100  1
  Cu  Cu19  1  0.32435400  0.17844700  0.62821900  1
  C  C20  1  0.65674000  0.03204000  0.53650600  1
  C  C21  1  0.15674000  0.46796000  0.96349400  1
  C  C22  1  0.34326000  0.96796000  0.03650600  1
  C  C23  1  0.84326000  0.53204000  0.46349400  1
  C  C24  1  0.34326000  0.96796000  0.46349400  1
  C  C25  1  0.84326000  0.53204000  0.03650600  1
  C  C26  1  0.65674000  0.03204000  0.96349400  1
  C  C27  1  0.15674000  0.46796000  0.53650600  1
  C  C28  1  0.51429700  0.42112800  0.75000000  1
  C  C29  1  0.01429700  0.07887200  0.75000000  1
  C  C30  1  0.48570300  0.57887200  0.25000000  1
  C  C31  1  0.98570300  0.92112800  0.25000000  1
  C  C32  1  0.77153300  0.63182700  0.75000000  1
  C  C33  1  0.27153300  0.86817300  0.75000000  1
  C  C34  1  0.22846700  0.36817300  0.25000000  1
  C  C35  1  0.72846700  0.13182700  0.25000000  1
