# generated using pymatgen
data_Cu7Ni9C5
_symmetry_space_group_name_H-M   'P 1'
_cell_length_a   9.46778360
_cell_length_b   9.46778360
_cell_length_c   3.75366200
_cell_angle_alpha   90.00000000
_cell_angle_beta   90.00000000
_cell_angle_gamma   119.99999721
_symmetry_Int_Tables_number   1
_chemical_formula_structural   Cu7Ni9C5
_chemical_formula_sum   'Cu7 Ni9 C5'
_cell_volume   291.39524030
_cell_formula_units_Z   1
loop_
 _symmetry_equiv_pos_site_id
 _symmetry_equiv_pos_as_xyz
  1  'x, y, z'
loop_
 _atom_site_type_symbol
 _atom_site_label
 _atom_site_symmetry_multiplicity
 _atom_site_fract_x
 _atom_site_fract_y
 _atom_site_fract_z
 _atom_site_occupancy
  C  C0  1  0.00000000  0.00000000  0.00000000  1
  C  C1  1  0.66666700  0.33333300  0.50000000  1
  C  C2  1  0.46697700  0.57929300  0.50000000  1
  C  C3  1  0.42070700  0.88768400  0.50000000  1
  C  C4  1  0.11231600  0.53302300  0.50000000  1
  Ni  Ni5  1  0.71395300  0.62030200  0.00000000  1
  Ni  Ni6  1  0.37969800  0.09365100  0.00000000  1
  Ni  Ni7  1  0.90634900  0.28604700  0.00000000  1
  Ni  Ni8  1  0.21999900  0.38733700  0.00000000  1
  Ni  Ni9  1  0.61266300  0.83266200  0.00000000  1
  Ni  Ni10  1  0.16733800  0.78000100  0.00000000  1
  Ni  Ni11  1  0.29323500  0.23773000  0.50000000  1
  Ni  Ni12  1  0.76227000  0.05550500  0.50000000  1
  Ni  Ni13  1  0.94449500  0.70676500  0.50000000  1
  Cu  Cu14  1  0.46326800  0.38144000  0.00000000  1
  Cu  Cu15  1  0.61856000  0.08182900  0.00000000  1
  Cu  Cu16  1  0.91817100  0.53673200  0.00000000  1
  Cu  Cu17  1  0.04365100  0.25245400  0.50000000  1
  Cu  Cu18  1  0.74754600  0.79119700  0.50000000  1
  Cu  Cu19  1  0.20880300  0.95634900  0.50000000  1
  Cu  Cu20  1  0.33333300  0.66666700  0.00000000  1
