# generated using pymatgen
data_CuNiC
_symmetry_space_group_name_H-M   'P 1'
_cell_length_a   4.40301985
_cell_length_b   4.40301985
_cell_length_c   7.06240800
_cell_angle_alpha   90.00000000
_cell_angle_beta   90.00000000
_cell_angle_gamma   119.99999774
_symmetry_Int_Tables_number   1
_chemical_formula_structural   CuNiC
_chemical_formula_sum   'Cu2 Ni2 C2'
_cell_volume   118.57270614
_cell_formula_units_Z   2
loop_
 _symmetry_equiv_pos_site_id
 _symmetry_equiv_pos_as_xyz
  1  'x, y, z'
loop_
 _atom_site_type_symbol
 _atom_site_label
 _atom_site_symmetry_multiplicity
 _atom_site_fract_x
 _atom_site_fract_y
 _atom_site_fract_z
 _atom_site_occupancy
  C  C0  1  0.00000000  0.00000000  0.49965800  1
  C  C1  1  0.00000000  0.00000000  0.99965800  1
  Ni  Ni2  1  0.66666700  0.33333300  0.21348000  1
  Ni  Ni3  1  0.33333300  0.66666700  0.71348000  1
  Cu  Cu4  1  0.66666700  0.33333300  0.78066200  1
  Cu  Cu5  1  0.33333300  0.66666700  0.28066200  1
