# generated using pymatgen
data_Cu3(NiC2)4
_symmetry_space_group_name_H-M   'P 1'
_cell_length_a   10.90748600
_cell_length_b   10.90748600
_cell_length_c   10.90748600
_cell_angle_alpha   90.00000000
_cell_angle_beta   90.00000000
_cell_angle_gamma   90.00000000
_symmetry_Int_Tables_number   1
_chemical_formula_structural   Cu3(NiC2)4
_chemical_formula_sum   'Cu12 Ni16 C32'
_cell_volume   1297.69906791
_cell_formula_units_Z   4
loop_
 _symmetry_equiv_pos_site_id
 _symmetry_equiv_pos_as_xyz
  1  'x, y, z'
loop_
 _atom_site_type_symbol
 _atom_site_label
 _atom_site_symmetry_multiplicity
 _atom_site_fract_x
 _atom_site_fract_y
 _atom_site_fract_z
 _atom_site_occupancy
  Ni  Ni0  1  0.37500000  0.62500000  0.12500000  1
  Ni  Ni1  1  0.12500000  0.37500000  0.62500000  1
  Ni  Ni2  1  0.62500000  0.12500000  0.37500000  1
  Ni  Ni3  1  0.87500000  0.87500000  0.87500000  1
  Ni  Ni4  1  0.85476000  0.89524000  0.37500000  1
  Ni  Ni5  1  0.64524000  0.10476000  0.87500000  1
  Ni  Ni6  1  0.14524000  0.39524000  0.12500000  1
  Ni  Ni7  1  0.35476000  0.60476000  0.62500000  1
  Ni  Ni8  1  0.89524000  0.37500000  0.85476000  1
  Ni  Ni9  1  0.10476000  0.87500000  0.64524000  1
  Ni  Ni10  1  0.39524000  0.12500000  0.14524000  1
  Ni  Ni11  1  0.60476000  0.62500000  0.35476000  1
  Ni  Ni12  1  0.37500000  0.85476000  0.89524000  1
  Ni  Ni13  1  0.87500000  0.64524000  0.10476000  1
  Ni  Ni14  1  0.12500000  0.14524000  0.39524000  1
  Ni  Ni15  1  0.62500000  0.35476000  0.60476000  1
  Cu  Cu16  1  0.11404000  0.63596000  0.37500000  1
  Cu  Cu17  1  0.38596000  0.36404000  0.87500000  1
  Cu  Cu18  1  0.88596000  0.13596000  0.12500000  1
  Cu  Cu19  1  0.61404000  0.86404000  0.62500000  1
  Cu  Cu20  1  0.63596000  0.37500000  0.11404000  1
  Cu  Cu21  1  0.36404000  0.87500000  0.38596000  1
  Cu  Cu22  1  0.13596000  0.12500000  0.88596000  1
  Cu  Cu23  1  0.86404000  0.62500000  0.61404000  1
  Cu  Cu24  1  0.37500000  0.11404000  0.63596000  1
  Cu  Cu25  1  0.87500000  0.38596000  0.36404000  1
  Cu  Cu26  1  0.12500000  0.88596000  0.13596000  1
  Cu  Cu27  1  0.62500000  0.61404000  0.86404000  1
  C  C28  1  0.35104900  0.63835100  0.38757700  1
  C  C29  1  0.14895100  0.36164900  0.88757700  1
  C  C30  1  0.64895100  0.13835100  0.11242300  1
  C  C31  1  0.85104900  0.86164900  0.61242300  1
  C  C32  1  0.63835100  0.38757700  0.35104900  1
  C  C33  1  0.36164900  0.88757700  0.14895100  1
  C  C34  1  0.13835100  0.11242300  0.64895100  1
  C  C35  1  0.86164900  0.61242300  0.85104900  1
  C  C36  1  0.38757700  0.35104900  0.63835100  1
  C  C37  1  0.88757700  0.14895100  0.36164900  1
  C  C38  1  0.11242300  0.64895100  0.13835100  1
  C  C39  1  0.61242300  0.85104900  0.86164900  1
  C  C40  1  0.39895100  0.36242300  0.11164900  1
  C  C41  1  0.60104900  0.86242300  0.38835100  1
  C  C42  1  0.10104900  0.63757700  0.61164900  1
  C  C43  1  0.89895100  0.13757700  0.88835100  1
  C  C44  1  0.11164900  0.39895100  0.36242300  1
  C  C45  1  0.38835100  0.60104900  0.86242300  1
  C  C46  1  0.61164900  0.10104900  0.63757700  1
  C  C47  1  0.88835100  0.89895100  0.13757700  1
  C  C48  1  0.36242300  0.11164900  0.39895100  1
  C  C49  1  0.86242300  0.38835100  0.60104900  1
  C  C50  1  0.63757700  0.61164900  0.10104900  1
  C  C51  1  0.13757700  0.88835100  0.89895100  1
  C  C52  1  0.12108000  0.87892000  0.37892000  1
  C  C53  1  0.37892000  0.12108000  0.87892000  1
  C  C54  1  0.87892000  0.37892000  0.12108000  1
  C  C55  1  0.62108000  0.62108000  0.62108000  1
  C  C56  1  0.62892000  0.37108000  0.87108000  1
  C  C57  1  0.37108000  0.87108000  0.62892000  1
  C  C58  1  0.87108000  0.62892000  0.37108000  1
  C  C59  1  0.12892000  0.12892000  0.12892000  1
