# generated using pymatgen
data_CuNiC
_symmetry_space_group_name_H-M   'P 1'
_cell_length_a   6.04928600
_cell_length_b   3.55657300
_cell_length_c   6.94422000
_cell_angle_alpha   90.00000000
_cell_angle_beta   90.00000000
_cell_angle_gamma   90.00000000
_symmetry_Int_Tables_number   1
_chemical_formula_structural   CuNiC
_chemical_formula_sum   'Cu4 Ni4 C4'
_cell_volume   149.40299931
_cell_formula_units_Z   4
loop_
 _symmetry_equiv_pos_site_id
 _symmetry_equiv_pos_as_xyz
  1  'x, y, z'
loop_
 _atom_site_type_symbol
 _atom_site_label
 _atom_site_symmetry_multiplicity
 _atom_site_fract_x
 _atom_site_fract_y
 _atom_site_fract_z
 _atom_site_occupancy
  Ni  Ni0  1  0.02720700  0.25000000  0.82582000  1
  Ni  Ni1  1  0.52720700  0.25000000  0.67418000  1
  Ni  Ni2  1  0.97279300  0.75000000  0.17418000  1
  Ni  Ni3  1  0.47279300  0.75000000  0.32582000  1
  Cu  Cu4  1  0.14723800  0.25000000  0.43691100  1
  Cu  Cu5  1  0.64723800  0.25000000  0.06308900  1
  Cu  Cu6  1  0.85276200  0.75000000  0.56308900  1
  Cu  Cu7  1  0.35276200  0.75000000  0.93691100  1
  C  C8  1  0.76925700  0.25000000  0.37558200  1
  C  C9  1  0.26925700  0.25000000  0.12441800  1
  C  C10  1  0.23074300  0.75000000  0.62441800  1
  C  C11  1  0.73074300  0.75000000  0.87558200  1
