# generated using pymatgen
data_Cu5Ni4
_symmetry_space_group_name_H-M   'P 1'
_cell_length_a   13.46845600
_cell_length_b   5.87189500
_cell_length_c   16.54638199
_cell_angle_alpha   87.49061063
_cell_angle_beta   90.00000000
_cell_angle_gamma   90.00000000
_symmetry_Int_Tables_number   1
_chemical_formula_structural   Cu5Ni4
_chemical_formula_sum   'Cu80 Ni64'
_cell_volume   1307.32172057
_cell_formula_units_Z   16
loop_
 _symmetry_equiv_pos_site_id
 _symmetry_equiv_pos_as_xyz
  1  'x, y, z'
loop_
 _atom_site_type_symbol
 _atom_site_label
 _atom_site_symmetry_multiplicity
 _atom_site_fract_x
 _atom_site_fract_y
 _atom_site_fract_z
 _atom_site_occupancy
  Ni  Ni0  1  0.19048200  0.19699600  0.49109700  1
  Ni  Ni1  1  0.69048200  0.80300400  0.00890300  1
  Ni  Ni2  1  0.80951800  0.80300400  0.50890300  1
  Ni  Ni3  1  0.30951800  0.19699600  0.99109700  1
  Ni  Ni4  1  0.39158500  0.21010200  0.54809400  1
  Ni  Ni5  1  0.89158500  0.78989800  0.95190600  1
  Ni  Ni6  1  0.60841500  0.78989800  0.45190600  1
  Ni  Ni7  1  0.10841500  0.21010200  0.04809400  1
  Ni  Ni8  1  0.31185800  0.07645900  0.48250400  1
  Ni  Ni9  1  0.81185800  0.92354100  0.01749600  1
  Ni  Ni10  1  0.68814200  0.92354100  0.51749600  1
  Ni  Ni11  1  0.18814200  0.07645900  0.98250400  1
  Ni  Ni12  1  0.30321200  0.36811000  0.49422500  1
  Ni  Ni13  1  0.80321200  0.63189000  0.00577500  1
  Ni  Ni14  1  0.69678800  0.63189000  0.50577500  1
  Ni  Ni15  1  0.19678800  0.36811000  0.99422500  1
  Ni  Ni16  1  0.32178000  0.41628000  0.60120800  1
  Ni  Ni17  1  0.82178000  0.58372000  0.89879200  1
  Ni  Ni18  1  0.67822000  0.58372000  0.39879200  1
  Ni  Ni19  1  0.17822000  0.41628000  0.10120800  1
  Ni  Ni20  1  0.99403600  0.24660900  0.61634000  1
  Ni  Ni21  1  0.49403600  0.75339100  0.88366000  1
  Ni  Ni22  1  0.00596400  0.75339100  0.38366000  1
  Ni  Ni23  1  0.50596400  0.24660900  0.11634000  1
  Ni  Ni24  1  0.19891100  0.43026700  0.55726900  1
  Ni  Ni25  1  0.69891100  0.56973300  0.94273100  1
  Ni  Ni26  1  0.80108900  0.56973300  0.44273100  1
  Ni  Ni27  1  0.30108900  0.43026700  0.05726900  1
  Ni  Ni28  1  0.97126600  0.09163200  0.71027400  1
  Ni  Ni29  1  0.47126600  0.90836800  0.78972600  1
  Ni  Ni30  1  0.02873400  0.90836800  0.28972600  1
  Ni  Ni31  1  0.52873400  0.09163200  0.21027400  1
  Ni  Ni32  1  0.13035400  0.19762000  0.59030100  1
  Ni  Ni33  1  0.63035400  0.80238000  0.90969900  1
  Ni  Ni34  1  0.86964600  0.80238000  0.40969900  1
  Ni  Ni35  1  0.36964600  0.19762000  0.09030100  1
  Ni  Ni36  1  0.21331500  0.31542500  0.65429100  1
  Ni  Ni37  1  0.71331500  0.68457500  0.84570900  1
  Ni  Ni38  1  0.78668500  0.68457500  0.34570900  1
  Ni  Ni39  1  0.28668500  0.31542500  0.15429100  1
  Ni  Ni40  1  0.17999000  0.22361000  0.75297100  1
  Ni  Ni41  1  0.67999000  0.77639000  0.74702900  1
  Ni  Ni42  1  0.82001000  0.77639000  0.24702900  1
  Ni  Ni43  1  0.32001000  0.22361000  0.25297100  1
  Ni  Ni44  1  0.05948100  0.99021400  0.63967300  1
  Ni  Ni45  1  0.55948100  0.00978600  0.86032700  1
  Ni  Ni46  1  0.94051900  0.00978600  0.36032700  1
  Ni  Ni47  1  0.44051900  0.99021400  0.13967300  1
  Ni  Ni48  1  0.18458600  0.03100600  0.67198500  1
  Ni  Ni49  1  0.68458600  0.96899400  0.82801500  1
  Ni  Ni50  1  0.81541400  0.96899400  0.32801500  1
  Ni  Ni51  1  0.31541400  0.03100600  0.17198500  1
  Ni  Ni52  1  0.09132000  0.00218000  0.74503100  1
  Ni  Ni53  1  0.59132000  0.99782000  0.75496900  1
  Ni  Ni54  1  0.90868000  0.99782000  0.25496900  1
  Ni  Ni55  1  0.40868000  0.00218000  0.24503100  1
  Ni  Ni56  1  0.03814600  0.24848400  0.78245300  1
  Ni  Ni57  1  0.53814600  0.75151600  0.71754700  1
  Ni  Ni58  1  0.96185400  0.75151600  0.21754700  1
  Ni  Ni59  1  0.46185400  0.24848400  0.28245300  1
  Ni  Ni60  1  0.96293900  0.38295800  0.70669800  1
  Ni  Ni61  1  0.46293900  0.61704200  0.79330200  1
  Ni  Ni62  1  0.03706100  0.61704200  0.29330200  1
  Ni  Ni63  1  0.53706100  0.38295800  0.20669800  1
  Cu  Cu64  1  0.22351500  0.99071800  0.51048000  1
  Cu  Cu65  1  0.72351500  0.00928200  0.98952000  1
  Cu  Cu66  1  0.77648500  0.00928200  0.48952000  1
  Cu  Cu67  1  0.27648500  0.99071800  0.01048000  1
  Cu  Cu68  1  0.36605500  0.22786200  0.62771300  1
  Cu  Cu69  1  0.86605500  0.77213800  0.87228700  1
  Cu  Cu70  1  0.63394500  0.77213800  0.37228700  1
  Cu  Cu71  1  0.13394500  0.22786200  0.12771300  1
  Cu  Cu72  1  0.36052000  0.99288800  0.54908900  1
  Cu  Cu73  1  0.86052000  0.00711200  0.95091100  1
  Cu  Cu74  1  0.63948000  0.00711200  0.45091100  1
  Cu  Cu75  1  0.13948000  0.99288800  0.04908900  1
  Cu  Cu76  1  0.32651500  0.50377300  0.44206900  1
  Cu  Cu77  1  0.82651500  0.49622700  0.05793100  1
  Cu  Cu78  1  0.67348500  0.49622700  0.55793100  1
  Cu  Cu79  1  0.17348500  0.50377300  0.94206900  1
  Cu  Cu80  1  0.36675200  0.57831400  0.62166000  1
  Cu  Cu81  1  0.86675200  0.42168600  0.87834000  1
  Cu  Cu82  1  0.63324800  0.42168600  0.37834000  1
  Cu  Cu83  1  0.13324800  0.57831400  0.12166000  1
  Cu  Cu84  1  0.47966300  0.21008400  0.54176800  1
  Cu  Cu85  1  0.97966300  0.78991600  0.95823200  1
  Cu  Cu86  1  0.52033700  0.78991600  0.45823200  1
  Cu  Cu87  1  0.02033700  0.21008400  0.04176800  1
  Cu  Cu88  1  0.34007400  0.97046400  0.42748600  1
  Cu  Cu89  1  0.84007400  0.02953600  0.07251400  1
  Cu  Cu90  1  0.65992600  0.02953600  0.57251400  1
  Cu  Cu91  1  0.15992600  0.97046400  0.92748600  1
  Cu  Cu92  1  0.14285600  0.19343400  0.43067800  1
  Cu  Cu93  1  0.64285600  0.80656600  0.06932200  1
  Cu  Cu94  1  0.85714400  0.80656600  0.56932200  1
  Cu  Cu95  1  0.35714400  0.19343400  0.93067800  1
  Cu  Cu96  1  0.17974300  0.43219900  0.71528100  1
  Cu  Cu97  1  0.67974300  0.56780100  0.78471900  1
  Cu  Cu98  1  0.82025700  0.56780100  0.28471900  1
  Cu  Cu99  1  0.32025700  0.43219900  0.21528100  1
  Cu  Cu100  1  0.03517300  0.46243300  0.75451600  1
  Cu  Cu101  1  0.53517300  0.53756700  0.74548400  1
  Cu  Cu102  1  0.96482700  0.53756700  0.24548400  1
  Cu  Cu103  1  0.46482700  0.46243300  0.25451600  1
  Cu  Cu104  1  0.01109900  0.45667500  0.63912600  1
  Cu  Cu105  1  0.51109900  0.54332500  0.86087400  1
  Cu  Cu106  1  0.98890100  0.54332500  0.36087400  1
  Cu  Cu107  1  0.48890100  0.45667500  0.13912600  1
  Cu  Cu108  1  0.93693400  0.26752700  0.56147500  1
  Cu  Cu109  1  0.43693400  0.73247300  0.93852500  1
  Cu  Cu110  1  0.06306600  0.73247300  0.43852500  1
  Cu  Cu111  1  0.56306600  0.26752700  0.06147500  1
  Cu  Cu112  1  0.16190100  0.61098100  0.54188300  1
  Cu  Cu113  1  0.66190100  0.38901900  0.95811700  1
  Cu  Cu114  1  0.83809900  0.38901900  0.45811700  1
  Cu  Cu115  1  0.33809900  0.61098100  0.04188300  1
  Cu  Cu116  1  0.24555700  0.88524600  0.66480600  1
  Cu  Cu117  1  0.74555700  0.11475400  0.83519400  1
  Cu  Cu118  1  0.75444300  0.11475400  0.33519400  1
  Cu  Cu119  1  0.25444300  0.88524600  0.16480500  1
  Cu  Cu120  1  0.09696200  0.84673300  0.79429700  1
  Cu  Cu121  1  0.59696200  0.15326700  0.70570300  1
  Cu  Cu122  1  0.90303800  0.15326700  0.20570300  1
  Cu  Cu123  1  0.40303800  0.84673300  0.29429700  1
  Cu  Cu124  1  0.03601100  0.82599300  0.60398100  1
  Cu  Cu125  1  0.53601100  0.17400700  0.89601900  1
  Cu  Cu126  1  0.96398900  0.17400700  0.39601900  1
  Cu  Cu127  1  0.46398900  0.82599300  0.10398100  1
  Cu  Cu128  1  0.01911800  0.25858100  0.85266600  1
  Cu  Cu129  1  0.51911800  0.74141900  0.64733400  1
  Cu  Cu130  1  0.98088200  0.74141900  0.14733400  1
  Cu  Cu131  1  0.48088200  0.25858100  0.35266600  1
  Cu  Cu132  1  0.89317000  0.50455800  0.71581400  1
  Cu  Cu133  1  0.39317000  0.49544200  0.78418600  1
  Cu  Cu134  1  0.10683000  0.49544200  0.28418600  1
  Cu  Cu135  1  0.60683000  0.50455800  0.21581400  1
  Cu  Cu136  1  0.90003000  0.97687000  0.72596800  1
  Cu  Cu137  1  0.40003000  0.02313000  0.77403200  1
  Cu  Cu138  1  0.09997000  0.02313000  0.27403200  1
  Cu  Cu139  1  0.59997000  0.97687000  0.22596800  1
  Cu  Cu140  1  0.23655400  0.23797100  0.80783300  1
  Cu  Cu141  1  0.73655400  0.76202900  0.69216700  1
  Cu  Cu142  1  0.76344600  0.76202900  0.19216700  1
  Cu  Cu143  1  0.26344600  0.23797100  0.30783300  1
