# generated using pymatgen
data_Cu2Ni3C19
_symmetry_space_group_name_H-M   'P 1'
_cell_length_a   11.95525743
_cell_length_b   11.95525743
_cell_length_c   11.95525794
_cell_angle_alpha   27.18025983
_cell_angle_beta   27.18025983
_cell_angle_gamma   27.18026259
_symmetry_Int_Tables_number   1
_chemical_formula_structural   Cu2Ni3C19
_chemical_formula_sum   'Cu2 Ni3 C19'
_cell_volume   314.56091367
_cell_formula_units_Z   1
loop_
 _symmetry_equiv_pos_site_id
 _symmetry_equiv_pos_as_xyz
  1  'x, y, z'
loop_
 _atom_site_type_symbol
 _atom_site_label
 _atom_site_symmetry_multiplicity
 _atom_site_fract_x
 _atom_site_fract_y
 _atom_site_fract_z
 _atom_site_occupancy
  C  C0  1  0.40095200  0.40095200  0.40095200  1
  C  C1  1  0.80130800  0.80130800  0.80130800  1
  C  C2  1  0.19869200  0.19869200  0.19869200  1
  C  C3  1  0.59904800  0.59904800  0.59904800  1
  Ni  Ni4  1  0.10034600  0.10034600  0.10034600  1
  Ni  Ni5  1  0.50000000  0.50000000  0.50000000  1
  Ni  Ni6  1  0.89965400  0.89965400  0.89965400  1
  Cu  Cu7  1  0.29965100  0.29965100  0.29965100  1
  Cu  Cu8  1  0.70034900  0.70034900  0.70034900  1
  C  C9  1  0.89975100  0.89975100  0.40865900  1
  C  C10  1  0.10024900  0.10024900  0.59134100  1
  C  C11  1  0.50000000  0.50000000  0.00000000  1
  C  C12  1  0.30042600  0.30042600  0.79982300  1
  C  C13  1  0.69957400  0.69957400  0.20017700  1
  C  C14  1  0.00000000  0.50000000  0.50000000  1
  C  C15  1  0.20017700  0.69957400  0.69957400  1
  C  C16  1  0.59134100  0.10024900  0.10024900  1
  C  C17  1  0.40865900  0.89975100  0.89975100  1
  C  C18  1  0.79982300  0.30042600  0.30042600  1
  C  C19  1  0.50000000  0.00000000  0.50000000  1
  C  C20  1  0.69957400  0.20017700  0.69957400  1
  C  C21  1  0.10024900  0.59134100  0.10024900  1
  C  C22  1  0.89975100  0.40865900  0.89975100  1
  C  C23  1  0.30042600  0.79982300  0.30042600  1
