# generated using pymatgen
data_CuNiC6
_symmetry_space_group_name_H-M   'P 1'
_cell_length_a   10.96116300
_cell_length_b   5.16722900
_cell_length_c   8.00886411
_cell_angle_alpha   73.48366129
_cell_angle_beta   90.00000000
_cell_angle_gamma   90.00000000
_symmetry_Int_Tables_number   1
_chemical_formula_structural   CuNiC6
_chemical_formula_sum   'Cu4 Ni4 C24'
_cell_volume   434.89611700
_cell_formula_units_Z   4
loop_
 _symmetry_equiv_pos_site_id
 _symmetry_equiv_pos_as_xyz
  1  'x, y, z'
loop_
 _atom_site_type_symbol
 _atom_site_label
 _atom_site_symmetry_multiplicity
 _atom_site_fract_x
 _atom_site_fract_y
 _atom_site_fract_z
 _atom_site_occupancy
  C  C0  1  0.08800700  0.53740900  0.81047000  1
  C  C1  1  0.91199300  0.46259100  0.18953000  1
  C  C2  1  0.58800700  0.46259100  0.68953000  1
  C  C3  1  0.41199300  0.53740900  0.31047000  1
  Ni  Ni4  1  0.35963800  0.15751000  0.03716800  1
  Ni  Ni5  1  0.64036200  0.84249000  0.96283200  1
  Ni  Ni6  1  0.85963800  0.84249000  0.46283200  1
  Ni  Ni7  1  0.14036200  0.15751000  0.53716800  1
  Cu  Cu8  1  0.89795000  0.01493000  0.83791600  1
  Cu  Cu9  1  0.10205000  0.98507000  0.16208400  1
  Cu  Cu10  1  0.60205000  0.01493000  0.33791600  1
  Cu  Cu11  1  0.39795000  0.98507000  0.66208400  1
  C  C12  1  0.93513400  0.74140200  0.68154100  1
  C  C13  1  0.02104300  0.27863000  0.66195800  1
  C  C14  1  0.79097100  0.13149100  0.28560600  1
  C  C15  1  0.46121500  0.74316200  0.49474400  1
  C  C16  1  0.70589900  0.74994400  0.54916500  1
  C  C17  1  0.79410100  0.74994400  0.04916500  1
  C  C18  1  0.47895700  0.27863000  0.16195800  1
  C  C19  1  0.52104300  0.72137000  0.83804200  1
  C  C20  1  0.53878500  0.25683800  0.50525600  1
  C  C21  1  0.43513400  0.25859800  0.81845900  1
  C  C22  1  0.29410100  0.25005600  0.45083500  1
  C  C23  1  0.06486600  0.25859800  0.31845900  1
  C  C24  1  0.56486600  0.74140200  0.18154100  1
  C  C25  1  0.20589900  0.25005600  0.95083500  1
  C  C26  1  0.96121500  0.25683800  0.00525600  1
  C  C27  1  0.03878500  0.74316200  0.99474400  1
  C  C28  1  0.20902900  0.86850900  0.71439400  1
  C  C29  1  0.97895700  0.72137000  0.33804200  1
  C  C30  1  0.29097100  0.86850900  0.21439400  1
  C  C31  1  0.70902900  0.13149100  0.78560600  1
