# generated using pymatgen
data_Cu11Ni3C2
_symmetry_space_group_name_H-M   'P 1'
_cell_length_a   6.06012900
_cell_length_b   9.94753500
_cell_length_c   17.18851100
_cell_angle_alpha   90.00000000
_cell_angle_beta   90.00000000
_cell_angle_gamma   90.00000000
_symmetry_Int_Tables_number   1
_chemical_formula_structural   Cu11Ni3C2
_chemical_formula_sum   'Cu44 Ni12 C8'
_cell_volume   1036.18094436
_cell_formula_units_Z   4
loop_
 _symmetry_equiv_pos_site_id
 _symmetry_equiv_pos_as_xyz
  1  'x, y, z'
loop_
 _atom_site_type_symbol
 _atom_site_label
 _atom_site_symmetry_multiplicity
 _atom_site_fract_x
 _atom_site_fract_y
 _atom_site_fract_z
 _atom_site_occupancy
  C  C0  1  0.75000000  0.50000000  0.82972700  1
  C  C1  1  0.25000000  0.00000000  0.67027300  1
  C  C2  1  0.25000000  0.50000000  0.17027300  1
  C  C3  1  0.75000000  0.00000000  0.32972700  1
  C  C4  1  0.25000000  0.50000000  0.55920400  1
  C  C5  1  0.75000000  0.00000000  0.94079600  1
  C  C6  1  0.75000000  0.50000000  0.44079600  1
  C  C7  1  0.25000000  0.00000000  0.05920400  1
  Ni  Ni8  1  0.41590400  0.66112200  0.67680100  1
  Ni  Ni9  1  0.91590400  0.83887800  0.82319900  1
  Ni  Ni10  1  0.58409600  0.16112200  0.82319900  1
  Ni  Ni11  1  0.08409600  0.33887800  0.67680100  1
  Ni  Ni12  1  0.58409600  0.33887800  0.32319900  1
  Ni  Ni13  1  0.08409600  0.16112200  0.17680100  1
  Ni  Ni14  1  0.41590400  0.83887800  0.17680100  1
  Ni  Ni15  1  0.91590400  0.66112200  0.32319900  1
  Ni  Ni16  1  0.25000000  0.00000000  0.42300700  1
  Ni  Ni17  1  0.75000000  0.50000000  0.07699300  1
  Ni  Ni18  1  0.75000000  0.00000000  0.57699300  1
  Ni  Ni19  1  0.25000000  0.50000000  0.92300700  1
  Cu  Cu20  1  0.51275200  0.39451600  0.50730400  1
  Cu  Cu21  1  0.01275200  0.10548400  0.99269600  1
  Cu  Cu22  1  0.48724800  0.89451600  0.99269600  1
  Cu  Cu23  1  0.98724800  0.60548400  0.50730400  1
  Cu  Cu24  1  0.48724800  0.60548400  0.49269600  1
  Cu  Cu25  1  0.98724800  0.89451600  0.00730400  1
  Cu  Cu26  1  0.51275200  0.10548400  0.00730400  1
  Cu  Cu27  1  0.01275200  0.39451600  0.49269600  1
  Cu  Cu28  1  0.26502600  0.70076200  0.62855900  1
  Cu  Cu29  1  0.76502600  0.79923800  0.87144100  1
  Cu  Cu30  1  0.73497400  0.20076200  0.87144100  1
  Cu  Cu31  1  0.23497400  0.29923800  0.62855900  1
  Cu  Cu32  1  0.73497400  0.29923800  0.37144100  1
  Cu  Cu33  1  0.23497400  0.20076200  0.12855900  1
  Cu  Cu34  1  0.26502600  0.79923800  0.12855900  1
  Cu  Cu35  1  0.76502600  0.70076200  0.37144100  1
  Cu  Cu36  1  0.48018100  0.53837700  0.66714100  1
  Cu  Cu37  1  0.98018100  0.96162300  0.83285900  1
  Cu  Cu38  1  0.51981900  0.03837700  0.83285900  1
  Cu  Cu39  1  0.01981900  0.46162300  0.66714100  1
  Cu  Cu40  1  0.51981900  0.46162300  0.33285900  1
  Cu  Cu41  1  0.01981900  0.03837700  0.16714100  1
  Cu  Cu42  1  0.48018100  0.96162300  0.16714100  1
  Cu  Cu43  1  0.98018100  0.53837700  0.33285900  1
  Cu  Cu44  1  0.49112900  0.73408900  0.72758700  1
  Cu  Cu45  1  0.99112900  0.76591100  0.77241300  1
  Cu  Cu46  1  0.50887100  0.23408900  0.77241300  1
  Cu  Cu47  1  0.00887100  0.26591100  0.72758700  1
  Cu  Cu48  1  0.50887100  0.26591100  0.27241300  1
  Cu  Cu49  1  0.00887100  0.23408900  0.22758700  1
  Cu  Cu50  1  0.49112900  0.76591100  0.22758700  1
  Cu  Cu51  1  0.99112900  0.73408900  0.27241300  1
  Cu  Cu52  1  0.25000000  0.00000000  0.34909800  1
  Cu  Cu53  1  0.75000000  0.50000000  0.15090200  1
  Cu  Cu54  1  0.75000000  0.00000000  0.65090200  1
  Cu  Cu55  1  0.25000000  0.50000000  0.84909800  1
  Cu  Cu56  1  0.34575800  0.09286800  0.45896300  1
  Cu  Cu57  1  0.84575800  0.40713200  0.04103700  1
  Cu  Cu58  1  0.65424200  0.59286800  0.04103700  1
  Cu  Cu59  1  0.15424200  0.90713200  0.45896300  1
  Cu  Cu60  1  0.65424200  0.90713200  0.54103700  1
  Cu  Cu61  1  0.15424200  0.59286800  0.95896300  1
  Cu  Cu62  1  0.34575800  0.40713200  0.95896300  1
  Cu  Cu63  1  0.84575800  0.09286800  0.54103700  1
