# generated using pymatgen
data_Cu4NiC
_symmetry_space_group_name_H-M   'P 1'
_cell_length_a   4.77235800
_cell_length_b   4.77389705
_cell_length_c   6.62151010
_cell_angle_alpha   90.14864913
_cell_angle_beta   90.11431265
_cell_angle_gamma   113.49731706
_symmetry_Int_Tables_number   1
_chemical_formula_structural   Cu4NiC
_chemical_formula_sum   'Cu8 Ni2 C2'
_cell_volume   138.34577685
_cell_formula_units_Z   2
loop_
 _symmetry_equiv_pos_site_id
 _symmetry_equiv_pos_as_xyz
  1  'x, y, z'
loop_
 _atom_site_type_symbol
 _atom_site_label
 _atom_site_symmetry_multiplicity
 _atom_site_fract_x
 _atom_site_fract_y
 _atom_site_fract_z
 _atom_site_occupancy
  C  C0  1  0.00000000  0.00000000  0.00000000  1
  C  C1  1  0.00000000  0.00000000  0.50000000  1
  Ni  Ni2  1  0.34878400  0.65115900  0.24985000  1
  Ni  Ni3  1  0.65121600  0.34884100  0.75015000  1
  Cu  Cu4  1  0.69422400  0.77509100  0.25042900  1
  Cu  Cu5  1  0.22482500  0.30581800  0.24931800  1
  Cu  Cu6  1  0.30577600  0.22490800  0.74957100  1
  Cu  Cu7  1  0.77517500  0.69418200  0.75068200  1
  Cu  Cu8  1  0.75122100  0.24860500  0.93653000  1
  Cu  Cu9  1  0.24877900  0.75139500  0.06347000  1
  Cu  Cu10  1  0.75154400  0.24877800  0.56371600  1
  Cu  Cu11  1  0.24845600  0.75122200  0.43628400  1
