# generated using pymatgen
data_Cu5Ni3C8
_symmetry_space_group_name_H-M   'P 1'
_cell_length_a   8.14847600
_cell_length_b   9.94273400
_cell_length_c   14.73360800
_cell_angle_alpha   90.00000000
_cell_angle_beta   90.00000000
_cell_angle_gamma   90.00000000
_symmetry_Int_Tables_number   1
_chemical_formula_structural   Cu5Ni3C8
_chemical_formula_sum   'Cu40 Ni24 C64'
_cell_volume   1193.68935908
_cell_formula_units_Z   8
loop_
 _symmetry_equiv_pos_site_id
 _symmetry_equiv_pos_as_xyz
  1  'x, y, z'
loop_
 _atom_site_type_symbol
 _atom_site_label
 _atom_site_symmetry_multiplicity
 _atom_site_fract_x
 _atom_site_fract_y
 _atom_site_fract_z
 _atom_site_occupancy
  C  C0  1  0.70808700  0.67070700  0.63313300  1
  C  C1  1  0.20808700  0.32929300  0.36686700  1
  C  C2  1  0.20808700  0.17070700  0.86686700  1
  C  C3  1  0.70808700  0.82929300  0.13313300  1
  Ni  Ni4  1  0.35468200  0.66769900  0.70251300  1
  Ni  Ni5  1  0.85468200  0.33230100  0.29748700  1
  Ni  Ni6  1  0.85468200  0.16769900  0.79748700  1
  Ni  Ni7  1  0.35468200  0.83230100  0.20251300  1
  Ni  Ni8  1  0.29238000  0.89888900  0.75809100  1
  Ni  Ni9  1  0.79238000  0.10111100  0.24190900  1
  Ni  Ni10  1  0.79238000  0.39888900  0.74190900  1
  Ni  Ni11  1  0.29238000  0.60111100  0.25809100  1
  Ni  Ni12  1  0.56063900  0.80032500  0.80675000  1
  Ni  Ni13  1  0.06063900  0.19967500  0.19325000  1
  Ni  Ni14  1  0.06063900  0.30032500  0.69325000  1
  Ni  Ni15  1  0.56063900  0.69967500  0.30675000  1
  Ni  Ni16  1  0.66096400  0.67027500  0.93765600  1
  Ni  Ni17  1  0.16096400  0.32972500  0.06234400  1
  Ni  Ni18  1  0.16096400  0.17027500  0.56234400  1
  Ni  Ni19  1  0.66096400  0.82972500  0.43765600  1
  Ni  Ni20  1  0.29663500  0.43562700  0.75825100  1
  Ni  Ni21  1  0.79663500  0.56437300  0.24174900  1
  Ni  Ni22  1  0.79663500  0.93562700  0.74174900  1
  Ni  Ni23  1  0.29663500  0.06437300  0.25825100  1
  Ni  Ni24  1  0.55916600  0.53519100  0.80844000  1
  Ni  Ni25  1  0.05916600  0.46480900  0.19156000  1
  Ni  Ni26  1  0.05916600  0.03519100  0.69156000  1
  Ni  Ni27  1  0.55916600  0.96480900  0.30844000  1
  Cu  Cu28  1  0.40199700  0.74244500  0.57457000  1
  Cu  Cu29  1  0.90199700  0.25755500  0.42543000  1
  Cu  Cu30  1  0.90199700  0.24244500  0.92543000  1
  Cu  Cu31  1  0.40199700  0.75755500  0.07457000  1
  Cu  Cu32  1  0.83588600  0.47925400  0.52292700  1
  Cu  Cu33  1  0.33588600  0.52074600  0.47707300  1
  Cu  Cu34  1  0.33588600  0.97925400  0.97707300  1
  Cu  Cu35  1  0.83588600  0.02074600  0.02292700  1
  Cu  Cu36  1  0.65888000  0.43342700  0.55098400  1
  Cu  Cu37  1  0.15888000  0.56657300  0.44901600  1
  Cu  Cu38  1  0.15888000  0.93342700  0.94901600  1
  Cu  Cu39  1  0.65888000  0.06657300  0.05098400  1
  Cu  Cu40  1  0.02890600  0.73509600  0.65977400  1
  Cu  Cu41  1  0.52890600  0.26490400  0.34022600  1
  Cu  Cu42  1  0.52890600  0.23509600  0.84022600  1
  Cu  Cu43  1  0.02890600  0.76490400  0.15977400  1
  Cu  Cu44  1  0.00263900  0.57694300  0.65919800  1
  Cu  Cu45  1  0.50263900  0.42305700  0.34080200  1
  Cu  Cu46  1  0.50263900  0.07694300  0.84080200  1
  Cu  Cu47  1  0.00263900  0.92305700  0.15919800  1
  Cu  Cu48  1  0.03490900  0.78619900  0.84919900  1
  Cu  Cu49  1  0.53490900  0.21380100  0.15080100  1
  Cu  Cu50  1  0.53490900  0.28619900  0.65080100  1
  Cu  Cu51  1  0.03490900  0.71380100  0.34919900  1
  Cu  Cu52  1  0.94589700  0.78156000  0.94418000  1
  Cu  Cu53  1  0.44589700  0.21844000  0.05582000  1
  Cu  Cu54  1  0.44589700  0.28156000  0.55582000  1
  Cu  Cu55  1  0.94589700  0.71844000  0.44418000  1
  Cu  Cu56  1  0.73584300  0.41394400  0.95276300  1
  Cu  Cu57  1  0.23584300  0.58605600  0.04723700  1
  Cu  Cu58  1  0.23584300  0.91394400  0.54723700  1
  Cu  Cu59  1  0.73584300  0.08605600  0.45276300  1
  Cu  Cu60  1  0.71800100  0.31171300  0.03256900  1
  Cu  Cu61  1  0.21800100  0.68828700  0.96743100  1
  Cu  Cu62  1  0.21800100  0.81171300  0.46743100  1
  Cu  Cu63  1  0.71800100  0.18828700  0.53256900  1
  Cu  Cu64  1  0.78013500  0.58969000  0.04476800  1
  Cu  Cu65  1  0.28013500  0.41031000  0.95523200  1
  Cu  Cu66  1  0.28013500  0.08969000  0.45523200  1
  Cu  Cu67  1  0.78013500  0.91031000  0.54476800  1
  C  C68  1  0.47942400  0.66732000  0.78156500  1
  C  C69  1  0.97942400  0.33268000  0.21843500  1
  C  C70  1  0.97942400  0.16732000  0.71843500  1
  C  C71  1  0.47942400  0.83268000  0.28156500  1
  C  C72  1  0.24439500  0.78350700  0.71406400  1
  C  C73  1  0.74439500  0.21649300  0.28593600  1
  C  C74  1  0.74439500  0.28350700  0.78593600  1
  C  C75  1  0.24439500  0.71649300  0.21406400  1
  C  C76  1  0.43995200  0.90728200  0.80202800  1
  C  C77  1  0.93995200  0.09271800  0.19797200  1
  C  C78  1  0.93995200  0.40728200  0.69797200  1
  C  C79  1  0.43995200  0.59271800  0.30202800  1
  C  C80  1  0.45460400  0.68006800  0.61912400  1
  C  C81  1  0.95460400  0.31993200  0.38087600  1
  C  C82  1  0.95460400  0.18006800  0.88087600  1
  C  C83  1  0.45460400  0.81993200  0.11912400  1
  C  C84  1  0.25967200  0.54444500  0.70602700  1
  C  C85  1  0.75967200  0.45555500  0.29397300  1
  C  C86  1  0.75967200  0.04444500  0.79397300  1
  C  C87  1  0.25967200  0.95555500  0.20602700  1
  C  C88  1  0.43583700  0.43060900  0.81102700  1
  C  C89  1  0.93583700  0.56939100  0.18897300  1
  C  C90  1  0.93583700  0.93060900  0.68897300  1
  C  C91  1  0.43583700  0.06939100  0.31102700  1
  C  C92  1  0.63635800  0.54770900  0.89800900  1
  C  C93  1  0.13635800  0.45229100  0.10199100  1
  C  C94  1  0.13635800  0.04770900  0.60199100  1
  C  C95  1  0.63635800  0.95229100  0.39800900  1
  C  C96  1  0.69553900  0.82238400  0.73861900  1
  C  C97  1  0.19553900  0.17761600  0.26138100  1
  C  C98  1  0.19553900  0.32238400  0.76138100  1
  C  C99  1  0.69553900  0.67761600  0.23861900  1
  C  C100  1  0.62704800  0.78930400  0.89759500  1
  C  C101  1  0.12704800  0.21069600  0.10240500  1
  C  C102  1  0.12704800  0.28930400  0.60240500  1
  C  C103  1  0.62704800  0.71069600  0.39759500  1
  C  C104  1  0.73788100  0.67676700  0.02368500  1
  C  C105  1  0.23788100  0.32323300  0.97631500  1
  C  C106  1  0.23788100  0.17676700  0.47631500  1
  C  C107  1  0.73788100  0.82323300  0.52368500  1
  C  C108  1  0.68873500  0.51026800  0.73821500  1
  C  C109  1  0.18873500  0.48973200  0.26178500  1
  C  C110  1  0.18873500  0.01026800  0.76178500  1
  C  C111  1  0.68873500  0.98973200  0.23821500  1
  C  C112  1  0.72821000  0.51352700  0.53979500  1
  C  C113  1  0.22821000  0.48647300  0.46020500  1
  C  C114  1  0.22821000  0.01352700  0.96020500  1
  C  C115  1  0.72821000  0.98647300  0.03979500  1
  C  C116  1  0.95933800  0.66286200  0.63527900  1
  C  C117  1  0.45933800  0.33713800  0.36472100  1
  C  C118  1  0.45933800  0.16286200  0.86472100  1
  C  C119  1  0.95933800  0.83713800  0.13527900  1
  C  C120  1  0.05299500  0.78950800  0.91466100  1
  C  C121  1  0.55299500  0.21049200  0.08533900  1
  C  C122  1  0.55299500  0.28950800  0.58533900  1
  C  C123  1  0.05299500  0.71049200  0.41466100  1
  C  C124  1  0.80106800  0.35854200  0.99574000  1
  C  C125  1  0.30106800  0.64145800  0.00426000  1
  C  C126  1  0.30106800  0.85854200  0.50426000  1
  C  C127  1  0.80106800  0.14145800  0.49574000  1
