# generated using pymatgen
data_Cu13Ni3C
_symmetry_space_group_name_H-M   'P 1'
_cell_length_a   8.54918100
_cell_length_b   8.84741800
_cell_length_c   12.96107536
_cell_angle_alpha   85.30554520
_cell_angle_beta   90.00000000
_cell_angle_gamma   90.00000000
_symmetry_Int_Tables_number   1
_chemical_formula_structural   Cu13Ni3C
_chemical_formula_sum   'Cu52 Ni12 C4'
_cell_volume   977.06334819
_cell_formula_units_Z   4
loop_
 _symmetry_equiv_pos_site_id
 _symmetry_equiv_pos_as_xyz
  1  'x, y, z'
loop_
 _atom_site_type_symbol
 _atom_site_label
 _atom_site_symmetry_multiplicity
 _atom_site_fract_x
 _atom_site_fract_y
 _atom_site_fract_z
 _atom_site_occupancy
  C  C0  1  0.50000000  0.00000000  0.00000000  1
  C  C1  1  0.00000000  0.00000000  0.50000000  1
  C  C2  1  0.50000000  0.50000000  0.50000000  1
  C  C3  1  0.00000000  0.50000000  0.00000000  1
  Ni  Ni4  1  0.87588300  0.79947200  0.68241200  1
  Ni  Ni5  1  0.12411700  0.20052800  0.31758800  1
  Ni  Ni6  1  0.37588300  0.20052800  0.81758800  1
  Ni  Ni7  1  0.62411700  0.79947200  0.18241200  1
  Ni  Ni8  1  0.32484400  0.96150500  0.58769500  1
  Ni  Ni9  1  0.67515600  0.03849500  0.41230500  1
  Ni  Ni10  1  0.82484400  0.03849500  0.91230500  1
  Ni  Ni11  1  0.17515600  0.96150500  0.08769500  1
  Ni  Ni12  1  0.44821300  0.71199700  0.89164700  1
  Ni  Ni13  1  0.55178700  0.28800300  0.10835300  1
  Ni  Ni14  1  0.94821300  0.28800300  0.60835300  1
  Ni  Ni15  1  0.05178700  0.71199700  0.39164700  1
  Cu  Cu16  1  0.78666900  0.85911500  0.61127800  1
  Cu  Cu17  1  0.21333100  0.14088500  0.38872200  1
  Cu  Cu18  1  0.28666900  0.14088500  0.88872200  1
  Cu  Cu19  1  0.71333100  0.85911500  0.11127800  1
  Cu  Cu20  1  0.81981400  0.71094300  0.75263300  1
  Cu  Cu21  1  0.18018600  0.28905700  0.24736700  1
  Cu  Cu22  1  0.31981400  0.28905700  0.74736700  1
  Cu  Cu23  1  0.68018600  0.71094300  0.25263300  1
  Cu  Cu24  1  0.29442000  0.50304300  0.55875500  1
  Cu  Cu25  1  0.70558000  0.49695700  0.44124500  1
  Cu  Cu26  1  0.79442000  0.49695700  0.94124500  1
  Cu  Cu27  1  0.20558000  0.50304300  0.05875500  1
  Cu  Cu28  1  0.51275100  0.71008900  0.98036300  1
  Cu  Cu29  1  0.48724900  0.28991100  0.01963700  1
  Cu  Cu30  1  0.01275100  0.28991100  0.51963700  1
  Cu  Cu31  1  0.98724900  0.71008900  0.48036300  1
  Cu  Cu32  1  0.00366400  0.66908600  0.87600200  1
  Cu  Cu33  1  0.99633600  0.33091400  0.12399800  1
  Cu  Cu34  1  0.50366400  0.33091400  0.62399800  1
  Cu  Cu35  1  0.49633600  0.66908600  0.37600200  1
  Cu  Cu36  1  0.45759100  0.94976300  0.62281800  1
  Cu  Cu37  1  0.54240900  0.05023700  0.37718200  1
  Cu  Cu38  1  0.95759100  0.05023700  0.87718200  1
  Cu  Cu39  1  0.04240900  0.94976300  0.12281800  1
  Cu  Cu40  1  0.42576200  0.58958000  0.85214700  1
  Cu  Cu41  1  0.57423800  0.41042000  0.14785300  1
  Cu  Cu42  1  0.92576200  0.41042000  0.64785300  1
  Cu  Cu43  1  0.07423800  0.58958000  0.35214700  1
  Cu  Cu44  1  0.02726000  0.43557100  0.85784300  1
  Cu  Cu45  1  0.97274000  0.56442900  0.14215700  1
  Cu  Cu46  1  0.52726000  0.56442900  0.64215700  1
  Cu  Cu47  1  0.47274000  0.43557100  0.35784300  1
  Cu  Cu48  1  0.40906200  0.83980500  0.84758800  1
  Cu  Cu49  1  0.59093800  0.16019500  0.15241200  1
  Cu  Cu50  1  0.90906200  0.16019500  0.65241200  1
  Cu  Cu51  1  0.09093800  0.83980500  0.34758800  1
  Cu  Cu52  1  0.27496300  0.59728000  0.70280300  1
  Cu  Cu53  1  0.72503700  0.40272000  0.29719700  1
  Cu  Cu54  1  0.77496300  0.40272000  0.79719700  1
  Cu  Cu55  1  0.22503700  0.59728000  0.20280300  1
  Cu  Cu56  1  0.73258400  0.92937500  0.89207300  1
  Cu  Cu57  1  0.26741600  0.07062500  0.10792700  1
  Cu  Cu58  1  0.23258400  0.07062500  0.60792700  1
  Cu  Cu59  1  0.76741600  0.92937500  0.39207300  1
  Cu  Cu60  1  0.01977500  0.83498800  0.67742500  1
  Cu  Cu61  1  0.98022500  0.16501200  0.32257500  1
  Cu  Cu62  1  0.51977500  0.16501200  0.82257500  1
  Cu  Cu63  1  0.48022500  0.83498800  0.17742500  1
  Cu  Cu64  1  0.26680600  0.86626500  0.52783800  1
  Cu  Cu65  1  0.73319400  0.13373500  0.47216200  1
  Cu  Cu66  1  0.76680600  0.13373500  0.97216200  1
  Cu  Cu67  1  0.23319400  0.86626500  0.02783800  1
