# generated using pymatgen
data_Cu2Ni2C3
_symmetry_space_group_name_H-M   'P 1'
_cell_length_a   8.00789520
_cell_length_b   8.00789520
_cell_length_c   8.00789520
_cell_angle_alpha   60.00000000
_cell_angle_beta   60.00000000
_cell_angle_gamma   60.00000000
_symmetry_Int_Tables_number   1
_chemical_formula_structural   Cu2Ni2C3
_chemical_formula_sum   'Cu4 Ni4 C6'
_cell_volume   363.11161826
_cell_formula_units_Z   2
loop_
 _symmetry_equiv_pos_site_id
 _symmetry_equiv_pos_as_xyz
  1  'x, y, z'
loop_
 _atom_site_type_symbol
 _atom_site_label
 _atom_site_symmetry_multiplicity
 _atom_site_fract_x
 _atom_site_fract_y
 _atom_site_fract_z
 _atom_site_occupancy
  C  C0  1  0.00000000  0.00000000  0.00000000  1
  C  C1  1  0.25000000  0.25000000  0.25000000  1
  C  C2  1  0.11512000  0.62829300  0.62829300  1
  C  C3  1  0.62829300  0.11512000  0.62829300  1
  C  C4  1  0.62829300  0.62829300  0.11512000  1
  C  C5  1  0.62829300  0.62829300  0.62829300  1
  Ni  Ni6  1  0.84720600  0.38426500  0.38426500  1
  Ni  Ni7  1  0.38426500  0.84720600  0.38426500  1
  Ni  Ni8  1  0.38426500  0.38426500  0.84720600  1
  Ni  Ni9  1  0.38426500  0.38426500  0.38426500  1
  Cu  Cu10  1  0.40570300  0.86476600  0.86476600  1
  Cu  Cu11  1  0.86476600  0.40570300  0.86476600  1
  Cu  Cu12  1  0.86476600  0.86476600  0.40570300  1
  Cu  Cu13  1  0.86476600  0.86476600  0.86476600  1
