# generated using pymatgen
data_Cu2Ni
_symmetry_space_group_name_H-M   'P 1'
_cell_length_a   2.74570500
_cell_length_b   7.75645600
_cell_length_c   9.32496354
_cell_angle_alpha   83.04178506
_cell_angle_beta   90.00000000
_cell_angle_gamma   90.00000000
_symmetry_Int_Tables_number   1
_chemical_formula_structural   Cu2Ni
_chemical_formula_sum   'Cu8 Ni4'
_cell_volume   197.13050387
_cell_formula_units_Z   4
loop_
 _symmetry_equiv_pos_site_id
 _symmetry_equiv_pos_as_xyz
  1  'x, y, z'
loop_
 _atom_site_type_symbol
 _atom_site_label
 _atom_site_symmetry_multiplicity
 _atom_site_fract_x
 _atom_site_fract_y
 _atom_site_fract_z
 _atom_site_occupancy
  Ni  Ni0  1  0.50000000  0.39464100  0.85586400  1
  Ni  Ni1  1  0.50000000  0.10891400  0.35649100  1
  Ni  Ni2  1  0.50000000  0.60535900  0.14413600  1
  Ni  Ni3  1  0.50000000  0.89108600  0.64350900  1
  Cu  Cu4  1  0.00000000  0.06625100  0.87025800  1
  Cu  Cu5  1  0.00000000  0.77581600  0.38958700  1
  Cu  Cu6  1  0.00000000  0.26753800  0.11108200  1
  Cu  Cu7  1  0.00000000  0.56345800  0.62081900  1
  Cu  Cu8  1  0.00000000  0.93374900  0.12974200  1
  Cu  Cu9  1  0.00000000  0.22418400  0.61041300  1
  Cu  Cu10  1  0.00000000  0.73246200  0.88891800  1
  Cu  Cu11  1  0.00000000  0.43654200  0.37918100  1
