# generated using pymatgen
data_Cu(NiC)3
_symmetry_space_group_name_H-M   'P 1'
_cell_length_a   4.49630700
_cell_length_b   12.09990900
_cell_length_c   12.63116700
_cell_angle_alpha   90.00000000
_cell_angle_beta   90.00000000
_cell_angle_gamma   90.00000000
_symmetry_Int_Tables_number   1
_chemical_formula_structural   Cu(NiC)3
_chemical_formula_sum   'Cu4 Ni12 C12'
_cell_volume   687.19744745
_cell_formula_units_Z   4
loop_
 _symmetry_equiv_pos_site_id
 _symmetry_equiv_pos_as_xyz
  1  'x, y, z'
loop_
 _atom_site_type_symbol
 _atom_site_label
 _atom_site_symmetry_multiplicity
 _atom_site_fract_x
 _atom_site_fract_y
 _atom_site_fract_z
 _atom_site_occupancy
  Ni  Ni0  1  0.25000000  0.06261700  0.62208000  1
  Ni  Ni1  1  0.25000000  0.56261700  0.87792000  1
  Ni  Ni2  1  0.75000000  0.93738300  0.37792000  1
  Ni  Ni3  1  0.75000000  0.43738300  0.12208000  1
  Ni  Ni4  1  0.25000000  0.20541400  0.29863300  1
  Ni  Ni5  1  0.25000000  0.70541400  0.20136700  1
  Ni  Ni6  1  0.75000000  0.79458600  0.70136700  1
  Ni  Ni7  1  0.75000000  0.29458600  0.79863300  1
  Ni  Ni8  1  0.25000000  0.36863700  0.56080500  1
  Ni  Ni9  1  0.25000000  0.86863700  0.93919500  1
  Ni  Ni10  1  0.75000000  0.63136300  0.43919500  1
  Ni  Ni11  1  0.75000000  0.13136300  0.06080500  1
  Cu  Cu12  1  0.25000000  0.13520600  0.85880800  1
  Cu  Cu13  1  0.25000000  0.63520600  0.64119200  1
  Cu  Cu14  1  0.75000000  0.86479400  0.14119200  1
  Cu  Cu15  1  0.75000000  0.36479400  0.35880800  1
  C  C16  1  0.25000000  0.31314300  0.98657400  1
  C  C17  1  0.25000000  0.81314300  0.51342600  1
  C  C18  1  0.75000000  0.68685700  0.01342600  1
  C  C19  1  0.75000000  0.18685700  0.48657400  1
  C  C20  1  0.25000000  0.47468400  0.32464900  1
  C  C21  1  0.25000000  0.97468400  0.17535100  1
  C  C22  1  0.75000000  0.52531600  0.67535100  1
  C  C23  1  0.75000000  0.02531600  0.82464900  1
  C  C24  1  0.25000000  0.23834900  0.72662400  1
  C  C25  1  0.25000000  0.73834900  0.77337600  1
  C  C26  1  0.75000000  0.76165100  0.27337600  1
  C  C27  1  0.75000000  0.26165100  0.22662400  1
