# generated using pymatgen
data_Cu3(NiC2)2
_symmetry_space_group_name_H-M   'P 1'
_cell_length_a   7.00501487
_cell_length_b   7.00501487
_cell_length_c   9.58238927
_cell_angle_alpha   47.05336706
_cell_angle_beta   47.05336706
_cell_angle_gamma   27.78606345
_symmetry_Int_Tables_number   1
_chemical_formula_structural   Cu3(NiC2)2
_chemical_formula_sum   'Cu3 Ni2 C4'
_cell_volume   156.14075830
_cell_formula_units_Z   1
loop_
 _symmetry_equiv_pos_site_id
 _symmetry_equiv_pos_as_xyz
  1  'x, y, z'
loop_
 _atom_site_type_symbol
 _atom_site_label
 _atom_site_symmetry_multiplicity
 _atom_site_fract_x
 _atom_site_fract_y
 _atom_site_fract_z
 _atom_site_occupancy
  Ni  Ni0  1  0.99846400  0.99846400  0.00252300  1
  Ni  Ni1  1  0.63304500  0.63304500  0.66976400  1
  C  C2  1  0.71367800  0.71367800  0.34114000  1
  C  C3  1  0.27995400  0.27995400  0.66605300  1
  C  C4  1  0.05413500  0.05413500  0.23323500  1
  C  C5  1  0.94570500  0.94570500  0.77206300  1
  Cu  Cu6  1  0.37337700  0.37337700  0.31905200  1
  Cu  Cu7  1  0.30523100  0.30523100  0.06307500  1
  Cu  Cu8  1  0.69641000  0.69641000  0.93309600  1
