# generated using pymatgen
data_Cu4Ni4C23
_symmetry_space_group_name_H-M   'P 1'
_cell_length_a   6.68892329
_cell_length_b   6.68540187
_cell_length_c   9.20490475
_cell_angle_alpha   94.99052276
_cell_angle_beta   104.44456722
_cell_angle_gamma   75.24507263
_symmetry_Int_Tables_number   1
_chemical_formula_structural   Cu4Ni4C23
_chemical_formula_sum   'Cu4 Ni4 C23'
_cell_volume   385.34879120
_cell_formula_units_Z   1
loop_
 _symmetry_equiv_pos_site_id
 _symmetry_equiv_pos_as_xyz
  1  'x, y, z'
loop_
 _atom_site_type_symbol
 _atom_site_label
 _atom_site_symmetry_multiplicity
 _atom_site_fract_x
 _atom_site_fract_y
 _atom_site_fract_z
 _atom_site_occupancy
  C  C0  1  0.64572400  0.13013700  0.30966900  1
  C  C1  1  0.35451400  0.87067800  0.69172400  1
  C  C2  1  0.82643200  0.21090900  0.02119200  1
  C  C3  1  0.17290400  0.79002200  0.97789200  1
  Ni  Ni4  1  0.80385800  0.00940600  0.68350000  1
  Ni  Ni5  1  0.19575800  0.99053700  0.31676900  1
  Ni  Ni6  1  0.70752300  0.75321900  0.05706600  1
  Ni  Ni7  1  0.29224100  0.24790900  0.94279100  1
  Cu  Cu8  1  0.72371900  0.50241800  0.37869100  1
  Cu  Cu9  1  0.28927000  0.50045800  0.59526500  1
  Cu  Cu10  1  0.47689600  0.55751100  0.29153400  1
  Cu  Cu11  1  0.52192200  0.43853500  0.70951200  1
  C  C12  1  0.45742100  0.79500300  0.93297300  1
  C  C13  1  0.54245300  0.20647300  0.06759300  1
  C  C14  1  0.85850500  0.88276800  0.98732300  1
  C  C15  1  0.14115800  0.11866300  0.01308700  1
  C  C16  1  0.74185400  0.22375300  0.79958500  1
  C  C17  1  0.25691400  0.77738700  0.20003400  1
  C  C18  1  0.59492100  0.44804300  0.34519600  1
  C  C19  1  0.40612200  0.55373100  0.66087800  1
  C  C20  1  0.63847800  0.84672000  0.66271700  1
  C  C21  1  0.36045800  0.15454600  0.33867000  1
  C  C22  1  0.82001200  0.49684300  0.06037400  1
  C  C23  1  0.17974900  0.50418800  0.94144700  1
  C  C24  1  0.79720300  0.10084100  0.51586600  1
  C  C25  1  0.20334300  0.89534800  0.48364100  1
  C  C26  1  0.06457000  0.86456900  0.75359800  1
  C  C27  1  0.93504700  0.13714700  0.24735000  1
  C  C28  1  0.69260200  0.83719900  0.23536500  1
  C  C29  1  0.30699400  0.16350400  0.76480200  1
  C  C30  1  0.00843600  0.51553400  0.46689400  1
