# generated using pymatgen
data_Cu2Ni6C31
_symmetry_space_group_name_H-M   'P 1'
_cell_length_a   10.78228937
_cell_length_b   15.09429576
_cell_length_c   10.67851166
_cell_angle_alpha   89.87478611
_cell_angle_beta   90.33652356
_cell_angle_gamma   90.07437334
_symmetry_Int_Tables_number   1
_chemical_formula_structural   Cu2Ni6C31
_chemical_formula_sum   'Cu8 Ni24 C124'
_cell_volume   1737.90358147
_cell_formula_units_Z   4
loop_
 _symmetry_equiv_pos_site_id
 _symmetry_equiv_pos_as_xyz
  1  'x, y, z'
loop_
 _atom_site_type_symbol
 _atom_site_label
 _atom_site_symmetry_multiplicity
 _atom_site_fract_x
 _atom_site_fract_y
 _atom_site_fract_z
 _atom_site_occupancy
  C  C0  1  0.02090232  0.12278142  0.49687309  1
  C  C1  1  0.01844026  0.12092392  0.99687698  1
  C  C2  1  0.02235189  0.62447967  0.49541766  1
  C  C3  1  0.02541411  0.62360633  0.99639896  1
  C  C4  1  0.51359860  0.13108345  0.50229233  1
  C  C5  1  0.52570635  0.12487487  0.97916651  1
  C  C6  1  0.52407080  0.62412710  0.49931425  1
  C  C7  1  0.51622515  0.62193057  0.99472999  1
  C  C8  1  0.48636067  0.37537251  0.99821987  1
  C  C9  1  0.47723673  0.38050971  0.51020819  1
  C  C10  1  0.48407094  0.87197538  0.99092057  1
  C  C11  1  0.47952549  0.87129068  0.51208724  1
  C  C12  1  0.97532527  0.38070481  0.00392199  1
  C  C13  1  0.98144863  0.37469177  0.50110935  1
  C  C14  1  0.97902415  0.87638165  0.00827927  1
  C  C15  1  0.97551207  0.87656425  0.50363875  1
  C  C16  1  0.23340094  0.38276095  0.25260138  1
  C  C17  1  0.22865902  0.37351271  0.73610535  1
  C  C18  1  0.22812058  0.87814619  0.24562051  1
  C  C19  1  0.23468700  0.87659550  0.75122181  1
  C  C20  1  0.73596767  0.38030998  0.24655550  1
  C  C21  1  0.72808247  0.37593970  0.74783740  1
  C  C22  1  0.73835517  0.86802230  0.24441063  1
  C  C23  1  0.72354960  0.87475010  0.74490781  1
  C  C24  1  0.24405479  0.12274417  0.26043086  1
  C  C25  1  0.27244969  0.12317977  0.73425169  1
  C  C26  1  0.27219715  0.62509225  0.25166365  1
  C  C27  1  0.26858910  0.62222427  0.75764079  1
  C  C28  1  0.77303691  0.12206041  0.25651779  1
  C  C29  1  0.76775173  0.12347395  0.75555968  1
  C  C30  1  0.77423349  0.62372821  0.25526327  1
  C  C31  1  0.77367317  0.62474062  0.75445882  1
  Ni  Ni32  1  -0.00010360  0.00143524  0.25085652  1
  Ni  Ni33  1  0.99762875  0.99909203  0.75194329  1
  Ni  Ni34  1  0.00243177  0.49909655  0.24750796  1
  Ni  Ni35  1  0.00328432  0.49893039  0.75085470  1
  Ni  Ni36  1  0.49922219  0.50125329  0.25078903  1
  Ni  Ni37  1  0.49862270  0.49993741  0.75254066  1
  Ni  Ni38  1  0.25468238  0.00716220  0.00304541  1
  Ni  Ni39  1  0.25123238  0.49999524  0.49986188  1
  Ni  Ni40  1  0.74914325  0.99854002  0.99598964  1
  Ni  Ni41  1  0.74246314  0.00085371  0.50151249  1
  Ni  Ni42  1  0.74885550  0.50107667  0.00063893  1
  Ni  Ni43  1  0.75206584  0.49946668  0.50079552  1
  Ni  Ni44  1  0.25060096  0.74942843  0.00399819  1
  Ni  Ni45  1  0.25076095  0.75173379  0.49927296  1
  Ni  Ni46  1  0.75279262  0.24776375  0.00137127  1
  Ni  Ni47  1  0.75189648  0.24906798  0.50243611  1
  Ni  Ni48  1  0.75004066  0.74877659  0.99915146  1
  Ni  Ni49  1  0.75060379  0.74969599  0.50030372  1
  Ni  Ni50  1  0.99903934  0.24897712  0.74386318  1
  Ni  Ni51  1  0.00181334  0.74954643  0.25010287  1
  Ni  Ni52  1  0.00161234  0.75076436  0.75049031  1
  Ni  Ni53  1  0.50062851  0.24879717  0.74362507  1
  Ni  Ni54  1  0.50110536  0.74923144  0.25217144  1
  Ni  Ni55  1  0.49861213  0.74959659  0.75073166  1
  Cu  Cu56  1  0.51466356  0.98172065  0.23401484  1
  Cu  Cu57  1  0.49701569  0.99950112  0.74482992  1
  Cu  Cu58  1  0.23352828  0.99576613  0.51445193  1
  Cu  Cu59  1  0.25049370  0.49596857  0.00385880  1
  Cu  Cu60  1  0.25494914  0.24564083  0.96225273  1
  Cu  Cu61  1  0.24713081  0.24701696  0.48965147  1
  Cu  Cu62  1  0.98730270  0.24961457  0.27016684  1
  Cu  Cu63  1  0.52075354  0.26211036  0.26816441  1
  C  C64  1  0.10513387  0.26375078  0.60180739  1
  C  C65  1  0.10585269  0.77082722  0.10426034  1
  C  C66  1  0.10466116  0.77306355  0.60264503  1
  C  C67  1  0.57695191  0.25196208  0.11155974  1
  C  C68  1  0.60263005  0.27030188  0.59846939  1
  C  C69  1  0.60678473  0.77248343  0.10515845  1
  C  C70  1  0.60493371  0.76694340  0.60389640  1
  C  C71  1  0.39420926  0.21706527  0.34913119  1
  C  C72  1  0.39858627  0.23366331  0.88641395  1
  C  C73  1  0.39686402  0.72769252  0.39769318  1
  C  C74  1  0.39703584  0.73299199  0.89872811  1
  C  C75  1  0.89458127  0.23035467  0.40613901  1
  C  C76  1  0.89839225  0.23139116  0.90269324  1
  C  C77  1  0.89637128  0.73088567  0.39657925  1
  C  C78  1  0.89631189  0.72764288  0.89608490  1
  C  C79  1  0.14148360  0.24052481  0.34685818  1
  C  C80  1  0.14015799  0.22849616  0.84710627  1
  C  C81  1  0.14739791  0.73026922  0.35258427  1
  C  C82  1  0.14874500  0.73263611  0.85350599  1
  C  C83  1  0.65371596  0.23064576  0.35551055  1
  C  C84  1  0.64805114  0.23025779  0.85443498  1
  C  C85  1  0.64779784  0.72748951  0.35360545  1
  C  C86  1  0.64503115  0.72966430  0.85362405  1
  C  C87  1  0.35974341  0.26361122  0.63206160  1
  C  C88  1  0.35575544  0.77276955  0.14829786  1
  C  C89  1  0.35312024  0.77017271  0.64686458  1
  C  C90  1  0.86353543  0.26924579  0.14490939  1
  C  C91  1  0.85047807  0.27081177  0.65048041  1
  C  C92  1  0.85711753  0.76800067  0.14389029  1
  C  C93  1  0.85524084  0.77240961  0.64660124  1
  C  C94  1  0.35711530  0.48451371  0.14584469  1
  C  C95  1  0.35473473  0.47956343  0.64645166  1
  C  C96  1  0.36442447  0.00491250  0.17169757  1
  C  C97  1  0.35940765  0.98650783  0.63347947  1
  C  C98  1  0.85533434  0.48172023  0.14495207  1
  C  C99  1  0.85578487  0.47910832  0.64732868  1
  C  C100  1  0.85429729  0.98042968  0.14618536  1
  C  C101  1  0.85123913  0.97718008  0.64566450  1
  C  C102  1  0.14010519  0.01307839  0.36296384  1
  C  C103  1  0.14635270  0.02785087  0.85971296  1
  C  C104  1  0.14817866  0.51830922  0.35255668  1
  C  C105  1  0.14755826  0.51056906  0.85738042  1
  C  C106  1  0.60739093  0.03323112  0.35310896  1
  C  C107  1  0.64340137  0.01614364  0.85374939  1
  C  C108  1  0.64726840  0.51988797  0.35372281  1
  C  C109  1  0.64510351  0.52061208  0.85476146  1
  C  C110  1  0.39187152  0.02114450  0.89476631  1
  C  C111  1  0.39599231  0.52201834  0.39749593  1
  C  C112  1  0.39240285  0.50919421  0.89710025  1
  C  C113  1  0.88629825  0.02299626  0.39271082  1
  C  C114  1  0.89514398  0.01970786  0.89715707  1
  C  C115  1  0.89817593  0.51714796  0.39592827  1
  C  C116  1  0.89624759  0.51794280  0.89796467  1
  C  C117  1  0.10612677  0.48520572  0.10466222  1
  C  C118  1  0.10536868  0.47844395  0.60350182  1
  C  C119  1  0.10865900  0.98470637  0.10799193  1
  C  C120  1  0.10093791  0.98182520  0.61355823  1
  C  C121  1  0.60566811  0.47802979  0.10629732  1
  C  C122  1  0.60577999  0.48228632  0.60461762  1
  C  C123  1  0.60599752  0.98161506  0.09792684  1
  C  C124  1  0.60417524  0.98122357  0.60370628  1
  C  C125  1  0.01258347  0.37266417  0.27297676  1
  C  C126  1  0.01112090  0.37337113  0.78830879  1
  C  C127  1  0.00639996  0.87514759  0.28743578  1
  C  C128  1  0.01303249  0.87598134  0.79439841  1
  C  C129  1  0.50156780  0.37762889  0.28812567  1
  C  C130  1  0.51005370  0.37451696  0.78384403  1
  C  C131  1  0.50983036  0.87238414  0.29323783  1
  C  C132  1  0.50406159  0.87508379  0.77886201  1
  C  C133  1  0.49658027  0.12478411  0.71793040  1
  C  C134  1  0.49134376  0.62580197  0.20925067  1
  C  C135  1  0.48633920  0.62445006  0.71501596  1
  C  C136  1  0.99849706  0.12966385  0.21586688  1
  C  C137  1  0.98362772  0.12407392  0.70922960  1
  C  C138  1  0.99216467  0.62512279  0.21194668  1
  C  C139  1  0.99370240  0.62500409  0.71202687  1
  C  C140  1  0.24004051  0.14655575  0.05052309  1
  C  C141  1  0.25334061  0.12066627  0.51112673  1
  C  C142  1  0.24551184  0.62601906  0.03292615  1
  C  C143  1  0.23876509  0.62528575  0.54089598  1
  C  C144  1  0.74114764  0.12392350  0.04006111  1
  C  C145  1  0.73516403  0.12482271  0.54220693  1
  C  C146  1  0.73676882  0.62474004  0.04024441  1
  C  C147  1  0.74462274  0.62501353  0.53978886  1
  C  C148  1  0.26067714  0.37318329  0.46632480  1
  C  C149  1  0.25131261  0.35725736  0.01019843  1
  C  C150  1  0.26382162  0.87910680  0.46088357  1
  C  C151  1  0.26450910  0.88226683  0.97094997  1
  C  C152  1  0.76145833  0.37476380  0.46070035  1
  C  C153  1  0.75085480  0.37399670  0.96673890  1
  C  C154  1  0.75480365  0.87637437  0.45847406  1
  C  C155  1  0.76140355  0.87391913  0.95909942  1
