# generated using pymatgen
data_Cu6NiC9
_symmetry_space_group_name_H-M   'P 1'
_cell_length_a   9.05671314
_cell_length_b   4.48618705
_cell_length_c   4.48618705
_cell_angle_alpha   90.00000000
_cell_angle_beta   90.00000000
_cell_angle_gamma   90.00000000
_symmetry_Int_Tables_number   1
_chemical_formula_structural   Cu6NiC9
_chemical_formula_sum   'Cu6 Ni1 C9'
_cell_volume   182.27426975
_cell_formula_units_Z   1
loop_
 _symmetry_equiv_pos_site_id
 _symmetry_equiv_pos_as_xyz
  1  'x, y, z'
loop_
 _atom_site_type_symbol
 _atom_site_label
 _atom_site_symmetry_multiplicity
 _atom_site_fract_x
 _atom_site_fract_y
 _atom_site_fract_z
 _atom_site_occupancy
  C  C0  1  0.00000000  0.00000000  -0.00000000  1
  Ni  Ni1  1  0.00000000  0.50000000  0.50000000  1
  Cu  Cu2  1  0.50000000  0.00000000  -0.00000000  1
  Cu  Cu3  1  0.50000000  0.50000000  0.50000000  1
  Cu  Cu4  1  0.27047185  -0.00000000  0.50000000  1
  Cu  Cu5  1  0.72952815  0.00000000  0.50000000  1
  Cu  Cu6  1  0.27047185  0.50000000  -0.00000000  1
  Cu  Cu7  1  0.72952815  0.50000000  0.00000000  1
  C  C8  1  0.27330399  0.00000000  0.00000000  1
  C  C9  1  0.72669601  -0.00000000  -0.00000000  1
  C  C10  1  0.26378718  0.50000000  0.50000000  1
  C  C11  1  0.73621282  0.50000000  0.50000000  1
  C  C12  1  0.00000000  0.00000000  0.50000000  1
  C  C13  1  0.50000000  0.00000000  0.50000000  1
  C  C14  1  0.00000000  0.50000000  -0.00000000  1
  C  C15  1  0.50000000  0.50000000  -0.00000000  1
