# generated using pymatgen
data_Cu16NiC6
_symmetry_space_group_name_H-M   'P 1'
_cell_length_a   6.89174200
_cell_length_b   12.82995200
_cell_length_c   14.97271900
_cell_angle_alpha   90.00000000
_cell_angle_beta   90.00000000
_cell_angle_gamma   90.00000000
_symmetry_Int_Tables_number   1
_chemical_formula_structural   Cu16NiC6
_chemical_formula_sum   'Cu64 Ni4 C24'
_cell_volume   1323.89858021
_cell_formula_units_Z   4
loop_
 _symmetry_equiv_pos_site_id
 _symmetry_equiv_pos_as_xyz
  1  'x, y, z'
loop_
 _atom_site_type_symbol
 _atom_site_label
 _atom_site_symmetry_multiplicity
 _atom_site_fract_x
 _atom_site_fract_y
 _atom_site_fract_z
 _atom_site_occupancy
  C  C0  1  0.23065000  0.06424300  0.05798300  1
  C  C1  1  0.26935000  0.43575700  0.55798300  1
  C  C2  1  0.76935000  0.56424300  0.94201700  1
  C  C3  1  0.73065000  0.93575700  0.44201700  1
  C  C4  1  0.76935000  0.93575700  0.94201700  1
  C  C5  1  0.73065000  0.56424300  0.44201700  1
  C  C6  1  0.23065000  0.43575700  0.05798300  1
  C  C7  1  0.26935000  0.06424300  0.55798300  1
  C  C8  1  0.39634500  0.06877000  0.28937700  1
  C  C9  1  0.10365500  0.43123000  0.78937700  1
  C  C10  1  0.60365500  0.56877000  0.71062300  1
  C  C11  1  0.89634500  0.93123000  0.21062300  1
  C  C12  1  0.60365500  0.93123000  0.71062300  1
  C  C13  1  0.89634500  0.56877000  0.21062300  1
  C  C14  1  0.39634500  0.43123000  0.28937700  1
  C  C15  1  0.10365500  0.06877000  0.78937700  1
  C  C16  1  0.67503400  0.12746900  0.07459000  1
  C  C17  1  0.82496600  0.37253100  0.57459000  1
  C  C18  1  0.32496600  0.62746900  0.92541000  1
  C  C19  1  0.17503400  0.87253100  0.42541000  1
  C  C20  1  0.32496600  0.87253100  0.92541000  1
  C  C21  1  0.17503400  0.62746900  0.42541000  1
  C  C22  1  0.67503400  0.37253100  0.07459000  1
  C  C23  1  0.82496600  0.12746900  0.57459000  1
  Ni  Ni24  1  0.39717700  0.25000000  0.39586000  1
  Ni  Ni25  1  0.10282300  0.25000000  0.89586000  1
  Ni  Ni26  1  0.60282300  0.75000000  0.60414000  1
  Ni  Ni27  1  0.89717700  0.75000000  0.10414000  1
  Cu  Cu28  1  0.93202900  0.08612200  0.48089300  1
  Cu  Cu29  1  0.56797100  0.41387800  0.98089300  1
  Cu  Cu30  1  0.06797100  0.58612200  0.51910700  1
  Cu  Cu31  1  0.43202900  0.91387800  0.01910700  1
  Cu  Cu32  1  0.06797100  0.91387800  0.51910700  1
  Cu  Cu33  1  0.43202900  0.58612200  0.01910700  1
  Cu  Cu34  1  0.93202900  0.41387800  0.48089300  1
  Cu  Cu35  1  0.56797100  0.08612200  0.98089300  1
  Cu  Cu36  1  0.67708700  0.99691900  0.29879900  1
  Cu  Cu37  1  0.82291300  0.50308100  0.79879900  1
  Cu  Cu38  1  0.32291300  0.49691900  0.70120100  1
  Cu  Cu39  1  0.17708700  0.00308100  0.20120100  1
  Cu  Cu40  1  0.32291300  0.00308100  0.70120100  1
  Cu  Cu41  1  0.17708700  0.49691900  0.20120100  1
  Cu  Cu42  1  0.67708700  0.50308100  0.29879900  1
  Cu  Cu43  1  0.82291300  0.99691900  0.79879900  1
  Cu  Cu44  1  0.02436000  0.16254100  0.28904000  1
  Cu  Cu45  1  0.47564000  0.33745900  0.78904000  1
  Cu  Cu46  1  0.97564000  0.66254100  0.71096000  1
  Cu  Cu47  1  0.52436000  0.83745900  0.21096000  1
  Cu  Cu48  1  0.97564000  0.83745900  0.71096000  1
  Cu  Cu49  1  0.52436000  0.66254100  0.21096000  1
  Cu  Cu50  1  0.02436000  0.33745900  0.28904000  1
  Cu  Cu51  1  0.47564000  0.16254100  0.78904000  1
  Cu  Cu52  1  0.93027800  0.25000000  0.27783800  1
  Cu  Cu53  1  0.56972200  0.25000000  0.77783800  1
  Cu  Cu54  1  0.06972200  0.75000000  0.72216200  1
  Cu  Cu55  1  0.43027800  0.75000000  0.22216200  1
  Cu  Cu56  1  0.86237800  0.05192600  0.09126500  1
  Cu  Cu57  1  0.63762200  0.44807400  0.59126500  1
  Cu  Cu58  1  0.13762200  0.55192600  0.90873500  1
  Cu  Cu59  1  0.36237800  0.94807400  0.40873500  1
  Cu  Cu60  1  0.13762200  0.94807400  0.90873500  1
  Cu  Cu61  1  0.36237800  0.55192600  0.40873500  1
  Cu  Cu62  1  0.86237800  0.44807400  0.09126500  1
  Cu  Cu63  1  0.63762200  0.05192600  0.59126500  1
  Cu  Cu64  1  0.50921200  0.11618600  0.15177100  1
  Cu  Cu65  1  0.99078800  0.38381400  0.65177100  1
  Cu  Cu66  1  0.49078800  0.61618600  0.84822900  1
  Cu  Cu67  1  0.00921200  0.88381400  0.34822900  1
  Cu  Cu68  1  0.49078800  0.88381400  0.84822900  1
  Cu  Cu69  1  0.00921200  0.61618600  0.34822900  1
  Cu  Cu70  1  0.50921200  0.38381400  0.15177100  1
  Cu  Cu71  1  0.99078800  0.11618600  0.65177100  1
  Cu  Cu72  1  0.74243600  0.25000000  0.06035300  1
  Cu  Cu73  1  0.75756400  0.25000000  0.56035300  1
  Cu  Cu74  1  0.25756400  0.75000000  0.93964700  1
  Cu  Cu75  1  0.24243600  0.75000000  0.43964700  1
  Cu  Cu76  1  0.37220100  0.16100500  0.43297900  1
  Cu  Cu77  1  0.12779900  0.33899500  0.93297900  1
  Cu  Cu78  1  0.62779900  0.66100500  0.56702100  1
  Cu  Cu79  1  0.87220100  0.83899500  0.06702100  1
  Cu  Cu80  1  0.62779900  0.83899500  0.56702100  1
  Cu  Cu81  1  0.87220100  0.66100500  0.06702100  1
  Cu  Cu82  1  0.37220100  0.33899500  0.43297900  1
  Cu  Cu83  1  0.12779900  0.16100500  0.93297900  1
  Cu  Cu84  1  0.44731400  0.25000000  0.31076600  1
  Cu  Cu85  1  0.05268600  0.25000000  0.81076600  1
  Cu  Cu86  1  0.55268600  0.75000000  0.68923400  1
  Cu  Cu87  1  0.94731400  0.75000000  0.18923400  1
  Cu  Cu88  1  0.20725300  0.25000000  0.10539000  1
  Cu  Cu89  1  0.29274700  0.25000000  0.60539000  1
  Cu  Cu90  1  0.79274700  0.75000000  0.89461000  1
  Cu  Cu91  1  0.70725300  0.75000000  0.39461000  1
