# generated using pymatgen
data_Cu7NiC6
_symmetry_space_group_name_H-M   'P 1'
_cell_length_a   6.04340196
_cell_length_b   6.01243110
_cell_length_c   10.24560328
_cell_angle_alpha   89.22114637
_cell_angle_beta   107.14399317
_cell_angle_gamma   120.17267912
_symmetry_Int_Tables_number   1
_chemical_formula_structural   Cu7NiC6
_chemical_formula_sum   'Cu14 Ni2 C12'
_cell_volume   303.43330339
_cell_formula_units_Z   2
loop_
 _symmetry_equiv_pos_site_id
 _symmetry_equiv_pos_as_xyz
  1  'x, y, z'
loop_
 _atom_site_type_symbol
 _atom_site_label
 _atom_site_symmetry_multiplicity
 _atom_site_fract_x
 _atom_site_fract_y
 _atom_site_fract_z
 _atom_site_occupancy
  C  C0  1  0.99283200  0.48982600  0.49006400  1
  C  C1  1  0.98700700  0.98986900  0.99007900  1
  C  C2  1  0.75767200  0.38501300  0.13380300  1
  C  C3  1  0.76113700  0.88496100  0.63378500  1
  C  C4  1  0.37132400  0.68471400  0.06246200  1
  C  C5  1  0.37584300  0.18468900  0.56247600  1
  C  C6  1  0.37551400  0.44070900  0.31670700  1
  C  C7  1  0.38190900  0.94069900  0.81670500  1
  C  C8  1  0.39537600  0.95045500  0.30175500  1
  C  C9  1  0.85689300  0.45044500  0.80178000  1
  C  C10  1  0.37906100  0.44008500  0.80748600  1
  C  C11  1  0.86855400  0.94010700  0.30747400  1
  Ni  Ni12  1  0.63604900  0.54407000  0.70408200  1
  Ni  Ni13  1  0.61222600  0.04408300  0.20407600  1
  Cu  Cu14  1  0.62670600  0.30479500  0.93333700  1
  Cu  Cu15  1  0.61134800  0.80483200  0.43331300  1
  Cu  Cu16  1  0.12531700  0.56622600  0.69418000  1
  Cu  Cu17  1  0.13530500  0.06627900  0.19418400  1
  Cu  Cu18  1  0.11133500  0.33131300  0.92118800  1
  Cu  Cu19  1  0.14112200  0.83136400  0.42115800  1
  Cu  Cu20  1  0.12722100  0.79061100  0.93255900  1
  Cu  Cu21  1  0.12716400  0.28859100  0.43374600  1
  Cu  Cu22  1  0.59497700  0.78866200  0.93365500  1
  Cu  Cu23  1  0.59580200  0.29066900  0.43248900  1
  Cu  Cu24  1  0.14930500  0.58075800  0.19806500  1
  Cu  Cu25  1  0.15452900  0.07768700  0.69569200  1
  Cu  Cu26  1  0.61883700  0.57772600  0.19563800  1
  Cu  Cu27  1  0.62964100  0.08076200  0.69806100  1
