# generated using pymatgen
data_Cu6NiC
_symmetry_space_group_name_H-M   'P 1'
_cell_length_a   12.79460000
_cell_length_b   12.79460000
_cell_length_c   13.10258000
_cell_angle_alpha   90.00000000
_cell_angle_beta   90.00000000
_cell_angle_gamma   90.00000000
_symmetry_Int_Tables_number   1
_chemical_formula_structural   Cu6NiC
_chemical_formula_sum   'Cu48 Ni8 C8'
_cell_volume   2144.91578861
_cell_formula_units_Z   8
loop_
 _symmetry_equiv_pos_site_id
 _symmetry_equiv_pos_as_xyz
  1  'x, y, z'
loop_
 _atom_site_type_symbol
 _atom_site_label
 _atom_site_symmetry_multiplicity
 _atom_site_fract_x
 _atom_site_fract_y
 _atom_site_fract_z
 _atom_site_occupancy
  C  C0  1  0.00000000  0.00000000  0.50000000  1
  C  C1  1  0.50000000  0.50000000  0.00000000  1
  C  C2  1  0.00000000  0.00000000  0.00000000  1
  C  C3  1  0.50000000  0.50000000  0.50000000  1
  C  C4  1  0.50000000  0.00000000  0.21260200  1
  C  C5  1  0.00000000  0.50000000  0.28739800  1
  C  C6  1  0.00000000  0.50000000  0.78739800  1
  C  C7  1  0.50000000  0.00000000  0.71260200  1
  Ni  Ni8  1  0.75884100  0.73218900  0.08744800  1
  Ni  Ni9  1  0.25884100  0.76781100  0.41255200  1
  Ni  Ni10  1  0.24115900  0.26781100  0.08744800  1
  Ni  Ni11  1  0.74115900  0.23218900  0.41255200  1
  Ni  Ni12  1  0.73218900  0.24115900  0.91255200  1
  Ni  Ni13  1  0.76781100  0.74115900  0.58744800  1
  Ni  Ni14  1  0.26781100  0.75884100  0.91255200  1
  Ni  Ni15  1  0.23218900  0.25884100  0.58744800  1
  Cu  Cu16  1  0.80004700  0.87918800  0.18213700  1
  Cu  Cu17  1  0.30004700  0.62081200  0.31786300  1
  Cu  Cu18  1  0.19995300  0.12081200  0.18213700  1
  Cu  Cu19  1  0.69995300  0.37918800  0.31786300  1
  Cu  Cu20  1  0.87918800  0.19995300  0.81786300  1
  Cu  Cu21  1  0.62081200  0.69995300  0.68213700  1
  Cu  Cu22  1  0.12081200  0.80004700  0.81786300  1
  Cu  Cu23  1  0.37918800  0.30004700  0.68213700  1
  Cu  Cu24  1  0.91943900  0.80321100  0.29890100  1
  Cu  Cu25  1  0.41943900  0.69678900  0.20109900  1
  Cu  Cu26  1  0.08056100  0.19678900  0.29890100  1
  Cu  Cu27  1  0.58056100  0.30321100  0.20109900  1
  Cu  Cu28  1  0.80321100  0.08056100  0.70109900  1
  Cu  Cu29  1  0.69678900  0.58056100  0.79890100  1
  Cu  Cu30  1  0.19678900  0.91943900  0.70109900  1
  Cu  Cu31  1  0.30321100  0.41943900  0.79890100  1
  Cu  Cu32  1  0.57720200  0.71435200  0.30106900  1
  Cu  Cu33  1  0.07720200  0.78564800  0.19893100  1
  Cu  Cu34  1  0.42279800  0.28564800  0.30106900  1
  Cu  Cu35  1  0.92279800  0.21435200  0.19893100  1
  Cu  Cu36  1  0.71435200  0.42279800  0.69893100  1
  Cu  Cu37  1  0.78564800  0.92279800  0.80106900  1
  Cu  Cu38  1  0.28564800  0.57720200  0.69893100  1
  Cu  Cu39  1  0.21435200  0.07720200  0.80106900  1
  Cu  Cu40  1  0.70234900  0.61314600  0.20818500  1
  Cu  Cu41  1  0.20234900  0.88685400  0.29181500  1
  Cu  Cu42  1  0.29765100  0.38685400  0.20818500  1
  Cu  Cu43  1  0.79765100  0.11314600  0.29181500  1
  Cu  Cu44  1  0.61314600  0.29765100  0.79181500  1
  Cu  Cu45  1  0.88685400  0.79765100  0.70818500  1
  Cu  Cu46  1  0.38685400  0.70234900  0.79181500  1
  Cu  Cu47  1  0.11314600  0.20234900  0.70818500  1
  Cu  Cu48  1  0.63086700  0.78750300  0.99504600  1
  Cu  Cu49  1  0.13086700  0.71249700  0.50495400  1
  Cu  Cu50  1  0.36913300  0.21249700  0.99504600  1
  Cu  Cu51  1  0.86913300  0.28750300  0.50495400  1
  Cu  Cu52  1  0.78750300  0.36913300  0.00495400  1
  Cu  Cu53  1  0.71249700  0.86913300  0.49504600  1
  Cu  Cu54  1  0.21249700  0.63086700  0.00495400  1
  Cu  Cu55  1  0.28750300  0.13086700  0.49504600  1
  Cu  Cu56  1  0.90068000  0.66168600  0.03026100  1
  Cu  Cu57  1  0.40068000  0.83831400  0.46973900  1
  Cu  Cu58  1  0.09932000  0.33831400  0.03026100  1
  Cu  Cu59  1  0.59932000  0.16168600  0.46973900  1
  Cu  Cu60  1  0.66168600  0.09932000  0.96973900  1
  Cu  Cu61  1  0.83831400  0.59932000  0.53026100  1
  Cu  Cu62  1  0.33831400  0.90068000  0.96973900  1
  Cu  Cu63  1  0.16168600  0.40068000  0.53026100  1
