# generated using pymatgen
data_Cu(NiC3)5
_symmetry_space_group_name_H-M   'P 1'
_cell_length_a   9.40546200
_cell_length_b   9.45310800
_cell_length_c   9.53027200
_cell_angle_alpha   90.00000000
_cell_angle_beta   90.00000000
_cell_angle_gamma   90.00000000
_symmetry_Int_Tables_number   1
_chemical_formula_structural   Cu(NiC3)5
_chemical_formula_sum   'Cu4 Ni20 C60'
_cell_volume   847.34456591
_cell_formula_units_Z   4
loop_
 _symmetry_equiv_pos_site_id
 _symmetry_equiv_pos_as_xyz
  1  'x, y, z'
loop_
 _atom_site_type_symbol
 _atom_site_label
 _atom_site_symmetry_multiplicity
 _atom_site_fract_x
 _atom_site_fract_y
 _atom_site_fract_z
 _atom_site_occupancy
  Ni  Ni0  1  0.42695400  0.62354300  0.58472600  1
  Ni  Ni1  1  0.07304600  0.12354300  0.91527400  1
  Ni  Ni2  1  0.57304600  0.37645700  0.08472600  1
  Ni  Ni3  1  0.92695400  0.87645700  0.41527400  1
  Ni  Ni4  1  0.57304600  0.37645700  0.41527400  1
  Ni  Ni5  1  0.92695400  0.87645700  0.08472600  1
  Ni  Ni6  1  0.42695400  0.62354300  0.91527400  1
  Ni  Ni7  1  0.07304600  0.12354300  0.58472600  1
  Ni  Ni8  1  0.31986000  0.90225600  0.07620600  1
  Ni  Ni9  1  0.18014000  0.40225600  0.42379400  1
  Ni  Ni10  1  0.68014000  0.09774400  0.57620600  1
  Ni  Ni11  1  0.81986000  0.59774400  0.92379400  1
  Ni  Ni12  1  0.68014000  0.09774400  0.92379400  1
  Ni  Ni13  1  0.81986000  0.59774400  0.57620600  1
  Ni  Ni14  1  0.31986000  0.90225600  0.42379400  1
  Ni  Ni15  1  0.18014000  0.40225600  0.07620600  1
  Ni  Ni16  1  0.80911300  0.60187800  0.25000000  1
  Ni  Ni17  1  0.69088700  0.10187800  0.25000000  1
  Ni  Ni18  1  0.19088700  0.39812200  0.75000000  1
  Ni  Ni19  1  0.30911300  0.89812200  0.75000000  1
  Cu  Cu20  1  0.41435800  0.60069300  0.25000000  1
  Cu  Cu21  1  0.08564200  0.10069300  0.25000000  1
  Cu  Cu22  1  0.58564200  0.39930700  0.75000000  1
  Cu  Cu23  1  0.91435800  0.89930700  0.75000000  1
  C  C24  1  0.12894700  0.67835000  0.25000000  1
  C  C25  1  0.37105300  0.17835000  0.25000000  1
  C  C26  1  0.87105300  0.32165000  0.75000000  1
  C  C27  1  0.62894700  0.82165000  0.75000000  1
  C  C28  1  0.12654100  0.67283200  0.58879500  1
  C  C29  1  0.37345900  0.17283200  0.91120500  1
  C  C30  1  0.87345900  0.32716800  0.08879500  1
  C  C31  1  0.62654100  0.82716800  0.41120500  1
  C  C32  1  0.87345900  0.32716800  0.41120500  1
  C  C33  1  0.62654100  0.82716800  0.08879500  1
  C  C34  1  0.12654100  0.67283200  0.91120500  1
  C  C35  1  0.37345900  0.17283200  0.58879500  1
  C  C36  1  0.15951300  0.53638600  0.25000000  1
  C  C37  1  0.34048700  0.03638600  0.25000000  1
  C  C38  1  0.84048700  0.46361400  0.75000000  1
  C  C39  1  0.65951300  0.96361400  0.75000000  1
  C  C40  1  0.99653100  0.73672700  0.25000000  1
  C  C41  1  0.50346900  0.23672700  0.25000000  1
  C  C42  1  0.00346900  0.26327300  0.75000000  1
  C  C43  1  0.49653100  0.76327300  0.75000000  1
  C  C44  1  0.25496300  0.76137800  0.25000000  1
  C  C45  1  0.24503700  0.26137800  0.25000000  1
  C  C46  1  0.74503700  0.23862200  0.75000000  1
  C  C47  1  0.75496300  0.73862200  0.75000000  1
  C  C48  1  0.12948600  0.52875100  0.58811000  1
  C  C49  1  0.37051400  0.02875100  0.91189000  1
  C  C50  1  0.87051400  0.47124900  0.08811000  1
  C  C51  1  0.62948600  0.97124900  0.41189000  1
  C  C52  1  0.87051400  0.47124900  0.41189000  1
  C  C53  1  0.62948600  0.97124900  0.08811000  1
  C  C54  1  0.12948600  0.52875100  0.91189000  1
  C  C55  1  0.37051400  0.02875100  0.58811000  1
  C  C56  1  0.25081300  0.75219100  0.58285600  1
  C  C57  1  0.24918700  0.25219100  0.91714400  1
  C  C58  1  0.74918700  0.24780900  0.08285600  1
  C  C59  1  0.75081300  0.74780900  0.41714400  1
  C  C60  1  0.74918700  0.24780900  0.41714400  1
  C  C61  1  0.75081300  0.74780900  0.08285600  1
  C  C62  1  0.25081300  0.75219100  0.91714400  1
  C  C63  1  0.24918700  0.25219100  0.58285600  1
  C  C64  1  0.49270400  0.75802800  0.09423900  1
  C  C65  1  0.00729600  0.25802800  0.40576100  1
  C  C66  1  0.50729600  0.24197200  0.59423900  1
  C  C67  1  0.99270400  0.74197200  0.90576100  1
  C  C68  1  0.50729600  0.24197200  0.90576100  1
  C  C69  1  0.99270400  0.74197200  0.59423900  1
  C  C70  1  0.49270400  0.75802800  0.40576100  1
  C  C71  1  0.00729600  0.25802800  0.09423900  1
  C  C72  1  0.89511300  0.02147500  0.25000000  1
  C  C73  1  0.60488700  0.52147500  0.25000000  1
  C  C74  1  0.10488700  0.97852500  0.75000000  1
  C  C75  1  0.39511300  0.47852500  0.75000000  1
  C  C76  1  0.11889400  0.99153500  0.08466300  1
  C  C77  1  0.38110600  0.49153500  0.41533700  1
  C  C78  1  0.88110600  0.00846500  0.58466300  1
  C  C79  1  0.61889400  0.50846500  0.91533700  1
  C  C80  1  0.88110600  0.00846500  0.91533700  1
  C  C81  1  0.61889400  0.50846500  0.58466300  1
  C  C82  1  0.11889400  0.99153500  0.41533700  1
  C  C83  1  0.38110600  0.49153500  0.08466300  1
