# generated using pymatgen
data_CuNiC16
_symmetry_space_group_name_H-M   'P 1'
_cell_length_a   8.65866966
_cell_length_b   8.65866986
_cell_length_c   8.65867057
_cell_angle_alpha   60.60776076
_cell_angle_beta   60.60776102
_cell_angle_gamma   60.60775620
_symmetry_Int_Tables_number   1
_chemical_formula_structural   CuNiC16
_chemical_formula_sum   'Cu2 Ni2 C32'
_cell_volume   465.32778126
_cell_formula_units_Z   2
loop_
 _symmetry_equiv_pos_site_id
 _symmetry_equiv_pos_as_xyz
  1  'x, y, z'
loop_
 _atom_site_type_symbol
 _atom_site_label
 _atom_site_symmetry_multiplicity
 _atom_site_fract_x
 _atom_site_fract_y
 _atom_site_fract_z
 _atom_site_occupancy
  C  C0  1  0.00097700  0.00097700  0.00097700  1
  C  C1  1  0.50097700  0.50097700  0.50097700  1
  Ni  Ni2  1  0.14591900  0.14591900  0.14591900  1
  Ni  Ni3  1  0.64591900  0.64591900  0.64591900  1
  Cu  Cu4  1  0.35779500  0.35779500  0.35779500  1
  Cu  Cu5  1  0.85779500  0.85779500  0.85779500  1
  C  C6  1  0.04362300  0.44869300  0.75727800  1
  C  C7  1  0.44869300  0.75727800  0.04362300  1
  C  C8  1  0.75727800  0.04362300  0.44869300  1
  C  C9  1  0.25727800  0.94869300  0.54362300  1
  C  C10  1  0.54362300  0.25727800  0.94869300  1
  C  C11  1  0.94869300  0.54362300  0.25727800  1
  C  C12  1  0.09603900  0.50487300  0.32773900  1
  C  C13  1  0.32773900  0.09603900  0.50487300  1
  C  C14  1  0.05276200  0.25327300  0.91492100  1
  C  C15  1  0.50487300  0.32773900  0.09603900  1
  C  C16  1  0.00487300  0.59603900  0.82773900  1
  C  C17  1  0.23919600  0.43478800  0.60116000  1
  C  C18  1  0.25327300  0.91492100  0.05276200  1
  C  C19  1  0.43478800  0.60116000  0.23919600  1
  C  C20  1  0.19005300  0.00173600  0.37917100  1
  C  C21  1  0.60116000  0.23919600  0.43478800  1
  C  C22  1  0.10116000  0.93478800  0.73919600  1
  C  C23  1  0.37917100  0.19005300  0.00173600  1
  C  C24  1  0.59603900  0.82773900  0.00487300  1
  C  C25  1  0.91492100  0.05276200  0.25327300  1
  C  C26  1  0.41492100  0.75327300  0.55276200  1
  C  C27  1  0.82773900  0.00487300  0.59603900  1
  C  C28  1  0.55276200  0.41492100  0.75327300  1
  C  C29  1  0.73919600  0.10116000  0.93478800  1
  C  C30  1  0.75327300  0.55276200  0.41492100  1
  C  C31  1  0.00173600  0.37917100  0.19005300  1
  C  C32  1  0.50173600  0.69005300  0.87917100  1
  C  C33  1  0.93478800  0.73919600  0.10116000  1
  C  C34  1  0.69005300  0.87917100  0.50173600  1
  C  C35  1  0.87917100  0.50173600  0.69005300  1
