# generated using pymatgen
data_CuNiC5
_symmetry_space_group_name_H-M   'P 1'
_cell_length_a   7.42159409
_cell_length_b   7.42159409
_cell_length_c   7.42159409
_cell_angle_alpha   120.81077938
_cell_angle_beta   119.05672099
_cell_angle_gamma   90.12148520
_symmetry_Int_Tables_number   1
_chemical_formula_structural   CuNiC5
_chemical_formula_sum   'Cu2 Ni2 C10'
_cell_volume   289.25662682
_cell_formula_units_Z   2
loop_
 _symmetry_equiv_pos_site_id
 _symmetry_equiv_pos_as_xyz
  1  'x, y, z'
loop_
 _atom_site_type_symbol
 _atom_site_label
 _atom_site_symmetry_multiplicity
 _atom_site_fract_x
 _atom_site_fract_y
 _atom_site_fract_z
 _atom_site_occupancy
  Ni  Ni0  1  0.00000000  0.50000000  0.00000000  1
  Ni  Ni1  1  0.00000000  0.00000000  0.50000000  1
  Cu  Cu2  1  0.50000000  0.50000000  0.00000000  1
  Cu  Cu3  1  0.00000000  0.50000000  0.50000000  1
  C  C4  1  0.62461900  0.87461900  0.75000000  1
  C  C5  1  0.37538100  0.12538100  0.25000000  1
  C  C6  1  0.23341900  0.74323800  0.49018100  1
  C  C7  1  0.75305700  0.74323800  0.00981900  1
  C  C8  1  0.75589200  0.73993200  0.48404000  1
  C  C9  1  0.75589200  0.27185200  0.01596000  1
  C  C10  1  0.76658100  0.25676200  0.50981900  1
  C  C11  1  0.24694300  0.25676200  0.99018100  1
  C  C12  1  0.24410800  0.26006800  0.51596000  1
  C  C13  1  0.24410800  0.72814800  0.98404000  1
