# generated using pymatgen
data_Cu6Ni3C13
_symmetry_space_group_name_H-M   'P 1'
_cell_length_a   8.54136500
_cell_length_b   8.87624900
_cell_length_c   12.08353700
_cell_angle_alpha   90.00000000
_cell_angle_beta   90.00000000
_cell_angle_gamma   90.00000000
_symmetry_Int_Tables_number   1
_chemical_formula_structural   Cu6Ni3C13
_chemical_formula_sum   'Cu24 Ni12 C52'
_cell_volume   916.11677174
_cell_formula_units_Z   4
loop_
 _symmetry_equiv_pos_site_id
 _symmetry_equiv_pos_as_xyz
  1  'x, y, z'
loop_
 _atom_site_type_symbol
 _atom_site_label
 _atom_site_symmetry_multiplicity
 _atom_site_fract_x
 _atom_site_fract_y
 _atom_site_fract_z
 _atom_site_occupancy
  C  C0  1  0.24826400  0.25063700  0.74977700  1
  C  C1  1  0.25173600  0.24936300  0.24977700  1
  C  C2  1  0.75173600  0.75063700  0.24977700  1
  C  C3  1  0.74826400  0.74936300  0.74977700  1
  C  C4  1  0.08473800  0.75073300  0.88054600  1
  C  C5  1  0.41659500  0.75608900  0.12080200  1
  C  C6  1  0.08340500  0.74391100  0.62080200  1
  C  C7  1  0.41526200  0.74926700  0.38054600  1
  C  C8  1  0.91659500  0.24391100  0.12080200  1
  C  C9  1  0.58473800  0.24926700  0.88054600  1
  C  C10  1  0.91526200  0.25073300  0.38054600  1
  C  C11  1  0.58340500  0.25608900  0.62080200  1
  C  C12  1  0.24547500  0.32498800  0.99792000  1
  C  C13  1  0.25452500  0.17501200  0.49792000  1
  C  C14  1  0.74547500  0.67501200  0.99792000  1
  C  C15  1  0.75452500  0.82498800  0.49792000  1
  C  C16  1  0.90994800  0.07221300  0.78419700  1
  C  C17  1  0.59685600  0.07132800  0.21475600  1
  C  C18  1  0.90314400  0.42867200  0.71475600  1
  C  C19  1  0.59005200  0.42778700  0.28419700  1
  C  C20  1  0.09685600  0.92867200  0.21475600  1
  C  C21  1  0.40994800  0.92778700  0.78419700  1
  C  C22  1  0.09005200  0.57221300  0.28419700  1
  C  C23  1  0.40314400  0.57132800  0.71475600  1
  C  C24  1  0.17583400  0.92878000  0.91603600  1
  C  C25  1  0.32664000  0.93388100  0.08335000  1
  C  C26  1  0.17336000  0.56611900  0.58335000  1
  C  C27  1  0.32416600  0.57122000  0.41603600  1
  C  C28  1  0.82664000  0.06611900  0.08335000  1
  C  C29  1  0.67583400  0.07122000  0.91603600  1
  C  C30  1  0.82416600  0.42878000  0.41603600  1
  C  C31  1  0.67336000  0.43388100  0.58335000  1
  C  C32  1  0.32840000  0.54150100  0.05037800  1
  C  C33  1  0.17160000  0.95849900  0.55037800  1
  C  C34  1  0.82840000  0.45849900  0.05037800  1
  C  C35  1  0.67160000  0.04150100  0.55037800  1
  C  C36  1  0.24889100  0.20083900  0.99869600  1
  C  C37  1  0.25110900  0.29916100  0.49869600  1
  C  C38  1  0.74889100  0.79916100  0.99869600  1
  C  C39  1  0.75110900  0.70083900  0.49869600  1
  C  C40  1  0.24942900  0.74344200  0.00181900  1
  C  C41  1  0.25057100  0.75655800  0.50181900  1
  C  C42  1  0.74942900  0.25655800  0.00181900  1
  C  C43  1  0.75057100  0.24344200  0.50181900  1
  C  C44  1  0.98232700  0.01281700  0.72165100  1
  C  C45  1  0.51993300  0.01441200  0.27616600  1
  C  C46  1  0.98006700  0.48558800  0.77616600  1
  C  C47  1  0.51767300  0.48718300  0.22165100  1
  C  C48  1  0.01993300  0.98558800  0.27616600  1
  C  C49  1  0.48232700  0.98718300  0.72165100  1
  C  C50  1  0.01767300  0.51281700  0.22165100  1
  C  C51  1  0.48006700  0.51441200  0.77616600  1
  Ni  Ni52  1  0.23314300  0.59198700  0.01170800  1
  Ni  Ni53  1  0.26685700  0.90801300  0.51170800  1
  Ni  Ni54  1  0.73314300  0.40801300  0.01170800  1
  Ni  Ni55  1  0.76685700  0.09198700  0.51170800  1
  Ni  Ni56  1  0.16225300  0.81432200  0.92660300  1
  Ni  Ni57  1  0.34227700  0.81921100  0.07226900  1
  Ni  Ni58  1  0.15772300  0.68078900  0.57226900  1
  Ni  Ni59  1  0.33774700  0.68567800  0.42660300  1
  Ni  Ni60  1  0.84227700  0.18078900  0.07226900  1
  Ni  Ni61  1  0.66225300  0.18567800  0.92660300  1
  Ni  Ni62  1  0.83774700  0.31432200  0.42660300  1
  Ni  Ni63  1  0.65772300  0.31921100  0.57226900  1
  Cu  Cu64  1  0.94095300  0.88140200  0.69200900  1
  Cu  Cu65  1  0.55837300  0.88225500  0.30672600  1
  Cu  Cu66  1  0.94162700  0.61774500  0.80672600  1
  Cu  Cu67  1  0.55904700  0.61859800  0.19200900  1
  Cu  Cu68  1  0.05837300  0.11774500  0.30672600  1
  Cu  Cu69  1  0.44095300  0.11859800  0.69200900  1
  Cu  Cu70  1  0.05904700  0.38140200  0.19200900  1
  Cu  Cu71  1  0.44162700  0.38225500  0.80672600  1
  Cu  Cu72  1  0.10266700  0.07878700  0.68394600  1
  Cu  Cu73  1  0.40037800  0.08352800  0.31057600  1
  Cu  Cu74  1  0.09962200  0.41647200  0.81057600  1
  Cu  Cu75  1  0.39733300  0.42121300  0.18394600  1
  Cu  Cu76  1  0.90037800  0.91647200  0.31057600  1
  Cu  Cu77  1  0.60266700  0.92121300  0.68394600  1
  Cu  Cu78  1  0.89733300  0.57878700  0.18394600  1
  Cu  Cu79  1  0.59962200  0.58352800  0.81057600  1
  Cu  Cu80  1  0.24081500  0.13246700  0.90616500  1
  Cu  Cu81  1  0.25965600  0.13373600  0.09160600  1
  Cu  Cu82  1  0.24034400  0.36626400  0.59160600  1
  Cu  Cu83  1  0.25918500  0.36753300  0.40616500  1
  Cu  Cu84  1  0.75965600  0.86626400  0.09160600  1
  Cu  Cu85  1  0.74081500  0.86753300  0.90616500  1
  Cu  Cu86  1  0.75918500  0.63246700  0.40616500  1
  Cu  Cu87  1  0.74034400  0.63373600  0.59160600  1
