# generated using pymatgen
data_CuNiC6
_symmetry_space_group_name_H-M   'P 1'
_cell_length_a   9.89217200
_cell_length_b   9.10571400
_cell_length_c   11.71385325
_cell_angle_alpha   53.15434062
_cell_angle_beta   90.00000000
_cell_angle_gamma   90.00000000
_symmetry_Int_Tables_number   1
_chemical_formula_structural   CuNiC6
_chemical_formula_sum   'Cu8 Ni8 C48'
_cell_volume   844.37071389
_cell_formula_units_Z   8
loop_
 _symmetry_equiv_pos_site_id
 _symmetry_equiv_pos_as_xyz
  1  'x, y, z'
loop_
 _atom_site_type_symbol
 _atom_site_label
 _atom_site_symmetry_multiplicity
 _atom_site_fract_x
 _atom_site_fract_y
 _atom_site_fract_z
 _atom_site_occupancy
  C  C0  1  0.31880200  0.37177500  0.51665900  1
  C  C1  1  0.68119800  0.62822500  0.48334100  1
  C  C2  1  0.81880200  0.62822500  0.98334100  1
  C  C3  1  0.18119800  0.37177500  0.01665900  1
  Ni  Ni4  1  0.25552500  0.69074000  0.11404100  1
  Ni  Ni5  1  0.74447500  0.30926000  0.88595900  1
  Ni  Ni6  1  0.75552500  0.30926000  0.38595900  1
  Ni  Ni7  1  0.24447500  0.69074000  0.61404100  1
  Ni  Ni8  1  0.55186700  0.96067300  0.89875900  1
  Ni  Ni9  1  0.44813300  0.03932700  0.10124100  1
  Ni  Ni10  1  0.05186700  0.03932700  0.60124100  1
  Ni  Ni11  1  0.94813300  0.96067300  0.39875900  1
  Cu  Cu12  1  0.53382900  0.63092900  0.20313100  1
  Cu  Cu13  1  0.46617100  0.36907100  0.79686900  1
  Cu  Cu14  1  0.03382900  0.36907100  0.29686900  1
  Cu  Cu15  1  0.96617100  0.63092900  0.70313100  1
  Cu  Cu16  1  0.30773300  0.84854500  0.79120800  1
  Cu  Cu17  1  0.69226700  0.15145500  0.20879200  1
  Cu  Cu18  1  0.80773300  0.15145500  0.70879200  1
  Cu  Cu19  1  0.19226700  0.84854500  0.29120800  1
  C  C20  1  0.21417500  0.01544400  0.69229800  1
  C  C21  1  0.78582500  0.98455600  0.30770200  1
  C  C22  1  0.71417500  0.98455600  0.80770200  1
  C  C23  1  0.28582500  0.01544400  0.19229800  1
  C  C24  1  0.49658400  0.21865700  0.77272000  1
  C  C25  1  0.50341600  0.78134300  0.22728000  1
  C  C26  1  0.99658400  0.78134300  0.72728000  1
  C  C27  1  0.00341600  0.21865700  0.27272000  1
  C  C28  1  0.06652000  0.91966100  0.97401500  1
  C  C29  1  0.93348000  0.08033900  0.02598500  1
  C  C30  1  0.56652000  0.08033900  0.52598500  1
  C  C31  1  0.43348000  0.91966100  0.47401500  1
  C  C32  1  0.18582200  0.73006400  0.23695000  1
  C  C33  1  0.81417800  0.26993600  0.76305000  1
  C  C34  1  0.68582200  0.26993600  0.26305000  1
  C  C35  1  0.31417800  0.73006400  0.73695000  1
  C  C36  1  0.38347300  0.91332600  0.02438000  1
  C  C37  1  0.61652700  0.08667400  0.97562000  1
  C  C38  1  0.88347300  0.08667400  0.47562000  1
  C  C39  1  0.11652700  0.91332600  0.52438000  1
  C  C40  1  0.25063600  0.72407000  0.94522600  1
  C  C41  1  0.74936400  0.27593000  0.05477400  1
  C  C42  1  0.75063600  0.27593000  0.55477400  1
  C  C43  1  0.24936400  0.72407000  0.44522600  1
  C  C44  1  0.12528600  0.50861800  0.17204100  1
  C  C45  1  0.87471400  0.49138200  0.82795900  1
  C  C46  1  0.62528600  0.49138200  0.32795900  1
  C  C47  1  0.37471400  0.50861800  0.67204100  1
  C  C48  1  0.59223500  0.91985900  0.57519000  1
  C  C49  1  0.40776500  0.08014100  0.42481000  1
  C  C50  1  0.09223500  0.08014100  0.92481000  1
  C  C51  1  0.90776500  0.91985900  0.07519000  1
  C  C52  1  0.45025400  0.91296200  0.79417500  1
  C  C53  1  0.54974600  0.08703800  0.20582500  1
  C  C54  1  0.95025400  0.08703800  0.70582500  1
  C  C55  1  0.04974600  0.91296200  0.29417500  1
  C  C56  1  0.60200100  0.72294300  0.05660800  1
  C  C57  1  0.39799900  0.27705700  0.94339200  1
  C  C58  1  0.10200100  0.27705700  0.44339200  1
  C  C59  1  0.89799900  0.72294300  0.55660800  1
  C  C60  1  0.39732200  0.53883600  0.21457500  1
  C  C61  1  0.60267800  0.46116400  0.78542500  1
  C  C62  1  0.89732200  0.46116400  0.28542500  1
  C  C63  1  0.10267800  0.53883600  0.71457500  1
