# generated using pymatgen
data_CuNi4C19
_symmetry_space_group_name_H-M   'P 1'
_cell_length_a   2.87739900
_cell_length_b   5.88345300
_cell_length_c   13.30976032
_cell_angle_alpha   77.48755832
_cell_angle_beta   90.00000000
_cell_angle_gamma   90.00000000
_symmetry_Int_Tables_number   1
_chemical_formula_structural   CuNi4C19
_chemical_formula_sum   'Cu1 Ni4 C19'
_cell_volume   219.96987442
_cell_formula_units_Z   1
loop_
 _symmetry_equiv_pos_site_id
 _symmetry_equiv_pos_as_xyz
  1  'x, y, z'
loop_
 _atom_site_type_symbol
 _atom_site_label
 _atom_site_symmetry_multiplicity
 _atom_site_fract_x
 _atom_site_fract_y
 _atom_site_fract_z
 _atom_site_occupancy
  C  C0  1  0.50000000  0.82904800  0.82118900  1
  C  C1  1  0.50000000  0.49570600  0.52005800  1
  C  C2  1  0.50000000  0.17146700  0.16018800  1
  C  C3  1  0.00000000  0.15968200  0.66371500  1
  C  C4  1  0.00000000  0.82604900  0.34479200  1
  C  C5  1  0.00000000  0.50318000  0.98440600  1
  C  C6  1  0.00000000  0.67340700  0.66707600  1
  Ni  Ni7  1  0.00000000  0.00954400  0.99157400  1
  Ni  Ni8  1  0.50000000  0.98780900  0.51434700  1
  Ni  Ni9  1  0.00000000  0.32918600  0.34161900  1
  Ni  Ni10  1  0.50000000  0.66566600  0.16544200  1
  Cu  Cu11  1  0.50000000  0.36195900  0.80581900  1
  C  C12  1  0.50000000  0.78527900  0.99503500  1
  C  C13  1  0.50000000  0.40933800  0.66999000  1
  C  C14  1  0.50000000  0.09663800  0.34720400  1
  C  C15  1  0.00000000  0.09645100  0.84712100  1
  C  C16  1  0.00000000  0.77614200  0.50131400  1
  C  C17  1  0.00000000  0.43875600  0.16578300  1
  C  C18  1  0.50000000  0.92090200  0.65313300  1
  C  C19  1  0.50000000  0.55870100  0.33741600  1
  C  C20  1  0.50000000  0.21951100  0.00581900  1
  C  C21  1  0.00000000  0.21715500  0.50668200  1
  C  C22  1  0.00000000  0.89854400  0.15849000  1
  C  C23  1  0.00000000  0.56988000  0.83178800  1
