# generated using pymatgen
data_Cu2Ni2C7
_symmetry_space_group_name_H-M   'P 1'
_cell_length_a   10.01838500
_cell_length_b   10.92610218
_cell_length_c   16.50247426
_cell_angle_alpha   108.39353905
_cell_angle_beta   88.75492640
_cell_angle_gamma   111.95190066
_symmetry_Int_Tables_number   1
_chemical_formula_structural   Cu2Ni2C7
_chemical_formula_sum   'Cu8 Ni8 C28'
_cell_volume   1580.29877499
_cell_formula_units_Z   4
loop_
 _symmetry_equiv_pos_site_id
 _symmetry_equiv_pos_as_xyz
  1  'x, y, z'
loop_
 _atom_site_type_symbol
 _atom_site_label
 _atom_site_symmetry_multiplicity
 _atom_site_fract_x
 _atom_site_fract_y
 _atom_site_fract_z
 _atom_site_occupancy
  C  C0  1  0.95731900  0.28900600  0.51032200  1
  C  C1  1  0.04268100  0.71099400  0.48967800  1
  C  C2  1  0.56468500  0.72463900  0.03009600  1
  C  C3  1  0.43531500  0.27536100  0.96990400  1
  C  C4  1  0.37811200  0.12749900  0.43010900  1
  C  C5  1  0.62188800  0.87250100  0.56989100  1
  C  C6  1  0.23521100  0.76785800  0.93123600  1
  C  C7  1  0.76478900  0.23214200  0.06876400  1
  C  C8  1  0.26075300  0.29764500  0.62396100  1
  C  C9  1  0.73924700  0.70235500  0.37603900  1
  C  C10  1  0.26781600  0.70770600  0.09562900  1
  C  C11  1  0.73218400  0.29229400  0.90437100  1
  C  C12  1  0.75572900  0.31428000  0.82738500  1
  C  C13  1  0.24427100  0.68572000  0.17261500  1
  C  C14  1  0.67187100  0.68026500  0.30745800  1
  C  C15  1  0.32812900  0.31973500  0.69254200  1
  C  C16  1  0.95813700  0.10001700  0.69845500  1
  C  C17  1  0.04186300  0.89998300  0.30154500  1
  C  C18  1  0.59236700  0.64592300  0.14538800  1
  C  C19  1  0.40763300  0.35407700  0.85461200  1
  Ni  Ni20  1  0.18164800  0.27354000  0.53093800  1
  Ni  Ni21  1  0.81835200  0.72646000  0.46906200  1
  Ni  Ni22  1  0.31121900  0.66227800  0.02506000  1
  Ni  Ni23  1  0.68878100  0.33772200  0.97494000  1
  Ni  Ni24  1  0.92405200  0.24146800  0.65512900  1
  Ni  Ni25  1  0.07594800  0.75853200  0.34487100  1
  Ni  Ni26  1  0.54568100  0.68007000  0.22478400  1
  Ni  Ni27  1  0.45431900  0.31993000  0.77521600  1
  Cu  Cu28  1  0.73051100  0.34062800  0.47246900  1
  Cu  Cu29  1  0.26948900  0.65937200  0.52753100  1
  Cu  Cu30  1  0.75798400  0.88993200  0.94927400  1
  Cu  Cu31  1  0.24201600  0.11006800  0.05072600  1
  Cu  Cu32  1  0.97724300  0.33818900  0.35813500  1
  Cu  Cu33  1  0.02275700  0.66181100  0.64186500  1
  Cu  Cu34  1  0.35362600  0.86188500  0.84273900  1
  Cu  Cu35  1  0.64637400  0.13811500  0.15726100  1
  C  C36  1  0.35910900  0.04451200  0.49454500  1
  C  C37  1  0.64089100  0.95548800  0.50545500  1
  C  C38  1  0.23318900  0.52361800  0.01492100  1
  C  C39  1  0.76681100  0.47638200  0.98507900  1
  C  C40  1  0.98222300  0.99689200  0.73402300  1
  C  C41  1  0.01777700  0.00310800  0.26597700  1
  C  C42  1  0.22455500  0.67289500  0.24317800  1
  C  C43  1  0.77544500  0.32710500  0.75682200  1
