# generated using pymatgen
data_CuNiC14
_symmetry_space_group_name_H-M   'P 1'
_cell_length_a   6.33636479
_cell_length_b   6.53736560
_cell_length_c   9.93121908
_cell_angle_alpha   90.00000000
_cell_angle_beta   90.00000000
_cell_angle_gamma   121.05502111
_symmetry_Int_Tables_number   1
_chemical_formula_structural   CuNiC14
_chemical_formula_sum   'Cu1 Ni1 C14'
_cell_volume   352.41975064
_cell_formula_units_Z   1
loop_
 _symmetry_equiv_pos_site_id
 _symmetry_equiv_pos_as_xyz
  1  'x, y, z'
loop_
 _atom_site_type_symbol
 _atom_site_label
 _atom_site_symmetry_multiplicity
 _atom_site_fract_x
 _atom_site_fract_y
 _atom_site_fract_z
 _atom_site_occupancy
  C  C0  1  0.17554459  0.33777180  0.62500000  1
  C  C1  1  0.17879711  0.83939805  0.62500000  1
  C  C2  1  0.70977325  0.35049181  0.12500000  1
  C  C3  1  0.66802128  0.32941019  0.62500000  1
  C  C4  1  0.70977325  0.85928044  0.12500000  1
  C  C5  1  0.66802128  0.83861009  0.62500000  1
  C  C6  1  0.32371306  0.17900606  0.35338499  1
  C  C7  1  0.32371306  0.17900606  0.89661501  1
  C  C8  1  0.32371306  0.64470800  0.35338499  1
  C  C9  1  0.32371306  0.64470800  0.89661501  1
  C  C10  1  0.84233575  0.17116837  0.36519711  1
  C  C11  1  0.84233575  0.17116837  0.88480289  1
  C  C12  1  0.83070941  0.66535521  0.38039928  1
  C  C13  1  0.83070941  0.66535521  0.86960072  1
  Ni  Ni14  1  0.07971386  0.28985643  0.12500000  1
  Cu  Cu15  1  0.16941281  0.83470590  0.12500000  1
