# generated using pymatgen
data_CuNiC4
_symmetry_space_group_name_H-M   'P 1'
_cell_length_a   12.58677563
_cell_length_b   12.58677563
_cell_length_c   12.58677563
_cell_angle_alpha   126.78133775
_cell_angle_beta   126.13075554
_cell_angle_gamma   79.14099859
_symmetry_Int_Tables_number   1
_chemical_formula_structural   CuNiC4
_chemical_formula_sum   'Cu4 Ni4 C16'
_cell_volume   1247.46076062
_cell_formula_units_Z   4
loop_
 _symmetry_equiv_pos_site_id
 _symmetry_equiv_pos_as_xyz
  1  'x, y, z'
loop_
 _atom_site_type_symbol
 _atom_site_label
 _atom_site_symmetry_multiplicity
 _atom_site_fract_x
 _atom_site_fract_y
 _atom_site_fract_z
 _atom_site_occupancy
  Ni  Ni0  1  0.56600200  0.09773000  0.28416300  1
  Ni  Ni1  1  0.93399800  0.21816100  0.53172900  1
  Ni  Ni2  1  0.31356700  0.28183900  0.21583700  1
  Ni  Ni3  1  0.18643300  0.40227000  0.96827100  1
  Cu  Cu4  1  0.21822200  0.93426000  0.03072500  1
  Cu  Cu5  1  0.28177800  0.31250300  0.71603800  1
  Cu  Cu6  1  0.40353500  0.18749700  0.46927500  1
  Cu  Cu7  1  0.09646500  0.56574000  0.78396200  1
  C  C8  1  0.75000000  0.03870100  0.28870100  1
  C  C9  1  0.25000000  0.46129900  0.21129900  1
  C  C10  1  0.04284800  0.75000000  0.79284800  1
  C  C11  1  0.45715200  0.25000000  0.70715200  1
  C  C12  1  0.51510800  0.26510800  0.25000000  1
  C  C13  1  0.98489200  0.23489200  0.75000000  1
  C  C14  1  0.23777100  0.98777100  0.25000000  1
  C  C15  1  0.26222900  0.51222900  0.75000000  1
  C  C16  1  0.60541200  0.16124900  0.51984800  1
  C  C17  1  0.89458800  0.41443600  0.55583700  1
  C  C18  1  0.14140100  0.08556400  0.98015200  1
  C  C19  1  0.35859900  0.33875100  0.94416300  1
  C  C20  1  0.40546800  0.89139700  0.04906100  1
  C  C21  1  0.09453200  0.14359300  0.48592900  1
  C  C22  1  0.34233600  0.35640700  0.45093900  1
  C  C23  1  0.15766400  0.60860300  0.01407100  1
