# generated using pymatgen
data_Cu9Ni4C39
_symmetry_space_group_name_H-M   'P 1'
_cell_length_a   14.22363400
_cell_length_b   14.22363400
_cell_length_c   6.23738300
_cell_angle_alpha   90.00000000
_cell_angle_beta   90.00000000
_cell_angle_gamma   90.00000000
_symmetry_Int_Tables_number   1
_chemical_formula_structural   Cu9Ni4C39
_chemical_formula_sum   'Cu18 Ni8 C78'
_cell_volume   1261.89595851
_cell_formula_units_Z   2
loop_
 _symmetry_equiv_pos_site_id
 _symmetry_equiv_pos_as_xyz
  1  'x, y, z'
loop_
 _atom_site_type_symbol
 _atom_site_label
 _atom_site_symmetry_multiplicity
 _atom_site_fract_x
 _atom_site_fract_y
 _atom_site_fract_z
 _atom_site_occupancy
  C  C0  1  0.25902500  0.92303100  0.59226800  1
  C  C1  1  0.75902500  0.57696900  0.90773200  1
  C  C2  1  0.74097500  0.07696900  0.59226800  1
  C  C3  1  0.24097500  0.42303100  0.90773200  1
  C  C4  1  0.92303100  0.74097500  0.40773200  1
  C  C5  1  0.57696900  0.24097500  0.09226800  1
  C  C6  1  0.07696900  0.25902500  0.40773200  1
  C  C7  1  0.42303100  0.75902500  0.09226800  1
  C  C8  1  0.50000000  0.00000000  0.81538400  1
  C  C9  1  0.00000000  0.50000000  0.68461600  1
  C  C10  1  0.00000000  0.50000000  0.18461600  1
  C  C11  1  0.50000000  0.00000000  0.31538400  1
  C  C12  1  0.00000000  0.00000000  0.50000000  1
  C  C13  1  0.50000000  0.50000000  0.00000000  1
  Ni  Ni14  1  0.12212200  0.82085900  0.13713300  1
  Ni  Ni15  1  0.62212200  0.67914100  0.36286700  1
  Ni  Ni16  1  0.87787800  0.17914100  0.13713300  1
  Ni  Ni17  1  0.37787800  0.32085900  0.36286700  1
  Ni  Ni18  1  0.82085900  0.87787800  0.86286700  1
  Ni  Ni19  1  0.67914100  0.37787800  0.63713300  1
  Ni  Ni20  1  0.17914100  0.12212200  0.86286700  1
  Ni  Ni21  1  0.32085900  0.62212200  0.63713300  1
  Cu  Cu22  1  0.24204200  0.12772200  0.35008100  1
  Cu  Cu23  1  0.74204200  0.37227800  0.14991900  1
  Cu  Cu24  1  0.75795800  0.87227800  0.35008100  1
  Cu  Cu25  1  0.25795800  0.62772200  0.14991900  1
  Cu  Cu26  1  0.12772200  0.75795800  0.64991900  1
  Cu  Cu27  1  0.37227800  0.25795800  0.85008100  1
  Cu  Cu28  1  0.87227800  0.24204200  0.64991900  1
  Cu  Cu29  1  0.62772200  0.74204200  0.85008100  1
  Cu  Cu30  1  0.29963700  0.96179100  0.10053900  1
  Cu  Cu31  1  0.79963700  0.53820900  0.39946100  1
  Cu  Cu32  1  0.70036300  0.03820900  0.10053900  1
  Cu  Cu33  1  0.20036300  0.46179100  0.39946100  1
  Cu  Cu34  1  0.96179100  0.70036300  0.89946100  1
  Cu  Cu35  1  0.53820900  0.20036300  0.60053900  1
  Cu  Cu36  1  0.03820900  0.29963700  0.89946100  1
  Cu  Cu37  1  0.46179100  0.79963700  0.60053900  1
  Cu  Cu38  1  0.00000000  0.00000000  0.00000000  1
  Cu  Cu39  1  0.50000000  0.50000000  0.50000000  1
  C  C40  1  0.39898300  0.92706600  0.06089700  1
  C  C41  1  0.89898300  0.57293400  0.43910300  1
  C  C42  1  0.60101700  0.07293400  0.06089700  1
  C  C43  1  0.10101700  0.42706600  0.43910300  1
  C  C44  1  0.92706600  0.60101700  0.93910300  1
  C  C45  1  0.57293400  0.10101700  0.56089700  1
  C  C46  1  0.07293400  0.39898300  0.93910300  1
  C  C47  1  0.42706600  0.89898300  0.56089700  1
  C  C48  1  0.31364500  0.04193700  0.28813000  1
  C  C49  1  0.81364500  0.45806300  0.21187000  1
  C  C50  1  0.68635500  0.95806300  0.28813000  1
  C  C51  1  0.18635500  0.54193700  0.21187000  1
  C  C52  1  0.04193700  0.68635500  0.71187000  1
  C  C53  1  0.45806300  0.18635500  0.78813000  1
  C  C54  1  0.95806300  0.31364500  0.71187000  1
  C  C55  1  0.54193700  0.81364500  0.78813000  1
  C  C56  1  0.23599100  0.88750500  0.20402200  1
  C  C57  1  0.73599100  0.61249500  0.29597800  1
  C  C58  1  0.76400900  0.11249500  0.20402200  1
  C  C59  1  0.26400900  0.38750500  0.29597800  1
  C  C60  1  0.88750500  0.76400900  0.79597800  1
  C  C61  1  0.61249500  0.26400900  0.70402200  1
  C  C62  1  0.11249500  0.23599100  0.79597800  1
  C  C63  1  0.38750500  0.73599100  0.70402200  1
  C  C64  1  0.25596700  0.01090300  0.90658800  1
  C  C65  1  0.75596700  0.48909700  0.59341200  1
  C  C66  1  0.74403300  0.98909700  0.90658800  1
  C  C67  1  0.24403300  0.51090300  0.59341200  1
  C  C68  1  0.01090300  0.74403300  0.09341200  1
  C  C69  1  0.48909700  0.24403300  0.40658800  1
  C  C70  1  0.98909700  0.25596700  0.09341200  1
  C  C71  1  0.51090300  0.75596700  0.40658800  1
  C  C72  1  0.30488100  0.21147600  0.37929100  1
  C  C73  1  0.80488100  0.28852400  0.12070900  1
  C  C74  1  0.69511900  0.78852400  0.37929100  1
  C  C75  1  0.19511900  0.71147600  0.12070900  1
  C  C76  1  0.21147600  0.69511900  0.62070900  1
  C  C77  1  0.28852400  0.19511900  0.87929100  1
  C  C78  1  0.78852400  0.30488100  0.62070900  1
  C  C79  1  0.71147600  0.80488100  0.87929100  1
  C  C80  1  0.19281800  0.09646800  0.55715000  1
  C  C81  1  0.69281800  0.40353200  0.94285000  1
  C  C82  1  0.80718200  0.90353200  0.55715000  1
  C  C83  1  0.30718200  0.59646800  0.94285000  1
  C  C84  1  0.09646800  0.80718200  0.44285000  1
  C  C85  1  0.40353200  0.30718200  0.05715000  1
  C  C86  1  0.90353200  0.19281800  0.44285000  1
  C  C87  1  0.59646800  0.69281800  0.05715000  1
  C  C88  1  0.16871400  0.13730000  0.17163600  1
  C  C89  1  0.66871400  0.36270000  0.32836400  1
  C  C90  1  0.83128600  0.86270000  0.17163600  1
  C  C91  1  0.33128600  0.63730000  0.32836400  1
  C  C92  1  0.13730000  0.83128600  0.82836400  1
  C  C93  1  0.36270000  0.33128600  0.67163600  1
  C  C94  1  0.86270000  0.16871400  0.82836400  1
  C  C95  1  0.63730000  0.66871400  0.67163600  1
  C  C96  1  0.05225300  0.93164800  0.15250300  1
  C  C97  1  0.55225300  0.56835200  0.34749700  1
  C  C98  1  0.94774700  0.06835200  0.15250300  1
  C  C99  1  0.44774700  0.43164800  0.34749700  1
  C  C100  1  0.93164800  0.94774700  0.84749700  1
  C  C101  1  0.56835200  0.44774700  0.65250300  1
  C  C102  1  0.06835200  0.05225300  0.84749700  1
  C  C103  1  0.43164800  0.55225300  0.65250300  1
