# generated using pymatgen
data_Cu30Ni7C4
_symmetry_space_group_name_H-M   'P 1'
_cell_length_a   13.01871300
_cell_length_b   13.01871300
_cell_length_c   7.27783500
_cell_angle_alpha   90.00000000
_cell_angle_beta   90.00000000
_cell_angle_gamma   90.00000000
_symmetry_Int_Tables_number   1
_chemical_formula_structural   Cu30Ni7C4
_chemical_formula_sum   'Cu60 Ni14 C8'
_cell_volume   1233.49760681
_cell_formula_units_Z   2
loop_
 _symmetry_equiv_pos_site_id
 _symmetry_equiv_pos_as_xyz
  1  'x, y, z'
loop_
 _atom_site_type_symbol
 _atom_site_label
 _atom_site_symmetry_multiplicity
 _atom_site_fract_x
 _atom_site_fract_y
 _atom_site_fract_z
 _atom_site_occupancy
  C  C0  1  0.19929900  0.30070100  0.40759400  1
  C  C1  1  0.30070100  0.80070100  0.59240600  1
  C  C2  1  0.80070100  0.69929900  0.40759400  1
  C  C3  1  0.69929900  0.19929900  0.59240600  1
  C  C4  1  0.36284800  0.13715200  0.01620200  1
  C  C5  1  0.13715200  0.63715200  0.98379800  1
  C  C6  1  0.63715200  0.86284800  0.01620200  1
  C  C7  1  0.86284800  0.36284800  0.98379800  1
  Ni  Ni8  1  0.50000000  0.00000000  0.65552800  1
  Ni  Ni9  1  0.00000000  0.50000000  0.34447200  1
  Ni  Ni10  1  0.62289400  0.12289400  0.10215800  1
  Ni  Ni11  1  0.87710600  0.62289400  0.89784200  1
  Ni  Ni12  1  0.37710600  0.87710600  0.10215800  1
  Ni  Ni13  1  0.12289400  0.37710600  0.89784200  1
  Ni  Ni14  1  0.43534100  0.32450300  0.70965300  1
  Ni  Ni15  1  0.06465900  0.82450300  0.29034700  1
  Ni  Ni16  1  0.56465900  0.67549700  0.70965300  1
  Ni  Ni17  1  0.93534100  0.17549700  0.29034700  1
  Ni  Ni18  1  0.32450300  0.56465900  0.29034700  1
  Ni  Ni19  1  0.17549700  0.06465900  0.70965300  1
  Ni  Ni20  1  0.67549700  0.43534100  0.29034700  1
  Ni  Ni21  1  0.82450300  0.93534100  0.70965300  1
  Cu  Cu22  1  0.30238700  0.19761300  0.20655300  1
  Cu  Cu23  1  0.19761300  0.69761300  0.79344700  1
  Cu  Cu24  1  0.69761300  0.80238700  0.20655300  1
  Cu  Cu25  1  0.80238700  0.30238700  0.79344700  1
  Cu  Cu26  1  0.43354800  0.93354800  0.54270800  1
  Cu  Cu27  1  0.06645200  0.43354800  0.45729200  1
  Cu  Cu28  1  0.56645200  0.06645200  0.54270800  1
  Cu  Cu29  1  0.93354800  0.56645200  0.45729200  1
  Cu  Cu30  1  0.43432900  0.06567100  0.77526900  1
  Cu  Cu31  1  0.06567100  0.56567100  0.22473100  1
  Cu  Cu32  1  0.56567100  0.93432900  0.77526900  1
  Cu  Cu33  1  0.93432900  0.43432900  0.22473100  1
  Cu  Cu34  1  0.65663600  0.15663600  0.92159900  1
  Cu  Cu35  1  0.84336400  0.65663600  0.07840100  1
  Cu  Cu36  1  0.34336400  0.84336400  0.92159900  1
  Cu  Cu37  1  0.15663600  0.34336400  0.07840100  1
  Cu  Cu38  1  0.67416000  0.17416000  0.25450300  1
  Cu  Cu39  1  0.82584000  0.67416000  0.74549700  1
  Cu  Cu40  1  0.32584000  0.82584000  0.25450300  1
  Cu  Cu41  1  0.17416000  0.32584000  0.74549700  1
  Cu  Cu42  1  0.50898300  0.14072100  0.12347400  1
  Cu  Cu43  1  0.99101700  0.64072100  0.87652600  1
  Cu  Cu44  1  0.49101700  0.85927900  0.12347400  1
  Cu  Cu45  1  0.00898300  0.35927900  0.87652600  1
  Cu  Cu46  1  0.14072100  0.49101700  0.87652600  1
  Cu  Cu47  1  0.35927900  0.99101700  0.12347400  1
  Cu  Cu48  1  0.85927900  0.50898300  0.87652600  1
  Cu  Cu49  1  0.64072100  0.00898300  0.12347400  1
  Cu  Cu50  1  0.37057700  0.29237700  0.55383800  1
  Cu  Cu51  1  0.12942300  0.79237700  0.44616200  1
  Cu  Cu52  1  0.62942300  0.70762300  0.55383800  1
  Cu  Cu53  1  0.87057700  0.20762300  0.44616200  1
  Cu  Cu54  1  0.29237700  0.62942300  0.44616200  1
  Cu  Cu55  1  0.20762300  0.12942300  0.55383800  1
  Cu  Cu56  1  0.70762300  0.37057700  0.44616200  1
  Cu  Cu57  1  0.79237700  0.87057700  0.55383800  1
  Cu  Cu58  1  0.54266400  0.29353000  0.68340700  1
  Cu  Cu59  1  0.95733600  0.79353000  0.31659300  1
  Cu  Cu60  1  0.45733600  0.70647000  0.68340700  1
  Cu  Cu61  1  0.04266400  0.20647000  0.31659300  1
  Cu  Cu62  1  0.29353000  0.45733600  0.31659300  1
  Cu  Cu63  1  0.20647000  0.95733600  0.68340700  1
  Cu  Cu64  1  0.70647000  0.54266400  0.31659300  1
  Cu  Cu65  1  0.79353000  0.04266400  0.68340700  1
  Cu  Cu66  1  0.42429400  0.43468500  0.74416100  1
  Cu  Cu67  1  0.07570600  0.93468500  0.25583900  1
  Cu  Cu68  1  0.57570600  0.56531500  0.74416100  1
  Cu  Cu69  1  0.92429400  0.06531500  0.25583900  1
  Cu  Cu70  1  0.43468500  0.57570600  0.25583900  1
  Cu  Cu71  1  0.06531500  0.07570600  0.74416100  1
  Cu  Cu72  1  0.56531500  0.42429400  0.25583900  1
  Cu  Cu73  1  0.93468500  0.92429400  0.74416100  1
  Cu  Cu74  1  0.39423000  0.26793600  0.88093500  1
  Cu  Cu75  1  0.10577000  0.76793600  0.11906500  1
  Cu  Cu76  1  0.60577000  0.73206400  0.88093500  1
  Cu  Cu77  1  0.89423000  0.23206400  0.11906500  1
  Cu  Cu78  1  0.26793600  0.60577000  0.11906500  1
  Cu  Cu79  1  0.23206400  0.10577000  0.88093500  1
  Cu  Cu80  1  0.73206400  0.39423000  0.11906500  1
  Cu  Cu81  1  0.76793600  0.89423000  0.88093500  1
