# generated using pymatgen
data_Cu3Ni7C26
_symmetry_space_group_name_H-M   'P 1'
_cell_length_a   5.52895900
_cell_length_b   9.06753902
_cell_length_c   9.16666388
_cell_angle_alpha   63.89163516
_cell_angle_beta   73.03491326
_cell_angle_gamma   72.95211490
_symmetry_Int_Tables_number   1
_chemical_formula_structural   Cu3Ni7C26
_chemical_formula_sum   'Cu3 Ni7 C26'
_cell_volume   387.38077645
_cell_formula_units_Z   1
loop_
 _symmetry_equiv_pos_site_id
 _symmetry_equiv_pos_as_xyz
  1  'x, y, z'
loop_
 _atom_site_type_symbol
 _atom_site_label
 _atom_site_symmetry_multiplicity
 _atom_site_fract_x
 _atom_site_fract_y
 _atom_site_fract_z
 _atom_site_occupancy
  Ni  Ni0  1  0.54401100  0.11442100  0.78578500  1
  Ni  Ni1  1  0.58432700  0.08382200  0.41574700  1
  Ni  Ni2  1  0.08940700  0.58098200  0.91327100  1
  Ni  Ni3  1  0.08389100  0.24846400  0.24530700  1
  Ni  Ni4  1  0.58710300  0.74662300  0.75170900  1
  Ni  Ni5  1  0.07623100  0.91847200  0.58161800  1
  Ni  Ni6  1  0.58827500  0.41045000  0.08118900  1
  Cu  Cu7  1  0.06670000  0.60500500  0.27499000  1
  Cu  Cu8  1  0.04178600  0.28548400  0.60593400  1
  Cu  Cu9  1  0.56506400  0.76716000  0.11993400  1
  C  C10  1  0.54124600  0.78826700  0.44034100  1
  C  C11  1  0.06233200  0.29343100  0.92823800  1
  C  C12  1  0.05420400  0.61733000  0.60195700  1
  C  C13  1  0.53018700  0.10152000  0.12128200  1
  C  C14  1  0.08339600  0.92765300  0.29176300  1
  C  C15  1  0.57390900  0.44329300  0.77919500  1
  C  C16  1  0.61642100  0.38302800  0.39528800  1
  C  C17  1  0.09890200  0.90186000  0.87625200  1
  C  C18  1  0.20897200  0.22973700  0.74829600  1
  C  C19  1  0.76444100  0.70853900  0.25378700  1
  C  C20  1  0.06256100  0.48325600  0.47305100  1
  C  C21  1  0.54564400  0.96803300  0.01369900  1
  C  C22  1  0.73922100  0.28529500  0.69445200  1
  C  C23  1  0.26557200  0.73503500  0.22793300  1
  C  C24  1  0.69475300  0.98369900  0.65744200  1
  C  C25  1  0.17291100  0.49786500  0.15991400  1
  C  C26  1  0.15102100  0.15918500  0.50432900  1
  C  C27  1  0.67048400  0.65913100  0.00403400  1
  C  C28  1  0.46634800  0.85048900  0.51238800  1
  C  C29  1  0.99498400  0.34704100  0.00886900  1
  C  C30  1  0.99889400  0.68545500  0.66849200  1
  C  C31  1  0.48405600  0.17640400  0.18109500  1
  C  C32  1  0.00012300  0.99999100  0.35355100  1
  C  C33  1  0.49360600  0.51460000  0.84333200  1
  C  C34  1  0.67757800  0.31911900  0.32551800  1
  C  C35  1  0.16923800  0.83206000  0.81221600  1
