# generated using pymatgen
data_CuNi14C
_symmetry_space_group_name_H-M   'P 1'
_cell_length_a   6.64189402
_cell_length_b   6.44490072
_cell_length_c   10.42111406
_cell_angle_alpha   90.00000000
_cell_angle_beta   90.00000000
_cell_angle_gamma   119.02364267
_symmetry_Int_Tables_number   1
_chemical_formula_structural   CuNi14C
_chemical_formula_sum   'Cu1 Ni14 C1'
_cell_volume   390.06968198
_cell_formula_units_Z   1
loop_
 _symmetry_equiv_pos_site_id
 _symmetry_equiv_pos_as_xyz
  1  'x, y, z'
loop_
 _atom_site_type_symbol
 _atom_site_label
 _atom_site_symmetry_multiplicity
 _atom_site_fract_x
 _atom_site_fract_y
 _atom_site_fract_z
 _atom_site_occupancy
  C  C0  1  0.14317936  0.82158918  0.12500000  1
  Ni  Ni1  1  0.15848684  0.32924292  0.62500000  1
  Ni  Ni2  1  0.16745790  0.83372845  0.62500000  1
  Ni  Ni3  1  0.63334394  0.32796863  0.12500000  1
  Ni  Ni4  1  0.66711174  0.32642430  0.62500000  1
  Ni  Ni5  1  0.63334394  0.80537431  0.12500000  1
  Ni  Ni6  1  0.66711174  0.84068644  0.62500000  1
  Ni  Ni7  1  0.33992294  0.17941774  0.38624723  1
  Ni  Ni8  1  0.33992294  0.17941774  0.86375277  1
  Ni  Ni9  1  0.33992294  0.66050620  0.38624723  1
  Ni  Ni10  1  0.33992294  0.66050620  0.86375277  1
  Ni  Ni11  1  0.85116146  0.17558123  0.35291770  1
  Ni  Ni12  1  0.85116146  0.17558123  0.89708230  1
  Ni  Ni13  1  0.82425305  0.66212703  0.39381025  1
  Ni  Ni14  1  0.82425305  0.66212703  0.85618975  1
  Cu  Cu15  1  0.21944378  0.35972139  0.12500000  1
