# generated using pymatgen
data_Cu5Ni
_symmetry_space_group_name_H-M   'P 1'
_cell_length_a   5.48507900
_cell_length_b   7.16772500
_cell_length_c   8.76323900
_cell_angle_alpha   90.00000000
_cell_angle_beta   90.00000000
_cell_angle_gamma   90.00000000
_symmetry_Int_Tables_number   1
_chemical_formula_structural   Cu5Ni
_chemical_formula_sum   'Cu20 Ni4'
_cell_volume   344.53145481
_cell_formula_units_Z   4
loop_
 _symmetry_equiv_pos_site_id
 _symmetry_equiv_pos_as_xyz
  1  'x, y, z'
loop_
 _atom_site_type_symbol
 _atom_site_label
 _atom_site_symmetry_multiplicity
 _atom_site_fract_x
 _atom_site_fract_y
 _atom_site_fract_z
 _atom_site_occupancy
  Ni  Ni0  1  0.25000000  0.30604300  0.92188100  1
  Ni  Ni1  1  0.25000000  0.19395700  0.42188100  1
  Ni  Ni2  1  0.75000000  0.69395700  0.07811900  1
  Ni  Ni3  1  0.75000000  0.80604300  0.57811900  1
  Cu  Cu4  1  0.25000000  0.43619600  0.79479600  1
  Cu  Cu5  1  0.25000000  0.06380400  0.29479600  1
  Cu  Cu6  1  0.75000000  0.56380400  0.20520400  1
  Cu  Cu7  1  0.75000000  0.93619600  0.70520400  1
  Cu  Cu8  1  0.25000000  0.40051500  0.06627600  1
  Cu  Cu9  1  0.25000000  0.09948500  0.56627600  1
  Cu  Cu10  1  0.75000000  0.59948500  0.93372400  1
  Cu  Cu11  1  0.75000000  0.90051500  0.43372400  1
  Cu  Cu12  1  0.03197500  0.18438500  0.90863300  1
  Cu  Cu13  1  0.46802500  0.31561500  0.40863300  1
  Cu  Cu14  1  0.53197500  0.81561500  0.09136700  1
  Cu  Cu15  1  0.96802500  0.68438500  0.59136700  1
  Cu  Cu16  1  0.96802500  0.81561500  0.09136700  1
  Cu  Cu17  1  0.53197500  0.68438500  0.59136700  1
  Cu  Cu18  1  0.46802500  0.18438500  0.90863300  1
  Cu  Cu19  1  0.03197500  0.31561500  0.40863300  1
  Cu  Cu20  1  0.75000000  0.17765500  0.17384900  1
  Cu  Cu21  1  0.75000000  0.32234500  0.67384900  1
  Cu  Cu22  1  0.25000000  0.82234500  0.82615100  1
  Cu  Cu23  1  0.25000000  0.67765500  0.32615100  1
