# generated using pymatgen
data_CuNiC7
_symmetry_space_group_name_H-M   'P 1'
_cell_length_a   5.38388700
_cell_length_b   5.90788000
_cell_length_c   9.15913700
_cell_angle_alpha   90.00000000
_cell_angle_beta   90.00000000
_cell_angle_gamma   90.00000000
_symmetry_Int_Tables_number   1
_chemical_formula_structural   CuNiC7
_chemical_formula_sum   'Cu4 Ni4 C28'
_cell_volume   291.32795255
_cell_formula_units_Z   4
loop_
 _symmetry_equiv_pos_site_id
 _symmetry_equiv_pos_as_xyz
  1  'x, y, z'
loop_
 _atom_site_type_symbol
 _atom_site_label
 _atom_site_symmetry_multiplicity
 _atom_site_fract_x
 _atom_site_fract_y
 _atom_site_fract_z
 _atom_site_occupancy
  C  C0  1  0.25000000  0.24298800  0.83431600  1
  C  C1  1  0.75000000  0.75701200  0.16568400  1
  C  C2  1  0.25000000  0.74298800  0.16568400  1
  C  C3  1  0.75000000  0.25701200  0.83431600  1
  C  C4  1  0.41171700  0.99889000  0.86542700  1
  C  C5  1  0.58828300  0.00111000  0.13457300  1
  C  C6  1  0.91171700  0.00111000  0.13457300  1
  C  C7  1  0.08828300  0.99889000  0.86542700  1
  C  C8  1  0.08828300  0.49889000  0.13457300  1
  C  C9  1  0.91171700  0.50111000  0.86542700  1
  C  C10  1  0.58828300  0.50111000  0.86542700  1
  C  C11  1  0.41171700  0.49889000  0.13457300  1
  C  C12  1  0.25000000  0.81734000  0.65042500  1
  C  C13  1  0.75000000  0.18266000  0.34957500  1
  C  C14  1  0.25000000  0.31734000  0.34957500  1
  C  C15  1  0.75000000  0.68266000  0.65042500  1
  C  C16  1  0.08382400  0.07145400  0.60898300  1
  C  C17  1  0.91617600  0.92854600  0.39101700  1
  C  C18  1  0.58382400  0.92854600  0.39101700  1
  C  C19  1  0.41617600  0.07145400  0.60898300  1
  C  C20  1  0.41617600  0.57145400  0.39101700  1
  C  C21  1  0.58382400  0.42854600  0.60898300  1
  C  C22  1  0.91617600  0.42854600  0.60898300  1
  C  C23  1  0.08382400  0.57145400  0.39101700  1
  Ni  Ni24  1  0.25000000  0.00205500  0.66116200  1
  Ni  Ni25  1  0.75000000  0.99794500  0.33883800  1
  Ni  Ni26  1  0.25000000  0.50205500  0.33883800  1
  Ni  Ni27  1  0.75000000  0.49794500  0.66116200  1
  Cu  Cu28  1  0.25000000  0.06135500  0.81816800  1
  Cu  Cu29  1  0.75000000  0.93864500  0.18183200  1
  Cu  Cu30  1  0.25000000  0.56135500  0.18183200  1
  Cu  Cu31  1  0.75000000  0.43864500  0.81816800  1
  C  C32  1  0.25000000  0.00056100  0.14565100  1
  C  C33  1  0.75000000  0.99943900  0.85434900  1
  C  C34  1  0.25000000  0.50056100  0.85434900  1
  C  C35  1  0.75000000  0.49943900  0.14565100  1
