# generated using pymatgen
data_Cu12NiC73
_symmetry_space_group_name_H-M   'P 1'
_cell_length_a   9.90666900
_cell_length_b   9.90666900
_cell_length_c   15.23634100
_cell_angle_alpha   90.00000000
_cell_angle_beta   90.00000000
_cell_angle_gamma   90.00000000
_symmetry_Int_Tables_number   1
_chemical_formula_structural   Cu12NiC73
_chemical_formula_sum   'Cu12 Ni1 C73'
_cell_volume   1495.32635999
_cell_formula_units_Z   1
loop_
 _symmetry_equiv_pos_site_id
 _symmetry_equiv_pos_as_xyz
  1  'x, y, z'
loop_
 _atom_site_type_symbol
 _atom_site_label
 _atom_site_symmetry_multiplicity
 _atom_site_fract_x
 _atom_site_fract_y
 _atom_site_fract_z
 _atom_site_occupancy
  C  C0  1  0.14826400  0.61852500  0.30398300  1
  C  C1  1  0.85173600  0.38147500  0.30398300  1
  C  C2  1  0.61852500  0.85173600  0.69601700  1
  C  C3  1  0.38147500  0.14826400  0.69601700  1
  C  C4  1  0.35505600  0.12121300  0.33852800  1
  C  C5  1  0.64494400  0.87878700  0.33852800  1
  C  C6  1  0.12121300  0.64494400  0.66147200  1
  C  C7  1  0.87878700  0.35505600  0.66147200  1
  C  C8  1  0.15035400  0.31307900  0.19427700  1
  C  C9  1  0.84964600  0.68692100  0.19427700  1
  C  C10  1  0.31307900  0.84964600  0.80572300  1
  C  C11  1  0.68692100  0.15035400  0.80572300  1
  C  C12  1  0.64161700  0.15694100  0.20036900  1
  C  C13  1  0.35838300  0.84305900  0.20036900  1
  C  C14  1  0.15694100  0.35838300  0.79963100  1
  C  C15  1  0.84305900  0.64161700  0.79963100  1
  C  C16  1  0.00000000  0.00000000  0.00000000  1
  Ni  Ni17  1  0.50000000  0.50000000  0.00000000  1
  Cu  Cu18  1  0.17802500  0.32601100  0.50447800  1
  Cu  Cu19  1  0.82197500  0.67398900  0.50447800  1
  Cu  Cu20  1  0.32601100  0.82197500  0.49552200  1
  Cu  Cu21  1  0.67398900  0.17802500  0.49552200  1
  Cu  Cu22  1  0.00000000  0.00000000  0.27718100  1
  Cu  Cu23  1  0.00000000  0.00000000  0.72281900  1
  Cu  Cu24  1  0.29006300  0.56173200  0.00934400  1
  Cu  Cu25  1  0.70993700  0.43826800  0.00934400  1
  Cu  Cu26  1  0.56173200  0.70993700  0.99065600  1
  Cu  Cu27  1  0.43826800  0.29006300  0.99065600  1
  Cu  Cu28  1  0.50000000  0.50000000  0.24866800  1
  Cu  Cu29  1  0.50000000  0.50000000  0.75133200  1
  C  C30  1  0.63395800  0.13109300  0.10051900  1
  C  C31  1  0.36604200  0.86890700  0.10051900  1
  C  C32  1  0.13109300  0.36604200  0.89948100  1
  C  C33  1  0.86890700  0.63395800  0.89948100  1
  C  C34  1  0.24402400  0.08517600  0.42436700  1
  C  C35  1  0.75597600  0.91482400  0.42436700  1
  C  C36  1  0.08517600  0.75597600  0.57563300  1
  C  C37  1  0.91482400  0.24402400  0.57563300  1
  C  C38  1  0.70222900  0.03708300  0.25018700  1
  C  C39  1  0.29777100  0.96291700  0.25018700  1
  C  C40  1  0.03708300  0.29777100  0.74981300  1
  C  C41  1  0.96291700  0.70222900  0.74981300  1
  C  C42  1  0.49054400  0.18273200  0.22117400  1
  C  C43  1  0.50945600  0.81726800  0.22117400  1
  C  C44  1  0.18273200  0.50945600  0.77882600  1
  C  C45  1  0.81726800  0.49054400  0.77882600  1
  C  C46  1  0.27769500  0.71300600  0.22060400  1
  C  C47  1  0.72230500  0.28699400  0.22060400  1
  C  C48  1  0.71300600  0.72230500  0.77939600  1
  C  C49  1  0.28699400  0.27769500  0.77939600  1
  C  C50  1  0.00000000  0.50000000  0.63228900  1
  C  C51  1  0.50000000  0.00000000  0.36771100  1
  C  C52  1  0.19648200  0.46027700  0.20829300  1
  C  C53  1  0.80351800  0.53972300  0.20829300  1
  C  C54  1  0.46027700  0.80351800  0.79170700  1
  C  C55  1  0.53972300  0.19648200  0.79170700  1
  C  C56  1  0.19331400  0.27833800  0.09936100  1
  C  C57  1  0.80668600  0.72166200  0.09936100  1
  C  C58  1  0.27833800  0.80668600  0.90063900  1
  C  C59  1  0.72166200  0.19331400  0.90063900  1
  C  C60  1  0.26680000  0.56022600  0.37852800  1
  C  C61  1  0.73320000  0.43977400  0.37852800  1
  C  C62  1  0.56022600  0.73320000  0.62147200  1
  C  C63  1  0.43977400  0.26680000  0.62147200  1
  C  C64  1  0.00000000  0.50000000  0.33248500  1
  C  C65  1  0.50000000  0.00000000  0.66751500  1
  C  C66  1  0.00437100  0.70035500  0.20372900  1
  C  C67  1  0.99562900  0.29964500  0.20372900  1
  C  C68  1  0.70035500  0.99562900  0.79627100  1
  C  C69  1  0.29964500  0.00437100  0.79627100  1
  C  C70  1  0.21632000  0.21868900  0.26193000  1
  C  C71  1  0.78368000  0.78131100  0.26193000  1
  C  C72  1  0.21868900  0.78368000  0.73807000  1
  C  C73  1  0.78131100  0.21632000  0.73807000  1
  C  C74  1  0.42899100  0.27148100  0.37607900  1
  C  C75  1  0.57100900  0.72851900  0.37607900  1
  C  C76  1  0.27148100  0.57100900  0.62392100  1
  C  C77  1  0.72851900  0.42899100  0.62392100  1
  C  C78  1  0.23203600  0.09922900  0.64012900  1
  C  C79  1  0.76796400  0.90077100  0.64012900  1
  C  C80  1  0.09922900  0.76796400  0.35987100  1
  C  C81  1  0.90077100  0.23203600  0.35987100  1
  C  C82  1  0.11846100  0.02361400  0.06415100  1
  C  C83  1  0.88153900  0.97638600  0.06415100  1
  C  C84  1  0.02361400  0.88153900  0.93584900  1
  C  C85  1  0.97638600  0.11846100  0.93584900  1
