# generated using pymatgen
data_CuNi14C9
_symmetry_space_group_name_H-M   'P 1'
_cell_length_a   14.68463990
_cell_length_b   15.28679061
_cell_length_c   15.28679061
_cell_angle_alpha   109.99335729
_cell_angle_beta   90.00000000
_cell_angle_gamma   90.00000000
_symmetry_Int_Tables_number   1
_chemical_formula_structural   CuNi14C9
_chemical_formula_sum   'Cu8 Ni112 C72'
_cell_volume   3224.77987010
_cell_formula_units_Z   8
loop_
 _symmetry_equiv_pos_site_id
 _symmetry_equiv_pos_as_xyz
  1  'x, y, z'
loop_
 _atom_site_type_symbol
 _atom_site_label
 _atom_site_symmetry_multiplicity
 _atom_site_fract_x
 _atom_site_fract_y
 _atom_site_fract_z
 _atom_site_occupancy
  C  C0  1  0.98040354  0.09373806  0.90626194  1
  C  C1  1  0.01959646  0.90626194  0.09373806  1
  C  C2  1  0.48040354  0.40626194  0.59373806  1
  C  C3  1  0.51959646  0.59373806  0.40626194  1
  C  C4  1  0.99779288  0.61341383  0.38658617  1
  C  C5  1  0.00220712  0.38658617  0.61341383  1
  C  C6  1  0.49779288  0.88658617  0.11341383  1
  C  C7  1  0.50220712  0.11341383  0.88658617  1
  C  C8  1  0.98855842  0.89519887  0.60209767  1
  C  C9  1  0.01144158  0.60209767  0.89519887  1
  C  C10  1  0.48855842  0.10209767  0.39519887  1
  C  C11  1  0.51144158  0.39519887  0.10209767  1
  C  C12  1  0.01144158  0.10480113  0.39790233  1
  C  C13  1  0.98855842  0.39790233  0.10480113  1
  C  C14  1  0.51144158  0.89790233  0.60480113  1
  C  C15  1  0.48855842  0.60480113  0.89790233  1
  C  C16  1  0.74829316  0.74979145  0.49965446  1
  C  C17  1  0.25170684  0.49965446  0.74979145  1
  C  C18  1  0.24829316  0.99965446  0.24979145  1
  C  C19  1  0.75170684  0.24979145  0.99965446  1
  C  C20  1  0.25170684  0.25020855  0.50034554  1
  C  C21  1  0.74829316  0.50034554  0.25020855  1
  C  C22  1  0.75170684  0.00034554  0.75020855  1
  C  C23  1  0.24829316  0.75020855  0.00034554  1
  C  C24  1  0.10243447  0.63059919  0.65553562  1
  C  C25  1  0.89756553  0.65553562  0.63059919  1
  C  C26  1  0.60243447  0.15553562  0.13059919  1
  C  C27  1  0.39756553  0.13059919  0.15553562  1
  C  C28  1  0.89756553  0.36940081  0.34446438  1
  C  C29  1  0.10243447  0.34446438  0.36940081  1
  C  C30  1  0.39756553  0.84446438  0.86940081  1
  C  C31  1  0.60243447  0.86940081  0.84446438  1
  C  C32  1  0.24862747  0.83996849  0.47953382  1
  C  C33  1  0.75137253  0.47953382  0.83996849  1
  C  C34  1  0.74862747  0.97953382  0.33996849  1
  C  C35  1  0.25137253  0.33996849  0.97953382  1
  C  C36  1  0.75137253  0.16003151  0.52046618  1
  C  C37  1  0.24862747  0.52046618  0.16003151  1
  C  C38  1  0.25137253  0.02046618  0.66003151  1
  C  C39  1  0.74862747  0.66003151  0.02046618  1
  C  C40  1  0.39364173  0.67368902  0.68126270  1
  C  C41  1  0.60635827  0.68126270  0.67368902  1
  C  C42  1  0.89364173  0.18126270  0.17368902  1
  C  C43  1  0.10635827  0.17368902  0.18126270  1
  C  C44  1  0.60635827  0.32631098  0.31873730  1
  C  C45  1  0.39364173  0.31873730  0.32631098  1
  C  C46  1  0.10635827  0.81873730  0.82631098  1
  C  C47  1  0.89364173  0.82631098  0.81873730  1
  C  C48  1  0.89407041  0.83632762  0.34205517  1
  C  C49  1  0.10592959  0.34205517  0.83632762  1
  C  C50  1  0.39407041  0.84205517  0.33632762  1
  C  C51  1  0.60592959  0.33632762  0.84205517  1
  C  C52  1  0.10592959  0.16367238  0.65794483  1
  C  C53  1  0.89407041  0.65794483  0.16367238  1
  C  C54  1  0.60592959  0.15794483  0.66367238  1
  C  C55  1  0.39407041  0.66367238  0.15794483  1
  C  C56  1  0.10466517  0.85148160  0.32745516  1
  C  C57  1  0.89533483  0.32745516  0.85148160  1
  C  C58  1  0.60466517  0.82745516  0.35148160  1
  C  C59  1  0.39533483  0.35148160  0.82745516  1
  C  C60  1  0.89533483  0.14851840  0.67254484  1
  C  C61  1  0.10466517  0.67254484  0.14851840  1
  C  C62  1  0.39533483  0.17254484  0.64851840  1
  C  C63  1  0.60466517  0.64851840  0.17254484  1
  C  C64  1  0.25684902  0.65465392  0.52176375  1
  C  C65  1  0.74315098  0.52176375  0.65465392  1
  C  C66  1  0.75684902  0.02176375  0.15465392  1
  C  C67  1  0.24315098  0.15465392  0.02176375  1
  C  C68  1  0.74315098  0.34534608  0.47823625  1
  C  C69  1  0.25684902  0.47823625  0.34534608  1
  C  C70  1  0.24315098  0.97823625  0.84534608  1
  C  C71  1  0.75684902  0.84534608  0.97823625  1
  Ni  Ni72  1  0.16999024  0.61993431  0.56615822  1
  Ni  Ni73  1  0.83000976  0.56615822  0.61993431  1
  Ni  Ni74  1  0.66999024  0.06615822  0.11993431  1
  Ni  Ni75  1  0.33000976  0.11993431  0.06615822  1
  Ni  Ni76  1  0.83000976  0.38006569  0.43384178  1
  Ni  Ni77  1  0.16999024  0.43384178  0.38006569  1
  Ni  Ni78  1  0.33000976  0.93384178  0.88006569  1
  Ni  Ni79  1  0.66999024  0.88006569  0.93384178  1
  Ni  Ni80  1  0.34818761  0.59405409  0.71222575  1
  Ni  Ni81  1  0.65181239  0.71222575  0.59405409  1
  Ni  Ni82  1  0.84818761  0.21222575  0.09405409  1
  Ni  Ni83  1  0.15181239  0.09405409  0.21222575  1
  Ni  Ni84  1  0.65181239  0.40594591  0.28777425  1
  Ni  Ni85  1  0.34818761  0.28777425  0.40594591  1
  Ni  Ni86  1  0.15181239  0.78777425  0.90594591  1
  Ni  Ni87  1  0.84818761  0.90594591  0.78777425  1
  Ni  Ni88  1  0.11608356  0.74164525  0.25835475  1
  Ni  Ni89  1  0.88391644  0.25835475  0.74164525  1
  Ni  Ni90  1  0.61608356  0.75835475  0.24164525  1
  Ni  Ni91  1  0.38391644  0.24164525  0.75835475  1
  Ni  Ni92  1  0.22231989  0.73834653  0.48576197  1
  Ni  Ni93  1  0.77768011  0.48576197  0.73834653  1
  Ni  Ni94  1  0.72231989  0.98576197  0.23834653  1
  Ni  Ni95  1  0.27768011  0.23834653  0.98576197  1
  Ni  Ni96  1  0.77768011  0.26165347  0.51423803  1
  Ni  Ni97  1  0.22231989  0.51423803  0.26165347  1
  Ni  Ni98  1  0.27768011  0.01423803  0.76165347  1
  Ni  Ni99  1  0.72231989  0.76165347  0.01423803  1
  Ni  Ni100  1  0.84482236  0.79573694  0.41277355  1
  Ni  Ni101  1  0.15517764  0.41277355  0.79573694  1
  Ni  Ni102  1  0.34482236  0.91277355  0.29573694  1
  Ni  Ni103  1  0.65517764  0.29573694  0.91277355  1
  Ni  Ni104  1  0.15517764  0.20426306  0.58722645  1
  Ni  Ni105  1  0.84482236  0.58722645  0.20426306  1
  Ni  Ni106  1  0.65517764  0.08722645  0.70426306  1
  Ni  Ni107  1  0.34482236  0.70426306  0.08722645  1
  Ni  Ni108  1  0.00122558  0.86332100  0.37420801  1
  Ni  Ni109  1  0.99877442  0.37420801  0.86332100  1
  Ni  Ni110  1  0.50122558  0.87420801  0.36332100  1
  Ni  Ni111  1  0.49877442  0.36332100  0.87420801  1
  Ni  Ni112  1  0.99877442  0.13667900  0.62579199  1
  Ni  Ni113  1  0.00122558  0.62579199  0.13667900  1
  Ni  Ni114  1  0.49877442  0.12579199  0.63667900  1
  Ni  Ni115  1  0.50122558  0.63667900  0.12579199  1
  Ni  Ni116  1  0.00000000  0.60733112  0.60733112  1
  Ni  Ni117  1  0.50000000  0.10733112  0.10733112  1
  Ni  Ni118  1  0.00000000  0.39266888  0.39266888  1
  Ni  Ni119  1  0.50000000  0.89266888  0.89266888  1
  Ni  Ni120  1  0.16910134  0.86663439  0.42001979  1
  Ni  Ni121  1  0.83089866  0.42001979  0.86663439  1
  Ni  Ni122  1  0.66910134  0.92001979  0.36663439  1
  Ni  Ni123  1  0.33089866  0.36663439  0.92001979  1
  Ni  Ni124  1  0.83089866  0.13336561  0.57998021  1
  Ni  Ni125  1  0.16910134  0.57998021  0.13336561  1
  Ni  Ni126  1  0.33089866  0.07998021  0.63336561  1
  Ni  Ni127  1  0.66910134  0.63336561  0.07998021  1
  Ni  Ni128  1  0.12448349  0.92815184  0.28016805  1
  Ni  Ni129  1  0.87551651  0.28016805  0.92815184  1
  Ni  Ni130  1  0.62448349  0.78016805  0.42815184  1
  Ni  Ni131  1  0.37551651  0.42815184  0.78016805  1
  Ni  Ni132  1  0.87551651  0.07184816  0.71983195  1
  Ni  Ni133  1  0.12448349  0.71983195  0.07184816  1
  Ni  Ni134  1  0.37551651  0.21983195  0.57184816  1
  Ni  Ni135  1  0.62448349  0.57184816  0.21983195  1
  Ni  Ni136  1  0.50000000  0.64554986  0.64554986  1
  Ni  Ni137  1  0.00000000  0.14554986  0.14554986  1
  Ni  Ni138  1  0.50000000  0.35445014  0.35445014  1
  Ni  Ni139  1  0.00000000  0.85445014  0.85445014  1
  Ni  Ni140  1  0.35015150  0.83886564  0.43575853  1
  Ni  Ni141  1  0.64984850  0.43575853  0.83886564  1
  Ni  Ni142  1  0.85015150  0.93575853  0.33886564  1
  Ni  Ni143  1  0.14984850  0.33886564  0.93575853  1
  Ni  Ni144  1  0.64984850  0.16113436  0.56424147  1
  Ni  Ni145  1  0.35015150  0.56424147  0.16113436  1
  Ni  Ni146  1  0.14984850  0.06424147  0.66113436  1
  Ni  Ni147  1  0.85015150  0.66113436  0.06424147  1
  Ni  Ni148  1  0.25000000  0.91412783  0.58587217  1
  Ni  Ni149  1  0.75000000  0.58587217  0.91412783  1
  Ni  Ni150  1  0.75000000  0.08587217  0.41412783  1
  Ni  Ni151  1  0.25000000  0.41412783  0.08587217  1
  Ni  Ni152  1  0.34375631  0.69034996  0.59051241  1
  Ni  Ni153  1  0.65624369  0.59051241  0.69034996  1
  Ni  Ni154  1  0.84375631  0.09051241  0.19034996  1
  Ni  Ni155  1  0.15624369  0.19034996  0.09051241  1
  Ni  Ni156  1  0.65624369  0.30965004  0.40948759  1
  Ni  Ni157  1  0.34375631  0.40948759  0.30965004  1
  Ni  Ni158  1  0.15624369  0.90948759  0.80965004  1
  Ni  Ni159  1  0.84375631  0.80965004  0.90948759  1
  Ni  Ni160  1  0.10376399  0.74151592  0.72036176  1
  Ni  Ni161  1  0.89623601  0.72036176  0.74151592  1
  Ni  Ni162  1  0.60376399  0.22036176  0.24151592  1
  Ni  Ni163  1  0.39623601  0.24151592  0.22036176  1
  Ni  Ni164  1  0.89623601  0.25848408  0.27963824  1
  Ni  Ni165  1  0.10376399  0.27963824  0.25848408  1
  Ni  Ni166  1  0.39623601  0.77963824  0.75848408  1
  Ni  Ni167  1  0.60376399  0.75848408  0.77963824  1
  Ni  Ni168  1  0.89617684  0.76784231  0.23215769  1
  Ni  Ni169  1  0.10382316  0.23215769  0.76784231  1
  Ni  Ni170  1  0.39617684  0.73215769  0.26784231  1
  Ni  Ni171  1  0.60382316  0.26784231  0.73215769  1
  Ni  Ni172  1  0.29327620  0.56879739  0.43120261  1
  Ni  Ni173  1  0.70672380  0.43120261  0.56879739  1
  Ni  Ni174  1  0.79327620  0.93120261  0.06879739  1
  Ni  Ni175  1  0.20672380  0.06879739  0.93120261  1
  Ni  Ni176  1  0.12721582  0.56069693  0.70951545  1
  Ni  Ni177  1  0.87278418  0.70951545  0.56069693  1
  Ni  Ni178  1  0.62721582  0.20951545  0.06069693  1
  Ni  Ni179  1  0.37278418  0.06069693  0.20951545  1
  Ni  Ni180  1  0.87278418  0.43930307  0.29048455  1
  Ni  Ni181  1  0.12721582  0.29048455  0.43930307  1
  Ni  Ni182  1  0.37278418  0.79048455  0.93930307  1
  Ni  Ni183  1  0.62721582  0.93930307  0.79048455  1
  Cu  Cu184  1  0.75000000  0.89389639  0.60610361  1
  Cu  Cu185  1  0.25000000  0.60610361  0.89389639  1
  Cu  Cu186  1  0.25000000  0.10610361  0.39389639  1
  Cu  Cu187  1  0.75000000  0.39389639  0.10610361  1
  Cu  Cu188  1  0.74129083  0.60533063  0.39466937  1
  Cu  Cu189  1  0.25870917  0.39466937  0.60533063  1
  Cu  Cu190  1  0.24129083  0.89466937  0.10533063  1
  Cu  Cu191  1  0.75870917  0.10533063  0.89466937  1
