# generated using pymatgen
data_CuNiC5
_symmetry_space_group_name_H-M   'P 1'
_cell_length_a   6.77474888
_cell_length_b   6.77474888
_cell_length_c   5.88180900
_cell_angle_alpha   90.00000000
_cell_angle_beta   90.00000000
_cell_angle_gamma   130.23566919
_symmetry_Int_Tables_number   1
_chemical_formula_structural   CuNiC5
_chemical_formula_sum   'Cu2 Ni2 C10'
_cell_volume   206.08486328
_cell_formula_units_Z   2
loop_
 _symmetry_equiv_pos_site_id
 _symmetry_equiv_pos_as_xyz
  1  'x, y, z'
loop_
 _atom_site_type_symbol
 _atom_site_label
 _atom_site_symmetry_multiplicity
 _atom_site_fract_x
 _atom_site_fract_y
 _atom_site_fract_z
 _atom_site_occupancy
  Ni  Ni0  1  0.60436500  0.39563500  0.51152500  1
  Ni  Ni1  1  0.39563500  0.60436500  0.01152500  1
  C  C2  1  0.89400200  0.10599800  0.49053500  1
  C  C3  1  0.10599800  0.89400200  0.99053500  1
  Cu  Cu4  1  0.25398600  0.74601400  0.49449100  1
  Cu  Cu5  1  0.74601400  0.25398600  0.99449100  1
  C  C6  1  0.58368400  0.41631600  0.92831100  1
  C  C7  1  0.93256900  0.06743100  0.10510700  1
  C  C8  1  0.41631600  0.58368400  0.42831100  1
  C  C9  1  0.06743100  0.93256900  0.60510700  1
  C  C10  1  0.01871700  0.46216200  0.73501500  1
  C  C11  1  0.98128300  0.53783800  0.23501500  1
  C  C12  1  0.46216200  0.01871700  0.23501500  1
  C  C13  1  0.53783800  0.98128300  0.73501500  1
