# generated using pymatgen
data_CuNiC16
_symmetry_space_group_name_H-M   'P 1'
_cell_length_a   5.34948757
_cell_length_b   5.34948757
_cell_length_c   7.56354439
_cell_angle_alpha   90.00000000
_cell_angle_beta   90.00000000
_cell_angle_gamma   89.98301193
_symmetry_Int_Tables_number   1
_chemical_formula_structural   CuNiC16
_chemical_formula_sum   'Cu1 Ni1 C16'
_cell_volume   216.44607085
_cell_formula_units_Z   1
loop_
 _symmetry_equiv_pos_site_id
 _symmetry_equiv_pos_as_xyz
  1  'x, y, z'
loop_
 _atom_site_type_symbol
 _atom_site_label
 _atom_site_symmetry_multiplicity
 _atom_site_fract_x
 _atom_site_fract_y
 _atom_site_fract_z
 _atom_site_occupancy
  Ni  Ni0  1  0.99654315  0.99654315  0.50000000  1
  Cu  Cu1  1  0.50557425  0.50557425  0.00000000  1
  C  C2  1  0.50005505  0.00019547  0.74850436  1
  C  C3  1  0.50005505  0.00019547  0.25149564  1
  C  C4  1  0.00019547  0.50005505  0.25149564  1
  C  C5  1  0.00019547  0.50005505  0.74850436  1
  C  C6  1  0.76123407  0.23836287  0.75490199  1
  C  C7  1  0.23836287  0.76123407  0.75490199  1
  C  C8  1  0.23836287  0.76123407  0.24509801  1
  C  C9  1  0.76123407  0.23836287  0.24509801  1
  C  C10  1  0.73203870  0.73203870  0.73812462  1
  C  C11  1  0.26912491  0.26912491  0.77045144  1
  C  C12  1  0.26912491  0.26912491  0.22954856  1
  C  C13  1  0.73203870  0.73203870  0.26187538  1
  C  C14  1  0.51483305  0.97884587  0.00000000  1
  C  C15  1  0.48595968  0.01582188  0.50000000  1
  C  C16  1  0.97884587  0.51483305  0.00000000  1
  C  C17  1  0.01582188  0.48595968  0.50000000  1
