# generated using pymatgen
data_Cu4Ni3C13
_symmetry_space_group_name_H-M   'P 1'
_cell_length_a   5.92174408
_cell_length_b   5.92174408
_cell_length_c   5.92174342
_cell_angle_alpha   104.27560788
_cell_angle_beta   104.27560788
_cell_angle_gamma   104.27560431
_symmetry_Int_Tables_number   1
_chemical_formula_structural   Cu4Ni3C13
_chemical_formula_sum   'Cu4 Ni3 C13'
_cell_volume   184.28974811
_cell_formula_units_Z   1
loop_
 _symmetry_equiv_pos_site_id
 _symmetry_equiv_pos_as_xyz
  1  'x, y, z'
loop_
 _atom_site_type_symbol
 _atom_site_label
 _atom_site_symmetry_multiplicity
 _atom_site_fract_x
 _atom_site_fract_y
 _atom_site_fract_z
 _atom_site_occupancy
  C  C0  1  0.50000000  0.50000000  0.50000000  1
  Ni  Ni1  1  0.05528800  0.94471200  0.50000000  1
  Ni  Ni2  1  0.94471200  0.50000000  0.05528800  1
  Ni  Ni3  1  0.50000000  0.05528800  0.94471200  1
  Cu  Cu4  1  0.44350700  0.55649300  0.00000000  1
  Cu  Cu5  1  0.55649300  0.00000000  0.44350700  1
  Cu  Cu6  1  0.00000000  0.44350700  0.55649300  1
  Cu  Cu7  1  0.00000000  0.00000000  0.00000000  1
  C  C8  1  0.28007400  0.52825700  0.12895300  1
  C  C9  1  0.52825700  0.12895300  0.28007400  1
  C  C10  1  0.71992600  0.87104700  0.47174300  1
  C  C11  1  0.12895300  0.28007400  0.52825700  1
  C  C12  1  0.47174300  0.71992600  0.87104700  1
  C  C13  1  0.87104700  0.47174300  0.71992600  1
  C  C14  1  0.85128500  0.14871500  0.00000000  1
  C  C15  1  0.14871500  0.00000000  0.85128500  1
  C  C16  1  0.00000000  0.85128500  0.14871500  1
  C  C17  1  0.59184900  0.40815100  0.00000000  1
  C  C18  1  0.40815100  0.00000000  0.59184900  1
  C  C19  1  0.00000000  0.59184900  0.40815100  1
