# generated using pymatgen
data_Cu4NiC
_symmetry_space_group_name_H-M   'P 1'
_cell_length_a   7.27941700
_cell_length_b   8.77436400
_cell_length_c   10.79501785
_cell_angle_alpha   87.35796892
_cell_angle_beta   90.00000000
_cell_angle_gamma   90.00000000
_symmetry_Int_Tables_number   1
_chemical_formula_structural   Cu4NiC
_chemical_formula_sum   'Cu32 Ni8 C8'
_cell_volume   688.76920254
_cell_formula_units_Z   8
loop_
 _symmetry_equiv_pos_site_id
 _symmetry_equiv_pos_as_xyz
  1  'x, y, z'
loop_
 _atom_site_type_symbol
 _atom_site_label
 _atom_site_symmetry_multiplicity
 _atom_site_fract_x
 _atom_site_fract_y
 _atom_site_fract_z
 _atom_site_occupancy
  C  C0  1  0.84886200  0.43930700  0.34546600  1
  C  C1  1  0.34886200  0.56069300  0.15453400  1
  C  C2  1  0.15113800  0.56069300  0.65453400  1
  C  C3  1  0.65113800  0.43930700  0.84546600  1
  C  C4  1  0.66901800  0.94330200  0.34959000  1
  C  C5  1  0.16901800  0.05669800  0.15041000  1
  C  C6  1  0.33098200  0.05669800  0.65041000  1
  C  C7  1  0.83098200  0.94330200  0.84959000  1
  Ni  Ni8  1  0.84245300  0.72695900  0.09128300  1
  Ni  Ni9  1  0.34245300  0.27304100  0.40871700  1
  Ni  Ni10  1  0.15754700  0.27304100  0.90871700  1
  Ni  Ni11  1  0.65754700  0.72695900  0.59128300  1
  Ni  Ni12  1  0.66643300  0.18165300  0.10921300  1
  Ni  Ni13  1  0.16643300  0.81834700  0.39078700  1
  Ni  Ni14  1  0.33356700  0.81834700  0.89078700  1
  Ni  Ni15  1  0.83356700  0.18165300  0.60921300  1
  Cu  Cu16  1  0.96738800  0.60607700  0.13286000  1
  Cu  Cu17  1  0.46738800  0.39392300  0.36714000  1
  Cu  Cu18  1  0.03261200  0.39392300  0.86714000  1
  Cu  Cu19  1  0.53261200  0.60607700  0.63286000  1
  Cu  Cu20  1  0.74756800  0.69926500  0.46964900  1
  Cu  Cu21  1  0.24756800  0.30073500  0.03035100  1
  Cu  Cu22  1  0.25243200  0.30073500  0.53035100  1
  Cu  Cu23  1  0.75243200  0.69926500  0.96964900  1
  Cu  Cu24  1  0.69867300  0.75451000  0.18712100  1
  Cu  Cu25  1  0.19867300  0.24549000  0.31287900  1
  Cu  Cu26  1  0.30132700  0.24549000  0.81287900  1
  Cu  Cu27  1  0.80132700  0.75451000  0.68712100  1
  Cu  Cu28  1  0.44471500  0.12397900  0.43759200  1
  Cu  Cu29  1  0.94471500  0.87602100  0.06240800  1
  Cu  Cu30  1  0.55528500  0.87602100  0.56240800  1
  Cu  Cu31  1  0.05528500  0.12397900  0.93759200  1
  Cu  Cu32  1  0.68038900  0.12502900  0.98254300  1
  Cu  Cu33  1  0.18038900  0.87497100  0.51745700  1
  Cu  Cu34  1  0.31961100  0.87497100  0.01745700  1
  Cu  Cu35  1  0.81961100  0.12502900  0.48254300  1
  Cu  Cu36  1  0.85729500  0.34624300  0.60624300  1
  Cu  Cu37  1  0.35729500  0.65375700  0.89375700  1
  Cu  Cu38  1  0.14270500  0.65375700  0.39375700  1
  Cu  Cu39  1  0.64270500  0.34624300  0.10624300  1
  Cu  Cu40  1  0.66796700  0.13537700  0.68886000  1
  Cu  Cu41  1  0.16796700  0.86462300  0.81114000  1
  Cu  Cu42  1  0.33203300  0.86462300  0.31114000  1
  Cu  Cu43  1  0.83203300  0.13537700  0.18886000  1
  Cu  Cu44  1  0.98885300  0.09676800  0.67653900  1
  Cu  Cu45  1  0.48885300  0.90323200  0.82346100  1
  Cu  Cu46  1  0.01114700  0.90323200  0.32346100  1
  Cu  Cu47  1  0.51114700  0.09676800  0.17653900  1
