# generated using pymatgen
data_Cu2Ni2C7
_symmetry_space_group_name_H-M   'P 1'
_cell_length_a   6.63541328
_cell_length_b   6.63541328
_cell_length_c   6.67964234
_cell_angle_alpha   89.01981361
_cell_angle_beta   89.01981361
_cell_angle_gamma   89.23802009
_symmetry_Int_Tables_number   1
_chemical_formula_structural   Cu2Ni2C7
_chemical_formula_sum   'Cu4 Ni4 C14'
_cell_volume   293.98508580
_cell_formula_units_Z   2
loop_
 _symmetry_equiv_pos_site_id
 _symmetry_equiv_pos_as_xyz
  1  'x, y, z'
loop_
 _atom_site_type_symbol
 _atom_site_label
 _atom_site_symmetry_multiplicity
 _atom_site_fract_x
 _atom_site_fract_y
 _atom_site_fract_z
 _atom_site_occupancy
  Ni  Ni0  1  0.24297600  0.75702400  0.50000000  1
  Ni  Ni1  1  0.75351900  0.24648100  0.00000000  1
  Ni  Ni2  1  0.89420900  0.75287200  0.14038200  1
  Ni  Ni3  1  0.24712800  0.10579100  0.85961800  1
  Cu  Cu4  1  0.61071000  0.38929000  0.50000000  1
  Cu  Cu5  1  0.75705000  0.88664700  0.64840400  1
  Cu  Cu6  1  0.37714000  0.62286000  0.00000000  1
  Cu  Cu7  1  0.11335300  0.24295000  0.35159600  1
  C  C8  1  0.50659800  0.00068300  0.24453900  1
  C  C9  1  0.99931700  0.49340200  0.75546100  1
  C  C10  1  0.21578700  0.92557200  0.19285700  1
  C  C11  1  0.43430100  0.06279600  0.53518500  1
  C  C12  1  0.55268300  0.70414800  0.32516800  1
  C  C13  1  0.91402500  0.20416300  0.68313500  1
  C  C14  1  0.69486300  0.55159100  0.81274500  1
  C  C15  1  0.06171500  0.42710400  0.05280700  1
  C  C16  1  0.79583700  0.08597500  0.31686500  1
  C  C17  1  0.57289600  0.93828500  0.94719300  1
  C  C18  1  0.44840900  0.30513700  0.18725500  1
  C  C19  1  0.07442800  0.78421300  0.80714300  1
  C  C20  1  0.29585200  0.44731700  0.67483200  1
  C  C21  1  0.93720400  0.56569900  0.46481500  1
