# generated using pymatgen
data_CuNiC68
_symmetry_space_group_name_H-M   'P 1'
_cell_length_a   8.89232300
_cell_length_b   9.33625893
_cell_length_c   15.40173000
_cell_angle_alpha   105.95913074
_cell_angle_beta   89.99993430
_cell_angle_gamma   118.43973199
_symmetry_Int_Tables_number   1
_chemical_formula_structural   CuNiC68
_chemical_formula_sum   'Cu1 Ni1 C68'
_cell_volume   1067.97673799
_cell_formula_units_Z   1
loop_
 _symmetry_equiv_pos_site_id
 _symmetry_equiv_pos_as_xyz
  1  'x, y, z'
loop_
 _atom_site_type_symbol
 _atom_site_label
 _atom_site_symmetry_multiplicity
 _atom_site_fract_x
 _atom_site_fract_y
 _atom_site_fract_z
 _atom_site_occupancy
  Ni  Ni0  1  0.75000000  0.50000000  0.25000000  1
  Cu  Cu1  1  0.25000000  0.50000000  0.75000000  1
  C  C2  1  0.28554600  0.57113300  0.42857000  1
  C  C3  1  0.78562900  0.57124000  0.92847400  1
  C  C4  1  0.21445400  0.42886700  0.07143000  1
  C  C5  1  0.71437100  0.42876000  0.57152600  1
  C  C6  1  0.02672000  0.05315000  0.67569100  1
  C  C7  1  0.52572700  0.05171000  0.17511700  1
  C  C8  1  0.47328000  0.94685000  0.82430900  1
  C  C9  1  0.97427300  0.94829000  0.32488300  1
  C  C10  1  0.77765600  0.25597200  0.73382100  1
  C  C11  1  0.27631800  0.25503300  0.23359000  1
  C  C12  1  0.26659900  0.25620100  0.52203100  1
  C  C13  1  0.76630600  0.25481400  0.02124600  1
  C  C14  1  0.33995400  0.25602100  0.87229400  1
  C  C15  1  0.83968700  0.25497600  0.37252900  1
  C  C16  1  0.72234400  0.74402800  0.76617900  1
  C  C17  1  0.22368200  0.74496700  0.26641000  1
  C  C18  1  0.23340100  0.74379900  0.97796900  1
  C  C19  1  0.73369400  0.74518600  0.47875400  1
  C  C20  1  0.16004600  0.74397900  0.62770600  1
  C  C21  1  0.66031300  0.74502400  0.12747100  1
  C  C22  1  0.83590700  0.40983600  0.82092700  1
  C  C23  1  0.33651400  0.40967200  0.32060800  1
  C  C24  1  0.26056600  0.40997800  0.50751200  1
  C  C25  1  0.76041300  0.40953200  0.00793000  1
  C  C26  1  0.51836900  0.40982600  0.87651600  1
  C  C27  1  0.01749300  0.40963600  0.37624200  1
  C  C28  1  0.66409300  0.59016400  0.67907300  1
  C  C29  1  0.16348600  0.59032800  0.17939200  1
  C  C30  1  0.23943400  0.59002200  0.99248800  1
  C  C31  1  0.73958700  0.59046800  0.49207000  1
  C  C32  1  0.98163100  0.59017400  0.62348400  1
  C  C33  1  0.48250700  0.59036400  0.12375800  1
  C  C34  1  0.64955700  0.91122300  0.14937600  1
  C  C35  1  0.15033600  0.91124800  0.65006800  1
  C  C36  1  0.36231000  0.91118000  0.25003000  1
  C  C37  1  0.86103000  0.91125600  0.75017100  1
  C  C38  1  0.35509100  0.91081100  0.05516100  1
  C  C39  1  0.85535200  0.91164800  0.55642200  1
  C  C40  1  0.85044300  0.08877700  0.35062400  1
  C  C41  1  0.34966400  0.08875200  0.84993200  1
  C  C42  1  0.13769000  0.08882000  0.24997000  1
  C  C43  1  0.63897000  0.08874400  0.74982900  1
  C  C44  1  0.14490900  0.08918900  0.44483900  1
  C  C45  1  0.64464800  0.08835200  0.94357800  1
  C  C46  1  0.79853700  0.71852200  0.84643800  1
  C  C47  1  0.29895500  0.71831000  0.34647300  1
  C  C48  1  0.04941800  0.71829300  0.97598300  1
  C  C49  1  0.54927000  0.71846700  0.47629400  1
  C  C50  1  0.22956600  0.71847700  0.53671900  1
  C  C51  1  0.72938300  0.71829100  0.03646000  1
  C  C52  1  0.70146300  0.28147800  0.65356200  1
  C  C53  1  0.20104500  0.28169000  0.15352700  1
  C  C54  1  0.45058200  0.28170700  0.52401700  1
  C  C55  1  0.95073000  0.28153300  0.02370600  1
  C  C56  1  0.27043400  0.28152300  0.96328100  1
  C  C57  1  0.77061700  0.28170900  0.46354000  1
  C  C58  1  0.21588500  0.24367200  0.79509000  1
  C  C59  1  0.71370000  0.23807400  0.29506600  1
  C  C60  1  0.94317600  0.24363000  0.71042400  1
  C  C61  1  0.43858000  0.23814700  0.20928300  1
  C  C62  1  0.20650000  0.24373200  0.61646100  1
  C  C63  1  0.70478700  0.23801200  0.11454200  1
  C  C64  1  0.28411500  0.75632800  0.70491000  1
  C  C65  1  0.78630000  0.76192600  0.20493400  1
  C  C66  1  0.55682400  0.75637000  0.78957600  1
  C  C67  1  0.06142000  0.76185300  0.29071700  1
  C  C68  1  0.29350000  0.75626800  0.88353900  1
  C  C69  1  0.79521300  0.76198800  0.38545800  1
