# generated using pymatgen
data_Cu6(Ni2C5)5
_symmetry_space_group_name_H-M   'P 1'
_cell_length_a   7.91934717
_cell_length_b   9.35748480
_cell_length_c   12.44304970
_cell_angle_alpha   81.11731899
_cell_angle_beta   85.01631435
_cell_angle_gamma   73.98591903
_symmetry_Int_Tables_number   1
_chemical_formula_structural   Cu6(Ni2C5)5
_chemical_formula_sum   'Cu6 Ni10 C25'
_cell_volume   874.72940715
_cell_formula_units_Z   1
loop_
 _symmetry_equiv_pos_site_id
 _symmetry_equiv_pos_as_xyz
  1  'x, y, z'
loop_
 _atom_site_type_symbol
 _atom_site_label
 _atom_site_symmetry_multiplicity
 _atom_site_fract_x
 _atom_site_fract_y
 _atom_site_fract_z
 _atom_site_occupancy
  C  C0  1  0.50000000  -0.00000000  0.50000000  1
  C  C1  1  0.77152068  0.97519970  0.32783212  1
  C  C2  1  0.22847932  0.02480030  0.67216788  1
  C  C3  1  0.03500064  0.95051070  0.12394748  1
  C  C4  1  0.96499936  0.04948930  0.87605252  1
  C  C5  1  0.62248810  0.08687361  0.05718120  1
  C  C6  1  0.37751190  0.91312639  0.94281880  1
  Ni  Ni7  1  0.89899743  0.18841263  0.50281737  1
  Ni  Ni8  1  0.10100257  0.81158737  0.49718263  1
  Ni  Ni9  1  0.22505700  0.18418647  0.25115256  1
  Ni  Ni10  1  0.77494300  0.81581353  0.74884744  1
  Ni  Ni11  1  0.54717846  0.18877995  0.73689528  1
  Ni  Ni12  1  0.45282154  0.81122005  0.26310472  1
  Ni  Ni13  1  0.21459160  0.26244794  0.97433163  1
  Ni  Ni14  1  0.78540840  0.73755206  0.02566837  1
  Ni  Ni15  1  0.79015297  0.31442430  0.20243217  1
  Ni  Ni16  1  0.20984703  0.68557570  0.79756783  1
  Cu  Cu17  1  0.72301278  0.34360029  0.93320368  1
  Cu  Cu18  1  0.27698722  0.65639971  0.06679632  1
  Cu  Cu19  1  0.90110537  0.67583505  0.29648251  1
  Cu  Cu20  1  0.09889463  0.32416495  0.70351749  1
  Cu  Cu21  1  0.47546129  0.31941092  0.41474009  1
  Cu  Cu22  1  0.52453871  0.68058908  0.58525991  1
  C  C23  1  0.14292305  0.06833757  0.98387932  1
  C  C24  1  0.85707695  0.93166243  0.01612068  1
  C  C25  1  0.84935830  0.97452805  0.47846081  1
  C  C26  1  0.15064170  0.02547195  0.52153919  1
  C  C27  1  0.78930406  0.10323297  0.18452775  1
  C  C28  1  0.21069594  0.89676603  0.81547225  1
  C  C29  1  0.44449565  0.12720747  0.89124413  1
  C  C30  1  0.55550435  0.87279253  0.10875587  1
  C  C31  1  0.78693162  0.03006425  0.77145786  1
  C  C32  1  0.21306838  0.96993575  0.22854214  1
  C  C33  1  0.48610737  0.03503651  0.65986624  1
  C  C34  1  0.51389263  0.96496349  0.34013376  1
  C  C35  1  0.03993450  0.28505751  0.13599464  1
  C  C36  1  0.96006550  0.71494249  0.86400536  1
  C  C37  1  0.06188515  0.77729536  0.66324781  1
  C  C38  1  0.93811485  0.22270464  0.33675219  1
  C  C39  1  0.62414731  0.80439647  0.89775775  1
  C  C40  1  0.37585269  0.19560353  0.10224225  1
