# generated using pymatgen
data_Cu(NiC2)4
_symmetry_space_group_name_H-M   'P 1'
_cell_length_a   6.98415642
_cell_length_b   6.98415642
_cell_length_c   12.88495800
_cell_angle_alpha   90.00000000
_cell_angle_beta   90.00000000
_cell_angle_gamma   120.00000394
_symmetry_Int_Tables_number   1
_chemical_formula_structural   Cu(NiC2)4
_chemical_formula_sum   'Cu2 Ni8 C16'
_cell_volume   544.30401276
_cell_formula_units_Z   2
loop_
 _symmetry_equiv_pos_site_id
 _symmetry_equiv_pos_as_xyz
  1  'x, y, z'
loop_
 _atom_site_type_symbol
 _atom_site_label
 _atom_site_symmetry_multiplicity
 _atom_site_fract_x
 _atom_site_fract_y
 _atom_site_fract_z
 _atom_site_occupancy
  Ni  Ni0  1  0.00000000  0.00000000  0.25000000  1
  Ni  Ni1  1  0.00000000  0.00000000  0.75000000  1
  Ni  Ni2  1  0.50647700  0.01295400  0.25000000  1
  Ni  Ni3  1  0.49352300  0.98704600  0.75000000  1
  Ni  Ni4  1  0.98704600  0.49352300  0.25000000  1
  Ni  Ni5  1  0.01295400  0.50647700  0.75000000  1
  Ni  Ni6  1  0.50647700  0.49352300  0.25000000  1
  Ni  Ni7  1  0.49352300  0.50647700  0.75000000  1
  Cu  Cu8  1  0.00000000  0.00000000  0.00000000  1
  Cu  Cu9  1  0.00000000  0.00000000  0.50000000  1
  C  C10  1  0.33333300  0.66666700  0.61739900  1
  C  C11  1  0.66666700  0.33333300  0.38260100  1
  C  C12  1  0.66666700  0.33333300  0.11739900  1
  C  C13  1  0.33333300  0.66666700  0.88260100  1
  C  C14  1  0.16727300  0.33454600  0.12054000  1
  C  C15  1  0.83272700  0.66545400  0.87946000  1
  C  C16  1  0.66545400  0.83272700  0.12054000  1
  C  C17  1  0.83272700  0.66545400  0.62054000  1
  C  C18  1  0.33454600  0.16727300  0.87946000  1
  C  C19  1  0.16727300  0.33454600  0.37946000  1
  C  C20  1  0.16727300  0.83272700  0.12054000  1
  C  C21  1  0.33454600  0.16727300  0.62054000  1
  C  C22  1  0.83272700  0.16727300  0.87946000  1
  C  C23  1  0.66545400  0.83272700  0.37946000  1
  C  C24  1  0.83272700  0.16727300  0.62054000  1
  C  C25  1  0.16727300  0.83272700  0.37946000  1
