# generated using pymatgen
data_Cu2NiC9
_symmetry_space_group_name_H-M   'P 1'
_cell_length_a   11.57884223
_cell_length_b   11.57884223
_cell_length_c   11.57884223
_cell_angle_alpha   158.23587119
_cell_angle_beta   158.23587119
_cell_angle_gamma   30.97006256
_symmetry_Int_Tables_number   1
_chemical_formula_structural   Cu2NiC9
_chemical_formula_sum   'Cu2 Ni1 C9'
_cell_volume   213.27814232
_cell_formula_units_Z   1
loop_
 _symmetry_equiv_pos_site_id
 _symmetry_equiv_pos_as_xyz
  1  'x, y, z'
loop_
 _atom_site_type_symbol
 _atom_site_label
 _atom_site_symmetry_multiplicity
 _atom_site_fract_x
 _atom_site_fract_y
 _atom_site_fract_z
 _atom_site_occupancy
  Ni  Ni0  1  0.68613900  0.68613900  0.00000000  1
  Cu  Cu1  1  0.50503100  0.50503100  0.00000000  1
  Cu  Cu2  1  0.31113900  0.31113900  0.00000000  1
  C  C3  1  0.90279400  0.90279400  0.00000000  1
  C  C4  1  0.10332900  0.10332900  0.00000000  1
  C  C5  1  0.80785200  0.80785200  0.00000000  1
  C  C6  1  0.19713100  0.19713100  0.00000000  1
  C  C7  1  0.90354900  0.40354900  0.50000000  1
  C  C8  1  0.40354900  0.90354900  0.50000000  1
  C  C9  1  0.08980300  0.58980300  0.50000000  1
  C  C10  1  0.58980300  0.08980300  0.50000000  1
  C  C11  1  0.99988100  0.99988100  0.00000000  1
