# generated using pymatgen
data_CuNiC3
_symmetry_space_group_name_H-M   'P 1'
_cell_length_a   6.45035307
_cell_length_b   6.45035307
_cell_length_c   6.45035320
_cell_angle_alpha   45.65246121
_cell_angle_beta   45.65246121
_cell_angle_gamma   45.65245374
_symmetry_Int_Tables_number   1
_chemical_formula_structural   CuNiC3
_chemical_formula_sum   'Cu2 Ni2 C6'
_cell_volume   125.09223009
_cell_formula_units_Z   2
loop_
 _symmetry_equiv_pos_site_id
 _symmetry_equiv_pos_as_xyz
  1  'x, y, z'
loop_
 _atom_site_type_symbol
 _atom_site_label
 _atom_site_symmetry_multiplicity
 _atom_site_fract_x
 _atom_site_fract_y
 _atom_site_fract_z
 _atom_site_occupancy
  Ni  Ni0  1  0.14386400  0.14386400  0.14386400  1
  Ni  Ni1  1  0.85613600  0.85613600  0.85613600  1
  Cu  Cu2  1  0.33565300  0.33565300  0.33565300  1
  Cu  Cu3  1  0.66434700  0.66434700  0.66434700  1
  C  C4  1  0.67781500  0.05749100  0.44894100  1
  C  C5  1  0.94250900  0.55105900  0.32218500  1
  C  C6  1  0.55105900  0.32218500  0.94250900  1
  C  C7  1  0.44894100  0.67781500  0.05749100  1
  C  C8  1  0.05749100  0.44894100  0.67781500  1
  C  C9  1  0.32218500  0.94250900  0.55105900  1
