# generated using pymatgen
data_CuNi4C9
_symmetry_space_group_name_H-M   'P 1'
_cell_length_a   5.79405300
_cell_length_b   7.39658600
_cell_length_c   7.27899473
_cell_angle_alpha   90.00000000
_cell_angle_beta   111.98546305
_cell_angle_gamma   90.00000000
_symmetry_Int_Tables_number   1
_chemical_formula_structural   CuNi4C9
_chemical_formula_sum   'Cu2 Ni8 C18'
_cell_volume   289.26476947
_cell_formula_units_Z   2
loop_
 _symmetry_equiv_pos_site_id
 _symmetry_equiv_pos_as_xyz
  1  'x, y, z'
loop_
 _atom_site_type_symbol
 _atom_site_label
 _atom_site_symmetry_multiplicity
 _atom_site_fract_x
 _atom_site_fract_y
 _atom_site_fract_z
 _atom_site_occupancy
  C  C0  1  0.13746200  0.75000000  0.70676600  1
  C  C1  1  0.86253800  0.25000000  0.29323400  1
  C  C2  1  0.50000000  0.00000000  0.50000000  1
  C  C3  1  0.50000000  0.50000000  0.50000000  1
  Ni  Ni4  1  0.20813300  0.40960300  0.13420500  1
  Ni  Ni5  1  0.79186700  0.90960300  0.86579500  1
  Ni  Ni6  1  0.79186700  0.59039700  0.86579500  1
  Ni  Ni7  1  0.20813300  0.09039700  0.13420500  1
  Ni  Ni8  1  0.07564600  0.93113800  0.20284900  1
  Ni  Ni9  1  0.92435400  0.43113800  0.79715100  1
  Ni  Ni10  1  0.92435400  0.06886200  0.79715100  1
  Ni  Ni11  1  0.07564600  0.56886200  0.20284900  1
  Cu  Cu12  1  0.64472600  0.75000000  0.19149700  1
  Cu  Cu13  1  0.35527400  0.25000000  0.80850300  1
  C  C14  1  0.69718900  0.91504900  0.32129700  1
  C  C15  1  0.30281100  0.41504900  0.67870300  1
  C  C16  1  0.30281100  0.08495100  0.67870300  1
  C  C17  1  0.69718900  0.58495100  0.32129700  1
  C  C18  1  0.83215100  0.75000000  0.09079000  1
  C  C19  1  0.16784900  0.25000000  0.90921000  1
  C  C20  1  0.39016500  0.75000000  0.04470300  1
  C  C21  1  0.60983500  0.25000000  0.95529700  1
  C  C22  1  0.16991700  0.45490900  0.24714200  1
  C  C23  1  0.83008300  0.95490900  0.75285800  1
  C  C24  1  0.83008300  0.54509100  0.75285800  1
  C  C25  1  0.16991700  0.04509100  0.24714200  1
  C  C26  1  0.37188700  0.75000000  0.52763400  1
  C  C27  1  0.62811300  0.25000000  0.47236600  1
