# generated using pymatgen
data_Cu10NiC9
_symmetry_space_group_name_H-M   'P 1'
_cell_length_a   7.30205100
_cell_length_b   11.14773500
_cell_length_c   17.60164900
_cell_angle_alpha   90.00000000
_cell_angle_beta   90.00000000
_cell_angle_gamma   90.00000000
_symmetry_Int_Tables_number   1
_chemical_formula_structural   Cu10NiC9
_chemical_formula_sum   'Cu40 Ni4 C36'
_cell_volume   1432.79763007
_cell_formula_units_Z   4
loop_
 _symmetry_equiv_pos_site_id
 _symmetry_equiv_pos_as_xyz
  1  'x, y, z'
loop_
 _atom_site_type_symbol
 _atom_site_label
 _atom_site_symmetry_multiplicity
 _atom_site_fract_x
 _atom_site_fract_y
 _atom_site_fract_z
 _atom_site_occupancy
  C  C0  1  0.30304900  0.25000000  0.27064200  1
  C  C1  1  0.69695100  0.75000000  0.72935800  1
  C  C2  1  0.30304900  0.75000000  0.22935800  1
  C  C3  1  0.69695100  0.25000000  0.77064200  1
  C  C4  1  0.71800600  0.99907700  0.99804800  1
  C  C5  1  0.28199400  0.49907700  0.00195200  1
  C  C6  1  0.71800600  0.00092300  0.50195200  1
  C  C7  1  0.28199400  0.50092300  0.49804800  1
  C  C8  1  0.28199400  0.00092300  0.00195200  1
  C  C9  1  0.71800600  0.50092300  0.99804800  1
  C  C10  1  0.28199400  0.99907700  0.49804800  1
  C  C11  1  0.71800600  0.49907700  0.50195200  1
  C  C12  1  0.92076900  0.25000000  0.97505000  1
  C  C13  1  0.07923100  0.75000000  0.02495000  1
  C  C14  1  0.92076900  0.75000000  0.52495000  1
  C  C15  1  0.07923100  0.25000000  0.47505000  1
  C  C16  1  0.40927800  0.25000000  0.06301800  1
  C  C17  1  0.59072200  0.75000000  0.93698200  1
  C  C18  1  0.40927800  0.75000000  0.43698200  1
  C  C19  1  0.59072200  0.25000000  0.56301800  1
  C  C20  1  0.03398700  0.07882600  0.15853800  1
  C  C21  1  0.96601300  0.57882600  0.84146200  1
  C  C22  1  0.03398700  0.92117400  0.34146200  1
  C  C23  1  0.96601300  0.42117400  0.65853800  1
  C  C24  1  0.96601300  0.92117400  0.84146200  1
  C  C25  1  0.03398700  0.42117400  0.15853800  1
  C  C26  1  0.96601300  0.07882600  0.65853800  1
  C  C27  1  0.03398700  0.57882600  0.34146200  1
  C  C28  1  0.47602300  0.43665300  0.84529400  1
  C  C29  1  0.52397700  0.93665300  0.15470600  1
  C  C30  1  0.47602300  0.56334700  0.65470600  1
  C  C31  1  0.52397700  0.06334700  0.34529400  1
  C  C32  1  0.52397700  0.56334700  0.15470600  1
  C  C33  1  0.47602300  0.06334700  0.84529400  1
  C  C34  1  0.52397700  0.43665300  0.34529400  1
  C  C35  1  0.47602300  0.93665300  0.65470600  1
  Ni  Ni36  1  0.81770500  0.25000000  0.27215500  1
  Ni  Ni37  1  0.18229500  0.75000000  0.72784500  1
  Ni  Ni38  1  0.81770500  0.75000000  0.22784500  1
  Ni  Ni39  1  0.18229500  0.25000000  0.77215500  1
  Cu  Cu40  1  0.76886600  0.09794500  0.03980100  1
  Cu  Cu41  1  0.23113400  0.59794500  0.96019900  1
  Cu  Cu42  1  0.76886600  0.90205500  0.46019900  1
  Cu  Cu43  1  0.23113400  0.40205500  0.53980100  1
  Cu  Cu44  1  0.23113400  0.90205500  0.96019900  1
  Cu  Cu45  1  0.76886600  0.40205500  0.03980100  1
  Cu  Cu46  1  0.23113400  0.09794500  0.53980100  1
  Cu  Cu47  1  0.76886600  0.59794500  0.46019900  1
  Cu  Cu48  1  0.08899000  0.25000000  0.08914200  1
  Cu  Cu49  1  0.91101000  0.75000000  0.91085800  1
  Cu  Cu50  1  0.08899000  0.75000000  0.41085800  1
  Cu  Cu51  1  0.91101000  0.25000000  0.58914200  1
  Cu  Cu52  1  0.34361600  0.39452000  0.96680400  1
  Cu  Cu53  1  0.65638400  0.89452100  0.03319600  1
  Cu  Cu54  1  0.34361600  0.60547900  0.53319600  1
  Cu  Cu55  1  0.65638400  0.10548000  0.46680400  1
  Cu  Cu56  1  0.65638400  0.60547900  0.03319600  1
  Cu  Cu57  1  0.34361600  0.10548000  0.96680400  1
  Cu  Cu58  1  0.65638400  0.39452000  0.46680400  1
  Cu  Cu59  1  0.34361600  0.89452100  0.53319600  1
  Cu  Cu60  1  0.27415800  0.13931000  0.23847600  1
  Cu  Cu61  1  0.72584200  0.63931000  0.76152400  1
  Cu  Cu62  1  0.27415800  0.86069000  0.26152400  1
  Cu  Cu63  1  0.72584200  0.36069000  0.73847600  1
  Cu  Cu64  1  0.72584200  0.86069000  0.76152400  1
  Cu  Cu65  1  0.27415800  0.36069000  0.23847600  1
  Cu  Cu66  1  0.72584200  0.13931000  0.73847600  1
  Cu  Cu67  1  0.27415800  0.63931000  0.26152400  1
  Cu  Cu68  1  0.61228500  0.25000000  0.84416000  1
  Cu  Cu69  1  0.38771500  0.75000000  0.15584000  1
  Cu  Cu70  1  0.61228500  0.75000000  0.65584000  1
  Cu  Cu71  1  0.38771500  0.25000000  0.34416000  1
  Cu  Cu72  1  0.27255500  0.00115500  0.08162600  1
  Cu  Cu73  1  0.72744500  0.50115500  0.91837400  1
  Cu  Cu74  1  0.27255500  0.99884500  0.41837400  1
  Cu  Cu75  1  0.72744500  0.49884500  0.58162600  1
  Cu  Cu76  1  0.72744500  0.99884500  0.91837400  1
  Cu  Cu77  1  0.27255500  0.49884500  0.08162600  1
  Cu  Cu78  1  0.72744500  0.00115500  0.58162600  1
  Cu  Cu79  1  0.27255500  0.50115500  0.41837400  1
