# generated using pymatgen
data_CuNi2C11
_symmetry_space_group_name_H-M   'P 1'
_cell_length_a   10.58406500
_cell_length_b   11.00502600
_cell_length_c   11.57820500
_cell_angle_alpha   90.00000000
_cell_angle_beta   90.00000000
_cell_angle_gamma   90.00000000
_symmetry_Int_Tables_number   1
_chemical_formula_structural   CuNi2C11
_chemical_formula_sum   'Cu8 Ni16 C88'
_cell_volume   1348.60512586
_cell_formula_units_Z   8
loop_
 _symmetry_equiv_pos_site_id
 _symmetry_equiv_pos_as_xyz
  1  'x, y, z'
loop_
 _atom_site_type_symbol
 _atom_site_label
 _atom_site_symmetry_multiplicity
 _atom_site_fract_x
 _atom_site_fract_y
 _atom_site_fract_z
 _atom_site_occupancy
  C  C0  1  0.02843200  0.90624300  0.23300800  1
  C  C1  1  0.47156800  0.40624300  0.26699200  1
  C  C2  1  0.52843200  0.09375700  0.26699200  1
  C  C3  1  0.97156800  0.59375700  0.23300800  1
  C  C4  1  0.97156800  0.09375700  0.76699200  1
  C  C5  1  0.52843200  0.59375700  0.73300800  1
  C  C6  1  0.47156800  0.90624300  0.73300800  1
  C  C7  1  0.02843200  0.40624300  0.76699200  1
  C  C8  1  0.02756100  0.03668900  0.32094300  1
  C  C9  1  0.47243900  0.53668900  0.17905700  1
  C  C10  1  0.52756100  0.96331100  0.17905700  1
  C  C11  1  0.97243900  0.46331100  0.32094300  1
  C  C12  1  0.97243900  0.96331100  0.67905700  1
  C  C13  1  0.52756100  0.46331100  0.82094300  1
  C  C14  1  0.47243900  0.03668900  0.82094300  1
  C  C15  1  0.02756100  0.53668900  0.67905700  1
  C  C16  1  0.15781400  0.73799000  0.39353900  1
  C  C17  1  0.34218600  0.23799000  0.10646100  1
  C  C18  1  0.65781400  0.26201000  0.10646100  1
  C  C19  1  0.84218600  0.76201000  0.39353900  1
  C  C20  1  0.84218600  0.26201000  0.60646100  1
  C  C21  1  0.65781400  0.76201000  0.89353900  1
  C  C22  1  0.34218600  0.73799000  0.89353900  1
  C  C23  1  0.15781400  0.23799000  0.60646100  1
  C  C24  1  0.32603800  0.75768900  0.36502600  1
  C  C25  1  0.17396200  0.25768900  0.13497400  1
  C  C26  1  0.82603800  0.24231100  0.13497400  1
  C  C27  1  0.67396200  0.74231100  0.36502600  1
  C  C28  1  0.67396200  0.24231100  0.63497400  1
  C  C29  1  0.82603800  0.74231100  0.86502600  1
  C  C30  1  0.17396200  0.75768900  0.86502600  1
  C  C31  1  0.32603800  0.25768900  0.63497400  1
  C  C32  1  0.21603800  0.73851000  0.24532600  1
  C  C33  1  0.28396200  0.23851000  0.25467400  1
  C  C34  1  0.71603800  0.26149000  0.25467400  1
  C  C35  1  0.78396200  0.76149000  0.24532600  1
  C  C36  1  0.78396200  0.26149000  0.75467400  1
  C  C37  1  0.71603800  0.76149000  0.74532600  1
  C  C38  1  0.28396200  0.73851000  0.74532600  1
  C  C39  1  0.21603800  0.23851000  0.75467400  1
  C  C40  1  0.16385300  0.93068200  0.52775300  1
  C  C41  1  0.33614700  0.43068200  0.97224700  1
  C  C42  1  0.66385300  0.06931800  0.97224700  1
  C  C43  1  0.83614700  0.56931800  0.52775300  1
  C  C44  1  0.83614700  0.06931800  0.47224700  1
  C  C45  1  0.66385300  0.56931800  0.02775300  1
  C  C46  1  0.33614700  0.93068200  0.02775300  1
  C  C47  1  0.16385300  0.43068200  0.47224700  1
  C  C48  1  0.20561800  0.08024300  0.47043700  1
  C  C49  1  0.29438200  0.58024300  0.02956300  1
  C  C50  1  0.70561800  0.91975700  0.02956300  1
  C  C51  1  0.79438200  0.41975700  0.47043700  1
  C  C52  1  0.79438200  0.91975700  0.52956300  1
  C  C53  1  0.70561800  0.41975700  0.97043700  1
  C  C54  1  0.29438200  0.08024300  0.97043700  1
  C  C55  1  0.20561800  0.58024300  0.52956300  1
  C  C56  1  0.32812000  0.96642900  0.49462700  1
  C  C57  1  0.17188000  0.46642900  0.00537300  1
  C  C58  1  0.82812000  0.03357100  0.00537300  1
  C  C59  1  0.67188000  0.53357100  0.49462700  1
  C  C60  1  0.67188000  0.03357100  0.50537300  1
  C  C61  1  0.82812000  0.53357100  0.99462700  1
  C  C62  1  0.17188000  0.96642900  0.99462700  1
  C  C63  1  0.32812000  0.46642900  0.50537300  1
  Ni  Ni64  1  0.22917200  0.77318200  0.33334900  1
  Ni  Ni65  1  0.27082800  0.27318200  0.16665100  1
  Ni  Ni66  1  0.72917200  0.22681800  0.16665100  1
  Ni  Ni67  1  0.77082800  0.72681800  0.33334900  1
  Ni  Ni68  1  0.77082800  0.22681800  0.66665100  1
  Ni  Ni69  1  0.72917200  0.72681800  0.83334900  1
  Ni  Ni70  1  0.27082800  0.77318200  0.83334900  1
  Ni  Ni71  1  0.22917200  0.27318200  0.66665100  1
  Ni  Ni72  1  0.22857200  0.98285800  0.47241700  1
  Ni  Ni73  1  0.27142800  0.48285800  0.02758300  1
  Ni  Ni74  1  0.72857200  0.01714200  0.02758300  1
  Ni  Ni75  1  0.77142800  0.51714200  0.47241700  1
  Ni  Ni76  1  0.77142800  0.01714200  0.52758300  1
  Ni  Ni77  1  0.72857200  0.51714200  0.97241700  1
  Ni  Ni78  1  0.27142800  0.98285800  0.97241700  1
  Ni  Ni79  1  0.22857200  0.48285800  0.52758300  1
  Cu  Cu80  1  0.20830100  0.93194300  0.32985700  1
  Cu  Cu81  1  0.29169900  0.43194300  0.17014300  1
  Cu  Cu82  1  0.70830100  0.06805700  0.17014300  1
  Cu  Cu83  1  0.79169900  0.56805700  0.32985700  1
  Cu  Cu84  1  0.79169900  0.06805700  0.67014300  1
  Cu  Cu85  1  0.70830100  0.56805700  0.82985700  1
  Cu  Cu86  1  0.29169900  0.93194300  0.82985700  1
  Cu  Cu87  1  0.20830100  0.43194300  0.67014300  1
  C  C88  1  0.00000000  0.75000000  0.07357400  1
  C  C89  1  0.50000000  0.25000000  0.42642600  1
  C  C90  1  0.00000000  0.25000000  0.92642600  1
  C  C91  1  0.50000000  0.75000000  0.57357400  1
  C  C92  1  0.00000000  0.25000000  0.38937500  1
  C  C93  1  0.50000000  0.75000000  0.11062500  1
  C  C94  1  0.00000000  0.75000000  0.61062500  1
  C  C95  1  0.50000000  0.25000000  0.88937500  1
  C  C96  1  0.05957100  0.94819100  0.30797500  1
  C  C97  1  0.44042900  0.44819100  0.19202500  1
  C  C98  1  0.55957100  0.05180900  0.19202500  1
  C  C99  1  0.94042900  0.55180900  0.30797500  1
  C  C100  1  0.94042900  0.05180900  0.69202500  1
  C  C101  1  0.55957100  0.55180900  0.80797500  1
  C  C102  1  0.44042900  0.94819100  0.80797500  1
  C  C103  1  0.05957100  0.44819100  0.69202500  1
  C  C104  1  0.29441500  0.99198300  0.25055500  1
  C  C105  1  0.20558500  0.49198300  0.24944500  1
  C  C106  1  0.79441500  0.00801700  0.24944500  1
  C  C107  1  0.70558500  0.50801700  0.25055500  1
  C  C108  1  0.70558500  0.00801700  0.74944500  1
  C  C109  1  0.79441500  0.50801700  0.75055500  1
  C  C110  1  0.20558500  0.99198300  0.75055500  1
  C  C111  1  0.29441500  0.49198300  0.74944500  1
