# generated using pymatgen
data_CuNi3C4
_symmetry_space_group_name_H-M   'P 1'
_cell_length_a   7.38763600
_cell_length_b   14.93642600
_cell_length_c   15.81262100
_cell_angle_alpha   90.00000000
_cell_angle_beta   90.00000000
_cell_angle_gamma   90.00000000
_symmetry_Int_Tables_number   1
_chemical_formula_structural   CuNi3C4
_chemical_formula_sum   'Cu8 Ni24 C32'
_cell_volume   1744.84174189
_cell_formula_units_Z   8
loop_
 _symmetry_equiv_pos_site_id
 _symmetry_equiv_pos_as_xyz
  1  'x, y, z'
loop_
 _atom_site_type_symbol
 _atom_site_label
 _atom_site_symmetry_multiplicity
 _atom_site_fract_x
 _atom_site_fract_y
 _atom_site_fract_z
 _atom_site_occupancy
  C  C0  1  0.54818300  0.24362800  0.34985800  1
  C  C1  1  0.95181700  0.74362800  0.15014200  1
  C  C2  1  0.04818300  0.75637200  0.65014200  1
  C  C3  1  0.45181700  0.25637200  0.84985800  1
  C  C4  1  0.45181700  0.75637200  0.65014200  1
  C  C5  1  0.04818300  0.25637200  0.84985800  1
  C  C6  1  0.95181700  0.24362800  0.34985800  1
  C  C7  1  0.54818300  0.74362800  0.15014200  1
  Ni  Ni8  1  0.75000000  0.23004600  0.07418900  1
  Ni  Ni9  1  0.75000000  0.73004600  0.42581100  1
  Ni  Ni10  1  0.25000000  0.76995400  0.92581100  1
  Ni  Ni11  1  0.25000000  0.26995400  0.57418900  1
  Ni  Ni12  1  0.25000000  0.45284500  0.25493500  1
  Ni  Ni13  1  0.25000000  0.95284500  0.24506500  1
  Ni  Ni14  1  0.75000000  0.54715500  0.74506500  1
  Ni  Ni15  1  0.75000000  0.04715500  0.75493500  1
  Ni  Ni16  1  0.66032000  0.06243000  0.11061200  1
  Ni  Ni17  1  0.83968000  0.56243000  0.38938800  1
  Ni  Ni18  1  0.16032000  0.93757000  0.88938800  1
  Ni  Ni19  1  0.33968000  0.43757000  0.61061200  1
  Ni  Ni20  1  0.33968000  0.93757000  0.88938800  1
  Ni  Ni21  1  0.16032000  0.43757000  0.61061200  1
  Ni  Ni22  1  0.83968000  0.06243000  0.11061200  1
  Ni  Ni23  1  0.66032000  0.56243000  0.38938800  1
  Ni  Ni24  1  0.33950400  0.42843600  0.09359700  1
  Ni  Ni25  1  0.16049600  0.92843600  0.40640300  1
  Ni  Ni26  1  0.83950400  0.57156400  0.90640300  1
  Ni  Ni27  1  0.66049600  0.07156400  0.59359700  1
  Ni  Ni28  1  0.66049600  0.57156400  0.90640300  1
  Ni  Ni29  1  0.83950400  0.07156400  0.59359700  1
  Ni  Ni30  1  0.16049600  0.42843600  0.09359700  1
  Ni  Ni31  1  0.33950400  0.92843600  0.40640300  1
  Cu  Cu32  1  0.75000000  0.15197400  0.08903500  1
  Cu  Cu33  1  0.75000000  0.65197400  0.41096500  1
  Cu  Cu34  1  0.25000000  0.84802600  0.91096500  1
  Cu  Cu35  1  0.25000000  0.34802600  0.58903500  1
  Cu  Cu36  1  0.25000000  0.44072300  0.18077800  1
  Cu  Cu37  1  0.25000000  0.94072300  0.31922200  1
  Cu  Cu38  1  0.75000000  0.55927700  0.81922200  1
  Cu  Cu39  1  0.75000000  0.05927700  0.68077800  1
  C  C40  1  0.75000000  0.10666200  0.33470500  1
  C  C41  1  0.75000000  0.60666200  0.16529500  1
  C  C42  1  0.25000000  0.89333800  0.66529500  1
  C  C43  1  0.25000000  0.39333800  0.83470500  1
  C  C44  1  0.75000000  0.34511100  0.25732600  1
  C  C45  1  0.75000000  0.84511100  0.24267400  1
  C  C46  1  0.25000000  0.65488900  0.74267400  1
  C  C47  1  0.25000000  0.15488900  0.75732600  1
  C  C48  1  0.75000000  0.29055600  0.47516700  1
  C  C49  1  0.75000000  0.79055600  0.02483300  1
  C  C50  1  0.25000000  0.70944400  0.52483300  1
  C  C51  1  0.25000000  0.20944400  0.97516700  1
  C  C52  1  0.25000000  0.45837200  0.35562700  1
  C  C53  1  0.25000000  0.95837200  0.14437300  1
  C  C54  1  0.75000000  0.54162800  0.64437300  1
  C  C55  1  0.75000000  0.04162800  0.85562700  1
  C  C56  1  0.25000000  0.17446800  0.52847900  1
  C  C57  1  0.25000000  0.67446800  0.97152100  1
  C  C58  1  0.75000000  0.82553200  0.47152100  1
  C  C59  1  0.75000000  0.32553200  0.02847900  1
  C  C60  1  0.25000000  0.21715800  0.28388800  1
  C  C61  1  0.25000000  0.71715800  0.21611200  1
  C  C62  1  0.75000000  0.78284200  0.71611200  1
  C  C63  1  0.75000000  0.28284200  0.78388800  1
