# generated using pymatgen
data_CuNiC3
_symmetry_space_group_name_H-M   'P 1'
_cell_length_a   5.12991500
_cell_length_b   8.95256200
_cell_length_c   18.53411000
_cell_angle_alpha   90.00000000
_cell_angle_beta   90.00000000
_cell_angle_gamma   90.00000000
_symmetry_Int_Tables_number   1
_chemical_formula_structural   CuNiC3
_chemical_formula_sum   'Cu16 Ni16 C48'
_cell_volume   851.19535054
_cell_formula_units_Z   16
loop_
 _symmetry_equiv_pos_site_id
 _symmetry_equiv_pos_as_xyz
  1  'x, y, z'
loop_
 _atom_site_type_symbol
 _atom_site_label
 _atom_site_symmetry_multiplicity
 _atom_site_fract_x
 _atom_site_fract_y
 _atom_site_fract_z
 _atom_site_occupancy
  Ni  Ni0  1  0.10101400  0.59668700  0.87552000  1
  Ni  Ni1  1  0.89898600  0.40331300  0.37552000  1
  Ni  Ni2  1  0.39898600  0.59668700  0.37552000  1
  Ni  Ni3  1  0.60101400  0.40331300  0.87552000  1
  Ni  Ni4  1  0.10207300  0.23076900  0.87640600  1
  Ni  Ni5  1  0.89792700  0.76923100  0.37640600  1
  Ni  Ni6  1  0.39792700  0.23076900  0.37640600  1
  Ni  Ni7  1  0.60207300  0.76923100  0.87640600  1
  Ni  Ni8  1  0.80621300  0.90211800  0.12572300  1
  Ni  Ni9  1  0.19378700  0.09788200  0.62572300  1
  Ni  Ni10  1  0.69378700  0.90211800  0.62572300  1
  Ni  Ni11  1  0.30621300  0.09788200  0.12572300  1
  Ni  Ni12  1  0.30435400  0.73487900  0.12092600  1
  Ni  Ni13  1  0.69564600  0.26512100  0.62092600  1
  Ni  Ni14  1  0.19564600  0.73487900  0.62092600  1
  Ni  Ni15  1  0.80435400  0.26512100  0.12092600  1
  Cu  Cu16  1  0.97208700  0.40978000  0.72857200  1
  Cu  Cu17  1  0.02791300  0.59022000  0.22857200  1
  Cu  Cu18  1  0.52791300  0.40978000  0.22857200  1
  Cu  Cu19  1  0.47208700  0.59022000  0.72857200  1
  Cu  Cu20  1  0.03209700  0.90878100  0.77279100  1
  Cu  Cu21  1  0.96790300  0.09121900  0.27279100  1
  Cu  Cu22  1  0.46790300  0.90878100  0.27279100  1
  Cu  Cu23  1  0.53209700  0.09121900  0.77279100  1
  Cu  Cu24  1  0.24362800  0.41148000  0.52551500  1
  Cu  Cu25  1  0.75637200  0.58852000  0.02551500  1
  Cu  Cu26  1  0.25637200  0.41148000  0.02551500  1
  Cu  Cu27  1  0.74362800  0.58852000  0.52551500  1
  Cu  Cu28  1  0.85263700  0.08896300  0.47464000  1
  Cu  Cu29  1  0.14736300  0.91103700  0.97464000  1
  Cu  Cu30  1  0.64736300  0.08896300  0.97464000  1
  Cu  Cu31  1  0.35263700  0.91103700  0.47464000  1
  C  C32  1  0.95340100  0.41019000  0.81655700  1
  C  C33  1  0.04659900  0.58981100  0.31655700  1
  C  C34  1  0.54659900  0.41019000  0.31655700  1
  C  C35  1  0.45340100  0.58981100  0.81655700  1
  C  C36  1  0.01279800  0.25542200  0.68666200  1
  C  C37  1  0.98720200  0.74457800  0.18666200  1
  C  C38  1  0.48720200  0.25542200  0.18666200  1
  C  C39  1  0.51279800  0.74457800  0.68666200  1
  C  C40  1  0.17626400  0.53994700  0.69802600  1
  C  C41  1  0.82373600  0.46005300  0.19802600  1
  C  C42  1  0.32373600  0.53994700  0.19802600  1
  C  C43  1  0.67626400  0.46005300  0.69802600  1
  C  C44  1  0.03080500  0.90833000  0.68439100  1
  C  C45  1  0.96919500  0.09167000  0.18439100  1
  C  C46  1  0.46919500  0.90833000  0.18439100  1
  C  C47  1  0.53080500  0.09167000  0.68439100  1
  C  C48  1  0.92533500  0.76098200  0.81267200  1
  C  C49  1  0.07466500  0.23901800  0.31267200  1
  C  C50  1  0.57466500  0.76098200  0.31267200  1
  C  C51  1  0.42533500  0.23901800  0.81267200  1
  C  C52  1  0.83622500  0.04971800  0.80089700  1
  C  C53  1  0.16377500  0.95028200  0.30089700  1
  C  C54  1  0.66377500  0.04971800  0.30089700  1
  C  C55  1  0.33622500  0.95028200  0.80089700  1
  C  C56  1  0.23912500  0.40867400  0.43724700  1
  C  C57  1  0.76087500  0.59132600  0.93724700  1
  C  C58  1  0.26087500  0.40867400  0.93724700  1
  C  C59  1  0.73912500  0.59132600  0.43724700  1
  C  C60  1  0.36099100  0.26767400  0.56591700  1
  C  C61  1  0.63900900  0.73232600  0.06591700  1
  C  C62  1  0.13900900  0.26767400  0.06591700  1
  C  C63  1  0.86099100  0.73232600  0.56591700  1
  C  C64  1  0.93285200  0.44334100  0.55240300  1
  C  C65  1  0.06714800  0.55665900  0.05240300  1
  C  C66  1  0.56714800  0.44334100  0.05240300  1
  C  C67  1  0.43285200  0.55665900  0.55240300  1
  C  C68  1  0.85699700  0.09026300  0.56288500  1
  C  C69  1  0.14300300  0.90973700  0.06288500  1
  C  C70  1  0.64300300  0.09026300  0.06288500  1
  C  C71  1  0.35699700  0.90973700  0.56288500  1
  C  C72  1  0.73376000  0.23211600  0.43432600  1
  C  C73  1  0.26624000  0.76788400  0.93432600  1
  C  C74  1  0.76624000  0.23211600  0.93432600  1
  C  C75  1  0.23376000  0.76788400  0.43432600  1
  C  C76  1  0.16453800  0.05728800  0.44792400  1
  C  C77  1  0.83546200  0.94271200  0.94792400  1
  C  C78  1  0.33546200  0.05728800  0.94792400  1
  C  C79  1  0.66453800  0.94271200  0.44792400  1
