# generated using pymatgen
data_Cu2(NiC7)3
_symmetry_space_group_name_H-M   'P 1'
_cell_length_a   10.85027865
_cell_length_b   10.85027865
_cell_length_c   10.85027865
_cell_angle_alpha   109.53295020
_cell_angle_beta   109.53295020
_cell_angle_gamma   109.34783191
_symmetry_Int_Tables_number   1
_chemical_formula_structural   Cu2(NiC7)3
_chemical_formula_sum   'Cu4 Ni6 C42'
_cell_volume   983.32996498
_cell_formula_units_Z   2
loop_
 _symmetry_equiv_pos_site_id
 _symmetry_equiv_pos_as_xyz
  1  'x, y, z'
loop_
 _atom_site_type_symbol
 _atom_site_label
 _atom_site_symmetry_multiplicity
 _atom_site_fract_x
 _atom_site_fract_y
 _atom_site_fract_z
 _atom_site_occupancy
  Ni  Ni0  1  0.37500000  0.76055700  0.88555700  1
  Ni  Ni1  1  0.87500000  0.48944300  0.11444300  1
  Ni  Ni2  1  0.23944300  0.12500000  0.61444300  1
  Ni  Ni3  1  0.51055700  0.62500000  0.38555700  1
  Ni  Ni4  1  0.00000000  0.00000000  0.00000000  1
  Ni  Ni5  1  0.75000000  0.25000000  0.50000000  1
  Cu  Cu6  1  0.37500000  0.24917900  0.37417900  1
  Cu  Cu7  1  0.87500000  0.00082100  0.62582100  1
  Cu  Cu8  1  0.75082100  0.12500000  0.12582100  1
  Cu  Cu9  1  0.99917900  0.62500000  0.87417900  1
  C  C10  1  0.50000000  0.50000000  0.00000000  1
  C  C11  1  0.25000000  0.75000000  0.50000000  1
  C  C12  1  0.12584100  0.37789800  0.44658800  1
  C  C13  1  0.93131000  0.67925300  0.55341200  1
  C  C14  1  0.62210200  0.06869000  0.74794300  1
  C  C15  1  0.81869000  0.87210200  0.24794300  1
  C  C16  1  0.32074700  0.87415900  0.25205700  1
  C  C17  1  0.62415900  0.57074700  0.75205700  1
  C  C18  1  0.42925300  0.18131000  0.05341200  1
  C  C19  1  0.12789800  0.37584100  0.94658800  1
  C  C20  1  0.37651100  0.24741100  0.19051900  1
  C  C21  1  0.05689200  0.18599200  0.80948100  1
  C  C22  1  0.75258900  0.94310800  0.12910100  1
  C  C23  1  0.69310800  0.00258900  0.62910100  1
  C  C24  1  0.81400800  0.62348900  0.87089900  1
  C  C25  1  0.37348900  0.06400800  0.37089900  1
  C  C26  1  0.93599200  0.30689200  0.30948100  1
  C  C27  1  0.99741100  0.62651100  0.69051900  1
  C  C28  1  0.19652100  0.25958200  0.37849300  1
  C  C29  1  0.88108900  0.81802800  0.62150700  1
  C  C30  1  0.74041800  0.11891100  0.93693900  1
  C  C31  1  0.86891100  0.99041800  0.43693900  1
  C  C32  1  0.18197200  0.80347900  0.06306100  1
  C  C33  1  0.55347900  0.43197200  0.56306100  1
  C  C34  1  0.56802800  0.13108900  0.12150700  1
  C  C35  1  0.00958200  0.44652100  0.87849300  1
  C  C36  1  0.76677300  0.51835000  0.39256100  1
  C  C37  1  0.12578900  0.37421200  0.60743900  1
  C  C38  1  0.48165000  0.87421100  0.24842300  1
  C  C39  1  0.62421100  0.73165000  0.74842300  1
  C  C40  1  0.62578800  0.23322700  0.75157700  1
  C  C41  1  0.98322700  0.87578800  0.25157700  1
  C  C42  1  0.12421200  0.37578900  0.10743900  1
  C  C43  1  0.26835000  0.01677300  0.89256100  1
  C  C44  1  0.25203400  0.57903000  0.50475300  1
  C  C45  1  0.07427700  0.74728100  0.49524700  1
  C  C46  1  0.42097000  0.92572300  0.67300400  1
  C  C47  1  0.67572300  0.67097000  0.17300400  1
  C  C48  1  0.25271900  0.74796600  0.32699600  1
  C  C49  1  0.49796600  0.50271900  0.82699600  1
  C  C50  1  0.49728100  0.32427700  0.99524700  1
  C  C51  1  0.32903000  0.50203400  0.00475300  1
