# generated using pymatgen
data_Cu5Ni4C21
_symmetry_space_group_name_H-M   'P 1'
_cell_length_a   8.74098482
_cell_length_b   8.74098482
_cell_length_c   10.49541644
_cell_angle_alpha   85.89987795
_cell_angle_beta   85.89987795
_cell_angle_gamma   61.39033557
_symmetry_Int_Tables_number   1
_chemical_formula_structural   Cu5Ni4C21
_chemical_formula_sum   'Cu10 Ni8 C42'
_cell_volume   701.55226609
_cell_formula_units_Z   2
loop_
 _symmetry_equiv_pos_site_id
 _symmetry_equiv_pos_as_xyz
  1  'x, y, z'
loop_
 _atom_site_type_symbol
 _atom_site_label
 _atom_site_symmetry_multiplicity
 _atom_site_fract_x
 _atom_site_fract_y
 _atom_site_fract_z
 _atom_site_occupancy
  Ni  Ni0  1  0.93378300  0.65985700  0.42571700  1
  Ni  Ni1  1  0.32164900  0.63253900  0.54126400  1
  Ni  Ni2  1  0.34014300  0.06621700  0.07428300  1
  Ni  Ni3  1  0.36746100  0.67835100  0.95873600  1
  Ni  Ni4  1  0.63253900  0.32164900  0.04126400  1
  Ni  Ni5  1  0.65985700  0.93378300  0.92571700  1
  Ni  Ni6  1  0.06621700  0.34014300  0.57428300  1
  Ni  Ni7  1  0.67835100  0.36746100  0.45873600  1
  Cu  Cu8  1  0.01208700  0.70635000  0.76980600  1
  Cu  Cu9  1  0.70635000  0.01208700  0.26980600  1
  Cu  Cu10  1  0.46125600  0.87257200  0.44337500  1
  Cu  Cu11  1  0.87257200  0.46125600  0.94337500  1
  Cu  Cu12  1  0.12742800  0.53874400  0.05662500  1
  Cu  Cu13  1  0.81672100  0.18327900  0.75000000  1
  Cu  Cu14  1  0.18327900  0.81672100  0.25000000  1
  Cu  Cu15  1  0.53874400  0.12742800  0.55662500  1
  Cu  Cu16  1  0.98791300  0.29365000  0.23019400  1
  Cu  Cu17  1  0.29365000  0.98791300  0.73019400  1
  C  C18  1  0.34437700  0.33338000  0.80239000  1
  C  C19  1  0.00000000  0.00000000  0.50000000  1
  C  C20  1  0.00000000  0.00000000  0.00000000  1
  C  C21  1  0.33338000  0.34437700  0.30239000  1
  C  C22  1  0.65562300  0.66662000  0.19761000  1
  C  C23  1  0.66662000  0.65562300  0.69761000  1
  C  C24  1  0.41415100  0.11308200  0.89913600  1
  C  C25  1  0.09156000  0.76176700  0.93734500  1
  C  C26  1  0.24078800  0.56854600  0.20475900  1
  C  C27  1  0.07591800  0.06255500  0.33640700  1
  C  C28  1  0.23823300  0.90844000  0.56265500  1
  C  C29  1  0.93744500  0.92408200  0.16359300  1
  C  C30  1  0.42865200  0.41632200  0.43435900  1
  C  C31  1  0.76478400  0.08995700  0.93774200  1
  C  C32  1  0.23521600  0.91004300  0.06225800  1
  C  C33  1  0.72188600  0.77966100  0.32821200  1
  C  C34  1  0.24411700  0.54647100  0.69675500  1
  C  C35  1  0.27811400  0.22033900  0.67178800  1
  C  C36  1  0.90844000  0.23823300  0.06265500  1
  C  C37  1  0.11278300  0.43804300  0.88976400  1
  C  C38  1  0.45352900  0.75588300  0.80324500  1
  C  C39  1  0.57134800  0.58367800  0.56564100  1
  C  C40  1  0.75588300  0.45352900  0.30324500  1
  C  C41  1  0.56195700  0.88721700  0.61023600  1
  C  C42  1  0.43145400  0.75921200  0.29524100  1
  C  C43  1  0.54647100  0.24411700  0.19675500  1
  C  C44  1  0.11308200  0.41415100  0.39913600  1
  C  C45  1  0.88721700  0.56195700  0.11023600  1
  C  C46  1  0.91004300  0.23521600  0.56225800  1
  C  C47  1  0.41632200  0.42865200  0.93435900  1
  C  C48  1  0.75921200  0.43145400  0.79524100  1
  C  C49  1  0.06255500  0.07591800  0.83640700  1
  C  C50  1  0.77966100  0.72188600  0.82821200  1
  C  C51  1  0.58367800  0.57134800  0.06564100  1
  C  C52  1  0.76176700  0.09156000  0.43734500  1
  C  C53  1  0.43804300  0.11278300  0.38976400  1
  C  C54  1  0.58584900  0.88691800  0.10086400  1
  C  C55  1  0.92408200  0.93744500  0.66359300  1
  C  C56  1  0.08995700  0.76478400  0.43774200  1
  C  C57  1  0.22033900  0.27811400  0.17178800  1
  C  C58  1  0.56854600  0.24078800  0.70475900  1
  C  C59  1  0.88691800  0.58584900  0.60086400  1
