# generated using pymatgen
data_Cu2NiC4
_symmetry_space_group_name_H-M   'P 1'
_cell_length_a   3.57912100
_cell_length_b   10.66366600
_cell_length_c   12.46490100
_cell_angle_alpha   90.00000000
_cell_angle_beta   90.00000000
_cell_angle_gamma   90.00000000
_symmetry_Int_Tables_number   1
_chemical_formula_structural   Cu2NiC4
_chemical_formula_sum   'Cu8 Ni4 C16'
_cell_volume   475.74227870
_cell_formula_units_Z   4
loop_
 _symmetry_equiv_pos_site_id
 _symmetry_equiv_pos_as_xyz
  1  'x, y, z'
loop_
 _atom_site_type_symbol
 _atom_site_label
 _atom_site_symmetry_multiplicity
 _atom_site_fract_x
 _atom_site_fract_y
 _atom_site_fract_z
 _atom_site_occupancy
  Ni  Ni0  1  0.75000000  0.25241400  0.85228100  1
  Ni  Ni1  1  0.25000000  0.74758600  0.14771900  1
  Ni  Ni2  1  0.75000000  0.75241400  0.64771900  1
  Ni  Ni3  1  0.25000000  0.24758600  0.35228100  1
  Cu  Cu4  1  0.25000000  0.57658500  0.38866000  1
  Cu  Cu5  1  0.75000000  0.42341500  0.61134000  1
  Cu  Cu6  1  0.25000000  0.07658500  0.11134000  1
  Cu  Cu7  1  0.75000000  0.92341500  0.88866000  1
  Cu  Cu8  1  0.75000000  0.92313600  0.38900400  1
  Cu  Cu9  1  0.25000000  0.07686400  0.61099600  1
  Cu  Cu10  1  0.75000000  0.42313600  0.11099600  1
  Cu  Cu11  1  0.25000000  0.57686400  0.88900400  1
  C  C12  1  0.25000000  0.57116700  0.57525500  1
  C  C13  1  0.75000000  0.42883300  0.42474500  1
  C  C14  1  0.25000000  0.07116700  0.92474500  1
  C  C15  1  0.75000000  0.92883300  0.07525500  1
  C  C16  1  0.25000000  0.48266900  0.21724600  1
  C  C17  1  0.75000000  0.51733100  0.78275400  1
  C  C18  1  0.25000000  0.98266900  0.28275400  1
  C  C19  1  0.75000000  0.01733100  0.71724600  1
  C  C20  1  0.25000000  0.88101800  0.51889200  1
  C  C21  1  0.75000000  0.11898200  0.48110800  1
  C  C22  1  0.25000000  0.38101800  0.98110800  1
  C  C23  1  0.75000000  0.61898200  0.01889200  1
  C  C24  1  0.75000000  0.71031100  0.33465600  1
  C  C25  1  0.25000000  0.28968900  0.66534400  1
  C  C26  1  0.75000000  0.21031100  0.16534400  1
  C  C27  1  0.25000000  0.78968900  0.83465600  1
