# generated using pymatgen
data_CuNi149
_symmetry_space_group_name_H-M   'P 1'
_cell_length_a   15.89894295
_cell_length_b   15.89894874
_cell_length_c   15.54142610
_cell_angle_alpha   90.00000000
_cell_angle_beta   90.00000000
_cell_angle_gamma   120.00001436
_symmetry_Int_Tables_number   1
_chemical_formula_structural   CuNi149
_chemical_formula_sum   'Cu1 Ni149'
_cell_volume   3402.18634194
_cell_formula_units_Z   1
loop_
 _symmetry_equiv_pos_site_id
 _symmetry_equiv_pos_as_xyz
  1  'x, y, z'
loop_
 _atom_site_type_symbol
 _atom_site_label
 _atom_site_symmetry_multiplicity
 _atom_site_fract_x
 _atom_site_fract_y
 _atom_site_fract_z
 _atom_site_occupancy
  Ni  Ni0  1  0.19811173  0.00089642  0.00000000  1
  Ni  Ni1  1  0.80278369  0.00089642  0.00000000  1
  Ni  Ni2  1  0.19811173  0.19721531  0.00000000  1
  Ni  Ni3  1  0.99910358  0.19721531  0.00000000  1
  Ni  Ni4  1  0.39921463  0.19960781  0.00000000  1
  Ni  Ni5  1  0.80039219  0.19960781  0.00000000  1
  Ni  Ni6  1  0.59989921  0.19979742  0.00000000  1
  Ni  Ni7  1  0.19924986  0.39849872  0.00000000  1
  Ni  Ni8  1  0.39948512  0.39954307  0.00000000  1
  Ni  Ni9  1  0.00005894  0.39954307  0.00000000  1
  Ni  Ni10  1  0.59989921  0.40010079  0.00000000  1
  Ni  Ni11  1  0.80020258  0.40010079  0.00000000  1
  Ni  Ni12  1  0.19977024  0.59988562  0.00000000  1
  Ni  Ni13  1  0.40011438  0.59988562  0.00000000  1
  Ni  Ni14  1  0.60045693  0.60051488  0.00000000  1
  Ni  Ni15  1  0.00005894  0.60051488  0.00000000  1
  Ni  Ni16  1  0.80039219  0.60078537  0.00000000  1
  Ni  Ni17  1  0.40011438  0.80022976  0.00000000  1
  Ni  Ni18  1  0.19924986  0.80075014  0.00000000  1
  Ni  Ni19  1  0.60150028  0.80075014  0.00000000  1
  Ni  Ni20  1  0.80278369  0.80188727  0.00000000  1
  Ni  Ni21  1  0.99910358  0.80188827  0.00000000  1
  Ni  Ni22  1  0.39948512  0.99994106  0.00000000  1
  Ni  Ni23  1  0.60045693  0.99994206  0.00000000  1
  Ni  Ni24  1  0.06573153  0.13146306  0.16472015  1
  Ni  Ni25  1  0.86853694  0.93426847  0.16472015  1
  Ni  Ni26  1  0.06573153  0.93426847  0.16472015  1
  Ni  Ni27  1  0.26613399  0.33241683  0.16608523  1
  Ni  Ni28  1  0.06628383  0.33241683  0.16608523  1
  Ni  Ni29  1  0.06628383  0.73386601  0.16608523  1
  Ni  Ni30  1  0.66758317  0.73386601  0.16608523  1
  Ni  Ni31  1  0.26613399  0.93371617  0.16608523  1
  Ni  Ni32  1  0.66758317  0.93371717  0.16608523  1
  Ni  Ni33  1  0.66658154  0.13327747  0.16644670  1
  Ni  Ni34  1  0.46669593  0.13327847  0.16644670  1
  Ni  Ni35  1  0.46669593  0.33341846  0.16644670  1
  Ni  Ni36  1  0.86672153  0.33341846  0.16644670  1
  Ni  Ni37  1  0.86672153  0.53330307  0.16644670  1
  Ni  Ni38  1  0.66658154  0.53330407  0.16644670  1
  Ni  Ni39  1  0.66666700  0.33333300  0.16659482  1
  Ni  Ni40  1  0.46667026  0.53332874  0.16637105  1
  Ni  Ni41  1  0.06665849  0.53332974  0.16637105  1
  Ni  Ni42  1  0.46667026  0.93334151  0.16637105  1
  Ni  Ni43  1  0.26651175  0.53302451  0.16655441  1
  Ni  Ni44  1  0.26651175  0.73348825  0.16655441  1
  Ni  Ni45  1  0.46697549  0.73348825  0.16655441  1
  Ni  Ni46  1  0.86634330  0.13365570  0.16711195  1
  Ni  Ni47  1  0.26731340  0.13365670  0.16711195  1
  Ni  Ni48  1  0.86634330  0.73268660  0.16711195  1
  Ni  Ni49  1  0.00000000  0.00000000  0.33262183  1
  Ni  Ni50  1  0.19941355  0.99982992  0.33313275  1
  Ni  Ni51  1  0.80041637  0.99982992  0.33313275  1
  Ni  Ni52  1  0.00016908  0.19958363  0.33313275  1
  Ni  Ni53  1  0.19941355  0.19958363  0.33313275  1
  Ni  Ni54  1  0.80041637  0.80058545  0.33313275  1
  Ni  Ni55  1  0.00016908  0.80058645  0.33313275  1
  Ni  Ni56  1  0.19992376  0.39984752  0.33303756  1
  Ni  Ni57  1  0.19992376  0.80007624  0.33303756  1
  Ni  Ni58  1  0.60015248  0.80007624  0.33303756  1
  Ni  Ni59  1  0.60026957  0.99999226  0.33314083  1
  Ni  Ni60  1  0.39972169  0.99999226  0.33314083  1
  Ni  Ni61  1  0.39972169  0.39973043  0.33314083  1
  Ni  Ni62  1  0.00000774  0.39973043  0.33314083  1
  Ni  Ni63  1  0.60026957  0.60027831  0.33314083  1
  Ni  Ni64  1  0.00000774  0.60027731  0.33314083  1
  Ni  Ni65  1  0.60003095  0.20006290  0.33310664  1
  Ni  Ni66  1  0.60003095  0.39996905  0.33310664  1
  Ni  Ni67  1  0.79993710  0.39996905  0.33310664  1
  Ni  Ni68  1  0.80005194  0.19994806  0.33328466  1
  Ni  Ni69  1  0.39989713  0.19994806  0.33328466  1
  Ni  Ni70  1  0.80005194  0.60010387  0.33328466  1
  Ni  Ni71  1  0.20004799  0.60002449  0.33322547  1
  Ni  Ni72  1  0.39997551  0.60002449  0.33322547  1
  Ni  Ni73  1  0.39997551  0.79995101  0.33322547  1
  Ni  Ni74  1  0.06650152  0.13300204  0.50000000  1
  Ni  Ni75  1  0.86679561  0.13320439  0.50000000  1
  Ni  Ni76  1  0.26640977  0.13320439  0.50000000  1
  Ni  Ni77  1  0.46669282  0.13322048  0.50000000  1
  Ni  Ni78  1  0.66652766  0.13322048  0.50000000  1
  Ni  Ni79  1  0.06640909  0.33303871  0.50000000  1
  Ni  Ni80  1  0.26663063  0.33303871  0.50000000  1
  Ni  Ni81  1  0.66666700  0.33333300  0.50000000  1
  Ni  Ni82  1  0.86678052  0.33347334  0.50000000  1
  Ni  Ni83  1  0.46669282  0.33347334  0.50000000  1
  Ni  Ni84  1  0.86678052  0.53330718  0.50000000  1
  Ni  Ni85  1  0.66652766  0.53330718  0.50000000  1
  Ni  Ni86  1  0.26652263  0.53304526  0.50000000  1
  Ni  Ni87  1  0.06649934  0.53324967  0.50000000  1
  Ni  Ni88  1  0.46675033  0.53324967  0.50000000  1
  Ni  Ni89  1  0.46695474  0.73347737  0.50000000  1
  Ni  Ni90  1  0.26652263  0.73347837  0.50000000  1
  Ni  Ni91  1  0.66696129  0.73336937  0.50000000  1
  Ni  Ni92  1  0.06640909  0.73336937  0.50000000  1
  Ni  Ni93  1  0.86679561  0.73359123  0.50000000  1
  Ni  Ni94  1  0.46675033  0.93349966  0.50000000  1
  Ni  Ni95  1  0.86699796  0.93349948  0.50000000  1
  Ni  Ni96  1  0.06650152  0.93349948  0.50000000  1
  Ni  Ni97  1  0.26663063  0.93359191  0.50000000  1
  Ni  Ni98  1  0.66696129  0.93359191  0.50000000  1
  Ni  Ni99  1  0.20004799  0.60002449  0.66677353  1
  Ni  Ni100  1  0.39997551  0.60002449  0.66677353  1
  Ni  Ni101  1  0.39997551  0.79995101  0.66677353  1
  Ni  Ni102  1  0.80005194  0.19994806  0.66671534  1
  Ni  Ni103  1  0.39989713  0.19994806  0.66671534  1
  Ni  Ni104  1  0.80005194  0.60010387  0.66671534  1
  Ni  Ni105  1  0.60003095  0.20006290  0.66689336  1
  Ni  Ni106  1  0.60003095  0.39996905  0.66689336  1
  Ni  Ni107  1  0.79993710  0.39996905  0.66689336  1
  Ni  Ni108  1  0.60026957  0.99999226  0.66685917  1
  Ni  Ni109  1  0.39972169  0.99999226  0.66685917  1
  Ni  Ni110  1  0.39972169  0.39973043  0.66685917  1
  Ni  Ni111  1  0.00000774  0.39973043  0.66685917  1
  Ni  Ni112  1  0.60026957  0.60027831  0.66685917  1
  Ni  Ni113  1  0.00000774  0.60027731  0.66685917  1
  Ni  Ni114  1  0.19992376  0.39984752  0.66696244  1
  Ni  Ni115  1  0.19992376  0.80007624  0.66696244  1
  Ni  Ni116  1  0.60015248  0.80007624  0.66696244  1
  Ni  Ni117  1  0.19941355  0.99982992  0.66686725  1
  Ni  Ni118  1  0.80041637  0.99982992  0.66686725  1
  Ni  Ni119  1  0.00016908  0.19958363  0.66686725  1
  Ni  Ni120  1  0.19941355  0.19958363  0.66686725  1
  Ni  Ni121  1  0.80041637  0.80058545  0.66686725  1
  Ni  Ni122  1  0.00016908  0.80058645  0.66686725  1
  Ni  Ni123  1  0.00000000  0.00000000  0.66737817  1
  Ni  Ni124  1  0.86634330  0.13365570  0.83288805  1
  Ni  Ni125  1  0.26731340  0.13365670  0.83288805  1
  Ni  Ni126  1  0.86634330  0.73268660  0.83288805  1
  Ni  Ni127  1  0.26651175  0.53302451  0.83344559  1
  Ni  Ni128  1  0.26651175  0.73348825  0.83344559  1
  Ni  Ni129  1  0.46697549  0.73348825  0.83344559  1
  Ni  Ni130  1  0.46667026  0.53332874  0.83362895  1
  Ni  Ni131  1  0.06665849  0.53332974  0.83362895  1
  Ni  Ni132  1  0.46667026  0.93334151  0.83362895  1
  Ni  Ni133  1  0.66666700  0.33333300  0.83340518  1
  Ni  Ni134  1  0.66658154  0.13327747  0.83355230  1
  Ni  Ni135  1  0.46669593  0.13327847  0.83355230  1
  Ni  Ni136  1  0.46669593  0.33341846  0.83355230  1
  Ni  Ni137  1  0.86672153  0.33341846  0.83355230  1
  Ni  Ni138  1  0.86672153  0.53330307  0.83355230  1
  Ni  Ni139  1  0.66658154  0.53330407  0.83355230  1
  Ni  Ni140  1  0.26613399  0.33241683  0.83391477  1
  Ni  Ni141  1  0.06628383  0.33241683  0.83391477  1
  Ni  Ni142  1  0.06628383  0.73386601  0.83391477  1
  Ni  Ni143  1  0.66758317  0.73386601  0.83391477  1
  Ni  Ni144  1  0.26613399  0.93371617  0.83391477  1
  Ni  Ni145  1  0.66758317  0.93371717  0.83391477  1
  Ni  Ni146  1  0.06573153  0.13146306  0.83527985  1
  Ni  Ni147  1  0.86853694  0.93426847  0.83527985  1
  Ni  Ni148  1  0.06573153  0.93426847  0.83527985  1
  Cu  Cu149  1  0.00000000  0.00000000  0.00000000  1
