# generated using pymatgen
data_CuNiC12
_symmetry_space_group_name_H-M   'P 1'
_cell_length_a   9.08818600
_cell_length_b   5.08278500
_cell_length_c   8.58277672
_cell_angle_alpha   53.98156859
_cell_angle_beta   90.00000000
_cell_angle_gamma   90.00000000
_symmetry_Int_Tables_number   1
_chemical_formula_structural   CuNiC12
_chemical_formula_sum   'Cu2 Ni2 C24'
_cell_volume   320.67334908
_cell_formula_units_Z   2
loop_
 _symmetry_equiv_pos_site_id
 _symmetry_equiv_pos_as_xyz
  1  'x, y, z'
loop_
 _atom_site_type_symbol
 _atom_site_label
 _atom_site_symmetry_multiplicity
 _atom_site_fract_x
 _atom_site_fract_y
 _atom_site_fract_z
 _atom_site_occupancy
  C  C0  1  0.85121400  0.28253100  0.24953600  1
  C  C1  1  0.35121400  0.71746900  0.25046400  1
  C  C2  1  0.14878600  0.71746900  0.75046400  1
  C  C3  1  0.64878600  0.28253100  0.74953600  1
  Ni  Ni4  1  0.50000000  0.00000000  0.50000000  1
  Ni  Ni5  1  0.00000000  0.00000000  0.00000000  1
  Cu  Cu6  1  0.50000000  0.50000000  0.00000000  1
  Cu  Cu7  1  0.00000000  0.50000000  0.50000000  1
  C  C8  1  0.67472300  0.78768000  0.25027600  1
  C  C9  1  0.17472300  0.21232000  0.24972400  1
  C  C10  1  0.32527700  0.21232000  0.74972400  1
  C  C11  1  0.82527700  0.78768000  0.75027600  1
  C  C12  1  0.84775900  0.79565400  0.24951200  1
  C  C13  1  0.34775900  0.20434600  0.25048800  1
  C  C14  1  0.15224100  0.20434600  0.75048800  1
  C  C15  1  0.65224100  0.79565400  0.74951200  1
  C  C16  1  0.62127000  0.11508300  0.06779600  1
  C  C17  1  0.12127000  0.88491700  0.43220400  1
  C  C18  1  0.37961000  0.24682900  0.56733800  1
  C  C19  1  0.87961000  0.75317100  0.93266200  1
  C  C20  1  0.37873000  0.88491700  0.93220400  1
  C  C21  1  0.87873000  0.11508300  0.56779600  1
  C  C22  1  0.62039000  0.75317100  0.43266200  1
  C  C23  1  0.12039000  0.24682900  0.06733800  1
  C  C24  1  0.61481800  0.50052100  0.25038800  1
  C  C25  1  0.11481800  0.49947900  0.24961200  1
  C  C26  1  0.38518200  0.49947900  0.74961200  1
  C  C27  1  0.88518200  0.50052100  0.75038800  1
