# generated using pymatgen
data_Cu4Ni16C11
_symmetry_space_group_name_H-M   'P 1'
_cell_length_a   4.82995105
_cell_length_b   12.89314786
_cell_length_c   5.62691576
_cell_angle_alpha   100.05807896
_cell_angle_beta   88.83578509
_cell_angle_gamma   92.51286743
_symmetry_Int_Tables_number   1
_chemical_formula_structural   Cu4Ni16C11
_chemical_formula_sum   'Cu4 Ni16 C11'
_cell_volume   344.66081979
_cell_formula_units_Z   1
loop_
 _symmetry_equiv_pos_site_id
 _symmetry_equiv_pos_as_xyz
  1  'x, y, z'
loop_
 _atom_site_type_symbol
 _atom_site_label
 _atom_site_symmetry_multiplicity
 _atom_site_fract_x
 _atom_site_fract_y
 _atom_site_fract_z
 _atom_site_occupancy
  C  C0  1  0.65269882  0.14443298  0.03572790  1
  C  C1  1  0.54018342  0.98957497  0.45657943  1
  C  C2  1  0.46146452  0.41309159  0.34408190  1
  C  C3  1  0.34148160  0.24832245  0.78970141  1
  C  C4  1  0.50619586  0.60523377  0.71391659  1
  C  C5  1  0.55120876  0.79770972  0.08004209  1
  C  C6  1  0.91304924  0.40017101  0.84370719  1
  C  C7  1  0.01732480  0.80168543  0.59251967  1
  C  C8  1  0.07797601  0.19064103  0.34585513  1
  C  C9  1  0.97575902  0.59646019  0.23706661  1
  C  C10  1  0.08078314  0.98476076  0.97493164  1
  Ni  Ni11  1  0.72529886  0.25938223  0.82727624  1
  Ni  Ni12  1  0.85585372  0.85314476  0.89331075  1
  Ni  Ni13  1  0.82059043  0.66931464  0.53540292  1
  Ni  Ni14  1  0.83969612  0.06292982  0.25272665  1
  Ni  Ni15  1  0.77236899  0.46413394  0.16000804  1
  Ni  Ni16  1  0.66058514  0.46783551  0.65533479  1
  Ni  Ni17  1  0.68377900  0.65815407  0.02895441  1
  Ni  Ni18  1  0.73344937  0.85503091  0.37991826  1
  Ni  Ni19  1  0.23932339  0.35011752  0.04860668  1
  Ni  Ni20  1  0.33725944  0.73714168  0.79248778  1
  Ni  Ni21  1  0.33585496  0.12959165  0.53341826  1
  Ni  Ni22  1  0.36926256  0.93098952  0.14456287  1
  Ni  Ni23  1  0.28559729  0.54693773  0.42719635  1
  Ni  Ni24  1  0.24134475  0.14167277  0.01950147  1
  Ni  Ni25  1  0.23416582  0.92939560  0.64602000  1
  Ni  Ni26  1  0.18336543  0.32644186  0.56244015  1
  Cu  Cu27  1  0.75815323  0.04100773  0.76015039  1
  Cu  Cu28  1  0.70915230  0.26603833  0.30642710  1
  Cu  Cu29  1  0.16508167  0.54161386  0.91454276  1
  Cu  Cu30  1  0.20947532  0.73766795  0.28091757  1
