# generated using pymatgen
data_Cu5(NiC10)2
_symmetry_space_group_name_H-M   'P 1'
_cell_length_a   5.20286261
_cell_length_b   7.34934634
_cell_length_c   10.63579095
_cell_angle_alpha   72.22502385
_cell_angle_beta   88.33143113
_cell_angle_gamma   86.90953483
_symmetry_Int_Tables_number   1
_chemical_formula_structural   Cu5(NiC10)2
_chemical_formula_sum   'Cu5 Ni2 C20'
_cell_volume   386.67591662
_cell_formula_units_Z   1
loop_
 _symmetry_equiv_pos_site_id
 _symmetry_equiv_pos_as_xyz
  1  'x, y, z'
loop_
 _atom_site_type_symbol
 _atom_site_label
 _atom_site_symmetry_multiplicity
 _atom_site_fract_x
 _atom_site_fract_y
 _atom_site_fract_z
 _atom_site_occupancy
  Ni  Ni0  1  0.49854400  0.99869800  0.50022600  1
  Ni  Ni1  1  0.99926600  0.99981300  0.00027900  1
  Cu  Cu2  1  0.04736400  0.57120300  0.68316500  1
  Cu  Cu3  1  0.95369500  0.41584900  0.31045700  1
  Cu  Cu4  1  0.99986100  0.49971600  0.99997200  1
  Cu  Cu5  1  0.49394500  0.70130300  0.86374600  1
  Cu  Cu6  1  0.50606000  0.30096900  0.13506900  1
  C  C7  1  0.98883900  0.03061000  0.67379200  1
  C  C8  1  0.00724200  0.96952000  0.32523700  1
  C  C9  1  0.52667200  0.25369000  0.83398800  1
  C  C10  1  0.47672400  0.74612300  0.16612500  1
  C  C11  1  0.51269600  0.51052400  0.50261400  1
  C  C12  1  0.80664200  0.89008900  0.60774700  1
  C  C13  1  0.19031700  0.10894800  0.39194600  1
  C  C14  1  0.29267500  0.92230200  0.66571500  1
  C  C15  1  0.70575500  0.08180500  0.33562600  1
  C  C16  1  0.21673700  0.30476400  0.87965600  1
  C  C17  1  0.78524300  0.69880900  0.11723100  1
  C  C18  1  0.64320800  0.48065800  0.77372800  1
  C  C19  1  0.36662600  0.51789200  0.22956900  1
  C  C20  1  0.67860800  0.16760100  0.98856600  1
  C  C21  1  0.31907600  0.83074900  0.01314700  1
  C  C22  1  0.91673300  0.92168900  0.83970800  1
  C  C23  1  0.08037900  0.08064500  0.15976200  1
  C  C24  1  0.46093800  0.33707300  0.54790100  1
  C  C25  1  0.73388400  0.56112400  0.45413000  1
  C  C26  1  0.34497400  0.64213300  0.50639800  1
