# generated using pymatgen
data_CuNi2C13
_symmetry_space_group_name_H-M   'P 1'
_cell_length_a   8.84140100
_cell_length_b   6.67209100
_cell_length_c   15.43610792
_cell_angle_alpha   66.96591773
_cell_angle_beta   90.00000000
_cell_angle_gamma   90.00000000
_symmetry_Int_Tables_number   1
_chemical_formula_structural   CuNi2C13
_chemical_formula_sum   'Cu4 Ni8 C52'
_cell_volume   837.98682217
_cell_formula_units_Z   4
loop_
 _symmetry_equiv_pos_site_id
 _symmetry_equiv_pos_as_xyz
  1  'x, y, z'
loop_
 _atom_site_type_symbol
 _atom_site_label
 _atom_site_symmetry_multiplicity
 _atom_site_fract_x
 _atom_site_fract_y
 _atom_site_fract_z
 _atom_site_occupancy
  C  C0  1  0.73120300  0.32781700  0.41724700  1
  C  C1  1  0.76879700  0.32781700  0.91724700  1
  C  C2  1  0.26879700  0.67218300  0.58275300  1
  C  C3  1  0.23120300  0.67218300  0.08275300  1
  C  C4  1  0.88655700  0.19754300  0.59870700  1
  C  C5  1  0.61344300  0.19754300  0.09870700  1
  C  C6  1  0.11344300  0.80245700  0.40129300  1
  C  C7  1  0.38655700  0.80245700  0.90129300  1
  C  C8  1  0.02686100  0.24946000  0.53304600  1
  C  C9  1  0.47313900  0.24946000  0.03304600  1
  C  C10  1  0.97313900  0.75054000  0.46695400  1
  C  C11  1  0.52686100  0.75054000  0.96695400  1
  Ni  Ni12  1  0.02895500  0.60717200  0.27741400  1
  Ni  Ni13  1  0.47104500  0.60717200  0.77741400  1
  Ni  Ni14  1  0.97104500  0.39282800  0.72258600  1
  Ni  Ni15  1  0.52895500  0.39282800  0.22258600  1
  Ni  Ni16  1  0.02295500  0.34192500  0.26469100  1
  Ni  Ni17  1  0.47704500  0.34192500  0.76469100  1
  Ni  Ni18  1  0.97704500  0.65807500  0.73530900  1
  Ni  Ni19  1  0.52295500  0.65807500  0.23530900  1
  Cu  Cu20  1  0.33465700  0.26500600  0.47399200  1
  Cu  Cu21  1  0.16534300  0.26500600  0.97399200  1
  Cu  Cu22  1  0.66534300  0.73499400  0.52600800  1
  Cu  Cu23  1  0.83465800  0.73499400  0.02600800  1
  C  C24  1  0.84264100  0.04564100  0.19198100  1
  C  C25  1  0.65735900  0.04564100  0.69198100  1
  C  C26  1  0.15735900  0.95435900  0.80801900  1
  C  C27  1  0.34264100  0.95435900  0.30801900  1
  C  C28  1  0.50271700  0.26635100  0.48792500  1
  C  C29  1  0.99728300  0.26635100  0.98792500  1
  C  C30  1  0.49728300  0.73364900  0.51207500  1
  C  C31  1  0.00271700  0.73364900  0.01207500  1
  C  C32  1  0.26214400  0.42307100  0.50880800  1
  C  C33  1  0.23785600  0.42307100  0.00880800  1
  C  C34  1  0.73785600  0.57692900  0.49119200  1
  C  C35  1  0.76214400  0.57692900  0.99119200  1
  C  C36  1  0.29875400  0.32229900  0.37471900  1
  C  C37  1  0.20124600  0.32229900  0.87471900  1
  C  C38  1  0.70124600  0.67770100  0.62528100  1
  C  C39  1  0.79875400  0.67770100  0.12528100  1
  C  C40  1  0.27550100  0.04500400  0.53493900  1
  C  C41  1  0.22449900  0.04500400  0.03493900  1
  C  C42  1  0.72449900  0.95499600  0.46506100  1
  C  C43  1  0.77550100  0.95499600  0.96506100  1
  C  C44  1  0.94273600  0.60439700  0.34019500  1
  C  C45  1  0.55726400  0.60439700  0.84019500  1
  C  C46  1  0.05726400  0.39560300  0.65980500  1
  C  C47  1  0.44273600  0.39560300  0.15980500  1
  C  C48  1  0.93657900  0.22021200  0.32396300  1
  C  C49  1  0.56342100  0.22021200  0.82396300  1
  C  C50  1  0.06342100  0.77978800  0.67603700  1
  C  C51  1  0.43657900  0.77978800  0.17603700  1
  C  C52  1  0.10406100  0.34731800  0.19960300  1
  C  C53  1  0.39593900  0.34731800  0.69960300  1
  C  C54  1  0.89593900  0.65268200  0.80039700  1
  C  C55  1  0.60406100  0.65268200  0.30039700  1
  C  C56  1  0.11864600  0.72990000  0.22092500  1
  C  C57  1  0.38135400  0.72990000  0.72092500  1
  C  C58  1  0.88135400  0.27010000  0.77907500  1
  C  C59  1  0.61864600  0.27010000  0.27907500  1
  C  C60  1  0.92108900  0.20279600  0.53782800  1
  C  C61  1  0.57891100  0.20279600  0.03782800  1
  C  C62  1  0.07891100  0.79720400  0.46217200  1
  C  C63  1  0.42108900  0.79720400  0.96217200  1
