# generated using pymatgen
data_CuNiC2
_symmetry_space_group_name_H-M   'P 1'
_cell_length_a   3.48422411
_cell_length_b   3.46974443
_cell_length_c   8.72869667
_cell_angle_alpha   90.04702872
_cell_angle_beta   89.98918845
_cell_angle_gamma   90.02710992
_symmetry_Int_Tables_number   1
_chemical_formula_structural   CuNiC2
_chemical_formula_sum   'Cu1 Ni1 C2'
_cell_volume   105.52437018
_cell_formula_units_Z   1
loop_
 _symmetry_equiv_pos_site_id
 _symmetry_equiv_pos_as_xyz
  1  'x, y, z'
loop_
 _atom_site_type_symbol
 _atom_site_label
 _atom_site_symmetry_multiplicity
 _atom_site_fract_x
 _atom_site_fract_y
 _atom_site_fract_z
 _atom_site_occupancy
  C  C0  1  0.49997200  0.50005900  0.26437500  1
  C  C1  1  0.50002700  0.49995600  0.73565300  1
  Ni  Ni2  1  0.49999900  0.50000600  0.49997600  1
  Cu  Cu3  1  0.50000200  0.49997900  0.99999600  1
