# generated using pymatgen
data_Cu4Ni4C
_symmetry_space_group_name_H-M   'P 1'
_cell_length_a   6.46989273
_cell_length_b   6.46989273
_cell_length_c   6.46989273
_cell_angle_alpha   97.36168391
_cell_angle_beta   97.36168391
_cell_angle_gamma   138.05057764
_symmetry_Int_Tables_number   1
_chemical_formula_structural   Cu4Ni4C
_chemical_formula_sum   'Cu4 Ni4 C1'
_cell_volume   169.04458018
_cell_formula_units_Z   1
loop_
 _symmetry_equiv_pos_site_id
 _symmetry_equiv_pos_as_xyz
  1  'x, y, z'
loop_
 _atom_site_type_symbol
 _atom_site_label
 _atom_site_symmetry_multiplicity
 _atom_site_fract_x
 _atom_site_fract_y
 _atom_site_fract_z
 _atom_site_occupancy
  C  C0  1  0.29913800  0.29913800  0.00000000  1
  Ni  Ni1  1  0.38575600  0.88669000  0.27231900  1
  Ni  Ni2  1  0.61437200  0.11343700  0.72768100  1
  Ni  Ni3  1  0.11343700  0.38575600  0.49906500  1
  Ni  Ni4  1  0.88669000  0.61437200  0.50093500  1
  Cu  Cu5  1  0.17225900  0.67425700  0.84621300  1
  Cu  Cu6  1  0.82804400  0.32604600  0.15378700  1
  Cu  Cu7  1  0.32604600  0.17225900  0.49800200  1
  Cu  Cu8  1  0.67425700  0.82804400  0.50199800  1
