# generated using pymatgen
data_Cu(NiC5)2
_symmetry_space_group_name_H-M   'P 1'
_cell_length_a   5.43336890
_cell_length_b   10.39357823
_cell_length_c   13.11403666
_cell_angle_alpha   112.36772498
_cell_angle_beta   88.06335802
_cell_angle_gamma   92.69853704
_symmetry_Int_Tables_number   1
_chemical_formula_structural   Cu(NiC5)2
_chemical_formula_sum   'Cu4 Ni8 C40'
_cell_volume   683.99659008
_cell_formula_units_Z   4
loop_
 _symmetry_equiv_pos_site_id
 _symmetry_equiv_pos_as_xyz
  1  'x, y, z'
loop_
 _atom_site_type_symbol
 _atom_site_label
 _atom_site_symmetry_multiplicity
 _atom_site_fract_x
 _atom_site_fract_y
 _atom_site_fract_z
 _atom_site_occupancy
  C  C0  1  0.75520000  0.58390100  0.56349400  1
  C  C1  1  0.75516300  0.58386600  0.06351100  1
  C  C2  1  0.24796000  0.41712600  0.43587000  1
  C  C3  1  0.24797700  0.41705500  0.93585700  1
  C  C4  1  0.74590600  0.42302400  0.27209600  1
  C  C5  1  0.74591200  0.42296700  0.77205800  1
  C  C6  1  0.25715100  0.57806600  0.72756000  1
  C  C7  1  0.25716600  0.57811400  0.22761900  1
  Ni  Ni8  1  0.75040000  0.23122600  0.47719100  1
  Ni  Ni9  1  0.75043000  0.23122800  0.97723000  1
  Ni  Ni10  1  0.25357100  0.76979700  0.52267100  1
  Ni  Ni11  1  0.25334700  0.76969700  0.02259500  1
  Ni  Ni12  1  0.76175900  0.77009700  0.87959000  1
  Ni  Ni13  1  0.76176100  0.77012300  0.37957700  1
  Ni  Ni14  1  0.24194600  0.23057300  0.11992200  1
  Ni  Ni15  1  0.24203200  0.23060000  0.61987000  1
  Cu  Cu16  1  0.74549200  0.00468900  0.17787200  1
  Cu  Cu17  1  0.26039900  0.99550200  0.82232200  1
  Cu  Cu18  1  0.74602500  0.00465600  0.67777600  1
  Cu  Cu19  1  0.25987800  0.99567200  0.32183000  1
  C  C20  1  0.08728100  0.14778800  0.46107100  1
  C  C21  1  0.08732800  0.14778300  0.96116400  1
  C  C22  1  0.91670400  0.85292100  0.53850200  1
  C  C23  1  0.91652800  0.85292900  0.03855700  1
  C  C24  1  0.43502900  0.85429100  0.92155900  1
  C  C25  1  0.43510900  0.85428500  0.42158900  1
  C  C26  1  0.56864300  0.14661700  0.07813500  1
  C  C27  1  0.56871600  0.14664500  0.57810500  1
  C  C28  1  0.59698900  0.11176600  0.34332400  1
  C  C29  1  0.59729300  0.11167800  0.84335100  1
  C  C30  1  0.40820700  0.88848300  0.65632600  1
  C  C31  1  0.40792000  0.88849300  0.15629400  1
  C  C32  1  0.94909800  0.87383400  0.81531300  1
  C  C33  1  0.94892000  0.87388600  0.31524700  1
  C  C34  1  0.05599100  0.12652700  0.18440300  1
  C  C35  1  0.05614400  0.12659000  0.68435500  1
  C  C36  1  0.48530400  0.36924000  0.55357300  1
  C  C37  1  0.48531500  0.36922900  0.05359100  1
  C  C38  1  0.51764500  0.63141600  0.44572400  1
  C  C39  1  0.51765300  0.63143400  0.94573500  1
  C  C40  1  0.02079600  0.63381300  0.38165000  1
  C  C41  1  0.02086400  0.63378100  0.88163400  1
  C  C42  1  0.98193200  0.36671000  0.61791700  1
  C  C43  1  0.98193600  0.36670600  0.11794900  1
  C  C44  1  0.33791000  0.37440400  0.25864200  1
  C  C45  1  0.33792100  0.37439800  0.75861700  1
  C  C46  1  0.66526600  0.62668700  0.74081200  1
  C  C47  1  0.66525200  0.62669500  0.24080600  1
  C  C48  1  0.16104800  0.62947400  0.58244200  1
  C  C49  1  0.16105800  0.62946000  0.08243800  1
  C  C50  1  0.84214800  0.37135300  0.41711100  1
  C  C51  1  0.84216500  0.37133800  0.91711200  1
