# generated using pymatgen
data_Cu5(NiC14)3
_symmetry_space_group_name_H-M   'P 1'
_cell_length_a   5.64893930
_cell_length_b   56.49603035
_cell_length_c   5.66785878
_cell_angle_alpha   119.98688290
_cell_angle_beta   119.89673598
_cell_angle_gamma   89.89852915
_symmetry_Int_Tables_number   1
_chemical_formula_structural   Cu5(NiC14)3
_chemical_formula_sum   'Cu10 Ni6 C84'
_cell_volume   1282.42199347
_cell_formula_units_Z   2
loop_
 _symmetry_equiv_pos_site_id
 _symmetry_equiv_pos_as_xyz
  1  'x, y, z'
loop_
 _atom_site_type_symbol
 _atom_site_label
 _atom_site_symmetry_multiplicity
 _atom_site_fract_x
 _atom_site_fract_y
 _atom_site_fract_z
 _atom_site_occupancy
  C  C0  1  0.25108095  0.07495842  0.49995712  1
  C  C1  1  0.24969107  0.17504792  0.50014813  1
  C  C2  1  0.24710025  0.27482294  0.49914879  1
  C  C3  1  0.25465299  0.37474148  0.50650499  1
  C  C4  1  0.25224948  0.47521395  0.50384024  1
  C  C5  1  0.24565861  0.57531301  0.49152521  1
  C  C6  1  0.25191721  0.67461475  0.50544548  1
  C  C7  1  0.25099225  0.77500747  0.50230295  1
  C  C8  1  0.24738284  0.87550606  0.49599703  1
  C  C9  1  0.25145681  0.97489195  0.50017335  1
  C  C10  1  0.75289975  0.02517706  0.50085121  1
  C  C11  1  0.75030893  0.12495208  0.49985187  1
  C  C12  1  0.74891905  0.22504158  0.50004288  1
  C  C13  1  0.74854319  0.32510805  0.49982665  1
  C  C14  1  0.74900775  0.52499253  0.49769705  1
  C  C15  1  0.74808279  0.62538525  0.49455452  1
  C  C16  1  0.75261716  0.42449394  0.50400297  1
  C  C17  1  0.75434139  0.72468699  0.50847479  1
  C  C18  1  0.74775052  0.82478605  0.49615976  1
  C  C19  1  0.74534701  0.92525852  0.49349501  1
  C  C20  1  0.00077157  0.00005492  -0.00007328  1
  C  C21  1  0.00031987  0.09995679  0.99980320  1
  C  C22  1  0.99968013  0.20004321  0.00019680  1
  C  C23  1  0.99922843  0.29994508  0.00007328  1
  Ni  Ni24  1  0.00116813  0.40002074  0.00087969  1
  Ni  Ni25  1  0.00040211  0.50006358  0.00034363  1
  Ni  Ni26  1  0.99770356  0.60011135  0.99771772  1
  Ni  Ni27  1  0.99959789  0.79993642  0.99965637  1
  Ni  Ni28  1  0.99883187  0.89997926  0.99912031  1
  Ni  Ni29  1  0.00229644  0.69988865  0.00228228  1
  Cu  Cu30  1  0.50076894  0.04986714  0.99908446  1
  Cu  Cu31  1  0.50000000  0.15000000  -0.00000000  1
  Cu  Cu32  1  0.49923106  0.25013286  0.00091554  1
  Cu  Cu33  1  0.49971089  0.34925196  0.99708759  1
  Cu  Cu34  1  0.50136973  0.44992995  0.00257358  1
  Cu  Cu35  1  0.49868501  0.55025567  0.99699883  1
  Cu  Cu36  1  0.50000000  0.65000000  -0.00000000  1
  Cu  Cu37  1  0.50131499  0.74974433  0.00300117  1
  Cu  Cu38  1  0.50028911  0.95074804  0.00291241  1
  Cu  Cu39  1  0.49863027  0.85007005  0.99742642  1
  C  C40  1  0.26086328  0.02570365  0.51582400  1
  C  C41  1  0.25857655  0.12570508  0.51576474  1
  C  C42  1  0.25744744  0.22585269  0.51596209  1
  C  C43  1  0.25423440  0.32628556  0.51314404  1
  C  C44  1  0.26218877  0.42515499  0.52095369  1
  C  C45  1  0.25618050  0.52525776  0.51269158  1
  C  C46  1  0.24554748  0.62607344  0.49502764  1
  C  C47  1  0.26188446  0.72507853  0.52248190  1
  C  C48  1  0.25634590  0.82506712  0.51318424  1
  C  C49  1  0.24658228  0.92562285  0.49783566  1
  C  C50  1  0.22150529  0.07024481  0.99848165  1
  C  C51  1  0.22087084  0.17035982  0.99935706  1
  C  C52  1  0.21968968  0.27039980  0.99987153  1
  C  C53  1  0.23142100  0.37156618  0.01380395  1
  C  C54  1  0.20726148  0.47083594  0.99586816  1
  C  C55  1  0.20441147  0.57121692  0.98596458  1
  C  C56  1  0.22433543  0.67136872  0.01511721  1
  C  C57  1  0.20722654  0.77071760  0.99706527  1
  C  C58  1  0.20435420  0.87105309  0.98743212  1
  C  C59  1  0.22562068  0.97073378  0.99970863  1
  C  C60  1  0.29755599  0.02211645  0.99963796  1
  C  C61  1  0.29659847  0.12214916  0.00004387  1
  C  C62  1  0.29533650  0.22218127  0.99988671  1
  C  C63  1  0.28993212  0.32194664  0.99829266  1
  C  C64  1  0.29609173  0.42109612  0.01126922  1
  C  C65  1  0.29075338  0.52142148  0.00447075  1
  C  C66  1  0.27581938  0.62156862  0.98483212  1
  C  C67  1  0.29689051  0.72098189  0.01319042  1
  C  C68  1  0.29025549  0.82121507  0.00390775  1
  C  C69  1  0.27812004  0.92175613  0.99231337  1
  C  C70  1  0.74255256  0.07414731  0.48403791  1
  C  C71  1  0.74142345  0.17429492  0.48423526  1
  C  C72  1  0.73913672  0.27429635  0.48417600  1
  C  C73  1  0.75341772  0.37437715  0.50216434  1
  C  C74  1  0.74365410  0.47493288  0.48681576  1
  C  C75  1  0.73811554  0.57492147  0.47751810  1
  C  C76  1  0.75445252  0.67392656  0.50497236  1
  C  C77  1  0.74381950  0.77474224  0.48730842  1
  C  C78  1  0.73781123  0.87484501  0.47904631  1
  C  C79  1  0.74576560  0.97371444  0.48685596  1
  C  C80  1  0.70466350  0.07781873  0.00011329  1
  C  C81  1  0.70340153  0.17785084  -0.00004387  1
  C  C82  1  0.70244401  0.27788355  0.00036204  1
  C  C83  1  0.72187996  0.37824387  0.00768663  1
  C  C84  1  0.70974451  0.47878493  0.99609225  1
  C  C85  1  0.70310949  0.57901811  0.98680958  1
  C  C86  1  0.72418062  0.67843138  0.01516788  1
  C  C87  1  0.70924662  0.77857852  0.99552925  1
  C  C88  1  0.70390827  0.87890388  0.98873078  1
  C  C89  1  0.71006788  0.97805336  0.00170734  1
  C  C90  1  0.78031032  0.02960020  0.00012847  1
  C  C91  1  0.77912916  0.12964018  0.00064294  1
  C  C92  1  0.77849471  0.22975519  0.00151835  1
  C  C93  1  0.77437932  0.32926622  0.00029137  1
  C  C94  1  0.79277346  0.52928240  0.00293473  1
  C  C95  1  0.77566457  0.62863128  0.98488279  1
  C  C96  1  0.79564580  0.42894691  0.01256788  1
  C  C97  1  0.79558853  0.72878308  0.01403542  1
  C  C98  1  0.79273852  0.82916406  0.00413184  1
  C  C99  1  0.76857900  0.92843382  0.98619605  1
