# generated using pymatgen
data_CuNiC11
_symmetry_space_group_name_H-M   'P 1'
_cell_length_a   6.54999160
_cell_length_b   6.54999160
_cell_length_c   10.84282000
_cell_angle_alpha   90.00000000
_cell_angle_beta   90.00000000
_cell_angle_gamma   119.99999592
_symmetry_Int_Tables_number   1
_chemical_formula_structural   CuNiC11
_chemical_formula_sum   'Cu2 Ni2 C22'
_cell_volume   402.86021786
_cell_formula_units_Z   2
loop_
 _symmetry_equiv_pos_site_id
 _symmetry_equiv_pos_as_xyz
  1  'x, y, z'
loop_
 _atom_site_type_symbol
 _atom_site_label
 _atom_site_symmetry_multiplicity
 _atom_site_fract_x
 _atom_site_fract_y
 _atom_site_fract_z
 _atom_site_occupancy
  Ni  Ni0  1  0.66666700  0.33333300  0.47515500  1
  Ni  Ni1  1  0.33333300  0.66666700  0.97515500  1
  Cu  Cu2  1  0.66666700  0.33333300  0.87992500  1
  Cu  Cu3  1  0.33333300  0.66666700  0.37992500  1
  C  C4  1  0.82978800  0.17021200  0.18963900  1
  C  C5  1  0.65957700  0.82978800  0.68963900  1
  C  C6  1  0.17021200  0.34042300  0.68963900  1
  C  C7  1  0.82978800  0.65957700  0.18963900  1
  C  C8  1  0.34042300  0.17021200  0.18963900  1
  C  C9  1  0.17021200  0.82978800  0.68963900  1
  C  C10  1  0.00000000  0.00000000  0.44227200  1
  C  C11  1  0.00000000  0.00000000  0.94227200  1
  C  C12  1  0.83137500  0.16862500  0.00377800  1
  C  C13  1  0.66275100  0.83137500  0.50377800  1
  C  C14  1  0.16862500  0.33724900  0.50377800  1
  C  C15  1  0.83137500  0.66275100  0.00377800  1
  C  C16  1  0.33724900  0.16862500  0.00377800  1
  C  C17  1  0.16862500  0.83137500  0.50377800  1
  C  C18  1  0.00000000  0.00000000  0.75093100  1
  C  C19  1  0.00000000  0.00000000  0.25093100  1
  C  C20  1  0.50483200  0.49516800  0.26848800  1
  C  C21  1  0.00966400  0.50483200  0.76848800  1
  C  C22  1  0.49516800  0.99033600  0.76848800  1
  C  C23  1  0.50483200  0.00966400  0.26848800  1
  C  C24  1  0.49516800  0.50483200  0.76848800  1
  C  C25  1  0.99033600  0.49516800  0.26848800  1
