# generated using pymatgen
data_Cu19(Ni3C)2
_symmetry_space_group_name_H-M   'P 1'
_cell_length_a   11.25767000
_cell_length_b   7.44448600
_cell_length_c   12.97375816
_cell_angle_alpha   57.35239296
_cell_angle_beta   90.00000000
_cell_angle_gamma   90.00000000
_symmetry_Int_Tables_number   1
_chemical_formula_structural   Cu19(Ni3C)2
_chemical_formula_sum   'Cu38 Ni12 C4'
_cell_volume   915.51067403
_cell_formula_units_Z   2
loop_
 _symmetry_equiv_pos_site_id
 _symmetry_equiv_pos_as_xyz
  1  'x, y, z'
loop_
 _atom_site_type_symbol
 _atom_site_label
 _atom_site_symmetry_multiplicity
 _atom_site_fract_x
 _atom_site_fract_y
 _atom_site_fract_z
 _atom_site_occupancy
  C  C0  1  0.50148400  0.10010800  0.07793800  1
  C  C1  1  0.49851600  0.10010800  0.57793800  1
  C  C2  1  0.02067900  0.49493800  0.67666600  1
  C  C3  1  0.97932100  0.49493800  0.17666600  1
  Ni  Ni4  1  0.85055000  0.10013600  0.07785400  1
  Ni  Ni5  1  0.14945000  0.10013600  0.57785400  1
  Ni  Ni6  1  0.66691900  0.33222700  0.75919300  1
  Ni  Ni7  1  0.33308100  0.33222700  0.25919300  1
  Ni  Ni8  1  0.32989300  0.55365500  0.78683600  1
  Ni  Ni9  1  0.67010700  0.55365500  0.28683600  1
  Ni  Ni10  1  0.46707300  0.74996400  0.44572800  1
  Ni  Ni11  1  0.53292700  0.74996400  0.94572800  1
  Ni  Ni12  1  0.14884800  0.76634600  0.32002300  1
  Ni  Ni13  1  0.85115200  0.76634600  0.82002300  1
  Ni  Ni14  1  0.81077400  0.02845300  0.44944800  1
  Ni  Ni15  1  0.18922600  0.02845300  0.94944800  1
  Cu  Cu16  1  0.71083100  0.11580100  0.14393800  1
  Cu  Cu17  1  0.28916900  0.11580100  0.64393800  1
  Cu  Cu18  1  0.87156200  0.80948200  0.17205300  1
  Cu  Cu19  1  0.12843800  0.80948200  0.67205300  1
  Cu  Cu20  1  0.94977900  0.17238600  0.16267500  1
  Cu  Cu21  1  0.05022100  0.17238600  0.66267500  1
  Cu  Cu22  1  0.66481300  0.16330100  0.92659400  1
  Cu  Cu23  1  0.33518700  0.16330100  0.42659400  1
  Cu  Cu24  1  0.82579900  0.30623500  0.74112700  1
  Cu  Cu25  1  0.17420100  0.30623500  0.24112700  1
  Cu  Cu26  1  0.61872600  0.11798300  0.73838400  1
  Cu  Cu27  1  0.38127400  0.11798300  0.23838400  1
  Cu  Cu28  1  0.45625600  0.36785100  0.84631000  1
  Cu  Cu29  1  0.54374400  0.36785100  0.34631000  1
  Cu  Cu30  1  0.23320800  0.39522400  0.74840500  1
  Cu  Cu31  1  0.76679200  0.39522400  0.24840500  1
  Cu  Cu32  1  0.38773300  0.74066200  0.63303500  1
  Cu  Cu33  1  0.61226700  0.74066200  0.13303500  1
  Cu  Cu34  1  0.54339100  0.80912000  0.30446200  1
  Cu  Cu35  1  0.45660900  0.80912000  0.80446200  1
  Cu  Cu36  1  0.51997500  0.47324700  0.54160400  1
  Cu  Cu37  1  0.48002500  0.47324700  0.04160400  1
  Cu  Cu38  1  0.57652700  0.88185400  0.48980100  1
  Cu  Cu39  1  0.42347300  0.88185400  0.98980100  1
  Cu  Cu40  1  0.05519400  0.54300600  0.34582000  1
  Cu  Cu41  1  0.94480600  0.54300600  0.84582000  1
  Cu  Cu42  1  0.29413400  0.64746800  0.33244400  1
  Cu  Cu43  1  0.70586600  0.64746800  0.83244400  1
  Cu  Cu44  1  0.13316600  0.71859000  0.47304900  1
  Cu  Cu45  1  0.86683400  0.71859000  0.97304900  1
  Cu  Cu46  1  0.95415300  0.16624300  0.40693600  1
  Cu  Cu47  1  0.04584700  0.16624300  0.90693600  1
  Cu  Cu48  1  0.73289700  0.15108000  0.52049800  1
  Cu  Cu49  1  0.26710300  0.15108000  0.02049800  1
  Cu  Cu50  1  0.86161100  0.78665500  0.59450800  1
  Cu  Cu51  1  0.13838900  0.78665500  0.09450800  1
  Cu  Cu52  1  0.89534900  0.53228600  0.49397000  1
  Cu  Cu53  1  0.10465100  0.53228600  0.99397000  1
