# generated using pymatgen
data_Cu15(Ni2C)2
_symmetry_space_group_name_H-M   'P 1'
_cell_length_a   8.03198392
_cell_length_b   7.95632151
_cell_length_c   10.15940295
_cell_angle_alpha   88.38922650
_cell_angle_beta   92.45418514
_cell_angle_gamma   90.32305344
_symmetry_Int_Tables_number   1
_chemical_formula_structural   Cu15(Ni2C)2
_chemical_formula_sum   'Cu30 Ni8 C4'
_cell_volume   648.37891964
_cell_formula_units_Z   2
loop_
 _symmetry_equiv_pos_site_id
 _symmetry_equiv_pos_as_xyz
  1  'x, y, z'
loop_
 _atom_site_type_symbol
 _atom_site_label
 _atom_site_symmetry_multiplicity
 _atom_site_fract_x
 _atom_site_fract_y
 _atom_site_fract_z
 _atom_site_occupancy
  C  C0  1  0.10897500  0.53639400  0.20618200  1
  C  C1  1  0.37874300  0.96741700  0.79658600  1
  C  C2  1  0.93057400  0.02811400  0.00278800  1
  C  C3  1  0.28268500  0.47872700  0.52760800  1
  Ni  Ni4  1  0.35022000  0.72949400  0.64768800  1
  Ni  Ni5  1  0.17574100  0.89895000  0.94891900  1
  Ni  Ni6  1  0.65491600  0.00618400  0.91022000  1
  Ni  Ni7  1  0.08080300  0.79094500  0.08113900  1
  Ni  Ni8  1  0.99773500  0.29393800  0.08875900  1
  Ni  Ni9  1  0.01431000  0.58718100  0.43209600  1
  Ni  Ni10  1  0.37190700  0.41127900  0.30333400  1
  Ni  Ni11  1  0.34126600  0.22442000  0.65970500  1
  Cu  Cu12  1  0.77854500  0.01308900  0.84222500  1
  Cu  Cu13  1  0.18686600  0.77633900  0.17160800  1
  Cu  Cu14  1  0.90218100  0.39525600  0.13210300  1
  Cu  Cu15  1  0.14619900  0.65415000  0.39863800  1
  Cu  Cu16  1  0.45032400  0.29990000  0.25846200  1
  Cu  Cu17  1  0.27958900  0.20550500  0.76780800  1
  Cu  Cu18  1  0.47102400  0.74437400  0.72432300  1
  Cu  Cu19  1  0.56854900  0.12607100  0.87454000  1
  Cu  Cu20  1  0.14487400  0.33485600  0.08814000  1
  Cu  Cu21  1  0.02910300  0.65519000  0.03909700  1
  Cu  Cu22  1  0.45253200  0.47554100  0.39564300  1
  Cu  Cu23  1  0.94136200  0.51615000  0.33942100  1
  Cu  Cu24  1  0.25982500  0.85228900  0.63359700  1
  Cu  Cu25  1  0.22391600  0.23407200  0.57818300  1
  Cu  Cu26  1  0.26728800  0.01641400  0.98341500  1
  Cu  Cu27  1  0.59412300  0.86657200  0.89456600  1
  Cu  Cu28  1  0.08195700  0.95648800  0.85686600  1
  Cu  Cu29  1  0.95368000  0.27833200  0.97200400  1
  Cu  Cu30  1  0.25390200  0.78848000  0.89799100  1
  Cu  Cu31  1  0.68188900  0.01935600  0.02983600  1
  Cu  Cu32  1  0.99018200  0.16639800  0.15967000  1
  Cu  Cu33  1  0.95883600  0.84766700  0.13753000  1
  Cu  Cu34  1  0.03840900  0.47128900  0.51443000  1
  Cu  Cu35  1  0.35310700  0.52918700  0.22230000  1
  Cu  Cu36  1  0.42964400  0.10960700  0.62645200  1
  Cu  Cu37  1  0.26430400  0.61472800  0.69280200  1
  Cu  Cu38  1  0.92767500  0.69368800  0.47458900  1
  Cu  Cu39  1  0.23705400  0.35220600  0.33831700  1
  Cu  Cu40  1  0.40793300  0.70421500  0.53997300  1
  Cu  Cu41  1  0.43122100  0.34955100  0.66742200  1
