# generated using pymatgen
data_Cu7(NiC3)2
_symmetry_space_group_name_H-M   'P 1'
_cell_length_a   5.54159978
_cell_length_b   6.52290339
_cell_length_c   12.90611323
_cell_angle_alpha   90.06629384
_cell_angle_beta   93.79542099
_cell_angle_gamma   90.12666897
_symmetry_Int_Tables_number   1
_chemical_formula_structural   Cu7(NiC3)2
_chemical_formula_sum   'Cu14 Ni4 C12'
_cell_volume   465.49667778
_cell_formula_units_Z   2
loop_
 _symmetry_equiv_pos_site_id
 _symmetry_equiv_pos_as_xyz
  1  'x, y, z'
loop_
 _atom_site_type_symbol
 _atom_site_label
 _atom_site_symmetry_multiplicity
 _atom_site_fract_x
 _atom_site_fract_y
 _atom_site_fract_z
 _atom_site_occupancy
  C  C0  1  0.14480700  0.75142600  0.33301300  1
  C  C1  1  0.85520200  0.24856300  0.66698800  1
  C  C2  1  0.35891900  0.50615000  0.64104700  1
  C  C3  1  0.64107500  0.49384900  0.35895300  1
  C  C4  1  0.98294400  0.25022700  0.16842900  1
  C  C5  1  0.01710300  0.74976300  0.83155800  1
  C  C6  1  0.64090400  0.00429000  0.35958900  1
  C  C7  1  0.35909500  0.99571300  0.64041300  1
  C  C8  1  0.15541200  0.25050000  0.43804700  1
  C  C9  1  0.84458400  0.74950000  0.56195200  1
  C  C10  1  0.70463400  0.74918200  0.14589200  1
  C  C11  1  0.29536300  0.25081100  0.85411100  1
  Ni  Ni12  1  0.42620500  0.25014300  0.17780300  1
  Ni  Ni13  1  0.57378500  0.74986000  0.82219600  1
  Ni  Ni14  1  0.85794600  0.25016300  0.98474000  1
  Ni  Ni15  1  0.14205200  0.74985800  0.01526100  1
  Cu  Cu16  1  0.48528700  0.74944400  0.25639100  1
  Cu  Cu17  1  0.51470800  0.25055700  0.74361100  1
  Cu  Cu18  1  0.16194300  0.25057100  0.56767500  1
  Cu  Cu19  1  0.83804900  0.74943000  0.43232500  1
  Cu  Cu20  1  0.87415000  0.24952700  0.38731800  1
  Cu  Cu21  1  0.12584900  0.75048200  0.61268300  1
  Cu  Cu22  1  0.29107500  0.03778800  0.40425900  1
  Cu  Cu23  1  0.70923900  0.53684400  0.59610900  1
  Cu  Cu24  1  0.70892200  0.96221300  0.59573900  1
  Cu  Cu25  1  0.29075500  0.46316000  0.40389500  1
  Cu  Cu26  1  0.89378600  0.95504700  0.22052500  1
  Cu  Cu27  1  0.10570500  0.45473700  0.77880500  1
  Cu  Cu28  1  0.10620800  0.04494700  0.77947700  1
  Cu  Cu29  1  0.89429300  0.54525500  0.22119400  1
