# generated using pymatgen
data_Cu3Ni3C7
_symmetry_space_group_name_H-M   'P 1'
_cell_length_a   6.96069805
_cell_length_b   13.44566469
_cell_length_c   17.03785994
_cell_angle_alpha   90.00000000
_cell_angle_beta   90.00000000
_cell_angle_gamma   90.00000000
_symmetry_Int_Tables_number   1
_chemical_formula_structural   Cu3Ni3C7
_chemical_formula_sum   'Cu24 Ni24 C56'
_cell_volume   1594.59396148
_cell_formula_units_Z   8
loop_
 _symmetry_equiv_pos_site_id
 _symmetry_equiv_pos_as_xyz
  1  'x, y, z'
loop_
 _atom_site_type_symbol
 _atom_site_label
 _atom_site_symmetry_multiplicity
 _atom_site_fract_x
 _atom_site_fract_y
 _atom_site_fract_z
 _atom_site_occupancy
  Ni  Ni0  1  0.12813075  0.57032060  0.08576266  1
  Ni  Ni1  1  0.37186925  0.42967940  0.58576266  1
  Ni  Ni2  1  0.62813075  0.92967940  0.91423734  1
  Ni  Ni3  1  0.87186925  0.07032060  0.41423734  1
  Ni  Ni4  1  0.36037927  0.65461696  0.33301251  1
  Ni  Ni5  1  0.13962073  0.34538304  0.83301251  1
  Ni  Ni6  1  0.86037927  0.84538304  0.66698749  1
  Ni  Ni7  1  0.63962073  0.15461696  0.16698749  1
  Ni  Ni8  1  0.55742265  0.43150901  0.20502274  1
  Ni  Ni9  1  0.94257735  0.56849099  0.70502274  1
  Ni  Ni10  1  0.05742265  0.06849099  0.79497726  1
  Ni  Ni11  1  0.44257735  0.93150901  0.29497726  1
  Ni  Ni12  1  0.63701724  0.69899238  0.17397598  1
  Ni  Ni13  1  0.86298276  0.30100762  0.67397598  1
  Ni  Ni14  1  0.13701724  0.80100762  0.82602402  1
  Ni  Ni15  1  0.36298276  0.19899238  0.32602402  1
  Ni  Ni16  1  0.54625055  0.57106208  0.94052827  1
  Ni  Ni17  1  0.95374945  0.42893792  0.44052827  1
  Ni  Ni18  1  0.04625055  0.92893792  0.05947173  1
  Ni  Ni19  1  0.45374945  0.07106208  0.55947173  1
  Ni  Ni20  1  0.84269656  0.73550446  0.39408283  1
  Ni  Ni21  1  0.65730344  0.26449554  0.89408283  1
  Ni  Ni22  1  0.34269656  0.76449554  0.60591717  1
  Ni  Ni23  1  0.15730344  0.23550446  0.10591717  1
  Cu  Cu24  1  0.09389471  0.90986454  0.49579053  1
  Cu  Cu25  1  0.40610529  0.09013546  0.99579053  1
  Cu  Cu26  1  0.59389471  0.59013546  0.50420947  1
  Cu  Cu27  1  0.90610529  0.40986454  0.00420947  1
  Cu  Cu28  1  0.58916460  0.88508493  0.46163645  1
  Cu  Cu29  1  0.91083540  0.11491507  0.96163645  1
  Cu  Cu30  1  0.08916460  0.61491507  0.53836355  1
  Cu  Cu31  1  0.41083540  0.38508493  0.03836355  1
  Cu  Cu32  1  0.39442592  0.42019072  0.38962628  1
  Cu  Cu33  1  0.10557408  0.57980928  0.88962628  1
  Cu  Cu34  1  0.89442592  0.07980928  0.61037372  1
  Cu  Cu35  1  0.60557408  0.92019072  0.11037372  1
  Cu  Cu36  1  0.88733991  0.72562065  0.99521050  1
  Cu  Cu37  1  0.61266009  0.27437935  0.49521050  1
  Cu  Cu38  1  0.38733991  0.77437935  0.00478950  1
  Cu  Cu39  1  0.11266009  0.22562065  0.50478950  1
  Cu  Cu40  1  0.09075684  0.78848455  0.21478813  1
  Cu  Cu41  1  0.40924316  0.21151545  0.71478813  1
  Cu  Cu42  1  0.59075684  0.71151545  0.78521187  1
  Cu  Cu43  1  0.90924316  0.28848455  0.28521187  1
  Cu  Cu44  1  0.94518637  0.56286636  0.26678897  1
  Cu  Cu45  1  0.55481363  0.43713364  0.76678897  1
  Cu  Cu46  1  0.44518637  0.93713364  0.73321103  1
  Cu  Cu47  1  0.05481363  0.06286636  0.23321103  1
  C  C48  1  0.67936447  0.59347056  0.44078854  1
  C  C49  1  0.82063553  0.40652944  0.94078854  1
  C  C50  1  0.17936447  0.90652944  0.55921146  1
  C  C51  1  0.32063553  0.09347056  0.05921146  1
  C  C52  1  0.00748970  0.91586239  0.43246664  1
  C  C53  1  0.49251030  0.08413761  0.93246664  1
  C  C54  1  0.50748970  0.58413761  0.56753336  1
  C  C55  1  0.99251030  0.41586239  0.06753336  1
  C  C56  1  0.63118630  0.80402082  0.48985164  1
  C  C57  1  0.86881370  0.19597918  0.98985164  1
  C  C58  1  0.13118630  0.69597918  0.51014836  1
  C  C59  1  0.36881370  0.30402082  0.01014836  1
  C  C60  1  0.54905773  0.96696329  0.43148665  1
  C  C61  1  0.95094227  0.03303671  0.93148665  1
  C  C62  1  0.04905773  0.53303671  0.56851335  1
  C  C63  1  0.45094227  0.46696329  0.06851335  1
  C  C64  1  0.50029076  0.38567107  0.33880333  1
  C  C65  1  0.99970924  0.61432893  0.83880333  1
  C  C66  1  0.00029076  0.11432893  0.66119667  1
  C  C67  1  0.49970924  0.88567107  0.16119667  1
  C  C68  1  0.28907803  0.45086725  0.44300715  1
  C  C69  1  0.21092197  0.54913275  0.94300715  1
  C  C70  1  0.78907803  0.04913275  0.55699285  1
  C  C71  1  0.71092197  0.95086725  0.05699285  1
  C  C72  1  0.41915521  0.69225819  0.03450952  1
  C  C73  1  0.08084479  0.30774181  0.53450952  1
  C  C74  1  0.91915521  0.80774181  0.96549048  1
  C  C75  1  0.58084479  0.19225819  0.46549048  1
  C  C76  1  0.85249644  0.64346169  0.02482646  1
  C  C77  1  0.64750356  0.35653831  0.52482646  1
  C  C78  1  0.35249644  0.85653831  0.97517354  1
  C  C79  1  0.14750356  0.14346169  0.47517354  1
  C  C80  1  0.01485928  0.79809114  0.14975187  1
  C  C81  1  0.48514072  0.20190886  0.64975187  1
  C  C82  1  0.51485928  0.70190886  0.85024813  1
  C  C83  1  0.98514072  0.29809114  0.35024813  1
  C  C84  1  0.15700844  0.77819918  0.28169302  1
  C  C85  1  0.34299156  0.22180082  0.78169302  1
  C  C86  1  0.65700844  0.72180082  0.71830698  1
  C  C87  1  0.84299156  0.27819918  0.21830698  1
  C  C88  1  0.87998884  0.56876964  0.19886357  1
  C  C89  1  0.62001116  0.43123036  0.69886357  1
  C  C90  1  0.37998884  0.93123036  0.80113643  1
  C  C91  1  0.12001116  0.06876964  0.30113643  1
  C  C92  1  0.49019120  0.44038633  0.83384100  1
  C  C93  1  0.00980880  0.55961367  0.33384100  1
  C  C94  1  0.99019120  0.05961367  0.16615900  1
  C  C95  1  0.50980880  0.94038633  0.66615900  1
  C  C96  1  0.61415604  0.76420653  0.30231133  1
  C  C97  1  0.88584396  0.23579347  0.80231133  1
  C  C98  1  0.11415604  0.73579347  0.69768867  1
  C  C99  1  0.38584396  0.26420653  0.19768867  1
  C  C100  1  0.41784328  0.58484913  0.21924662  1
  C  C101  1  0.08215672  0.41515087  0.71924662  1
  C  C102  1  0.91784328  0.91515087  0.78075338  1
  C  C103  1  0.58215672  0.08484913  0.28075338  1
