# generated using pymatgen
data_Cu2Ni3C7
_symmetry_space_group_name_H-M   'P 1'
_cell_length_a   6.21469100
_cell_length_b   20.86132300
_cell_length_c   6.23774300
_cell_angle_alpha   90.00000000
_cell_angle_beta   90.00000000
_cell_angle_gamma   90.00000000
_symmetry_Int_Tables_number   1
_chemical_formula_structural   Cu2Ni3C7
_chemical_formula_sum   'Cu8 Ni12 C28'
_cell_volume   808.70264754
_cell_formula_units_Z   4
loop_
 _symmetry_equiv_pos_site_id
 _symmetry_equiv_pos_as_xyz
  1  'x, y, z'
loop_
 _atom_site_type_symbol
 _atom_site_label
 _atom_site_symmetry_multiplicity
 _atom_site_fract_x
 _atom_site_fract_y
 _atom_site_fract_z
 _atom_site_occupancy
  C  C0  1  0.97027800  0.61405000  0.74270200  1
  C  C1  1  0.02972200  0.38595000  0.74270200  1
  C  C2  1  0.47027800  0.88595000  0.25729800  1
  C  C3  1  0.52972200  0.11405000  0.25729800  1
  Ni  Ni4  1  0.93889400  0.95376200  0.98067600  1
  Ni  Ni5  1  0.06110600  0.04623800  0.98067600  1
  Ni  Ni6  1  0.43889400  0.54623800  0.01932400  1
  Ni  Ni7  1  0.56110600  0.45376200  0.01932400  1
  Ni  Ni8  1  0.28298600  0.73659800  0.52309400  1
  Ni  Ni9  1  0.71701400  0.26340200  0.52309400  1
  Ni  Ni10  1  0.78298600  0.76340200  0.47690600  1
  Ni  Ni11  1  0.21701400  0.23659800  0.47690600  1
  Ni  Ni12  1  0.65167400  0.87557100  0.72495100  1
  Ni  Ni13  1  0.34832600  0.12442900  0.72495100  1
  Ni  Ni14  1  0.15167400  0.62442900  0.27504900  1
  Ni  Ni15  1  0.84832600  0.37557100  0.27504900  1
  Cu  Cu16  1  0.02766700  0.88518700  0.70542300  1
  Cu  Cu17  1  0.97233300  0.11481300  0.70542300  1
  Cu  Cu18  1  0.52766700  0.61481300  0.29457700  1
  Cu  Cu19  1  0.47233300  0.38518700  0.29457700  1
  Cu  Cu20  1  0.51343200  0.74722800  0.83163600  1
  Cu  Cu21  1  0.48656800  0.25277200  0.83163600  1
  Cu  Cu22  1  0.01343200  0.75277200  0.16836400  1
  Cu  Cu23  1  0.98656800  0.24722800  0.16836400  1
  C  C24  1  0.05919500  0.92349900  0.97504400  1
  C  C25  1  0.94080500  0.07650100  0.97504400  1
  C  C26  1  0.55919500  0.57650100  0.02495600  1
  C  C27  1  0.44080500  0.42349900  0.02495600  1
  C  C28  1  0.74287800  0.73181700  0.69189600  1
  C  C29  1  0.25712200  0.26818300  0.69189600  1
  C  C30  1  0.24287800  0.76818300  0.30810400  1
  C  C31  1  0.75712200  0.23181700  0.30810400  1
  C  C32  1  0.75318500  0.91173700  0.67476100  1
  C  C33  1  0.24681500  0.08826300  0.67476100  1
  C  C34  1  0.25318500  0.58826300  0.32523900  1
  C  C35  1  0.74681500  0.41173700  0.32523900  1
  C  C36  1  0.47139500  0.82784300  0.80318300  1
  C  C37  1  0.52860500  0.17215700  0.80318300  1
  C  C38  1  0.97139500  0.67215700  0.19681700  1
  C  C39  1  0.02860500  0.32784300  0.19681700  1
  C  C40  1  0.15640500  0.93376200  0.54428100  1
  C  C41  1  0.84359500  0.06623800  0.54428100  1
  C  C42  1  0.65640500  0.56623800  0.45571900  1
  C  C43  1  0.34359500  0.43376200  0.45571900  1
  C  C44  1  0.30560200  0.71188500  0.66686200  1
  C  C45  1  0.69439800  0.28811500  0.66686200  1
  C  C46  1  0.80560200  0.78811500  0.33313800  1
  C  C47  1  0.19439800  0.21188500  0.33313800  1
