# generated using pymatgen
data_Cu2NiC6
_symmetry_space_group_name_H-M   'P 1'
_cell_length_a   3.10743500
_cell_length_b   9.64903800
_cell_length_c   12.50326500
_cell_angle_alpha   90.00000000
_cell_angle_beta   90.00000000
_cell_angle_gamma   90.00000000
_symmetry_Int_Tables_number   1
_chemical_formula_structural   Cu2NiC6
_chemical_formula_sum   'Cu8 Ni4 C24'
_cell_volume   374.89487694
_cell_formula_units_Z   4
loop_
 _symmetry_equiv_pos_site_id
 _symmetry_equiv_pos_as_xyz
  1  'x, y, z'
loop_
 _atom_site_type_symbol
 _atom_site_label
 _atom_site_symmetry_multiplicity
 _atom_site_fract_x
 _atom_site_fract_y
 _atom_site_fract_z
 _atom_site_occupancy
  Ni  Ni0  1  0.00000000  0.24482400  0.38695800  1
  Ni  Ni1  1  0.00000000  0.75517600  0.61304200  1
  Ni  Ni2  1  0.00000000  0.25517600  0.88695800  1
  Ni  Ni3  1  0.00000000  0.74482400  0.11304200  1
  Cu  Cu4  1  0.50000000  0.00000000  0.50000000  1
  Cu  Cu5  1  0.50000000  0.50000000  0.00000000  1
  Cu  Cu6  1  0.50000000  0.00127200  0.22438800  1
  Cu  Cu7  1  0.50000000  0.99872800  0.77561200  1
  Cu  Cu8  1  0.50000000  0.49872800  0.72438800  1
  Cu  Cu9  1  0.50000000  0.50127200  0.27561200  1
  Cu  Cu10  1  0.00000000  0.00000000  0.00000000  1
  Cu  Cu11  1  0.00000000  0.50000000  0.50000000  1
  C  C12  1  0.00000000  0.26951300  0.13848300  1
  C  C13  1  0.00000000  0.73048700  0.86151700  1
  C  C14  1  0.00000000  0.23048700  0.63848300  1
  C  C15  1  0.00000000  0.76951300  0.36151700  1
  C  C16  1  0.50000000  0.11298000  0.36013700  1
  C  C17  1  0.50000000  0.88702000  0.63986300  1
  C  C18  1  0.50000000  0.38702000  0.86013700  1
  C  C19  1  0.50000000  0.61298000  0.13986300  1
  C  C20  1  0.00000000  0.12554900  0.13903600  1
  C  C21  1  0.00000000  0.87445100  0.86096400  1
  C  C22  1  0.00000000  0.37445100  0.63903600  1
  C  C23  1  0.00000000  0.62554900  0.36096400  1
  C  C24  1  0.50000000  0.38349400  0.41699000  1
  C  C25  1  0.50000000  0.61650600  0.58301000  1
  C  C26  1  0.50000000  0.11650600  0.91699000  1
  C  C27  1  0.50000000  0.88349400  0.08301000  1
  C  C28  1  0.00000000  0.34170400  0.23511900  1
  C  C29  1  0.00000000  0.65829600  0.76488100  1
  C  C30  1  0.00000000  0.15829600  0.73511900  1
  C  C31  1  0.00000000  0.84170400  0.26488100  1
  C  C32  1  0.00000000  0.34357800  0.04298300  1
  C  C33  1  0.00000000  0.65642200  0.95701700  1
  C  C34  1  0.00000000  0.15642200  0.54298300  1
  C  C35  1  0.00000000  0.84357800  0.45701700  1
