# generated using pymatgen
data_Cu5Ni
_symmetry_space_group_name_H-M   'P 1'
_cell_length_a   10.73139000
_cell_length_b   10.75158072
_cell_length_c   18.21409894
_cell_angle_alpha   92.77956918
_cell_angle_beta   97.19205143
_cell_angle_gamma   114.48786696
_symmetry_Int_Tables_number   1
_chemical_formula_structural   Cu5Ni
_chemical_formula_sum   'Cu20 Ni4'
_cell_volume   1885.68517760
_cell_formula_units_Z   4
loop_
 _symmetry_equiv_pos_site_id
 _symmetry_equiv_pos_as_xyz
  1  'x, y, z'
loop_
 _atom_site_type_symbol
 _atom_site_label
 _atom_site_symmetry_multiplicity
 _atom_site_fract_x
 _atom_site_fract_y
 _atom_site_fract_z
 _atom_site_occupancy
  Ni  Ni0  1  0.91843300  0.94874900  0.84936700  1
  Ni  Ni1  1  0.29493600  0.30265500  0.81824200  1
  Ni  Ni2  1  0.79410800  0.81393600  0.32245700  1
  Ni  Ni3  1  0.42825100  0.44711500  0.35525900  1
  Cu  Cu4  1  0.46617000  0.48025600  0.51284800  1
  Cu  Cu5  1  0.36422600  0.13728500  0.32853100  1
  Cu  Cu6  1  0.59209600  0.35159500  0.84717000  1
  Cu  Cu7  1  0.73498300  0.50786900  0.33839000  1
  Cu  Cu8  1  0.84827800  0.64480900  0.80286000  1
  Cu  Cu9  1  0.12009300  0.38283600  0.32516300  1
  Cu  Cu10  1  0.60038600  0.88196800  0.82798300  1
  Cu  Cu11  1  0.98546400  0.25512300  0.83561200  1
  Cu  Cu12  1  0.41275100  0.42836300  0.02926400  1
  Cu  Cu13  1  0.30203100  0.31395600  0.14915300  1
  Cu  Cu14  1  0.10383300  0.87374000  0.34922800  1
  Cu  Cu15  1  0.88842600  0.93958600  0.53083200  1
  Cu  Cu16  1  0.95353400  0.96170900  0.00692900  1
  Cu  Cu17  1  0.25478900  0.27300400  0.66096200  1
  Cu  Cu18  1  0.22118300  0.99945300  0.83776900  1
  Cu  Cu19  1  0.36113200  0.61785000  0.84881700  1
  Cu  Cu20  1  0.85163100  0.11674700  0.35576300  1
  Cu  Cu21  1  0.75864800  0.79027000  0.16426200  1
  Cu  Cu22  1  0.85020800  0.79020700  0.65468300  1
  Cu  Cu23  1  0.48561200  0.74952100  0.33475500  1
