# generated using pymatgen
data_CuNiC10
_symmetry_space_group_name_H-M   'P 1'
_cell_length_a   8.49705200
_cell_length_b   17.52248200
_cell_length_c   7.91401200
_cell_angle_alpha   90.00000000
_cell_angle_beta   90.00000000
_cell_angle_gamma   90.00000000
_symmetry_Int_Tables_number   1
_chemical_formula_structural   CuNiC10
_chemical_formula_sum   'Cu4 Ni4 C40'
_cell_volume   1178.31282056
_cell_formula_units_Z   4
loop_
 _symmetry_equiv_pos_site_id
 _symmetry_equiv_pos_as_xyz
  1  'x, y, z'
loop_
 _atom_site_type_symbol
 _atom_site_label
 _atom_site_symmetry_multiplicity
 _atom_site_fract_x
 _atom_site_fract_y
 _atom_site_fract_z
 _atom_site_occupancy
  Ni  Ni0  1  0.75000000  0.88517100  0.84999500  1
  Ni  Ni1  1  0.25000000  0.11482900  0.15000500  1
  Ni  Ni2  1  0.25000000  0.61482900  0.34999500  1
  Ni  Ni3  1  0.75000000  0.38517100  0.65000500  1
  Cu  Cu4  1  0.75000000  0.78291500  0.43934200  1
  Cu  Cu5  1  0.25000000  0.21708500  0.56065800  1
  Cu  Cu6  1  0.25000000  0.71708500  0.93934200  1
  Cu  Cu7  1  0.75000000  0.28291500  0.06065800  1
  C  C8  1  0.75000000  0.99153800  0.56293900  1
  C  C9  1  0.25000000  0.00846200  0.43706100  1
  C  C10  1  0.25000000  0.50846200  0.06293900  1
  C  C11  1  0.75000000  0.49153800  0.93706100  1
  C  C12  1  0.97879100  0.69333100  0.85507300  1
  C  C13  1  0.02120900  0.30666900  0.14492700  1
  C  C14  1  0.02120900  0.80666900  0.35507300  1
  C  C15  1  0.47879100  0.30666900  0.14492700  1
  C  C16  1  0.97879100  0.19333100  0.64492700  1
  C  C17  1  0.52120900  0.69333100  0.85507300  1
  C  C18  1  0.52120900  0.19333100  0.64492700  1
  C  C19  1  0.47879100  0.80666900  0.35507300  1
  C  C20  1  0.75000000  0.68367000  0.21541200  1
  C  C21  1  0.25000000  0.31633000  0.78458800  1
  C  C22  1  0.25000000  0.81633000  0.71541200  1
  C  C23  1  0.75000000  0.18367000  0.28458800  1
  C  C24  1  0.92214200  0.84888900  0.94423100  1
  C  C25  1  0.07785800  0.15111100  0.05576900  1
  C  C26  1  0.07785800  0.65111100  0.44423100  1
  C  C27  1  0.42214200  0.15111100  0.05576900  1
  C  C28  1  0.92214200  0.34888900  0.55576900  1
  C  C29  1  0.57785800  0.84888900  0.94423100  1
  C  C30  1  0.57785800  0.34888900  0.55576900  1
  C  C31  1  0.42214200  0.65111100  0.44423100  1
  C  C32  1  0.90934600  0.95088700  0.67169800  1
  C  C33  1  0.09065400  0.04911300  0.32830200  1
  C  C34  1  0.09065400  0.54911300  0.17169800  1
  C  C35  1  0.40934600  0.04911300  0.32830200  1
  C  C36  1  0.90934600  0.45088700  0.82830200  1
  C  C37  1  0.59065400  0.95088700  0.67169800  1
  C  C38  1  0.59065400  0.45088700  0.82830200  1
  C  C39  1  0.40934600  0.54911300  0.17169800  1
  C  C40  1  0.75000000  0.81206300  0.65661600  1
  C  C41  1  0.25000000  0.18793700  0.34338400  1
  C  C42  1  0.25000000  0.68793700  0.15661600  1
  C  C43  1  0.75000000  0.31206300  0.84338400  1
  C  C44  1  0.75000000  0.49784000  0.49161500  1
  C  C45  1  0.25000000  0.50216000  0.50838500  1
  C  C46  1  0.25000000  0.00216000  0.99161500  1
  C  C47  1  0.75000000  0.99784000  0.00838500  1
