# generated using pymatgen
data_Cu5NiC3
_symmetry_space_group_name_H-M   'P 1'
_cell_length_a   8.91328800
_cell_length_b   9.04885700
_cell_length_c   12.21481000
_cell_angle_alpha   90.00000000
_cell_angle_beta   90.00000000
_cell_angle_gamma   90.00000000
_symmetry_Int_Tables_number   1
_chemical_formula_structural   Cu5NiC3
_chemical_formula_sum   'Cu20 Ni4 C12'
_cell_volume   985.18633741
_cell_formula_units_Z   4
loop_
 _symmetry_equiv_pos_site_id
 _symmetry_equiv_pos_as_xyz
  1  'x, y, z'
loop_
 _atom_site_type_symbol
 _atom_site_label
 _atom_site_symmetry_multiplicity
 _atom_site_fract_x
 _atom_site_fract_y
 _atom_site_fract_z
 _atom_site_occupancy
  C  C0  1  0.00733600  0.12231900  0.82357600  1
  C  C1  1  0.49266400  0.37768100  0.32357600  1
  C  C2  1  0.50733600  0.87768100  0.17642400  1
  C  C3  1  0.99266400  0.62231900  0.67642400  1
  C  C4  1  0.99266400  0.87768100  0.17642400  1
  C  C5  1  0.50733600  0.62231900  0.67642400  1
  C  C6  1  0.49266400  0.12231900  0.82357600  1
  C  C7  1  0.00733600  0.37768100  0.32357600  1
  C  C8  1  0.25000000  0.32729300  0.59491500  1
  C  C9  1  0.25000000  0.17270700  0.09491500  1
  C  C10  1  0.75000000  0.67270700  0.40508500  1
  C  C11  1  0.75000000  0.82729300  0.90508500  1
  Ni  Ni12  1  0.25000000  0.98348100  0.52232100  1
  Ni  Ni13  1  0.25000000  0.51651900  0.02232100  1
  Ni  Ni14  1  0.75000000  0.01651900  0.47767900  1
  Ni  Ni15  1  0.75000000  0.48348100  0.97767900  1
  Cu  Cu16  1  0.04990300  0.17923400  0.55447500  1
  Cu  Cu17  1  0.45009700  0.32076600  0.05447500  1
  Cu  Cu18  1  0.54990300  0.82076600  0.44552500  1
  Cu  Cu19  1  0.95009700  0.67923400  0.94552500  1
  Cu  Cu20  1  0.95009700  0.82076600  0.44552500  1
  Cu  Cu21  1  0.54990300  0.67923400  0.94552500  1
  Cu  Cu22  1  0.45009700  0.17923400  0.55447500  1
  Cu  Cu23  1  0.04990300  0.32076600  0.05447500  1
  Cu  Cu24  1  0.25000000  0.88402600  0.70975700  1
  Cu  Cu25  1  0.25000000  0.61597400  0.20975700  1
  Cu  Cu26  1  0.75000000  0.11597400  0.29024300  1
  Cu  Cu27  1  0.75000000  0.38402600  0.79024300  1
  Cu  Cu28  1  0.25000000  0.38527700  0.77238200  1
  Cu  Cu29  1  0.25000000  0.11472300  0.27238200  1
  Cu  Cu30  1  0.75000000  0.61472300  0.22761800  1
  Cu  Cu31  1  0.75000000  0.88527700  0.72761800  1
  Cu  Cu32  1  0.25000000  0.96999000  0.99425900  1
  Cu  Cu33  1  0.25000000  0.53001000  0.49425900  1
  Cu  Cu34  1  0.75000000  0.03001000  0.00574100  1
  Cu  Cu35  1  0.75000000  0.46999000  0.50574100  1
