# generated using pymatgen
data_CuNiC11
_symmetry_space_group_name_H-M   'P 1'
_cell_length_a   5.48368000
_cell_length_b   9.40433400
_cell_length_c   9.43555586
_cell_angle_alpha   60.55230582
_cell_angle_beta   90.00000000
_cell_angle_gamma   90.00000000
_symmetry_Int_Tables_number   1
_chemical_formula_structural   CuNiC11
_chemical_formula_sum   'Cu2 Ni2 C22'
_cell_volume   423.72929269
_cell_formula_units_Z   2
loop_
 _symmetry_equiv_pos_site_id
 _symmetry_equiv_pos_as_xyz
  1  'x, y, z'
loop_
 _atom_site_type_symbol
 _atom_site_label
 _atom_site_symmetry_multiplicity
 _atom_site_fract_x
 _atom_site_fract_y
 _atom_site_fract_z
 _atom_site_occupancy
  C  C0  1  0.00000000  0.32151600  0.08324100  1
  C  C1  1  0.50000000  0.40771200  0.68953600  1
  C  C2  1  0.50000000  0.90836800  0.40576300  1
  C  C3  1  0.50000000  0.68274000  0.91123600  1
  Ni  Ni4  1  0.00000000  0.58503800  0.32573600  1
  Ni  Ni5  1  0.00000000  0.08346700  0.58605000  1
  Cu  Cu6  1  0.50000000  0.33497900  0.33300600  1
  Cu  Cu7  1  0.00000000  0.66652700  0.66566100  1
  C  C8  1  0.00000000  0.94634000  0.23852600  1
  C  C9  1  0.00000000  0.81248400  0.95197200  1
  C  C10  1  0.00000000  0.23463500  0.80742800  1
  C  C11  1  0.50000000  0.05348600  0.75621500  1
  C  C12  1  0.50000000  0.18900700  0.05416400  1
  C  C13  1  0.50000000  0.75851900  0.19096800  1
  C  C14  1  0.23135400  0.63496100  0.51728200  1
  C  C15  1  0.23085100  0.84754600  0.63409700  1
  C  C16  1  0.23606100  0.52391700  0.83799300  1
  C  C17  1  0.74085300  0.36569100  0.47714700  1
  C  C18  1  0.73792900  0.15574700  0.37042600  1
  C  C19  1  0.73901800  0.47972900  0.16330400  1
  C  C20  1  0.25914700  0.36569100  0.47714700  1
  C  C21  1  0.26207100  0.15574700  0.37042600  1
  C  C22  1  0.26098200  0.47972900  0.16330400  1
  C  C23  1  0.76864600  0.63496100  0.51728200  1
  C  C24  1  0.76914900  0.84754600  0.63409700  1
  C  C25  1  0.76393900  0.52391700  0.83799300  1
