# generated using pymatgen
data_Cu30NiC33
_symmetry_space_group_name_H-M   'P 1'
_cell_length_a   8.62032600
_cell_length_b   8.62032600
_cell_length_c   8.64394800
_cell_angle_alpha   90.00000000
_cell_angle_beta   90.00000000
_cell_angle_gamma   90.00000000
_symmetry_Int_Tables_number   1
_chemical_formula_structural   Cu30NiC33
_chemical_formula_sum   'Cu30 Ni1 C33'
_cell_volume   642.33195175
_cell_formula_units_Z   1
loop_
 _symmetry_equiv_pos_site_id
 _symmetry_equiv_pos_as_xyz
  1  'x, y, z'
loop_
 _atom_site_type_symbol
 _atom_site_label
 _atom_site_symmetry_multiplicity
 _atom_site_fract_x
 _atom_site_fract_y
 _atom_site_fract_z
 _atom_site_occupancy
  Ni  Ni0  1  0.50000000  0.50000000  0.00000000  1
  Cu  Cu1  1  0.00000000  0.50000000  0.00000000  1
  Cu  Cu2  1  0.50000000  0.00000000  0.00000000  1
  Cu  Cu3  1  0.00000000  0.00000000  0.50000000  1
  Cu  Cu4  1  0.00000000  0.50000000  0.50000000  1
  Cu  Cu5  1  0.50000000  0.00000000  0.50000000  1
  Cu  Cu6  1  0.50000000  0.50000000  0.50000000  1
  Cu  Cu7  1  0.24041400  0.24041400  0.00000000  1
  Cu  Cu8  1  0.24041400  0.75958600  0.00000000  1
  Cu  Cu9  1  0.75958600  0.24041400  0.00000000  1
  Cu  Cu10  1  0.75958600  0.75958600  0.00000000  1
  Cu  Cu11  1  0.24773500  0.24773500  0.50000000  1
  Cu  Cu12  1  0.24773500  0.75226500  0.50000000  1
  Cu  Cu13  1  0.75226500  0.24773500  0.50000000  1
  Cu  Cu14  1  0.75226500  0.75226500  0.50000000  1
  Cu  Cu15  1  0.00000000  0.24694300  0.24985700  1
  Cu  Cu16  1  0.00000000  0.75305700  0.24985700  1
  Cu  Cu17  1  0.50000000  0.24197100  0.25654100  1
  Cu  Cu18  1  0.50000000  0.75802900  0.25654100  1
  Cu  Cu19  1  0.00000000  0.24694300  0.75014300  1
  Cu  Cu20  1  0.00000000  0.75305700  0.75014300  1
  Cu  Cu21  1  0.50000000  0.24197100  0.74345900  1
  Cu  Cu22  1  0.50000000  0.75802900  0.74345900  1
  Cu  Cu23  1  0.24694300  0.00000000  0.24985700  1
  Cu  Cu24  1  0.24197100  0.50000000  0.25654100  1
  Cu  Cu25  1  0.75305700  0.00000000  0.24985700  1
  Cu  Cu26  1  0.75802900  0.50000000  0.25654100  1
  Cu  Cu27  1  0.24694300  0.00000000  0.75014300  1
  Cu  Cu28  1  0.24197100  0.50000000  0.74345900  1
  Cu  Cu29  1  0.75305700  0.00000000  0.75014300  1
  Cu  Cu30  1  0.75802900  0.50000000  0.74345900  1
  C  C31  1  0.00000000  0.00000000  0.00000000  1
  C  C32  1  0.00000000  0.00000000  0.27180200  1
  C  C33  1  0.00000000  0.50000000  0.25381100  1
  C  C34  1  0.50000000  0.00000000  0.25381100  1
  C  C35  1  0.50000000  0.50000000  0.24482100  1
  C  C36  1  0.00000000  0.00000000  0.72819800  1
  C  C37  1  0.00000000  0.50000000  0.74618900  1
  C  C38  1  0.50000000  0.00000000  0.74618900  1
  C  C39  1  0.50000000  0.50000000  0.75517900  1
  C  C40  1  0.25192300  0.25192300  0.24950300  1
  C  C41  1  0.25192300  0.74807700  0.24950300  1
  C  C42  1  0.74807700  0.25192300  0.24950300  1
  C  C43  1  0.74807700  0.74807700  0.24950300  1
  C  C44  1  0.25192300  0.25192300  0.75049700  1
  C  C45  1  0.25192300  0.74807700  0.75049700  1
  C  C46  1  0.74807700  0.25192300  0.75049700  1
  C  C47  1  0.74807700  0.74807700  0.75049700  1
  C  C48  1  0.00000000  0.27337900  0.00000000  1
  C  C49  1  0.00000000  0.72662100  0.00000000  1
  C  C50  1  0.50000000  0.25795300  0.00000000  1
  C  C51  1  0.50000000  0.74204700  0.00000000  1
  C  C52  1  0.00000000  0.25521100  0.50000000  1
  C  C53  1  0.00000000  0.74478900  0.50000000  1
  C  C54  1  0.50000000  0.25343700  0.50000000  1
  C  C55  1  0.50000000  0.74656300  0.50000000  1
  C  C56  1  0.27337900  0.00000000  0.00000000  1
  C  C57  1  0.25795300  0.50000000  0.00000000  1
  C  C58  1  0.72662100  0.00000000  0.00000000  1
  C  C59  1  0.74204700  0.50000000  0.00000000  1
  C  C60  1  0.25521100  0.00000000  0.50000000  1
  C  C61  1  0.25343700  0.50000000  0.50000000  1
  C  C62  1  0.74478900  0.00000000  0.50000000  1
  C  C63  1  0.74656300  0.50000000  0.50000000  1
