# generated using pymatgen
data_Cu3Ni9C2
_symmetry_space_group_name_H-M   'P 1'
_cell_length_a   7.65659822
_cell_length_b   7.65659822
_cell_length_c   9.49292800
_cell_angle_alpha   90.00000000
_cell_angle_beta   90.00000000
_cell_angle_gamma   119.75510735
_symmetry_Int_Tables_number   1
_chemical_formula_structural   Cu3Ni9C2
_chemical_formula_sum   'Cu6 Ni18 C4'
_cell_volume   483.13551405
_cell_formula_units_Z   2
loop_
 _symmetry_equiv_pos_site_id
 _symmetry_equiv_pos_as_xyz
  1  'x, y, z'
loop_
 _atom_site_type_symbol
 _atom_site_label
 _atom_site_symmetry_multiplicity
 _atom_site_fract_x
 _atom_site_fract_y
 _atom_site_fract_z
 _atom_site_occupancy
  C  C0  1  0.99765600  0.66845200  0.25000000  1
  C  C1  1  0.00234400  0.33154800  0.75000000  1
  C  C2  1  0.66845200  0.99765600  0.25000000  1
  C  C3  1  0.33154800  0.00234400  0.75000000  1
  Ni  Ni4  1  0.12730500  0.12730500  0.25000000  1
  Ni  Ni5  1  0.87269500  0.87269500  0.75000000  1
  Ni  Ni6  1  0.00163000  0.33418100  0.07777700  1
  Ni  Ni7  1  0.99837000  0.66581900  0.92222300  1
  Ni  Ni8  1  0.99837000  0.66581900  0.57777700  1
  Ni  Ni9  1  0.33418100  0.00163000  0.42222300  1
  Ni  Ni10  1  0.00163000  0.33418100  0.42222300  1
  Ni  Ni11  1  0.66581900  0.99837000  0.57777700  1
  Ni  Ni12  1  0.66581900  0.99837000  0.92222300  1
  Ni  Ni13  1  0.33418100  0.00163000  0.07777700  1
  Ni  Ni14  1  0.33407700  0.33407700  0.56240200  1
  Ni  Ni15  1  0.66592300  0.66592300  0.43759800  1
  Ni  Ni16  1  0.66592300  0.66592300  0.06240200  1
  Ni  Ni17  1  0.33407700  0.33407700  0.93759800  1
  Ni  Ni18  1  0.33809100  0.54442600  0.25000000  1
  Ni  Ni19  1  0.66190900  0.45557400  0.75000000  1
  Ni  Ni20  1  0.54442600  0.33809100  0.25000000  1
  Ni  Ni21  1  0.45557400  0.66190900  0.75000000  1
  Cu  Cu22  1  0.67105400  0.32894600  0.00000000  1
  Cu  Cu23  1  0.32894600  0.67105400  0.00000000  1
  Cu  Cu24  1  0.32894600  0.67105400  0.50000000  1
  Cu  Cu25  1  0.67105400  0.32894600  0.50000000  1
  Cu  Cu26  1  0.00000000  0.00000000  0.00000000  1
  Cu  Cu27  1  0.00000000  0.00000000  0.50000000  1
