# generated using pymatgen
data_Cu7(NiC)2
_symmetry_space_group_name_H-M   'P 1'
_cell_length_a   5.69994700
_cell_length_b   9.90696300
_cell_length_c   11.04431000
_cell_angle_alpha   90.00000000
_cell_angle_beta   90.00000000
_cell_angle_gamma   90.00000000
_symmetry_Int_Tables_number   1
_chemical_formula_structural   Cu7(NiC)2
_chemical_formula_sum   'Cu28 Ni8 C8'
_cell_volume   623.66295300
_cell_formula_units_Z   4
loop_
 _symmetry_equiv_pos_site_id
 _symmetry_equiv_pos_as_xyz
  1  'x, y, z'
loop_
 _atom_site_type_symbol
 _atom_site_label
 _atom_site_symmetry_multiplicity
 _atom_site_fract_x
 _atom_site_fract_y
 _atom_site_fract_z
 _atom_site_occupancy
  C  C0  1  0.42991300  0.62877800  0.13067100  1
  C  C1  1  0.07008700  0.12877800  0.36932900  1
  C  C2  1  0.07008700  0.37122200  0.63067100  1
  C  C3  1  0.42991300  0.87122200  0.86932900  1
  C  C4  1  0.57008700  0.37122200  0.86932900  1
  C  C5  1  0.92991300  0.87122200  0.63067100  1
  C  C6  1  0.92991300  0.62877800  0.36932900  1
  C  C7  1  0.57008700  0.12877800  0.13067100  1
  Ni  Ni8  1  0.87677000  0.86702000  0.12500300  1
  Ni  Ni9  1  0.62323000  0.36702000  0.37499700  1
  Ni  Ni10  1  0.62323000  0.13298000  0.62500300  1
  Ni  Ni11  1  0.87677000  0.63298000  0.87499700  1
  Ni  Ni12  1  0.12323000  0.13298000  0.87499700  1
  Ni  Ni13  1  0.37677000  0.63298000  0.62500300  1
  Ni  Ni14  1  0.37677000  0.86702000  0.37499700  1
  Ni  Ni15  1  0.12323000  0.36702000  0.12500300  1
  Cu  Cu16  1  0.67349200  0.90467000  0.04177000  1
  Cu  Cu17  1  0.82650800  0.40467000  0.45823000  1
  Cu  Cu18  1  0.82650800  0.09533000  0.54177000  1
  Cu  Cu19  1  0.67349200  0.59533000  0.95823000  1
  Cu  Cu20  1  0.32650800  0.09533000  0.95823000  1
  Cu  Cu21  1  0.17349200  0.59533000  0.54177000  1
  Cu  Cu22  1  0.17349200  0.90467000  0.45823000  1
  Cu  Cu23  1  0.32650800  0.40467000  0.04177000  1
  Cu  Cu24  1  0.90460200  0.98834000  0.20796600  1
  Cu  Cu25  1  0.59539800  0.48834000  0.29203400  1
  Cu  Cu26  1  0.59539800  0.01166000  0.70796600  1
  Cu  Cu27  1  0.90460200  0.51166000  0.79203400  1
  Cu  Cu28  1  0.09539800  0.01166000  0.79203400  1
  Cu  Cu29  1  0.40460200  0.51166000  0.70796600  1
  Cu  Cu30  1  0.40460200  0.98834000  0.29203400  1
  Cu  Cu31  1  0.09539800  0.48834000  0.20796600  1
  Cu  Cu32  1  0.79293600  0.74752600  0.19925800  1
  Cu  Cu33  1  0.70706400  0.24752600  0.30074200  1
  Cu  Cu34  1  0.70706400  0.25247400  0.69925800  1
  Cu  Cu35  1  0.79293600  0.75247400  0.80074200  1
  Cu  Cu36  1  0.20706400  0.25247400  0.80074200  1
  Cu  Cu37  1  0.29293600  0.75247400  0.69925800  1
  Cu  Cu38  1  0.29293600  0.74752600  0.30074200  1
  Cu  Cu39  1  0.20706400  0.24752600  0.19925800  1
  Cu  Cu40  1  0.18857300  0.75000000  0.00000000  1
  Cu  Cu41  1  0.31142700  0.25000000  0.50000000  1
  Cu  Cu42  1  0.81142700  0.25000000  0.00000000  1
  Cu  Cu43  1  0.68857300  0.75000000  0.50000000  1
