# generated using pymatgen
data_Cu9NiC
_symmetry_space_group_name_H-M   'P 1'
_cell_length_a   4.48383800
_cell_length_b   4.75532372
_cell_length_c   7.24382456
_cell_angle_alpha   105.22584160
_cell_angle_beta   92.72129382
_cell_angle_gamma   91.89247014
_symmetry_Int_Tables_number   1
_chemical_formula_structural   Cu9NiC
_chemical_formula_sum   'Cu9 Ni1 C1'
_cell_volume   148.69796958
_cell_formula_units_Z   1
loop_
 _symmetry_equiv_pos_site_id
 _symmetry_equiv_pos_as_xyz
  1  'x, y, z'
loop_
 _atom_site_type_symbol
 _atom_site_label
 _atom_site_symmetry_multiplicity
 _atom_site_fract_x
 _atom_site_fract_y
 _atom_site_fract_z
 _atom_site_occupancy
  C  C0  1  0.18128700  0.40121200  0.98938500  1
  Ni  Ni1  1  0.70079300  0.84421700  0.94209700  1
  Cu  Cu2  1  0.50818400  0.74096600  0.07398200  1
  Cu  Cu3  1  0.40874100  0.18400000  0.78529300  1
  Cu  Cu4  1  0.47755200  0.88161400  0.76780100  1
  Cu  Cu5  1  0.87630400  0.94934600  0.48903900  1
  Cu  Cu6  1  0.84496300  0.13017400  0.03936300  1
  Cu  Cu7  1  0.31268100  0.32571400  0.28695800  1
  Cu  Cu8  1  0.51905200  0.42716400  0.40705200  1
  Cu  Cu9  1  0.06642200  0.88135300  0.37097800  1
  Cu  Cu10  1  0.90802100  0.62624200  0.84805200  1
