# generated using pymatgen
data_Cu6Ni4C
_symmetry_space_group_name_H-M   'P 1'
_cell_length_a   7.76414723
_cell_length_b   7.76414723
_cell_length_c   7.76414723
_cell_angle_alpha   119.84205069
_cell_angle_beta   119.84205069
_cell_angle_gamma   90.27379464
_symmetry_Int_Tables_number   1
_chemical_formula_structural   Cu6Ni4C
_chemical_formula_sum   'Cu6 Ni4 C1'
_cell_volume   331.73899077
_cell_formula_units_Z   1
loop_
 _symmetry_equiv_pos_site_id
 _symmetry_equiv_pos_as_xyz
  1  'x, y, z'
loop_
 _atom_site_type_symbol
 _atom_site_label
 _atom_site_symmetry_multiplicity
 _atom_site_fract_x
 _atom_site_fract_y
 _atom_site_fract_z
 _atom_site_occupancy
  C  C0  1  0.00318100  0.00318100  0.00000000  1
  Ni  Ni1  1  0.28507400  0.71358000  0.42850600  1
  Ni  Ni2  1  0.28507400  0.85656800  0.57149400  1
  Ni  Ni3  1  0.71358000  0.28507400  0.42850600  1
  Ni  Ni4  1  0.85656800  0.28507400  0.57149400  1
  Cu  Cu5  1  0.21068300  0.21068300  0.00000000  1
  Cu  Cu6  1  0.21533600  0.21533600  0.41937400  1
  Cu  Cu7  1  0.21533600  0.79596200  0.00000000  1
  Cu  Cu8  1  0.79244400  0.79244400  0.00000000  1
  Cu  Cu9  1  0.79596200  0.79596200  0.58062600  1
  Cu  Cu10  1  0.79596200  0.21533600  0.00000000  1
