# generated using pymatgen
data_Cu5NiC3
_symmetry_space_group_name_H-M   'P 1'
_cell_length_a   10.24074800
_cell_length_b   8.33210169
_cell_length_c   8.33210169
_cell_angle_alpha   122.31046994
_cell_angle_beta   90.00000000
_cell_angle_gamma   90.00000000
_symmetry_Int_Tables_number   1
_chemical_formula_structural   Cu5NiC3
_chemical_formula_sum   'Cu10 Ni2 C6'
_cell_volume   600.87188310
_cell_formula_units_Z   2
loop_
 _symmetry_equiv_pos_site_id
 _symmetry_equiv_pos_as_xyz
  1  'x, y, z'
loop_
 _atom_site_type_symbol
 _atom_site_label
 _atom_site_symmetry_multiplicity
 _atom_site_fract_x
 _atom_site_fract_y
 _atom_site_fract_z
 _atom_site_occupancy
  C  C0  1  0.38552200  0.71709700  0.28290300  1
  C  C1  1  0.88552200  0.28290300  0.71709700  1
  C  C2  1  0.88874800  0.59109900  0.40890100  1
  C  C3  1  0.38874800  0.40890100  0.59109900  1
  C  C4  1  0.52856900  0.15226300  0.84773700  1
  C  C5  1  0.02856900  0.84773700  0.15226300  1
  Ni  Ni6  1  0.18273000  0.88384000  0.11616000  1
  Ni  Ni7  1  0.68273000  0.11616000  0.88384000  1
  Cu  Cu8  1  0.44855600  0.83884700  0.73409500  1
  Cu  Cu9  1  0.44855600  0.26590500  0.16115300  1
  Cu  Cu10  1  0.94855600  0.16115300  0.26590500  1
  Cu  Cu11  1  0.94855600  0.73409500  0.83884700  1
  Cu  Cu12  1  0.06743700  0.93177700  0.47045400  1
  Cu  Cu13  1  0.06743700  0.52954600  0.06822300  1
  Cu  Cu14  1  0.56743700  0.06822300  0.52954600  1
  Cu  Cu15  1  0.56743700  0.47045400  0.93177700  1
  Cu  Cu16  1  0.29644500  0.21475500  0.78524500  1
  Cu  Cu17  1  0.79644500  0.78524500  0.21475500  1
