# generated using pymatgen
data_Cu2NiC14
_symmetry_space_group_name_H-M   'P 1'
_cell_length_a   6.64857350
_cell_length_b   6.64857350
_cell_length_c   9.27647294
_cell_angle_alpha   69.20853562
_cell_angle_beta   69.20853562
_cell_angle_gamma   77.78105373
_symmetry_Int_Tables_number   1
_chemical_formula_structural   Cu2NiC14
_chemical_formula_sum   'Cu4 Ni2 C28'
_cell_volume   356.66046064
_cell_formula_units_Z   2
loop_
 _symmetry_equiv_pos_site_id
 _symmetry_equiv_pos_as_xyz
  1  'x, y, z'
loop_
 _atom_site_type_symbol
 _atom_site_label
 _atom_site_symmetry_multiplicity
 _atom_site_fract_x
 _atom_site_fract_y
 _atom_site_fract_z
 _atom_site_occupancy
  C  C0  1  0.14901300  0.85098700  0.25000000  1
  C  C1  1  0.85098700  0.14901300  0.75000000  1
  C  C2  1  0.00000000  0.50000000  0.00000000  1
  C  C3  1  0.50000000  0.00000000  0.50000000  1
  Ni  Ni4  1  0.52644500  0.47355500  0.25000000  1
  Ni  Ni5  1  0.47355500  0.52644500  0.75000000  1
  Cu  Cu6  1  0.14901300  0.27900000  0.32585700  1
  Cu  Cu7  1  0.72100000  0.85098700  0.17414300  1
  Cu  Cu8  1  0.85098700  0.72100000  0.67414300  1
  Cu  Cu9  1  0.27900000  0.14901300  0.82585700  1
  C  C10  1  0.66707600  0.29251100  0.08767700  1
  C  C11  1  0.70748900  0.33292400  0.41232300  1
  C  C12  1  0.33292400  0.70748900  0.91232300  1
  C  C13  1  0.29251100  0.66707600  0.58767700  1
  C  C14  1  0.05125600  0.68340700  0.53890400  1
  C  C15  1  0.31659300  0.94874400  0.96109600  1
  C  C16  1  0.94874400  0.31659300  0.46109600  1
  C  C17  1  0.68340700  0.05125600  0.03890400  1
  C  C18  1  0.08852300  0.26021900  0.18465800  1
  C  C19  1  0.73978100  0.91147700  0.31534200  1
  C  C20  1  0.91147700  0.73978100  0.81534200  1
  C  C21  1  0.26021900  0.08852300  0.68465800  1
  C  C22  1  0.93497900  0.70825400  0.12285300  1
  C  C23  1  0.29174600  0.06502100  0.37714700  1
  C  C24  1  0.06502100  0.29174600  0.87714700  1
  C  C25  1  0.70825400  0.93497900  0.62285300  1
  C  C26  1  0.29740400  0.47116300  0.26056900  1
  C  C27  1  0.52883700  0.70259600  0.23943100  1
  C  C28  1  0.70259600  0.52883700  0.73943100  1
  C  C29  1  0.47116300  0.29740400  0.76056900  1
  C  C30  1  0.68091400  0.43048400  0.10204300  1
  C  C31  1  0.56951600  0.31908600  0.39795700  1
  C  C32  1  0.31908600  0.56951600  0.89795700  1
  C  C33  1  0.43048400  0.68091400  0.60204300  1
