# generated using pymatgen
data_Cu2NiC4
_symmetry_space_group_name_H-M   'P 1'
_cell_length_a   13.99396795
_cell_length_b   13.99396795
_cell_length_c   13.99396888
_cell_angle_alpha   16.95947293
_cell_angle_beta   16.95947293
_cell_angle_gamma   16.95947116
_symmetry_Int_Tables_number   1
_chemical_formula_structural   Cu2NiC4
_chemical_formula_sum   'Cu2 Ni1 C4'
_cell_volume   203.40928727
_cell_formula_units_Z   1
loop_
 _symmetry_equiv_pos_site_id
 _symmetry_equiv_pos_as_xyz
  1  'x, y, z'
loop_
 _atom_site_type_symbol
 _atom_site_label
 _atom_site_symmetry_multiplicity
 _atom_site_fract_x
 _atom_site_fract_y
 _atom_site_fract_z
 _atom_site_occupancy
  Ni  Ni0  1  0.00000000  0.00000000  0.00000000  1
  C  C1  1  0.87432400  0.87432400  0.87432400  1
  C  C2  1  0.70940700  0.70940700  0.70940700  1
  C  C3  1  0.12567600  0.12567600  0.12567600  1
  C  C4  1  0.29059300  0.29059300  0.29059300  1
  Cu  Cu5  1  0.42119000  0.42119000  0.42119000  1
  Cu  Cu6  1  0.57881000  0.57881000  0.57881000  1
