# generated using pymatgen
data_Cu2NiC7
_symmetry_space_group_name_H-M   'P 1'
_cell_length_a   5.88498030
_cell_length_b   5.88498030
_cell_length_c   6.00629743
_cell_angle_alpha   60.16432658
_cell_angle_beta   60.16432658
_cell_angle_gamma   60.30068080
_symmetry_Int_Tables_number   1
_chemical_formula_structural   Cu2NiC7
_chemical_formula_sum   'Cu2 Ni1 C7'
_cell_volume   147.78766498
_cell_formula_units_Z   1
loop_
 _symmetry_equiv_pos_site_id
 _symmetry_equiv_pos_as_xyz
  1  'x, y, z'
loop_
 _atom_site_type_symbol
 _atom_site_label
 _atom_site_symmetry_multiplicity
 _atom_site_fract_x
 _atom_site_fract_y
 _atom_site_fract_z
 _atom_site_occupancy
  C  C0  1  0.00000000  0.00000000  0.00000000  1
  Ni  Ni1  1  0.50000000  0.50000000  0.50000000  1
  Cu  Cu2  1  0.75402500  0.75402500  0.72718000  1
  Cu  Cu3  1  0.24597500  0.24597500  0.27282000  1
  C  C4  1  0.30601300  0.78664200  0.68506300  1
  C  C5  1  0.78664200  0.30601300  0.68506300  1
  C  C6  1  0.69398700  0.21335800  0.31493700  1
  C  C7  1  0.21335800  0.69398700  0.31493700  1
  C  C8  1  0.26606700  0.26606700  0.80893900  1
  C  C9  1  0.73393300  0.73393300  0.19106100  1
