# generated using pymatgen
data_Cu6Ni3C
_symmetry_space_group_name_H-M   'P 1'
_cell_length_a   7.78501000
_cell_length_b   7.84568349
_cell_length_c   6.73875475
_cell_angle_alpha   120.17018983
_cell_angle_beta   90.00000000
_cell_angle_gamma   90.00000000
_symmetry_Int_Tables_number   1
_chemical_formula_structural   Cu6Ni3C
_chemical_formula_sum   'Cu12 Ni6 C2'
_cell_volume   355.83846519
_cell_formula_units_Z   2
loop_
 _symmetry_equiv_pos_site_id
 _symmetry_equiv_pos_as_xyz
  1  'x, y, z'
loop_
 _atom_site_type_symbol
 _atom_site_label
 _atom_site_symmetry_multiplicity
 _atom_site_fract_x
 _atom_site_fract_y
 _atom_site_fract_z
 _atom_site_occupancy
  C  C0  1  0.13106700  0.25000000  0.25000000  1
  C  C1  1  0.86893300  0.75000000  0.75000000  1
  Ni  Ni2  1  0.81001400  0.18420900  0.48531200  1
  Ni  Ni3  1  0.18998600  0.81579100  0.51468800  1
  Ni  Ni4  1  0.81001400  0.31579100  0.01468800  1
  Ni  Ni5  1  0.18998600  0.68420900  0.98531200  1
  Ni  Ni6  1  0.38519800  0.25000000  0.75000000  1
  Ni  Ni7  1  0.61480200  0.75000000  0.25000000  1
  Cu  Cu8  1  0.09690500  0.88981000  0.01899400  1
  Cu  Cu9  1  0.90309500  0.11019000  0.98100600  1
  Cu  Cu10  1  0.09690500  0.61019000  0.48100600  1
  Cu  Cu11  1  0.90309500  0.38981000  0.51899400  1
  Cu  Cu12  1  0.46411700  0.46396000  0.40428100  1
  Cu  Cu13  1  0.53588300  0.53604000  0.59571900  1
  Cu  Cu14  1  0.46411700  0.03604000  0.09571900  1
  Cu  Cu15  1  0.53588300  0.96396000  0.90428100  1
  Cu  Cu16  1  0.27319800  0.32058200  0.97163400  1
  Cu  Cu17  1  0.72680200  0.67941800  0.02836600  1
  Cu  Cu18  1  0.27319800  0.17941800  0.52836600  1
  Cu  Cu19  1  0.72680200  0.82058200  0.47163400  1
