# generated using pymatgen
data_Cu18NiC4
_symmetry_space_group_name_H-M   'P 1'
_cell_length_a   10.67541900
_cell_length_b   10.53267000
_cell_length_c   13.66223134
_cell_angle_alpha   80.37142598
_cell_angle_beta   90.00000000
_cell_angle_gamma   90.00000000
_symmetry_Int_Tables_number   1
_chemical_formula_structural   Cu18NiC4
_chemical_formula_sum   'Cu72 Ni4 C16'
_cell_volume   1514.54967723
_cell_formula_units_Z   4
loop_
 _symmetry_equiv_pos_site_id
 _symmetry_equiv_pos_as_xyz
  1  'x, y, z'
loop_
 _atom_site_type_symbol
 _atom_site_label
 _atom_site_symmetry_multiplicity
 _atom_site_fract_x
 _atom_site_fract_y
 _atom_site_fract_z
 _atom_site_occupancy
  C  C0  1  0.67091800  0.35313900  0.59716400  1
  C  C1  1  0.17091800  0.64686100  0.40283600  1
  C  C2  1  0.90931300  0.29429100  0.69330600  1
  C  C3  1  0.40931300  0.70570900  0.30669400  1
  C  C4  1  0.43463600  0.29656000  0.69716200  1
  C  C5  1  0.93463600  0.70344000  0.30283800  1
  C  C6  1  0.66596100  0.21964600  0.80831500  1
  C  C7  1  0.16596100  0.78035400  0.19168500  1
  C  C8  1  0.14174700  0.26920400  0.81078900  1
  C  C9  1  0.64174700  0.73079600  0.18921100  1
  C  C10  1  0.92122900  0.42176000  0.47821900  1
  C  C11  1  0.42122900  0.57824000  0.52178100  1
  C  C12  1  0.45593500  0.14337300  0.91567900  1
  C  C13  1  0.95593500  0.85662700  0.08432100  1
  C  C14  1  0.17316700  0.09689800  0.03707700  1
  C  C15  1  0.67316700  0.90310200  0.96292300  1
  Ni  Ni16  1  0.42369600  0.59199500  0.91394100  1
  Ni  Ni17  1  0.92369600  0.40800500  0.08605900  1
  Ni  Ni18  1  0.56371800  0.07893900  0.38314900  1
  Ni  Ni19  1  0.06371800  0.92106100  0.61685100  1
  Cu  Cu20  1  0.57025600  0.48370100  0.52524300  1
  Cu  Cu21  1  0.07025600  0.51629900  0.47475700  1
  Cu  Cu22  1  0.83273900  0.43888000  0.60074600  1
  Cu  Cu23  1  0.33273900  0.56112000  0.39925400  1
  Cu  Cu24  1  0.59042300  0.36782700  0.72084200  1
  Cu  Cu25  1  0.09042300  0.63217300  0.27915800  1
  Cu  Cu26  1  0.75146100  0.21135000  0.68687300  1
  Cu  Cu27  1  0.25146100  0.78865000  0.31312700  1
  Cu  Cu28  1  0.52142800  0.25796200  0.58750400  1
  Cu  Cu29  1  0.02142800  0.74203800  0.41249600  1
  Cu  Cu30  1  0.77043000  0.32739600  0.48795400  1
  Cu  Cu31  1  0.27043000  0.67260400  0.51204600  1
  Cu  Cu32  1  0.05037400  0.38119000  0.72811200  1
  Cu  Cu33  1  0.55037400  0.61881000  0.27188800  1
  Cu  Cu34  1  0.81817600  0.30459300  0.80792400  1
  Cu  Cu35  1  0.31817600  0.69540700  0.19207600  1
  Cu  Cu36  1  0.00968200  0.17592800  0.77270300  1
  Cu  Cu37  1  0.50968200  0.82407200  0.22729700  1
  Cu  Cu38  1  0.96334600  0.27434300  0.56703400  1
  Cu  Cu39  1  0.46334600  0.72565700  0.43296600  1
  Cu  Cu40  1  0.37480700  0.43423700  0.60918600  1
  Cu  Cu41  1  0.87480700  0.56576300  0.39081400  1
  Cu  Cu42  1  0.31673100  0.31230700  0.80176300  1
  Cu  Cu43  1  0.81673100  0.68769300  0.19823700  1
  Cu  Cu44  1  0.49824900  0.15731300  0.78551500  1
  Cu  Cu45  1  0.99824900  0.84268700  0.21448500  1
  Cu  Cu46  1  0.27169400  0.22197700  0.73200300  1
  Cu  Cu47  1  0.77169400  0.77802300  0.26799700  1
  Cu  Cu48  1  0.58798600  0.24885300  0.92683000  1
  Cu  Cu49  1  0.08798600  0.75114700  0.07317000  1
  Cu  Cu50  1  0.71435800  0.06300000  0.88768100  1
  Cu  Cu51  1  0.21435800  0.93700000  0.11231900  1
  Cu  Cu52  1  0.13674100  0.22864200  0.94073000  1
  Cu  Cu53  1  0.63674100  0.77135800  0.05927000  1
  Cu  Cu54  1  0.23688500  0.96745300  0.86355900  1
  Cu  Cu55  1  0.73688500  0.03254700  0.13644100  1
  Cu  Cu56  1  0.00003500  0.39465800  0.36137200  1
  Cu  Cu57  1  0.50003500  0.60534200  0.63862800  1
  Cu  Cu58  1  0.32446100  0.14213300  0.99104700  1
  Cu  Cu59  1  0.82446100  0.85786700  0.00895300  1
  Cu  Cu60  1  0.53061100  0.99562000  0.96802200  1
  Cu  Cu61  1  0.03061100  0.00438000  0.03197800  1
  Cu  Cu62  1  0.11466100  0.11347600  0.16008900  1
  Cu  Cu63  1  0.61466100  0.88652400  0.83991100  1
  Cu  Cu64  1  0.53979100  0.54309900  0.87363200  1
  Cu  Cu65  1  0.03979100  0.45690100  0.12636800  1
  Cu  Cu66  1  0.31411300  0.50799000  0.90746200  1
  Cu  Cu67  1  0.81411300  0.49201000  0.09253800  1
  Cu  Cu68  1  0.43665700  0.59818200  0.02119000  1
  Cu  Cu69  1  0.93665700  0.40181800  0.97881000  1
  Cu  Cu70  1  0.40716400  0.72188100  0.85216900  1
  Cu  Cu71  1  0.90716400  0.27811900  0.14783100  1
  Cu  Cu72  1  0.49332100  0.06468600  0.29208600  1
  Cu  Cu73  1  0.99332100  0.93531400  0.70791400  1
  Cu  Cu74  1  0.61824900  0.95511100  0.43369000  1
  Cu  Cu75  1  0.11824900  0.04488900  0.56631000  1
  Cu  Cu76  1  0.46541900  0.11952100  0.45104200  1
  Cu  Cu77  1  0.96541900  0.88047900  0.54895800  1
  Cu  Cu78  1  0.66213400  0.17734800  0.36002100  1
  Cu  Cu79  1  0.16213400  0.82265200  0.63997900  1
  Cu  Cu80  1  0.21141300  0.85380700  0.86836400  1
  Cu  Cu81  1  0.71141300  0.14619300  0.13163600  1
  Cu  Cu82  1  0.01662700  0.97992400  0.36389000  1
  Cu  Cu83  1  0.51662700  0.02007600  0.63611000  1
  Cu  Cu84  1  0.50303100  0.38998200  0.21723800  1
  Cu  Cu85  1  0.00303100  0.61001800  0.78276200  1
  Cu  Cu86  1  0.88893100  0.64473200  0.79158800  1
  Cu  Cu87  1  0.38893100  0.35526800  0.20841200  1
  Cu  Cu88  1  0.81335200  0.64202900  0.71860600  1
  Cu  Cu89  1  0.31335200  0.35797100  0.28139400  1
  Cu  Cu90  1  0.60894300  0.95569200  0.63210200  1
  Cu  Cu91  1  0.10894300  0.04430800  0.36789800  1
