# generated using pymatgen
data_Cu2NiC11
_symmetry_space_group_name_H-M   'P 1'
_cell_length_a   6.33123987
_cell_length_b   6.33123987
_cell_length_c   7.67918801
_cell_angle_alpha   67.55714649
_cell_angle_beta   67.55714649
_cell_angle_gamma   50.22931640
_symmetry_Int_Tables_number   1
_chemical_formula_structural   Cu2NiC11
_chemical_formula_sum   'Cu2 Ni1 C11'
_cell_volume   214.53462634
_cell_formula_units_Z   1
loop_
 _symmetry_equiv_pos_site_id
 _symmetry_equiv_pos_as_xyz
  1  'x, y, z'
loop_
 _atom_site_type_symbol
 _atom_site_label
 _atom_site_symmetry_multiplicity
 _atom_site_fract_x
 _atom_site_fract_y
 _atom_site_fract_z
 _atom_site_occupancy
  C  C0  1  0.00000000  0.00000000  0.50000000  1
  Ni  Ni1  1  0.00000000  0.00000000  0.00000000  1
  Cu  Cu2  1  0.39003400  0.39003400  0.28047000  1
  Cu  Cu3  1  0.60996600  0.60996600  0.71953000  1
  C  C4  1  0.81127000  0.81127000  0.08337700  1
  C  C5  1  0.18873000  0.18873000  0.91662300  1
  C  C6  1  0.26180100  0.26180100  0.24191900  1
  C  C7  1  0.73819900  0.73819900  0.75808100  1
  C  C8  1  0.64761400  0.64761400  0.49092400  1
  C  C9  1  0.35238600  0.35238600  0.50907600  1
  C  C10  1  0.74298700  0.21648700  0.18216100  1
  C  C11  1  0.25701300  0.78351300  0.81783900  1
  C  C12  1  0.78351300  0.25701300  0.81783900  1
  C  C13  1  0.21648700  0.74298700  0.18216100  1
