# generated using pymatgen
data_Cu4NiC6
_symmetry_space_group_name_H-M   'P 1'
_cell_length_a   9.47509974
_cell_length_b   9.47509974
_cell_length_c   7.23276400
_cell_angle_alpha   90.00000000
_cell_angle_beta   90.00000000
_cell_angle_gamma   119.99999817
_symmetry_Int_Tables_number   1
_chemical_formula_structural   Cu4NiC6
_chemical_formula_sum   'Cu8 Ni2 C12'
_cell_volume   562.34458125
_cell_formula_units_Z   2
loop_
 _symmetry_equiv_pos_site_id
 _symmetry_equiv_pos_as_xyz
  1  'x, y, z'
loop_
 _atom_site_type_symbol
 _atom_site_label
 _atom_site_symmetry_multiplicity
 _atom_site_fract_x
 _atom_site_fract_y
 _atom_site_fract_z
 _atom_site_occupancy
  C  C0  1  0.13740900  0.86259100  0.17285000  1
  C  C1  1  0.27481900  0.13740900  0.67285000  1
  C  C2  1  0.86259100  0.72518100  0.67285000  1
  C  C3  1  0.13740900  0.27481900  0.17285000  1
  C  C4  1  0.72518100  0.86259100  0.17285000  1
  C  C5  1  0.86259100  0.13740900  0.67285000  1
  C  C6  1  0.47470000  0.94940000  0.50054200  1
  C  C7  1  0.52530000  0.05060000  0.00054200  1
  C  C8  1  0.94940000  0.47470000  0.00054200  1
  C  C9  1  0.47470000  0.52530000  0.50054200  1
  C  C10  1  0.52530000  0.47470000  0.00054200  1
  C  C11  1  0.05060000  0.52530000  0.50054200  1
  Ni  Ni12  1  0.33333300  0.66666700  0.87822000  1
  Ni  Ni13  1  0.66666700  0.33333300  0.37822000  1
  Cu  Cu14  1  0.19017800  0.80982200  0.77127400  1
  Cu  Cu15  1  0.38035600  0.19017800  0.27127400  1
  Cu  Cu16  1  0.80982200  0.61964400  0.27127400  1
  Cu  Cu17  1  0.19017800  0.38035600  0.77127400  1
  Cu  Cu18  1  0.61964400  0.80982200  0.77127400  1
  Cu  Cu19  1  0.80982200  0.19017800  0.27127400  1
  Cu  Cu20  1  0.33333300  0.66666700  0.22846300  1
  Cu  Cu21  1  0.66666700  0.33333300  0.72846300  1
