# generated using pymatgen
data_CuNiC5
_symmetry_space_group_name_H-M   'P 1'
_cell_length_a   12.26641466
_cell_length_b   3.62998300
_cell_length_c   12.23863954
_cell_angle_alpha   90.00000000
_cell_angle_beta   89.16400450
_cell_angle_gamma   90.00000000
_symmetry_Int_Tables_number   1
_chemical_formula_structural   CuNiC5
_chemical_formula_sum   'Cu4 Ni4 C20'
_cell_volume   544.89038661
_cell_formula_units_Z   4
loop_
 _symmetry_equiv_pos_site_id
 _symmetry_equiv_pos_as_xyz
  1  'x, y, z'
loop_
 _atom_site_type_symbol
 _atom_site_label
 _atom_site_symmetry_multiplicity
 _atom_site_fract_x
 _atom_site_fract_y
 _atom_site_fract_z
 _atom_site_occupancy
  C  C0  1  0.39831600  0.75000000  0.58916600  1
  C  C1  1  0.84024000  0.75000000  0.28625600  1
  C  C2  1  0.33884700  0.75000000  0.20975500  1
  C  C3  1  0.67239800  0.25000000  0.81226800  1
  Ni  Ni4  1  0.10619900  0.25000000  0.06709100  1
  Ni  Ni5  1  0.90482600  0.75000000  0.92217500  1
  Ni  Ni6  1  0.60555400  0.25000000  0.42401600  1
  Ni  Ni7  1  0.15416900  0.25000000  0.69767500  1
  Cu  Cu8  1  0.12105300  0.75000000  0.40977600  1
  Cu  Cu9  1  0.88708500  0.25000000  0.59306700  1
  Cu  Cu10  1  0.35787200  0.25000000  0.90902100  1
  Cu  Cu11  1  0.62662300  0.75000000  0.08579400  1
  C  C12  1  0.05668900  0.75000000  0.61405300  1
  C  C13  1  0.94250000  0.25000000  0.38338700  1
  C  C14  1  0.44614700  0.25000000  0.11341200  1
  C  C15  1  0.54499800  0.75000000  0.88127300  1
  C  C16  1  0.03273200  0.25000000  0.87997700  1
  C  C17  1  0.97489400  0.75000000  0.10885700  1
  C  C18  1  0.47115000  0.75000000  0.38072100  1
  C  C19  1  0.54690100  0.25000000  0.62058300  1
  C  C20  1  0.19158400  0.25000000  0.25331400  1
  C  C21  1  0.80860400  0.75000000  0.74654900  1
  C  C22  1  0.27767500  0.75000000  0.75821600  1
  C  C23  1  0.69204200  0.25000000  0.24509400  1
  C  C24  1  0.22667800  0.75000000  0.02892400  1
  C  C25  1  0.78471200  0.25000000  0.98026100  1
  C  C26  1  0.26585200  0.25000000  0.53262500  1
  C  C27  1  0.72365600  0.75000000  0.46669400  1
