# generated using pymatgen
data_CuNiC8
_symmetry_space_group_name_H-M   'P 1'
_cell_length_a   5.75529100
_cell_length_b   5.54404500
_cell_length_c   9.43412980
_cell_angle_alpha   54.70537133
_cell_angle_beta   90.00000000
_cell_angle_gamma   90.00000000
_symmetry_Int_Tables_number   1
_chemical_formula_structural   CuNiC8
_chemical_formula_sum   'Cu2 Ni2 C16'
_cell_volume   245.69034320
_cell_formula_units_Z   2
loop_
 _symmetry_equiv_pos_site_id
 _symmetry_equiv_pos_as_xyz
  1  'x, y, z'
loop_
 _atom_site_type_symbol
 _atom_site_label
 _atom_site_symmetry_multiplicity
 _atom_site_fract_x
 _atom_site_fract_y
 _atom_site_fract_z
 _atom_site_occupancy
  C  C0  1  0.55930200  0.73631600  0.75000900  1
  C  C1  1  0.05930200  0.26368400  0.74999100  1
  C  C2  1  0.44069800  0.26368400  0.24999100  1
  C  C3  1  0.94069800  0.73631600  0.25000900  1
  Ni  Ni4  1  0.50000000  0.00000000  0.00000000  1
  Ni  Ni5  1  0.00000000  0.00000000  0.50000000  1
  Cu  Cu6  1  0.50000000  0.50000000  0.50000000  1
  Cu  Cu7  1  0.00000000  0.50000000  0.00000000  1
  C  C8  1  0.80269400  0.24730200  0.95180600  1
  C  C9  1  0.30269400  0.75269800  0.54819400  1
  C  C10  1  0.20159600  0.35365800  0.45182800  1
  C  C11  1  0.70159600  0.64634200  0.04817200  1
  C  C12  1  0.19730600  0.75269800  0.04819400  1
  C  C13  1  0.69730600  0.24730200  0.45180600  1
  C  C14  1  0.79840400  0.64634200  0.54817200  1
  C  C15  1  0.29840400  0.35365800  0.95182800  1
  C  C16  1  0.97060400  0.85129500  0.74472200  1
  C  C17  1  0.47060400  0.14870500  0.75527800  1
  C  C18  1  0.02939600  0.14870500  0.25527800  1
  C  C19  1  0.52939600  0.85129500  0.24472200  1
