# generated using pymatgen
data_Cu6NiC4
_symmetry_space_group_name_H-M   'P 1'
_cell_length_a   8.16301413
_cell_length_b   8.16301413
_cell_length_c   9.65927808
_cell_angle_alpha   57.98104775
_cell_angle_beta   57.98104775
_cell_angle_gamma   29.42418375
_symmetry_Int_Tables_number   1
_chemical_formula_structural   Cu6NiC4
_chemical_formula_sum   'Cu6 Ni1 C4'
_cell_volume   264.46210322
_cell_formula_units_Z   1
loop_
 _symmetry_equiv_pos_site_id
 _symmetry_equiv_pos_as_xyz
  1  'x, y, z'
loop_
 _atom_site_type_symbol
 _atom_site_label
 _atom_site_symmetry_multiplicity
 _atom_site_fract_x
 _atom_site_fract_y
 _atom_site_fract_z
 _atom_site_occupancy
  C  C0  1  0.15754200  0.15754200  0.51462000  1
  C  C1  1  0.15927200  0.15927200  0.14551800  1
  C  C2  1  0.84116200  0.84116200  0.85690300  1
  C  C3  1  0.83762400  0.83762400  0.49238300  1
  Ni  Ni4  1  0.49665800  0.49665800  0.49992500  1
  Cu  Cu5  1  0.70851500  0.70851500  0.50957000  1
  Cu  Cu6  1  0.30081800  0.30081800  0.48463200  1
  Cu  Cu7  1  0.29407800  0.29407800  0.92050700  1
  Cu  Cu8  1  0.70681300  0.70681300  0.07661000  1
  Cu  Cu9  1  0.77355700  0.77355700  0.72528700  1
  Cu  Cu10  1  0.22396200  0.22396200  0.27404600  1
