# generated using pymatgen
data_CuNiC2
_symmetry_space_group_name_H-M   'P 1'
_cell_length_a   5.09580600
_cell_length_b   5.99030000
_cell_length_c   5.47748000
_cell_angle_alpha   90.00000000
_cell_angle_beta   90.00000000
_cell_angle_gamma   90.00000000
_symmetry_Int_Tables_number   1
_chemical_formula_structural   CuNiC2
_chemical_formula_sum   'Cu4 Ni4 C8'
_cell_volume   167.20230459
_cell_formula_units_Z   4
loop_
 _symmetry_equiv_pos_site_id
 _symmetry_equiv_pos_as_xyz
  1  'x, y, z'
loop_
 _atom_site_type_symbol
 _atom_site_label
 _atom_site_symmetry_multiplicity
 _atom_site_fract_x
 _atom_site_fract_y
 _atom_site_fract_z
 _atom_site_occupancy
  Ni  Ni0  1  0.56703700  0.88767500  0.96560900  1
  Ni  Ni1  1  0.43296300  0.11232500  0.46560900  1
  Ni  Ni2  1  0.93296300  0.38767500  0.46560900  1
  Ni  Ni3  1  0.06703700  0.61232500  0.96560900  1
  Cu  Cu4  1  0.62086700  0.34126900  0.03962200  1
  Cu  Cu5  1  0.37913300  0.65873100  0.53962200  1
  Cu  Cu6  1  0.87913300  0.84126900  0.53962200  1
  Cu  Cu7  1  0.12086700  0.15873100  0.03962200  1
  C  C8  1  0.57369300  0.87296700  0.30417900  1
  C  C9  1  0.42630700  0.12703300  0.80417900  1
  C  C10  1  0.92630700  0.37296700  0.80417900  1
  C  C11  1  0.07369300  0.62703300  0.30417900  1
  C  C12  1  0.58307800  0.38325000  0.41259000  1
  C  C13  1  0.41692200  0.61675000  0.91259000  1
  C  C14  1  0.91692200  0.88325000  0.91259000  1
  C  C15  1  0.08307800  0.11675000  0.41259000  1
