# generated using pymatgen
data_Cu5Ni2C25
_symmetry_space_group_name_H-M   'P 1'
_cell_length_a   7.74320607
_cell_length_b   7.74320607
_cell_length_c   5.16062576
_cell_angle_alpha   77.13885000
_cell_angle_beta   77.13885000
_cell_angle_gamma   98.00180903
_symmetry_Int_Tables_number   1
_chemical_formula_structural   Cu5Ni2C25
_chemical_formula_sum   'Cu5 Ni2 C25'
_cell_volume   288.22913799
_cell_formula_units_Z   1
loop_
 _symmetry_equiv_pos_site_id
 _symmetry_equiv_pos_as_xyz
  1  'x, y, z'
loop_
 _atom_site_type_symbol
 _atom_site_label
 _atom_site_symmetry_multiplicity
 _atom_site_fract_x
 _atom_site_fract_y
 _atom_site_fract_z
 _atom_site_occupancy
  C  C0  1  0.62172900  0.37827100  0.50000000  1
  C  C1  1  0.74599900  0.74599900  0.50921300  1
  C  C2  1  0.87729400  0.12270600  0.50000000  1
  C  C3  1  0.00000000  0.50000000  0.50000000  1
  C  C4  1  0.12270600  0.87729400  0.50000000  1
  C  C5  1  0.25400100  0.25400100  0.49078700  1
  C  C6  1  0.37827100  0.62172900  0.50000000  1
  C  C7  1  0.50000000  0.00000000  0.50000000  1
  C  C8  1  0.50000000  0.50000000  0.00000000  1
  Ni  Ni9  1  0.74893400  0.25106600  0.00000000  1
  Ni  Ni10  1  0.25106600  0.74893400  0.00000000  1
  Cu  Cu11  1  0.86645000  0.62346800  0.99707300  1
  Cu  Cu12  1  0.00000000  0.00000000  0.00000000  1
  Cu  Cu13  1  0.13355000  0.37653200  0.00292700  1
  Cu  Cu14  1  0.37653200  0.13355000  0.00292700  1
  Cu  Cu15  1  0.62346800  0.86645000  0.99707300  1
  C  C16  1  0.51426800  0.24313800  0.23118700  1
  C  C17  1  0.64078500  0.64078500  0.23331100  1
  C  C18  1  0.75577900  0.01103300  0.22235500  1
  C  C19  1  0.87537700  0.37016000  0.22012900  1
  C  C20  1  0.01103300  0.75577900  0.22235500  1
  C  C21  1  0.12876500  0.12876500  0.23768400  1
  C  C22  1  0.24313800  0.51426800  0.23118700  1
  C  C23  1  0.37016000  0.87537700  0.22012900  1
  C  C24  1  0.75686200  0.48573200  0.76881300  1
  C  C25  1  0.87123500  0.87123500  0.76231600  1
  C  C26  1  0.98896700  0.24422100  0.77764500  1
  C  C27  1  0.12462300  0.62984000  0.77987100  1
  C  C28  1  0.24422100  0.98896700  0.77764500  1
  C  C29  1  0.35921500  0.35921500  0.76668900  1
  C  C30  1  0.48573200  0.75686200  0.76881300  1
  C  C31  1  0.62984000  0.12462300  0.77987100  1
