# generated using pymatgen
data_Cu3Ni9C2
_symmetry_space_group_name_H-M   'P 1'
_cell_length_a   9.41373555
_cell_length_b   9.41373555
_cell_length_c   21.28373700
_cell_angle_alpha   90.00000000
_cell_angle_beta   90.00000000
_cell_angle_gamma   119.99999683
_symmetry_Int_Tables_number   1
_chemical_formula_structural   Cu3Ni9C2
_chemical_formula_sum   'Cu6 Ni18 C4'
_cell_volume   1633.43748280
_cell_formula_units_Z   2
loop_
 _symmetry_equiv_pos_site_id
 _symmetry_equiv_pos_as_xyz
  1  'x, y, z'
loop_
 _atom_site_type_symbol
 _atom_site_label
 _atom_site_symmetry_multiplicity
 _atom_site_fract_x
 _atom_site_fract_y
 _atom_site_fract_z
 _atom_site_occupancy
  C  C0  1  0.33333300  0.66666700  0.34145400  1
  C  C1  1  0.66666700  0.33333300  0.65854600  1
  C  C2  1  0.66666700  0.33333300  0.84145400  1
  C  C3  1  0.33333300  0.66666700  0.15854600  1
  Ni  Ni4  1  0.46567900  0.53432100  0.25000000  1
  Ni  Ni5  1  0.46567900  0.93135700  0.25000000  1
  Ni  Ni6  1  0.06864300  0.53432100  0.25000000  1
  Ni  Ni7  1  0.53432100  0.46567900  0.75000000  1
  Ni  Ni8  1  0.53432100  0.06864300  0.75000000  1
  Ni  Ni9  1  0.93135700  0.46567900  0.75000000  1
  Ni  Ni10  1  0.19360200  0.80639800  0.40259000  1
  Ni  Ni11  1  0.19360200  0.38720300  0.40259000  1
  Ni  Ni12  1  0.61279700  0.80639800  0.40259000  1
  Ni  Ni13  1  0.80639800  0.19360200  0.59741000  1
  Ni  Ni14  1  0.80639800  0.61279700  0.59741000  1
  Ni  Ni15  1  0.38720300  0.19360200  0.59741000  1
  Ni  Ni16  1  0.80639800  0.19360200  0.90259000  1
  Ni  Ni17  1  0.80639800  0.61279700  0.90259000  1
  Ni  Ni18  1  0.38720300  0.19360200  0.90259000  1
  Ni  Ni19  1  0.19360200  0.80639800  0.09741000  1
  Ni  Ni20  1  0.19360200  0.38720300  0.09741000  1
  Ni  Ni21  1  0.61279700  0.80639800  0.09741000  1
  Cu  Cu22  1  0.00000000  0.00000000  0.25000000  1
  Cu  Cu23  1  0.00000000  0.00000000  0.75000000  1
  Cu  Cu24  1  0.66666700  0.33333300  0.40837900  1
  Cu  Cu25  1  0.33333300  0.66666700  0.59162100  1
  Cu  Cu26  1  0.33333300  0.66666700  0.90837900  1
  Cu  Cu27  1  0.66666700  0.33333300  0.09162100  1
