# generated using pymatgen
data_CuNiC8
_symmetry_space_group_name_H-M   'P 1'
_cell_length_a   8.37443662
_cell_length_b   8.37352463
_cell_length_c   8.38598223
_cell_angle_alpha   90.00000000
_cell_angle_beta   90.00000000
_cell_angle_gamma   90.00000000
_symmetry_Int_Tables_number   1
_chemical_formula_structural   CuNiC8
_chemical_formula_sum   'Cu4 Ni4 C32'
_cell_volume   588.05485511
_cell_formula_units_Z   4
loop_
 _symmetry_equiv_pos_site_id
 _symmetry_equiv_pos_as_xyz
  1  'x, y, z'
loop_
 _atom_site_type_symbol
 _atom_site_label
 _atom_site_symmetry_multiplicity
 _atom_site_fract_x
 _atom_site_fract_y
 _atom_site_fract_z
 _atom_site_occupancy
  C  C0  1  0.00000000  -0.00000000  0.00000000  1
  C  C1  1  0.50000000  0.50000000  0.50000000  1
  C  C2  1  0.50000000  0.50000000  0.00000000  1
  C  C3  1  0.00000000  0.00000000  0.50000000  1
  Ni  Ni4  1  0.00000000  0.50000000  0.50000000  1
  Ni  Ni5  1  0.50000000  0.00000000  0.50000000  1
  Ni  Ni6  1  0.50000000  -0.00000000  0.00000000  1
  Ni  Ni7  1  0.00000000  0.50000000  -0.00000000  1
  Cu  Cu8  1  0.25000000  0.25000000  0.25000000  1
  Cu  Cu9  1  0.75000000  0.75000000  0.25000000  1
  Cu  Cu10  1  0.75000000  0.25000000  0.75000000  1
  Cu  Cu11  1  0.25000000  0.75000000  0.75000000  1
  C  C12  1  0.75000000  0.75000000  0.75000000  1
  C  C13  1  0.25000000  0.25000000  0.75000000  1
  C  C14  1  0.25000000  0.75000000  0.25000000  1
  C  C15  1  0.75000000  0.25000000  0.25000000  1
  C  C16  1  0.97739584  0.22674966  0.26117452  1
  C  C17  1  0.02260416  0.77325034  0.26117452  1
  C  C18  1  0.02260416  0.22674966  0.73882548  1
  C  C19  1  0.97739584  0.77325034  0.73882548  1
  C  C20  1  0.26319052  0.97647570  0.22083030  1
  C  C21  1  0.26319052  0.02352430  0.77916970  1
  C  C22  1  0.73680948  0.02352430  0.22083030  1
  C  C23  1  0.73680948  0.97647570  0.77916970  1
  C  C24  1  0.23324977  0.27932679  0.97709898  1
  C  C25  1  0.76675023  0.27932679  0.02290102  1
  C  C26  1  0.23324977  0.72067321  0.02290102  1
  C  C27  1  0.76675023  0.72067321  0.97709898  1
  C  C28  1  0.52260416  0.27325034  0.23882548  1
  C  C29  1  0.47739584  0.72674966  0.23882548  1
  C  C30  1  0.47739584  0.27325034  0.76117452  1
  C  C31  1  0.52260416  0.72674966  0.76117452  1
  C  C32  1  0.23680948  0.52352430  0.27916970  1
  C  C33  1  0.23680948  0.47647570  0.72083030  1
  C  C34  1  0.76319052  0.47647570  0.27916970  1
  C  C35  1  0.76319052  0.52352430  0.72083030  1
  C  C36  1  0.26675023  0.22067321  0.52290102  1
  C  C37  1  0.73324977  0.22067321  0.47709898  1
  C  C38  1  0.26675023  0.77932679  0.47709898  1
  C  C39  1  0.73324977  0.77932679  0.52290102  1
