# generated using pymatgen
data_Cu3Ni2C15
_symmetry_space_group_name_H-M   'P 1'
_cell_length_a   10.30157690
_cell_length_b   10.30157806
_cell_length_c   10.30157809
_cell_angle_alpha   111.54451316
_cell_angle_beta   108.44462035
_cell_angle_gamma   108.44462863
_symmetry_Int_Tables_number   1
_chemical_formula_structural   Cu3Ni2C15
_chemical_formula_sum   'Cu12 Ni8 C60'
_cell_volume   840.73849868
_cell_formula_units_Z   4
loop_
 _symmetry_equiv_pos_site_id
 _symmetry_equiv_pos_as_xyz
  1  'x, y, z'
loop_
 _atom_site_type_symbol
 _atom_site_label
 _atom_site_symmetry_multiplicity
 _atom_site_fract_x
 _atom_site_fract_y
 _atom_site_fract_z
 _atom_site_occupancy
  Ni  Ni0  1  0.00000000  0.00000000  0.50000000  1
  Ni  Ni1  1  0.50000000  0.50000000  0.50000000  1
  Ni  Ni2  1  0.00000000  0.00000000  0.00000000  1
  Ni  Ni3  1  0.50000000  0.00000000  0.00000000  1
  Ni  Ni4  1  0.50000000  0.00000000  0.50000000  1
  Ni  Ni5  1  0.00000000  0.50000000  0.50000000  1
  Ni  Ni6  1  0.50000000  0.50000000  0.00000000  1
  Ni  Ni7  1  0.00000000  0.50000000  0.00000000  1
  Cu  Cu8  1  0.37173400  0.12173400  0.25000000  1
  Cu  Cu9  1  0.37173400  0.75000000  0.12173400  1
  Cu  Cu10  1  0.62826600  0.25000000  0.87826600  1
  Cu  Cu11  1  0.12826600  0.37826600  0.75000000  1
  Cu  Cu12  1  0.25000000  0.87500000  0.62500000  1
  Cu  Cu13  1  0.87173400  0.75000000  0.62173400  1
  Cu  Cu14  1  0.87173400  0.62173400  0.25000000  1
  Cu  Cu15  1  0.62826600  0.87826600  0.75000000  1
  Cu  Cu16  1  0.75000000  0.12500000  0.37500000  1
  Cu  Cu17  1  0.75000000  0.62500000  0.87500000  1
  Cu  Cu18  1  0.25000000  0.37500000  0.12500000  1
  Cu  Cu19  1  0.12826600  0.25000000  0.37826600  1
  C  C20  1  0.12564500  0.87564500  0.25000000  1
  C  C21  1  0.87435500  0.12435500  0.75000000  1
  C  C22  1  0.62564500  0.75000000  0.37564500  1
  C  C23  1  0.75000000  0.37500000  0.62500000  1
  C  C24  1  0.25000000  0.62500000  0.37500000  1
  C  C25  1  0.37435500  0.62435500  0.75000000  1
  C  C26  1  0.75000000  0.87500000  0.12500000  1
  C  C27  1  0.37435500  0.25000000  0.62435500  1
  C  C28  1  0.87435500  0.25000000  0.12435500  1
  C  C29  1  0.25000000  0.12500000  0.87500000  1
  C  C30  1  0.62564500  0.37564500  0.25000000  1
  C  C31  1  0.12564500  0.75000000  0.87564500  1
  C  C32  1  0.62161400  0.40692000  0.10336800  1
  C  C33  1  0.80355200  0.51824600  0.39663200  1
  C  C34  1  0.41544000  0.10467000  0.61906000  1
  C  C35  1  0.58456000  0.89533000  0.38094000  1
  C  C36  1  0.37838600  0.28530500  0.48175400  1
  C  C37  1  0.37838600  0.59308000  0.89663200  1
  C  C38  1  0.19644800  0.21469500  0.59308000  1
  C  C39  1  0.89461400  0.02229400  0.30675700  1
  C  C40  1  0.28446300  0.47770600  0.37232000  1
  C  C41  1  0.98561000  0.68923000  0.10467000  1
  C  C42  1  0.48561000  0.38094000  0.29637900  1
  C  C43  1  0.21553700  0.12768000  0.02229400  1
  C  C44  1  0.01439000  0.20362100  0.11906000  1
  C  C45  1  0.08456000  0.88094000  0.39533000  1
  C  C46  1  0.91544000  0.29637900  0.31077000  1
  C  C47  1  0.78446300  0.41214400  0.80675700  1
  C  C48  1  0.87838600  0.39663200  0.09308000  1
  C  C49  1  0.28446300  0.30675700  0.91214400  1
  C  C50  1  0.62161400  0.71469500  0.51824600  1
  C  C51  1  0.30355200  0.89663200  0.01824600  1
  C  C52  1  0.10538600  0.62768000  0.41214400  1
  C  C53  1  0.30355200  0.90692000  0.28530500  1
  C  C54  1  0.12161400  0.01824600  0.21469500  1
  C  C55  1  0.78446300  0.87232000  0.97770600  1
  C  C56  1  0.60538600  0.19324300  0.47770600  1
  C  C57  1  0.41544000  0.81077000  0.79637900  1
  C  C58  1  0.51439000  0.61906000  0.70362100  1
  C  C59  1  0.51439000  0.39533000  0.81077000  1
  C  C60  1  0.69644800  0.09308000  0.71469500  1
  C  C61  1  0.08456000  0.70362100  0.68923000  1
  C  C62  1  0.39461400  0.80675700  0.52229400  1
  C  C63  1  0.87838600  0.98175400  0.78530500  1
  C  C64  1  0.69644800  0.10336800  0.98175400  1
  C  C65  1  0.80355200  0.78530500  0.40692000  1
  C  C66  1  0.71553700  0.52229400  0.62768000  1
  C  C67  1  0.19644800  0.48175400  0.60336800  1
  C  C68  1  0.48561000  0.60467000  0.18923000  1
  C  C69  1  0.89461400  0.37232000  0.58785600  1
  C  C70  1  0.58456000  0.18923000  0.20362100  1
  C  C71  1  0.21553700  0.58785600  0.19324300  1
  C  C72  1  0.98561000  0.79637900  0.88094000  1
  C  C73  1  0.91544000  0.11906000  0.60467000  1
  C  C74  1  0.71553700  0.69324300  0.08785600  1
  C  C75  1  0.12161400  0.60336800  0.90692000  1
  C  C76  1  0.60538600  0.91214400  0.12768000  1
  C  C77  1  0.01439000  0.31077000  0.89533000  1
  C  C78  1  0.39461400  0.08785600  0.87232000  1
  C  C79  1  0.10538600  0.97770600  0.69324300  1
