# generated using pymatgen
data_Cu6Ni4C21
_symmetry_space_group_name_H-M   'P 1'
_cell_length_a   18.58328400
_cell_length_b   12.72646500
_cell_length_c   7.71192900
_cell_angle_alpha   90.00000000
_cell_angle_beta   90.00000000
_cell_angle_gamma   90.00000000
_symmetry_Int_Tables_number   1
_chemical_formula_structural   Cu6Ni4C21
_chemical_formula_sum   'Cu24 Ni16 C84'
_cell_volume   1823.86745596
_cell_formula_units_Z   4
loop_
 _symmetry_equiv_pos_site_id
 _symmetry_equiv_pos_as_xyz
  1  'x, y, z'
loop_
 _atom_site_type_symbol
 _atom_site_label
 _atom_site_symmetry_multiplicity
 _atom_site_fract_x
 _atom_site_fract_y
 _atom_site_fract_z
 _atom_site_occupancy
  C  C0  1  0.68021000  0.53604000  0.08663200  1
  C  C1  1  0.31979000  0.46396000  0.58663200  1
  C  C2  1  0.81979000  0.03604000  0.58663200  1
  C  C3  1  0.18021000  0.96396000  0.08663200  1
  C  C4  1  0.95952300  0.65370700  0.92456800  1
  C  C5  1  0.04047700  0.34629300  0.42456800  1
  C  C6  1  0.54047700  0.15370700  0.42456800  1
  C  C7  1  0.45952300  0.84629300  0.92456800  1
  C  C8  1  0.91680000  0.58518900  0.43720100  1
  C  C9  1  0.08320000  0.41481100  0.93720100  1
  C  C10  1  0.58320000  0.08518900  0.93720100  1
  C  C11  1  0.41680000  0.91481100  0.43720100  1
  C  C12  1  0.77076600  0.40048400  0.28863100  1
  C  C13  1  0.22923400  0.59951600  0.78863100  1
  C  C14  1  0.72923400  0.90048400  0.78863100  1
  C  C15  1  0.27076600  0.09951600  0.28863100  1
  C  C16  1  0.74414600  0.49799600  0.41206700  1
  C  C17  1  0.25585400  0.50200400  0.91206700  1
  C  C18  1  0.75585400  0.99799600  0.91206700  1
  C  C19  1  0.24414600  0.00200400  0.41206700  1
  C  C20  1  0.68853800  0.39857900  0.36936800  1
  C  C21  1  0.31146200  0.60142100  0.86936800  1
  C  C22  1  0.81146200  0.89857900  0.86936800  1
  C  C23  1  0.18853800  0.10142100  0.36936800  1
  C  C24  1  0.71515400  0.74843200  0.10124500  1
  C  C25  1  0.28484600  0.25156800  0.60124500  1
  C  C26  1  0.78484600  0.24843200  0.60124500  1
  C  C27  1  0.21515400  0.75156800  0.10124500  1
  C  C28  1  0.77267600  0.68716200  0.23011500  1
  C  C29  1  0.22732400  0.31283800  0.73011500  1
  C  C30  1  0.72732400  0.18716200  0.73011500  1
  C  C31  1  0.27267600  0.81283800  0.23011500  1
  C  C32  1  0.78693300  0.69183400  0.01796800  1
  C  C33  1  0.21306700  0.30816600  0.51796800  1
  C  C34  1  0.71306700  0.19183400  0.51796800  1
  C  C35  1  0.28693300  0.80816600  0.01796800  1
  C  C36  1  0.59097000  0.55712500  0.37797500  1
  C  C37  1  0.40903000  0.44287500  0.87797500  1
  C  C38  1  0.90903000  0.05712500  0.87797500  1
  C  C39  1  0.09097000  0.94287500  0.37797500  1
  C  C40  1  0.63055700  0.67213600  0.36184500  1
  C  C41  1  0.36944300  0.32786400  0.86184500  1
  C  C42  1  0.86944300  0.17213600  0.86184500  1
  C  C43  1  0.13055700  0.82786400  0.36184500  1
  C  C44  1  0.56077200  0.64409800  0.23714300  1
  C  C45  1  0.43922800  0.35590200  0.73714300  1
  C  C46  1  0.93922800  0.14409800  0.73714300  1
  C  C47  1  0.06077200  0.85590200  0.23714300  1
  C  C48  1  0.74238300  0.37543100  0.88928100  1
  C  C49  1  0.25761700  0.62456900  0.38928100  1
  C  C50  1  0.75761700  0.87543100  0.38928100  1
  C  C51  1  0.24238300  0.12456900  0.88928100  1
  C  C52  1  0.77151400  0.48758900  0.80157200  1
  C  C53  1  0.22848600  0.51241100  0.30157200  1
  C  C54  1  0.72848600  0.98758900  0.30157200  1
  C  C55  1  0.27151400  0.01241100  0.80157200  1
  C  C56  1  0.81067000  0.43909000  0.97364200  1
  C  C57  1  0.18933000  0.56091000  0.47364200  1
  C  C58  1  0.68933000  0.93909000  0.47364200  1
  C  C59  1  0.31067000  0.06091000  0.97364200  1
  C  C60  1  0.57086600  0.39040500  0.16396800  1
  C  C61  1  0.42913400  0.60959500  0.66396800  1
  C  C62  1  0.92913400  0.89040500  0.66396800  1
  C  C63  1  0.07086600  0.10959500  0.16396800  1
  C  C64  1  0.54680700  0.45630800  0.98947000  1
  C  C65  1  0.45319300  0.54369200  0.48947000  1
  C  C66  1  0.95319300  0.95630800  0.48947000  1
  C  C67  1  0.04680700  0.04369200  0.98947000  1
  C  C68  1  0.60231100  0.35577000  0.97449300  1
  C  C69  1  0.39768900  0.64423000  0.47449300  1
  C  C70  1  0.89768900  0.85577000  0.47449300  1
  C  C71  1  0.10231100  0.14423000  0.97449300  1
  C  C72  1  0.57773000  0.62963100  0.85935900  1
  C  C73  1  0.42227000  0.37036900  0.35935900  1
  C  C74  1  0.92227000  0.12963100  0.35935900  1
  C  C75  1  0.07773000  0.87036900  0.85935900  1
  C  C76  1  0.65567700  0.68052300  0.80211600  1
  C  C77  1  0.34432300  0.31947700  0.30211600  1
  C  C78  1  0.84432300  0.18052300  0.30211600  1
  C  C79  1  0.15567700  0.81947700  0.80211600  1
  C  C80  1  0.63442700  0.56239100  0.73651100  1
  C  C81  1  0.36557300  0.43760900  0.23651100  1
  C  C82  1  0.86557300  0.06239100  0.23651100  1
  C  C83  1  0.13442700  0.93760900  0.73651100  1
  Ni  Ni84  1  0.08354300  0.60465800  0.07939700  1
  Ni  Ni85  1  0.91645700  0.39534200  0.57939700  1
  Ni  Ni86  1  0.41645700  0.10465800  0.57939700  1
  Ni  Ni87  1  0.58354300  0.89534200  0.07939700  1
  Ni  Ni88  1  0.02239100  0.66959700  0.61807400  1
  Ni  Ni89  1  0.97760900  0.33040300  0.11807400  1
  Ni  Ni90  1  0.47760900  0.16959700  0.11807400  1
  Ni  Ni91  1  0.52239100  0.83040300  0.61807400  1
  Ni  Ni92  1  0.94696900  0.84346300  0.01981100  1
  Ni  Ni93  1  0.05303100  0.15653700  0.51981100  1
  Ni  Ni94  1  0.55303100  0.34346300  0.51981100  1
  Ni  Ni95  1  0.44696900  0.65653700  0.01981100  1
  Ni  Ni96  1  0.80541600  0.65755900  0.58623700  1
  Ni  Ni97  1  0.19458400  0.34244100  0.08623700  1
  Ni  Ni98  1  0.69458400  0.15755900  0.08623700  1
  Ni  Ni99  1  0.30541600  0.84244100  0.58623700  1
  Cu  Cu100  1  0.72729100  0.44668500  0.31658400  1
  Cu  Cu101  1  0.27270900  0.55331500  0.81658400  1
  Cu  Cu102  1  0.77270900  0.94668500  0.81658400  1
  Cu  Cu103  1  0.22729100  0.05331500  0.31658400  1
  Cu  Cu104  1  0.74787800  0.68372000  0.11080600  1
  Cu  Cu105  1  0.25212200  0.31628000  0.61080600  1
  Cu  Cu106  1  0.75212200  0.18372000  0.61080600  1
  Cu  Cu107  1  0.24787800  0.81628000  0.11080600  1
  Cu  Cu108  1  0.60702300  0.61340600  0.29116600  1
  Cu  Cu109  1  0.39297700  0.38659400  0.79116600  1
  Cu  Cu110  1  0.89297700  0.11340600  0.79116600  1
  Cu  Cu111  1  0.10702300  0.88659400  0.29116600  1
  Cu  Cu112  1  0.76141800  0.44930600  0.91662100  1
  Cu  Cu113  1  0.23858200  0.55069400  0.41662100  1
  Cu  Cu114  1  0.73858200  0.94930600  0.41662100  1
  Cu  Cu115  1  0.26141800  0.05069400  0.91662100  1
  Cu  Cu116  1  0.58962100  0.42009800  0.04834000  1
  Cu  Cu117  1  0.41037900  0.57990200  0.54834000  1
  Cu  Cu118  1  0.91037900  0.92009800  0.54834000  1
  Cu  Cu119  1  0.08962100  0.07990200  0.04834000  1
  Cu  Cu120  1  0.63135000  0.61225500  0.84033500  1
  Cu  Cu121  1  0.36865000  0.38774500  0.34033500  1
  Cu  Cu122  1  0.86865000  0.11225500  0.34033500  1
  Cu  Cu123  1  0.13135000  0.88774500  0.84033500  1
