# generated using pymatgen
data_Cu2NiC8
_symmetry_space_group_name_H-M   'P 1'
_cell_length_a   7.34834657
_cell_length_b   7.34834657
_cell_length_c   7.34834657
_cell_angle_alpha   120.57152525
_cell_angle_beta   116.91942801
_cell_angle_gamma   92.21499578
_symmetry_Int_Tables_number   1
_chemical_formula_structural   Cu2NiC8
_chemical_formula_sum   'Cu4 Ni2 C16'
_cell_volume   285.32142908
_cell_formula_units_Z   2
loop_
 _symmetry_equiv_pos_site_id
 _symmetry_equiv_pos_as_xyz
  1  'x, y, z'
loop_
 _atom_site_type_symbol
 _atom_site_label
 _atom_site_symmetry_multiplicity
 _atom_site_fract_x
 _atom_site_fract_y
 _atom_site_fract_z
 _atom_site_occupancy
  Ni  Ni0  1  0.50000000  0.00000000  0.50000000  1
  Ni  Ni1  1  0.00000000  0.50000000  0.50000000  1
  C  C2  1  0.00000000  0.00000000  0.50000000  1
  C  C3  1  0.00000000  0.50000000  0.00000000  1
  Cu  Cu4  1  0.00000000  0.00000000  0.00000000  1
  Cu  Cu5  1  0.50000000  0.50000000  0.00000000  1
  Cu  Cu6  1  0.50000000  0.00000000  0.00000000  1
  Cu  Cu7  1  0.50000000  0.50000000  0.50000000  1
  C  C8  1  0.37301300  0.08416700  0.28884600  1
  C  C9  1  0.70467900  0.41583300  0.28884600  1
  C  C10  1  0.68404200  0.29120700  0.75096700  1
  C  C11  1  0.95975900  0.20879300  0.39283500  1
  C  C12  1  0.95975900  0.56692500  0.75096700  1
  C  C13  1  0.68404200  0.93307500  0.39283500  1
  C  C14  1  0.31595800  0.06692500  0.60716500  1
  C  C15  1  0.04024100  0.43307500  0.24903300  1
  C  C16  1  0.04024100  0.79120700  0.60716500  1
  C  C17  1  0.31595800  0.70879300  0.24903300  1
  C  C18  1  0.88993300  0.75000000  0.13993300  1
  C  C19  1  0.62698700  0.91583300  0.71115400  1
  C  C20  1  0.29532100  0.58416700  0.71115400  1
  C  C21  1  0.11006700  0.25000000  0.86006700  1
