# generated using pymatgen
data_CuNiC8
_symmetry_space_group_name_H-M   'P 1'
_cell_length_a   8.53047434
_cell_length_b   8.47373640
_cell_length_c   8.41908551
_cell_angle_alpha   90.00000000
_cell_angle_beta   90.00000000
_cell_angle_gamma   90.00000000
_symmetry_Int_Tables_number   1
_chemical_formula_structural   CuNiC8
_chemical_formula_sum   'Cu4 Ni4 C32'
_cell_volume   608.57351968
_cell_formula_units_Z   4
loop_
 _symmetry_equiv_pos_site_id
 _symmetry_equiv_pos_as_xyz
  1  'x, y, z'
loop_
 _atom_site_type_symbol
 _atom_site_label
 _atom_site_symmetry_multiplicity
 _atom_site_fract_x
 _atom_site_fract_y
 _atom_site_fract_z
 _atom_site_occupancy
  Ni  Ni0  1  0.00000000  0.00000000  -0.00000000  1
  Ni  Ni1  1  0.50000000  0.50000000  0.50000000  1
  Ni  Ni2  1  0.50000000  0.50000000  -0.00000000  1
  Ni  Ni3  1  0.00000000  0.00000000  0.50000000  1
  Cu  Cu4  1  -0.00000000  0.50000000  0.50000000  1
  Cu  Cu5  1  0.50000000  -0.00000000  0.50000000  1
  Cu  Cu6  1  0.50000000  -0.00000000  -0.00000000  1
  Cu  Cu7  1  -0.00000000  0.50000000  -0.00000000  1
  C  C8  1  0.25000000  0.25000000  0.25000000  1
  C  C9  1  0.75000000  0.75000000  0.25000000  1
  C  C10  1  0.75000000  0.25000000  0.75000000  1
  C  C11  1  0.25000000  0.75000000  0.75000000  1
  C  C12  1  0.75000000  0.75000000  0.75000000  1
  C  C13  1  0.25000000  0.25000000  0.75000000  1
  C  C14  1  0.25000000  0.75000000  0.25000000  1
  C  C15  1  0.75000000  0.25000000  0.25000000  1
  C  C16  1  0.99088309  0.21783377  0.28144256  1
  C  C17  1  0.00911691  0.78216623  0.28144256  1
  C  C18  1  0.00911691  0.21783377  0.71855744  1
  C  C19  1  0.99088309  0.78216623  0.71855744  1
  C  C20  1  0.28682492  0.98972652  0.19406668  1
  C  C21  1  0.28682492  0.01027348  0.80593332  1
  C  C22  1  0.71317508  0.01027348  0.19406668  1
  C  C23  1  0.71317508  0.98972652  0.80593332  1
  C  C24  1  0.20321516  0.30193888  0.98976679  1
  C  C25  1  0.79678484  0.30193888  0.01023321  1
  C  C26  1  0.20321516  0.69806112  0.01023321  1
  C  C27  1  0.79678484  0.69806112  0.98976679  1
  C  C28  1  0.50911691  0.28216623  0.21855744  1
  C  C29  1  0.49088309  0.71783377  0.21855744  1
  C  C30  1  0.49088309  0.28216623  0.78144256  1
  C  C31  1  0.50911691  0.71783377  0.78144256  1
  C  C32  1  0.21317508  0.51027348  0.30593332  1
  C  C33  1  0.21317508  0.48972652  0.69406668  1
  C  C34  1  0.78682492  0.48972652  0.30593332  1
  C  C35  1  0.78682492  0.51027348  0.69406668  1
  C  C36  1  0.29678484  0.19806112  0.51023321  1
  C  C37  1  0.70321516  0.19806112  0.48976679  1
  C  C38  1  0.29678484  0.80193888  0.48976679  1
  C  C39  1  0.70321516  0.80193888  0.51023321  1
