# generated using pymatgen
data_CuNiC13
_symmetry_space_group_name_H-M   'P 1'
_cell_length_a   5.88381726
_cell_length_b   5.88381726
_cell_length_c   14.21346200
_cell_angle_alpha   90.00000000
_cell_angle_beta   90.00000000
_cell_angle_gamma   119.99999163
_symmetry_Int_Tables_number   1
_chemical_formula_structural   CuNiC13
_chemical_formula_sum   'Cu2 Ni2 C26'
_cell_volume   426.13665477
_cell_formula_units_Z   2
loop_
 _symmetry_equiv_pos_site_id
 _symmetry_equiv_pos_as_xyz
  1  'x, y, z'
loop_
 _atom_site_type_symbol
 _atom_site_label
 _atom_site_symmetry_multiplicity
 _atom_site_fract_x
 _atom_site_fract_y
 _atom_site_fract_z
 _atom_site_occupancy
  C  C0  1  0.00000000  0.00000000  0.74913300  1
  C  C1  1  0.00000000  0.00000000  0.24913300  1
  C  C2  1  0.66666700  0.33333300  0.41560600  1
  C  C3  1  0.33333300  0.66666700  0.58708900  1
  C  C4  1  0.33333300  0.66666700  0.91560600  1
  C  C5  1  0.66666700  0.33333300  0.08708900  1
  C  C6  1  0.00000000  0.00000000  0.50125300  1
  C  C7  1  0.00000000  0.00000000  0.00125300  1
  Ni  Ni8  1  0.66666700  0.33333300  0.66109000  1
  Ni  Ni9  1  0.33333300  0.66666700  0.16109000  1
  Cu  Cu10  1  0.33333300  0.66666700  0.34226800  1
  Cu  Cu11  1  0.66666700  0.33333300  0.84226800  1
  C  C12  1  0.50883500  0.01767000  0.74884800  1
  C  C13  1  0.50883500  0.49116500  0.74884800  1
  C  C14  1  0.98233000  0.49116500  0.74884800  1
  C  C15  1  0.49116500  0.98233000  0.24884800  1
  C  C16  1  0.49116500  0.50883500  0.24884800  1
  C  C17  1  0.01767000  0.50883500  0.24884800  1
  C  C18  1  0.82378500  0.64757000  0.91354400  1
  C  C19  1  0.82378500  0.17621500  0.91354400  1
  C  C20  1  0.35243000  0.17621500  0.91354400  1
  C  C21  1  0.17630900  0.35261700  0.08547900  1
  C  C22  1  0.17630900  0.82369100  0.08547900  1
  C  C23  1  0.64738300  0.82369100  0.08547900  1
  C  C24  1  0.17621500  0.35243000  0.41354400  1
  C  C25  1  0.17621500  0.82378500  0.41354400  1
  C  C26  1  0.64757000  0.82378500  0.41354400  1
  C  C27  1  0.82369100  0.64738300  0.58547900  1
  C  C28  1  0.82369100  0.17630900  0.58547900  1
  C  C29  1  0.35261700  0.17630900  0.58547900  1
