# generated using pymatgen
data_CuNiC12
_symmetry_space_group_name_H-M   'P 1'
_cell_length_a   7.06155581
_cell_length_b   7.06155581
_cell_length_c   7.06155581
_cell_angle_alpha   60.00000000
_cell_angle_beta   60.00000000
_cell_angle_gamma   60.00000000
_symmetry_Int_Tables_number   1
_chemical_formula_structural   CuNiC12
_chemical_formula_sum   'Cu1 Ni1 C12'
_cell_volume   248.99245656
_cell_formula_units_Z   1
loop_
 _symmetry_equiv_pos_site_id
 _symmetry_equiv_pos_as_xyz
  1  'x, y, z'
loop_
 _atom_site_type_symbol
 _atom_site_label
 _atom_site_symmetry_multiplicity
 _atom_site_fract_x
 _atom_site_fract_y
 _atom_site_fract_z
 _atom_site_occupancy
  C  C0  1  0.63636500  0.12121200  0.12121200  1
  C  C1  1  0.12121200  0.63636500  0.12121200  1
  C  C2  1  0.12121200  0.12121200  0.63636500  1
  C  C3  1  0.12121200  0.12121200  0.12121200  1
  Ni  Ni4  1  0.50000000  0.50000000  0.50000000  1
  Cu  Cu5  1  0.75000000  0.75000000  0.75000000  1
  C  C6  1  0.34886400  0.88371200  0.88371200  1
  C  C7  1  0.88371200  0.34886400  0.88371200  1
  C  C8  1  0.88371200  0.88371200  0.34886400  1
  C  C9  1  0.88371200  0.88371200  0.88371200  1
  C  C10  1  0.90343000  0.36552300  0.36552300  1
  C  C11  1  0.36552300  0.90343000  0.36552300  1
  C  C12  1  0.36552300  0.36552300  0.90343000  1
  C  C13  1  0.36552300  0.36552300  0.36552300  1
