# generated using pymatgen
data_CuNiC8
_symmetry_space_group_name_H-M   'P 1'
_cell_length_a   8.34232967
_cell_length_b   8.41245659
_cell_length_c   8.42961384
_cell_angle_alpha   90.00000000
_cell_angle_beta   90.00000000
_cell_angle_gamma   90.00000000
_symmetry_Int_Tables_number   1
_chemical_formula_structural   CuNiC8
_chemical_formula_sum   'Cu4 Ni4 C32'
_cell_volume   591.58596823
_cell_formula_units_Z   4
loop_
 _symmetry_equiv_pos_site_id
 _symmetry_equiv_pos_as_xyz
  1  'x, y, z'
loop_
 _atom_site_type_symbol
 _atom_site_label
 _atom_site_symmetry_multiplicity
 _atom_site_fract_x
 _atom_site_fract_y
 _atom_site_fract_z
 _atom_site_occupancy
  Ni  Ni0  1  0.00000000  -0.00000000  0.00000000  1
  Ni  Ni1  1  0.50000000  0.50000000  0.50000000  1
  Ni  Ni2  1  0.50000000  0.50000000  0.00000000  1
  Ni  Ni3  1  0.00000000  -0.00000000  0.50000000  1
  C  C4  1  0.00000000  0.50000000  0.50000000  1
  C  C5  1  0.50000000  -0.00000000  0.50000000  1
  C  C6  1  0.50000000  -0.00000000  -0.00000000  1
  C  C7  1  0.00000000  0.50000000  0.00000000  1
  Cu  Cu8  1  0.25000000  0.25000000  0.25000000  1
  Cu  Cu9  1  0.75000000  0.75000000  0.25000000  1
  Cu  Cu10  1  0.75000000  0.25000000  0.75000000  1
  Cu  Cu11  1  0.25000000  0.75000000  0.75000000  1
  C  C12  1  0.75000000  0.75000000  0.75000000  1
  C  C13  1  0.25000000  0.25000000  0.75000000  1
  C  C14  1  0.25000000  0.75000000  0.25000000  1
  C  C15  1  0.75000000  0.25000000  0.25000000  1
  C  C16  1  0.97279756  0.22365557  0.26978092  1
  C  C17  1  0.02720244  0.77634443  0.26978092  1
  C  C18  1  0.02720244  0.22365557  0.73021908  1
  C  C19  1  0.97279756  0.77634443  0.73021908  1
  C  C20  1  0.26845946  0.97144584  0.22407599  1
  C  C21  1  0.26845946  0.02855416  0.77592401  1
  C  C22  1  0.73154054  0.02855416  0.22407599  1
  C  C23  1  0.73154054  0.97144584  0.77592401  1
  C  C24  1  0.22506227  0.27422186  0.97177992  1
  C  C25  1  0.77493773  0.27422186  0.02822008  1
  C  C26  1  0.22506227  0.72577814  0.02822008  1
  C  C27  1  0.77493773  0.72577814  0.97177992  1
  C  C28  1  0.52720244  0.27634443  0.23021908  1
  C  C29  1  0.47279756  0.72365557  0.23021908  1
  C  C30  1  0.47279756  0.27634443  0.76978092  1
  C  C31  1  0.52720244  0.72365557  0.76978092  1
  C  C32  1  0.23154054  0.52855416  0.27592401  1
  C  C33  1  0.23154054  0.47144584  0.72407599  1
  C  C34  1  0.76845946  0.47144584  0.27592401  1
  C  C35  1  0.76845946  0.52855416  0.72407599  1
  C  C36  1  0.27493773  0.22577814  0.52822008  1
  C  C37  1  0.72506227  0.22577814  0.47177992  1
  C  C38  1  0.27493773  0.77422186  0.47177992  1
  C  C39  1  0.72506227  0.77422186  0.52822008  1
