# generated using pymatgen
data_Cu4NiC2
_symmetry_space_group_name_H-M   'P 1'
_cell_length_a   5.11347658
_cell_length_b   8.92441018
_cell_length_c   6.40140535
_cell_angle_alpha   63.05941641
_cell_angle_beta   84.00658337
_cell_angle_gamma   106.89235214
_symmetry_Int_Tables_number   1
_chemical_formula_structural   Cu4NiC2
_chemical_formula_sum   'Cu8 Ni2 C4'
_cell_volume   239.45526875
_cell_formula_units_Z   2
loop_
 _symmetry_equiv_pos_site_id
 _symmetry_equiv_pos_as_xyz
  1  'x, y, z'
loop_
 _atom_site_type_symbol
 _atom_site_label
 _atom_site_symmetry_multiplicity
 _atom_site_fract_x
 _atom_site_fract_y
 _atom_site_fract_z
 _atom_site_occupancy
  C  C0  1  0.07120800  0.92718200  0.51656000  1
  C  C1  1  0.43056700  0.67447700  0.78562300  1
  C  C2  1  0.74826000  0.97788000  0.94808900  1
  C  C3  1  0.72562800  0.25347600  0.36127400  1
  Ni  Ni4  1  0.23165800  0.63265300  0.33420300  1
  Ni  Ni5  1  0.76545000  0.38190200  0.79252000  1
  Cu  Cu6  1  0.12082900  0.77292400  0.30125700  1
  Cu  Cu7  1  0.12901100  0.53308600  0.21065000  1
  Cu  Cu8  1  0.53568000  0.68908000  0.30649700  1
  Cu  Cu9  1  0.60090900  0.34252400  0.64051700  1
  Cu  Cu10  1  0.72420900  0.51434500  0.85299200  1
  Cu  Cu11  1  0.76574700  0.22150200  0.00647800  1
  Cu  Cu12  1  0.67510300  0.96821400  0.61958100  1
  Cu  Cu13  1  0.10974000  0.47675500  0.63555800  1
