# generated using pymatgen
data_Cu10Ni4C33
_symmetry_space_group_name_H-M   'P 1'
_cell_length_a   6.71386500
_cell_length_b   17.83093500
_cell_length_c   10.06174822
_cell_angle_alpha   90.00000000
_cell_angle_beta   126.84407119
_cell_angle_gamma   90.00000000
_symmetry_Int_Tables_number   1
_chemical_formula_structural   Cu10Ni4C33
_chemical_formula_sum   'Cu20 Ni8 C66'
_cell_volume   963.95532284
_cell_formula_units_Z   2
loop_
 _symmetry_equiv_pos_site_id
 _symmetry_equiv_pos_as_xyz
  1  'x, y, z'
loop_
 _atom_site_type_symbol
 _atom_site_label
 _atom_site_symmetry_multiplicity
 _atom_site_fract_x
 _atom_site_fract_y
 _atom_site_fract_z
 _atom_site_occupancy
  C  C0  1  0.00000000  0.50000000  0.50000000  1
  C  C1  1  0.00000000  0.00000000  0.00000000  1
  C  C2  1  0.89419800  0.30725600  0.84060500  1
  C  C3  1  0.89419800  0.19274400  0.34060500  1
  C  C4  1  0.10580200  0.69274400  0.15939500  1
  C  C5  1  0.10580200  0.80725600  0.65939500  1
  C  C6  1  0.91631600  0.28142000  0.68385900  1
  C  C7  1  0.91631600  0.21858000  0.18385900  1
  C  C8  1  0.08368400  0.71858000  0.31614100  1
  C  C9  1  0.08368400  0.78142000  0.81614100  1
  C  C10  1  0.92474700  0.50040500  0.76858500  1
  C  C11  1  0.92474700  0.99959500  0.26858500  1
  C  C12  1  0.07525300  0.49959500  0.23141500  1
  C  C13  1  0.07525300  0.00040500  0.73141500  1
  C  C14  1  0.87461300  0.43563600  0.87908200  1
  C  C15  1  0.87461300  0.06436400  0.37908200  1
  C  C16  1  0.12538700  0.56436400  0.12091800  1
  C  C17  1  0.12538700  0.93563600  0.62091800  1
  C  C18  1  0.42304500  0.39873200  0.32490500  1
  C  C19  1  0.42304500  0.10126800  0.82490500  1
  C  C20  1  0.57695500  0.60126800  0.67509500  1
  C  C21  1  0.57695500  0.89873200  0.17509500  1
  C  C22  1  0.47865100  0.30765600  0.39709000  1
  C  C23  1  0.47865100  0.19234400  0.89709000  1
  C  C24  1  0.52134900  0.69234400  0.60291000  1
  C  C25  1  0.52134900  0.80765600  0.10291000  1
  C  C26  1  0.17463300  0.33687200  0.58685900  1
  C  C27  1  0.17463300  0.16312800  0.08685900  1
  C  C28  1  0.82536700  0.66312800  0.41314100  1
  C  C29  1  0.82536700  0.83687200  0.91314100  1
  C  C30  1  0.35498800  0.27207000  0.56535900  1
  C  C31  1  0.35498800  0.22793000  0.06535900  1
  C  C32  1  0.64501200  0.72793000  0.43464100  1
  C  C33  1  0.64501200  0.77207000  0.93464100  1
  C  C34  1  0.36421700  0.57430000  0.79068700  1
  C  C35  1  0.36421700  0.92570000  0.29068700  1
  C  C36  1  0.63578300  0.42570000  0.20931300  1
  C  C37  1  0.63578300  0.07430000  0.70931300  1
  C  C38  1  0.44619800  0.49051500  0.80154500  1
  C  C39  1  0.44619800  0.00948500  0.30154500  1
  C  C40  1  0.55380200  0.50948500  0.19845500  1
  C  C41  1  0.55380200  0.99051500  0.69845500  1
  Ni  Ni42  1  0.96405400  0.39194300  0.73284200  1
  Ni  Ni43  1  0.96405400  0.10805700  0.23284200  1
  Ni  Ni44  1  0.03594600  0.60805700  0.26715800  1
  Ni  Ni45  1  0.03594600  0.89194300  0.76715800  1
  Ni  Ni46  1  0.26679800  0.37271900  0.43963800  1
  Ni  Ni47  1  0.26679800  0.12728100  0.93963800  1
  Ni  Ni48  1  0.73320200  0.62728100  0.56036200  1
  Ni  Ni49  1  0.73320200  0.87271900  0.06036200  1
  Cu  Cu50  1  0.95492400  0.31973000  0.77138900  1
  Cu  Cu51  1  0.95492400  0.18027000  0.27138900  1
  Cu  Cu52  1  0.04507600  0.68027000  0.22861100  1
  Cu  Cu53  1  0.04507600  0.81973000  0.72861100  1
  Cu  Cu54  1  0.94037100  0.44726500  0.81247100  1
  Cu  Cu55  1  0.94037100  0.05273500  0.31247100  1
  Cu  Cu56  1  0.05962900  0.55273500  0.18752900  1
  Cu  Cu57  1  0.05962900  0.94726500  0.68752900  1
  Cu  Cu58  1  0.37241400  0.35468300  0.36351400  1
  Cu  Cu59  1  0.37241400  0.14531700  0.86351400  1
  Cu  Cu60  1  0.62758600  0.64531700  0.63648600  1
  Cu  Cu61  1  0.62758600  0.85468300  0.13648600  1
  Cu  Cu62  1  0.26752100  0.32217700  0.53887400  1
  Cu  Cu63  1  0.26752100  0.17782300  0.03887400  1
  Cu  Cu64  1  0.73247900  0.67782300  0.46112600  1
  Cu  Cu65  1  0.73247900  0.82217700  0.96112600  1
  Cu  Cu66  1  0.67774400  0.15322900  0.51740400  1
  Cu  Cu67  1  0.67774400  0.34677100  0.01740400  1
  Cu  Cu68  1  0.32225600  0.84677100  0.48259600  1
  Cu  Cu69  1  0.32225600  0.65322900  0.98259600  1
  C  C70  1  0.00520400  0.40443100  0.62577400  1
  C  C71  1  0.00520400  0.09556900  0.12577400  1
  C  C72  1  0.99479600  0.59556900  0.37422600  1
  C  C73  1  0.99479600  0.90443100  0.87422600  1
  C  C74  1  0.16333800  0.43672300  0.41114800  1
  C  C75  1  0.16333800  0.06327700  0.91114800  1
  C  C76  1  0.83666200  0.56327700  0.58885200  1
  C  C77  1  0.83666200  0.93672300  0.08885200  1
  C  C78  1  0.72776700  0.21100900  0.46808400  1
  C  C79  1  0.72776700  0.28899100  0.96808400  1
  C  C80  1  0.27223300  0.78899100  0.53191600  1
  C  C81  1  0.27223300  0.71100900  0.03191600  1
  C  C82  1  0.60909100  0.16110300  0.61003200  1
  C  C83  1  0.60909100  0.33889700  0.11003200  1
  C  C84  1  0.39090900  0.83889700  0.38996800  1
  C  C85  1  0.39090900  0.66110300  0.88996800  1
  C  C86  1  0.69821000  0.08817600  0.47623500  1
  C  C87  1  0.69821000  0.41182400  0.97623500  1
  C  C88  1  0.30179000  0.91182400  0.52376500  1
  C  C89  1  0.30179000  0.58817600  0.02376500  1
  C  C90  1  0.37210300  0.53355800  0.72590100  1
  C  C91  1  0.37210300  0.96644200  0.22590100  1
  C  C92  1  0.62789700  0.46644200  0.27409900  1
  C  C93  1  0.62789700  0.03355800  0.77409900  1
