# generated using pymatgen
data_Cu7Ni
_symmetry_space_group_name_H-M   'P 1'
_cell_length_a   5.08882200
_cell_length_b   9.60727058
_cell_length_c   15.56123287
_cell_angle_alpha   90.21616326
_cell_angle_beta   90.14777180
_cell_angle_gamma   90.13728666
_symmetry_Int_Tables_number   1
_chemical_formula_structural   Cu7Ni
_chemical_formula_sum   'Cu21 Ni3'
_cell_volume   760.77370263
_cell_formula_units_Z   3
loop_
 _symmetry_equiv_pos_site_id
 _symmetry_equiv_pos_as_xyz
  1  'x, y, z'
loop_
 _atom_site_type_symbol
 _atom_site_label
 _atom_site_symmetry_multiplicity
 _atom_site_fract_x
 _atom_site_fract_y
 _atom_site_fract_z
 _atom_site_occupancy
  Ni  Ni0  1  0.48884000  0.18038100  0.38699500  1
  Ni  Ni1  1  0.51097300  0.81953000  0.38707500  1
  Ni  Ni2  1  0.98951500  0.31921600  0.11348100  1
  Cu  Cu3  1  0.72088800  0.22767100  0.50599500  1
  Cu  Cu4  1  0.27944700  0.77215300  0.50563300  1
  Cu  Cu5  1  0.22096100  0.27319500  0.99470500  1
  Cu  Cu6  1  0.78806700  0.73004900  0.99934200  1
  Cu  Cu7  1  0.27016500  0.37585900  0.35627200  1
  Cu  Cu8  1  0.73071500  0.62436500  0.35590200  1
  Cu  Cu9  1  0.77041000  0.12298600  0.14299900  1
  Cu  Cu10  1  0.22141700  0.86945700  0.14001300  1
  Cu  Cu11  1  0.72039700  0.63018600  0.64065100  1
  Cu  Cu12  1  0.27944700  0.36974400  0.64033700  1
  Cu  Cu13  1  0.22043400  0.87031100  0.86035700  1
  Cu  Cu14  1  0.77926800  0.12936600  0.85944400  1
  Cu  Cu15  1  0.01101000  0.69145500  0.10872900  1
  Cu  Cu16  1  0.50700500  0.80861100  0.61340500  1
  Cu  Cu17  1  0.49349600  0.19138200  0.61327600  1
  Cu  Cu18  1  0.00981600  0.69189700  0.89015800  1
  Cu  Cu19  1  0.99371500  0.30835300  0.88688100  1
  Cu  Cu20  1  0.49949900  0.49957400  0.27798800  1
  Cu  Cu21  1  0.99639800  0.99542400  0.21992800  1
  Cu  Cu22  1  0.50017500  0.50040400  0.71889200  1
  Cu  Cu23  1  0.99794200  0.99842900  0.78154300  1
