# generated using pymatgen
data_CuNi149
_symmetry_space_group_name_H-M   'P 1'
_cell_length_a   15.89998650
_cell_length_b   15.89999222
_cell_length_c   15.66070049
_cell_angle_alpha   90.00000000
_cell_angle_beta   90.00000000
_cell_angle_gamma   120.00001595
_symmetry_Int_Tables_number   1
_chemical_formula_structural   CuNi149
_chemical_formula_sum   'Cu1 Ni149'
_cell_volume   3428.74678232
_cell_formula_units_Z   1
loop_
 _symmetry_equiv_pos_site_id
 _symmetry_equiv_pos_as_xyz
  1  'x, y, z'
loop_
 _atom_site_type_symbol
 _atom_site_label
 _atom_site_symmetry_multiplicity
 _atom_site_fract_x
 _atom_site_fract_y
 _atom_site_fract_z
 _atom_site_occupancy
  Ni  Ni0  1  0.60238493  0.00025889  0.00000000  1
  Ni  Ni1  1  0.39787297  0.00025889  0.00000000  1
  Ni  Ni2  1  0.81135153  0.00190464  -0.00000000  1
  Ni  Ni3  1  0.19055311  0.00190464  -0.00000000  1
  Ni  Ni4  1  0.99809536  0.18864847  0.00000000  1
  Ni  Ni5  1  0.19055311  0.18864847  -0.00000000  1
  Ni  Ni6  1  0.39761683  0.19880791  -0.00000000  1
  Ni  Ni7  1  0.80119209  0.19880891  0.00000000  1
  Ni  Ni8  1  0.59969805  0.19939610  0.00000000  1
  Ni  Ni9  1  0.19828499  0.39656898  -0.00000000  1
  Ni  Ni10  1  0.39787297  0.39761407  -0.00000000  1
  Ni  Ni11  1  0.99974111  0.39761507  -0.00000000  1
  Ni  Ni12  1  0.59969805  0.40030195  0.00000000  1
  Ni  Ni13  1  0.80060490  0.40030195  0.00000000  1
  Ni  Ni14  1  0.40014795  0.59985105  0.00000000  1
  Ni  Ni15  1  0.19970310  0.59985205  0.00000000  1
  Ni  Ni16  1  0.99974111  0.60212603  -0.00000000  1
  Ni  Ni17  1  0.60238493  0.60212703  -0.00000000  1
  Ni  Ni18  1  0.80119209  0.60238317  0.00000000  1
  Ni  Ni19  1  0.40014795  0.80029690  -0.00000000  1
  Ni  Ni20  1  0.19828499  0.80171601  -0.00000000  1
  Ni  Ni21  1  0.60343202  0.80171601  -0.00000000  1
  Ni  Ni22  1  0.99809536  0.80944689  -0.00000000  1
  Ni  Ni23  1  0.81135153  0.80944689  -0.00000000  1
  Ni  Ni24  1  0.06345473  0.12690946  0.15713466  1
  Ni  Ni25  1  0.06345473  0.93654527  0.15713466  1
  Ni  Ni26  1  0.87309054  0.93654527  0.15713466  1
  Ni  Ni27  1  0.06596262  0.33070033  0.16535195  1
  Ni  Ni28  1  0.26473771  0.33070133  0.16535195  1
  Ni  Ni29  1  0.66929867  0.73526229  0.16535195  1
  Ni  Ni30  1  0.06596262  0.73526229  0.16535195  1
  Ni  Ni31  1  0.66929867  0.93403738  0.16535195  1
  Ni  Ni32  1  0.26473771  0.93403738  0.16535195  1
  Ni  Ni33  1  0.46679552  0.53320448  0.16603342  1
  Ni  Ni34  1  0.06640995  0.53320548  0.16603342  1
  Ni  Ni35  1  0.46679552  0.93359005  0.16603342  1
  Ni  Ni36  1  0.26624330  0.53248661  0.16593373  1
  Ni  Ni37  1  0.46751439  0.73375670  0.16593373  1
  Ni  Ni38  1  0.26624330  0.73375670  0.16593373  1
  Ni  Ni39  1  0.66643659  0.13387042  0.16667490  1
  Ni  Ni40  1  0.46743384  0.13387042  0.16667490  1
  Ni  Ni41  1  0.46743384  0.33356341  0.16667490  1
  Ni  Ni42  1  0.86612958  0.33356341  0.16667490  1
  Ni  Ni43  1  0.66643659  0.53256616  0.16667490  1
  Ni  Ni44  1  0.86612958  0.53256616  0.16667490  1
  Ni  Ni45  1  0.66666700  0.33333300  0.16668458  1
  Ni  Ni46  1  0.26858508  0.13429204  0.16723518  1
  Ni  Ni47  1  0.86570796  0.13429304  0.16723518  1
  Ni  Ni48  1  0.86570796  0.73141492  0.16723518  1
  Ni  Ni49  1  -0.00000000  0.00000000  0.33141967  1
  Ni  Ni50  1  0.00027638  0.19894344  0.33124590  1
  Ni  Ni51  1  0.19866605  0.19894344  0.33124590  1
  Ni  Ni52  1  0.00027638  0.80133295  0.33124590  1
  Ni  Ni53  1  0.80105656  0.80133295  0.33124590  1
  Ni  Ni54  1  0.19866605  0.99972262  0.33124590  1
  Ni  Ni55  1  0.80105656  0.99972362  0.33124590  1
  Ni  Ni56  1  0.60040853  0.99974005  0.33263824  1
  Ni  Ni57  1  0.39933251  0.99974005  0.33263824  1
  Ni  Ni58  1  0.00025995  0.39959147  0.33263824  1
  Ni  Ni59  1  0.39933251  0.39959147  0.33263824  1
  Ni  Ni60  1  0.60040853  0.60066849  0.33263824  1
  Ni  Ni61  1  0.00025995  0.60066849  0.33263824  1
  Ni  Ni62  1  0.19993737  0.39987574  0.33283423  1
  Ni  Ni63  1  0.19993737  0.80006263  0.33283423  1
  Ni  Ni64  1  0.60012426  0.80006263  0.33283423  1
  Ni  Ni65  1  0.19997002  0.59998501  0.33311306  1
  Ni  Ni66  1  0.40001499  0.59998501  0.33311306  1
  Ni  Ni67  1  0.40001499  0.80002998  0.33311306  1
  Ni  Ni68  1  0.59963688  0.19927277  0.33357285  1
  Ni  Ni69  1  0.80072723  0.40036312  0.33357285  1
  Ni  Ni70  1  0.59963688  0.40036412  0.33357285  1
  Ni  Ni71  1  0.39964269  0.19982185  0.33365843  1
  Ni  Ni72  1  0.80017815  0.19982185  0.33365843  1
  Ni  Ni73  1  0.80017815  0.60035731  0.33365843  1
  Ni  Ni74  1  0.06672729  0.13345359  0.50000000  1
  Ni  Ni75  1  0.26614144  0.13307022  0.50000000  1
  Ni  Ni76  1  0.86692878  0.13307122  0.50000000  1
  Ni  Ni77  1  0.46692749  0.13342513  0.50000000  1
  Ni  Ni78  1  0.66649763  0.13342513  0.50000000  1
  Ni  Ni79  1  0.06641758  0.33267683  0.50000000  1
  Ni  Ni80  1  0.26626025  0.33267683  0.50000000  1
  Ni  Ni81  1  0.66666700  0.33333300  0.50000000  1
  Ni  Ni82  1  0.46692749  0.33350237  0.50000000  1
  Ni  Ni83  1  0.86657587  0.33350237  0.50000000  1
  Ni  Ni84  1  0.26641561  0.53283022  0.50000000  1
  Ni  Ni85  1  0.46682069  0.53317931  0.50000000  1
  Ni  Ni86  1  0.06635762  0.53317931  0.50000000  1
  Ni  Ni87  1  0.66649763  0.53307251  0.50000000  1
  Ni  Ni88  1  0.86657587  0.53307351  0.50000000  1
  Ni  Ni89  1  0.26641561  0.73358439  0.50000000  1
  Ni  Ni90  1  0.46716878  0.73358439  0.50000000  1
  Ni  Ni91  1  0.66732317  0.73373975  0.50000000  1
  Ni  Ni92  1  0.06641758  0.73374075  0.50000000  1
  Ni  Ni93  1  0.86692878  0.73385856  0.50000000  1
  Ni  Ni94  1  0.46682069  0.93364138  0.50000000  1
  Ni  Ni95  1  0.06672729  0.93327371  0.50000000  1
  Ni  Ni96  1  0.86654641  0.93327371  0.50000000  1
  Ni  Ni97  1  0.26626025  0.93358242  0.50000000  1
  Ni  Ni98  1  0.66732317  0.93358242  0.50000000  1
  Ni  Ni99  1  0.39964269  0.19982185  0.66634157  1
  Ni  Ni100  1  0.80017815  0.19982185  0.66634157  1
  Ni  Ni101  1  0.80017815  0.60035731  0.66634157  1
  Ni  Ni102  1  0.59963688  0.19927277  0.66642715  1
  Ni  Ni103  1  0.80072723  0.40036312  0.66642715  1
  Ni  Ni104  1  0.59963688  0.40036412  0.66642715  1
  Ni  Ni105  1  0.19997002  0.59998501  0.66688694  1
  Ni  Ni106  1  0.40001499  0.59998501  0.66688694  1
  Ni  Ni107  1  0.40001499  0.80002998  0.66688694  1
  Ni  Ni108  1  0.19993737  0.39987574  0.66716577  1
  Ni  Ni109  1  0.19993737  0.80006263  0.66716577  1
  Ni  Ni110  1  0.60012426  0.80006263  0.66716577  1
  Ni  Ni111  1  0.60040853  0.99974005  0.66736176  1
  Ni  Ni112  1  0.39933251  0.99974005  0.66736176  1
  Ni  Ni113  1  0.00025995  0.39959147  0.66736176  1
  Ni  Ni114  1  0.39933251  0.39959147  0.66736176  1
  Ni  Ni115  1  0.60040853  0.60066849  0.66736176  1
  Ni  Ni116  1  0.00025995  0.60066849  0.66736176  1
  Ni  Ni117  1  0.00027638  0.19894344  0.66875410  1
  Ni  Ni118  1  0.19866605  0.19894344  0.66875410  1
  Ni  Ni119  1  0.00027638  0.80133295  0.66875410  1
  Ni  Ni120  1  0.80105656  0.80133295  0.66875410  1
  Ni  Ni121  1  0.19866605  0.99972262  0.66875410  1
  Ni  Ni122  1  0.80105656  0.99972362  0.66875410  1
  Ni  Ni123  1  -0.00000000  0.00000000  0.66858033  1
  Ni  Ni124  1  0.26858508  0.13429204  0.83276482  1
  Ni  Ni125  1  0.86570796  0.13429304  0.83276482  1
  Ni  Ni126  1  0.86570796  0.73141492  0.83276482  1
  Ni  Ni127  1  0.66666700  0.33333300  0.83331442  1
  Ni  Ni128  1  0.66643659  0.13387042  0.83332410  1
  Ni  Ni129  1  0.46743384  0.13387042  0.83332410  1
  Ni  Ni130  1  0.46743384  0.33356341  0.83332410  1
  Ni  Ni131  1  0.86612958  0.33356341  0.83332410  1
  Ni  Ni132  1  0.66643659  0.53256616  0.83332410  1
  Ni  Ni133  1  0.86612958  0.53256616  0.83332410  1
  Ni  Ni134  1  0.26624330  0.53248661  0.83406627  1
  Ni  Ni135  1  0.46751439  0.73375670  0.83406627  1
  Ni  Ni136  1  0.26624330  0.73375670  0.83406627  1
  Ni  Ni137  1  0.46679552  0.53320448  0.83396658  1
  Ni  Ni138  1  0.06640995  0.53320548  0.83396658  1
  Ni  Ni139  1  0.46679552  0.93359005  0.83396658  1
  Ni  Ni140  1  0.06596262  0.33070033  0.83464905  1
  Ni  Ni141  1  0.26473771  0.33070133  0.83464905  1
  Ni  Ni142  1  0.66929867  0.73526229  0.83464905  1
  Ni  Ni143  1  0.06596262  0.73526229  0.83464905  1
  Ni  Ni144  1  0.66929867  0.93403738  0.83464905  1
  Ni  Ni145  1  0.26473771  0.93403738  0.83464905  1
  Ni  Ni146  1  0.06345473  0.12690946  0.84286534  1
  Ni  Ni147  1  0.06345473  0.93654527  0.84286534  1
  Ni  Ni148  1  0.87309054  0.93654527  0.84286534  1
  Cu  Cu149  1  -0.00000000  0.00000000  0.00000000  1
