# generated using pymatgen
data_Cu4Ni4C7
_symmetry_space_group_name_H-M   'P 1'
_cell_length_a   5.77034713
_cell_length_b   6.63767800
_cell_length_c   5.63582194
_cell_angle_alpha   90.43719197
_cell_angle_beta   104.98105732
_cell_angle_gamma   88.81448267
_symmetry_Int_Tables_number   1
_chemical_formula_structural   Cu4Ni4C7
_chemical_formula_sum   'Cu4 Ni4 C7'
_cell_volume   208.47953230
_cell_formula_units_Z   1
loop_
 _symmetry_equiv_pos_site_id
 _symmetry_equiv_pos_as_xyz
  1  'x, y, z'
loop_
 _atom_site_type_symbol
 _atom_site_label
 _atom_site_symmetry_multiplicity
 _atom_site_fract_x
 _atom_site_fract_y
 _atom_site_fract_z
 _atom_site_occupancy
  C  C0  1  0.00266900  0.37255800  0.77577600  1
  C  C1  1  0.00285200  0.62244000  0.34853200  1
  C  C2  1  0.99680500  0.97213600  0.02901000  1
  C  C3  1  0.47796200  0.11670900  0.78259400  1
  C  C4  1  0.50171400  0.62078700  0.75741900  1
  C  C5  1  0.48778700  0.36777900  0.29333700  1
  C  C6  1  0.51893000  0.87222300  0.26213300  1
  Ni  Ni7  1  0.31188300  0.37404400  0.58069200  1
  Ni  Ni8  1  0.66068800  0.86272100  0.96720500  1
  Ni  Ni9  1  0.30910300  0.13369200  0.06346500  1
  Ni  Ni10  1  0.68267600  0.60564300  0.48050700  1
  Cu  Cu11  1  0.25817900  0.61020900  0.98809400  1
  Cu  Cu12  1  0.28107300  0.87961400  0.47760900  1
  Cu  Cu13  1  0.73663200  0.13150500  0.57594900  1
  Cu  Cu14  1  0.75021600  0.37794100  0.05815400  1
