# generated using pymatgen
data_Cu(NiC)2
_symmetry_space_group_name_H-M   'P 1'
_cell_length_a   5.17853200
_cell_length_b   11.85949000
_cell_length_c   12.88702863
_cell_angle_alpha   85.71792317
_cell_angle_beta   90.00000000
_cell_angle_gamma   90.00000000
_symmetry_Int_Tables_number   1
_chemical_formula_structural   Cu(NiC)2
_chemical_formula_sum   'Cu4 Ni8 C8'
_cell_volume   789.24431038
_cell_formula_units_Z   4
loop_
 _symmetry_equiv_pos_site_id
 _symmetry_equiv_pos_as_xyz
  1  'x, y, z'
loop_
 _atom_site_type_symbol
 _atom_site_label
 _atom_site_symmetry_multiplicity
 _atom_site_fract_x
 _atom_site_fract_y
 _atom_site_fract_z
 _atom_site_occupancy
  C  C0  1  0.50000000  0.16760600  0.70492700  1
  C  C1  1  0.50000000  0.83239400  0.29507300  1
  C  C2  1  0.00000000  0.67441300  0.75675000  1
  C  C3  1  0.00000000  0.32558700  0.24325000  1
  C  C4  1  0.50000000  0.50000000  0.00000000  1
  C  C5  1  0.00000000  0.00000000  0.50000000  1
  C  C6  1  0.50000000  0.50000000  0.50000000  1
  C  C7  1  0.00000000  0.00000000  0.00000000  1
  Ni  Ni8  1  0.50000000  0.48114100  0.79107500  1
  Ni  Ni9  1  0.50000000  0.51885900  0.20892500  1
  Ni  Ni10  1  0.00000000  0.95917500  0.71316500  1
  Ni  Ni11  1  0.00000000  0.04082500  0.28683500  1
  Ni  Ni12  1  0.50000000  0.29071500  0.42581700  1
  Ni  Ni13  1  0.50000000  0.70928500  0.57418300  1
  Ni  Ni14  1  0.00000000  0.77309900  0.10266700  1
  Ni  Ni15  1  0.00000000  0.22690100  0.89733300  1
  Cu  Cu16  1  0.00000000  0.23627600  0.76057200  1
  Cu  Cu17  1  0.00000000  0.76372400  0.23942800  1
  Cu  Cu18  1  0.50000000  0.69985800  0.77493700  1
  Cu  Cu19  1  0.50000000  0.30014200  0.22506300  1
