# generated using pymatgen
data_Cu2Ni2C15
_symmetry_space_group_name_H-M   'P 1'
_cell_length_a   7.50513600
_cell_length_b   8.94906700
_cell_length_c   13.55792359
_cell_angle_alpha   56.12901438
_cell_angle_beta   90.00000000
_cell_angle_gamma   90.00000000
_symmetry_Int_Tables_number   1
_chemical_formula_structural   Cu2Ni2C15
_chemical_formula_sum   'Cu8 Ni8 C60'
_cell_volume   756.06952161
_cell_formula_units_Z   4
loop_
 _symmetry_equiv_pos_site_id
 _symmetry_equiv_pos_as_xyz
  1  'x, y, z'
loop_
 _atom_site_type_symbol
 _atom_site_label
 _atom_site_symmetry_multiplicity
 _atom_site_fract_x
 _atom_site_fract_y
 _atom_site_fract_z
 _atom_site_occupancy
  C  C0  1  0.70180900  0.02293700  0.52541000  1
  C  C1  1  0.79819100  0.02293700  0.02541000  1
  C  C2  1  0.29819100  0.97706300  0.47459000  1
  C  C3  1  0.20180900  0.97706300  0.97459000  1
  Ni  Ni4  1  0.01823200  0.99809400  0.66336800  1
  Ni  Ni5  1  0.48176800  0.99809400  0.16336800  1
  Ni  Ni6  1  0.98176800  0.00190600  0.33663200  1
  Ni  Ni7  1  0.51823200  0.00190600  0.83663200  1
  Ni  Ni8  1  0.50573600  0.37497400  0.35697200  1
  Ni  Ni9  1  0.99426400  0.37497400  0.85697200  1
  Ni  Ni10  1  0.49426400  0.62502600  0.64302800  1
  Ni  Ni11  1  0.00573600  0.62502600  0.14302800  1
  C  C12  1  0.89889600  0.28801600  0.40620800  1
  C  C13  1  0.60110400  0.28801600  0.90620800  1
  C  C14  1  0.10110400  0.71198400  0.59379200  1
  C  C15  1  0.39889600  0.71198400  0.09379200  1
  C  C16  1  0.89155900  0.96308500  0.82398500  1
  C  C17  1  0.60844100  0.96308500  0.32398500  1
  C  C18  1  0.10844100  0.03691500  0.17601500  1
  C  C19  1  0.39155900  0.03691500  0.67601500  1
  C  C20  1  0.22322800  0.49220700  0.32922200  1
  C  C21  1  0.27677200  0.49220700  0.82922200  1
  C  C22  1  0.77677200  0.50779300  0.67077800  1
  C  C23  1  0.72322800  0.50779300  0.17077800  1
  C  C24  1  0.04664500  0.32609500  0.53790500  1
  C  C25  1  0.45335500  0.32609500  0.03790500  1
  C  C26  1  0.95335500  0.67390500  0.46209500  1
  C  C27  1  0.54664500  0.67390500  0.96209500  1
  C  C28  1  0.85621100  0.25306900  0.63325500  1
  C  C29  1  0.64378900  0.25306900  0.13325500  1
  C  C30  1  0.14378900  0.74693100  0.36674500  1
  C  C31  1  0.35621100  0.74693100  0.86674500  1
  C  C32  1  0.63036900  0.39850200  0.51136600  1
  C  C33  1  0.86963100  0.39850200  0.01136600  1
  C  C34  1  0.36963100  0.60149800  0.48863400  1
  C  C35  1  0.13036900  0.60149800  0.98863400  1
  C  C36  1  0.75024800  0.53739300  0.37531600  1
  C  C37  1  0.74975200  0.53739300  0.87531600  1
  C  C38  1  0.24975200  0.46260700  0.62468400  1
  C  C39  1  0.25024800  0.46260700  0.12468400  1
  Cu  Cu40  1  0.93429400  0.23127400  0.57372200  1
  Cu  Cu41  1  0.56570600  0.23127400  0.07372200  1
  Cu  Cu42  1  0.06570600  0.76872600  0.42627800  1
  Cu  Cu43  1  0.43429400  0.76872600  0.92627800  1
  Cu  Cu44  1  0.68650700  0.40556900  0.43406600  1
  Cu  Cu45  1  0.81349300  0.40556900  0.93406600  1
  Cu  Cu46  1  0.31349300  0.59443100  0.56593400  1
  Cu  Cu47  1  0.18650700  0.59443100  0.06593400  1
  C  C48  1  0.81811500  0.25744300  0.47670600  1
  C  C49  1  0.68188500  0.25744300  0.97670600  1
  C  C50  1  0.18188500  0.74255700  0.52329400  1
  C  C51  1  0.31811500  0.74255700  0.02329400  1
  C  C52  1  0.88926700  0.88734400  0.63931000  1
  C  C53  1  0.61073300  0.88734400  0.13931000  1
  C  C54  1  0.11073300  0.11265600  0.36069000  1
  C  C55  1  0.38926700  0.11265600  0.86069000  1
  C  C56  1  0.00930100  0.93913000  0.79748800  1
  C  C57  1  0.49069900  0.93913000  0.29748800  1
  C  C58  1  0.99069900  0.06087000  0.20251200  1
  C  C59  1  0.50930100  0.06087000  0.70251200  1
  C  C60  1  0.21174000  0.98573000  0.63628700  1
  C  C61  1  0.28826000  0.98573000  0.13628700  1
  C  C62  1  0.78826000  0.01427000  0.36371300  1
  C  C63  1  0.71174000  0.01427000  0.86371300  1
  C  C64  1  0.48623400  0.16390200  0.43139400  1
  C  C65  1  0.01376600  0.16390200  0.93139400  1
  C  C66  1  0.51376600  0.83609800  0.56860600  1
  C  C67  1  0.98623400  0.83609800  0.06860600  1
  C  C68  1  0.34105000  0.46054800  0.37860100  1
  C  C69  1  0.15895000  0.46054800  0.87860100  1
  C  C70  1  0.65895000  0.53945200  0.62139900  1
  C  C71  1  0.84105000  0.53945200  0.12139900  1
  C  C72  1  0.54674000  0.45978800  0.22669800  1
  C  C73  1  0.95326000  0.45978800  0.72669800  1
  C  C74  1  0.45326000  0.54021200  0.77330200  1
  C  C75  1  0.04674000  0.54021200  0.27330200  1
