# generated using pymatgen
data_Cu12NiC12
_symmetry_space_group_name_H-M   'P 1'
_cell_length_a   7.26651920
_cell_length_b   7.26651920
_cell_length_c   7.26651920
_cell_angle_alpha   60.00000000
_cell_angle_beta   60.00000000
_cell_angle_gamma   60.00000000
_symmetry_Int_Tables_number   1
_chemical_formula_structural   Cu12NiC12
_chemical_formula_sum   'Cu12 Ni1 C12'
_cell_volume   271.30904826
_cell_formula_units_Z   1
loop_
 _symmetry_equiv_pos_site_id
 _symmetry_equiv_pos_as_xyz
  1  'x, y, z'
loop_
 _atom_site_type_symbol
 _atom_site_label
 _atom_site_symmetry_multiplicity
 _atom_site_fract_x
 _atom_site_fract_y
 _atom_site_fract_z
 _atom_site_occupancy
  C  C0  1  0.75000000  0.75000000  0.75000000  1
  C  C1  1  0.00000000  0.00000000  0.00000000  1
  Ni  Ni2  1  0.25000000  0.25000000  0.25000000  1
  Cu  Cu3  1  0.26093200  0.26093200  0.62596600  1
  Cu  Cu4  1  0.85216900  0.26093200  0.62596600  1
  Cu  Cu5  1  0.26093200  0.85216900  0.62596600  1
  Cu  Cu6  1  0.85216900  0.62596600  0.26093200  1
  Cu  Cu7  1  0.26093200  0.62596600  0.26093200  1
  Cu  Cu8  1  0.26093200  0.62596600  0.85216900  1
  Cu  Cu9  1  0.62596600  0.85216900  0.26093200  1
  Cu  Cu10  1  0.62596600  0.26093200  0.85216900  1
  Cu  Cu11  1  0.62596600  0.26093200  0.26093200  1
  Cu  Cu12  1  0.26093200  0.26093200  0.85216900  1
  Cu  Cu13  1  0.26093200  0.85216900  0.26093200  1
  Cu  Cu14  1  0.85216900  0.26093200  0.26093200  1
  C  C15  1  0.20466000  0.20466000  0.79534000  1
  C  C16  1  0.79534000  0.20466000  0.79534000  1
  C  C17  1  0.20466000  0.79534000  0.79534000  1
  C  C18  1  0.79534000  0.79534000  0.20466000  1
  C  C19  1  0.20466000  0.79534000  0.20466000  1
  C  C20  1  0.79534000  0.20466000  0.20466000  1
  C  C21  1  0.34711100  0.34711100  0.95866600  1
  C  C22  1  0.34711100  0.95866600  0.34711100  1
  C  C23  1  0.95866600  0.34711100  0.34711100  1
  C  C24  1  0.34711100  0.34711100  0.34711100  1
