# generated using pymatgen
data_Cu7NiC4
_symmetry_space_group_name_H-M   'P 1'
_cell_length_a   5.15065287
_cell_length_b   9.66979525
_cell_length_c   12.58449573
_cell_angle_alpha   89.89614120
_cell_angle_beta   90.01883042
_cell_angle_gamma   90.84168758
_symmetry_Int_Tables_number   1
_chemical_formula_structural   Cu7NiC4
_chemical_formula_sum   'Cu28 Ni4 C16'
_cell_volume   626.71167004
_cell_formula_units_Z   4
loop_
 _symmetry_equiv_pos_site_id
 _symmetry_equiv_pos_as_xyz
  1  'x, y, z'
loop_
 _atom_site_type_symbol
 _atom_site_label
 _atom_site_symmetry_multiplicity
 _atom_site_fract_x
 _atom_site_fract_y
 _atom_site_fract_z
 _atom_site_occupancy
  C  C0  1  0.24128100  0.24254600  0.00147000  1
  C  C1  1  0.25329300  0.24096200  0.50084700  1
  C  C2  1  0.24558600  0.24287700  0.25178800  1
  C  C3  1  0.24428500  0.24176200  0.74644400  1
  C  C4  1  0.75431500  0.75710200  0.24821100  1
  C  C5  1  0.75577900  0.75822400  0.75357800  1
  C  C6  1  0.75875200  0.75744600  0.49852200  1
  C  C7  1  0.74660000  0.75903500  0.99915800  1
  C  C8  1  0.80638000  0.37798900  0.87484600  1
  C  C9  1  0.19362300  0.62200900  0.62515500  1
  C  C10  1  0.81340900  0.39888200  0.37575000  1
  C  C11  1  0.18652200  0.60110500  0.12424300  1
  C  C12  1  0.68329200  0.42324400  0.12583300  1
  C  C13  1  0.67925400  0.43153300  0.62460500  1
  C  C14  1  0.31665200  0.57674200  0.37415400  1
  C  C15  1  0.32075300  0.56846100  0.87540500  1
  Ni  Ni16  1  0.74513900  0.06124400  0.37560600  1
  Ni  Ni17  1  0.72723400  0.07079200  0.87417900  1
  Ni  Ni18  1  0.25475700  0.93874600  0.12439400  1
  Ni  Ni19  1  0.27300900  0.92922200  0.62582600  1
  Cu  Cu20  1  0.26490100  0.07083900  0.12674800  1
  Cu  Cu21  1  0.23646800  0.05954400  0.62471900  1
  Cu  Cu22  1  0.73501700  0.92915300  0.37324200  1
  Cu  Cu23  1  0.76376300  0.94046200  0.87529300  1
  Cu  Cu24  1  0.96335500  0.12571200  0.37779700  1
  Cu  Cu25  1  0.92656000  0.15409000  0.87282200  1
  Cu  Cu26  1  0.03654700  0.87428200  0.12220500  1
  Cu  Cu27  1  0.07364300  0.84595400  0.62717400  1
  Cu  Cu28  1  0.53372500  0.12926000  0.37579700  1
  Cu  Cu29  1  0.49956100  0.12063500  0.87443600  1
  Cu  Cu30  1  0.46617400  0.87072800  0.12421000  1
  Cu  Cu31  1  0.50068000  0.87938700  0.62556400  1
  Cu  Cu32  1  0.18439800  0.42096800  0.37733800  1
  Cu  Cu33  1  0.17734500  0.41611300  0.87302600  1
  Cu  Cu34  1  0.81553900  0.57902100  0.12265900  1
  Cu  Cu35  1  0.82265500  0.58389800  0.62697400  1
  Cu  Cu36  1  0.36209400  0.42876400  0.12660600  1
  Cu  Cu37  1  0.35774900  0.44457500  0.62300500  1
  Cu  Cu38  1  0.63785300  0.57122600  0.37338700  1
  Cu  Cu39  1  0.64223800  0.55542500  0.87699600  1
  Cu  Cu40  1  0.76185900  0.33435300  0.01874600  1
  Cu  Cu41  1  0.75492900  0.34346400  0.51642700  1
  Cu  Cu42  1  0.77053100  0.34007200  0.23463900  1
  Cu  Cu43  1  0.74754900  0.33829300  0.73110500  1
  Cu  Cu44  1  0.22940100  0.65991300  0.26535200  1
  Cu  Cu45  1  0.25242500  0.66173600  0.76890600  1
  Cu  Cu46  1  0.23810800  0.66566900  0.48124000  1
  Cu  Cu47  1  0.24501600  0.65653700  0.98357100  1
