# generated using pymatgen
data_Cu2NiC
_symmetry_space_group_name_H-M   'P 1'
_cell_length_a   4.41931800
_cell_length_b   14.58259300
_cell_length_c   16.07170200
_cell_angle_alpha   90.00000000
_cell_angle_beta   90.00000000
_cell_angle_gamma   90.00000000
_symmetry_Int_Tables_number   1
_chemical_formula_structural   Cu2NiC
_chemical_formula_sum   'Cu24 Ni12 C12'
_cell_volume   1035.74269539
_cell_formula_units_Z   12
loop_
 _symmetry_equiv_pos_site_id
 _symmetry_equiv_pos_as_xyz
  1  'x, y, z'
loop_
 _atom_site_type_symbol
 _atom_site_label
 _atom_site_symmetry_multiplicity
 _atom_site_fract_x
 _atom_site_fract_y
 _atom_site_fract_z
 _atom_site_occupancy
  C  C0  1  0.25000000  0.97306800  0.34934400  1
  C  C1  1  0.25000000  0.52693200  0.84934400  1
  C  C2  1  0.75000000  0.02693200  0.65065600  1
  C  C3  1  0.75000000  0.47306800  0.15065600  1
  C  C4  1  0.25000000  0.27585500  0.86915800  1
  C  C5  1  0.25000000  0.22414500  0.36915800  1
  C  C6  1  0.75000000  0.72414500  0.13084200  1
  C  C7  1  0.75000000  0.77585500  0.63084200  1
  C  C8  1  0.25000000  0.39713600  0.64525700  1
  C  C9  1  0.25000000  0.10286400  0.14525700  1
  C  C10  1  0.75000000  0.60286400  0.35474300  1
  C  C11  1  0.75000000  0.89713600  0.85474300  1
  Ni  Ni12  1  0.25000000  0.60588200  0.05471700  1
  Ni  Ni13  1  0.25000000  0.89411800  0.55471700  1
  Ni  Ni14  1  0.75000000  0.39411800  0.94528300  1
  Ni  Ni15  1  0.75000000  0.10588200  0.44528300  1
  Ni  Ni16  1  0.25000000  0.74403000  0.30973800  1
  Ni  Ni17  1  0.25000000  0.75597000  0.80973800  1
  Ni  Ni18  1  0.75000000  0.25597000  0.69026200  1
  Ni  Ni19  1  0.75000000  0.24403000  0.19026200  1
  Ni  Ni20  1  0.25000000  0.04854400  0.79948000  1
  Ni  Ni21  1  0.25000000  0.45145600  0.29948000  1
  Ni  Ni22  1  0.75000000  0.95145600  0.20052000  1
  Ni  Ni23  1  0.75000000  0.54854400  0.70052000  1
  Cu  Cu24  1  0.25000000  0.17696100  0.68111200  1
  Cu  Cu25  1  0.25000000  0.32303900  0.18111200  1
  Cu  Cu26  1  0.75000000  0.82303900  0.31888800  1
  Cu  Cu27  1  0.75000000  0.67696100  0.81888800  1
  Cu  Cu28  1  0.25000000  0.05357900  0.95674500  1
  Cu  Cu29  1  0.25000000  0.44642100  0.45674500  1
  Cu  Cu30  1  0.75000000  0.94642100  0.04325500  1
  Cu  Cu31  1  0.75000000  0.55357900  0.54325500  1
  Cu  Cu32  1  0.25000000  0.07862500  0.51829500  1
  Cu  Cu33  1  0.25000000  0.42137500  0.01829500  1
  Cu  Cu34  1  0.75000000  0.92137500  0.48170500  1
  Cu  Cu35  1  0.75000000  0.57862500  0.98170500  1
  Cu  Cu36  1  0.25000000  0.60296800  0.21679600  1
  Cu  Cu37  1  0.25000000  0.89703200  0.71679600  1
  Cu  Cu38  1  0.75000000  0.39703200  0.78320400  1
  Cu  Cu39  1  0.75000000  0.10296800  0.28320400  1
  Cu  Cu40  1  0.25000000  0.73361900  0.47302500  1
  Cu  Cu41  1  0.25000000  0.76638100  0.97302500  1
  Cu  Cu42  1  0.75000000  0.26638100  0.52697500  1
  Cu  Cu43  1  0.75000000  0.23361900  0.02697500  1
  Cu  Cu44  1  0.25000000  0.86760400  0.17627400  1
  Cu  Cu45  1  0.25000000  0.63239600  0.67627400  1
  Cu  Cu46  1  0.75000000  0.13239600  0.82372600  1
  Cu  Cu47  1  0.75000000  0.36760400  0.32372600  1
