# generated using pymatgen
data_Cu3NiC8
_symmetry_space_group_name_H-M   'P 1'
_cell_length_a   3.30766532
_cell_length_b   3.30766532
_cell_length_c   37.65261500
_cell_angle_alpha   90.00000000
_cell_angle_beta   90.00000000
_cell_angle_gamma   119.99998643
_symmetry_Int_Tables_number   1
_chemical_formula_structural   Cu3NiC8
_chemical_formula_sum   'Cu3 Ni1 C8'
_cell_volume   356.75408508
_cell_formula_units_Z   1
loop_
 _symmetry_equiv_pos_site_id
 _symmetry_equiv_pos_as_xyz
  1  'x, y, z'
loop_
 _atom_site_type_symbol
 _atom_site_label
 _atom_site_symmetry_multiplicity
 _atom_site_fract_x
 _atom_site_fract_y
 _atom_site_fract_z
 _atom_site_occupancy
  C  C0  1  0.00000000  0.00000000  0.70864600  1
  C  C1  1  0.00000000  0.00000000  0.60646600  1
  Ni  Ni2  1  0.00000000  0.00000000  0.09391800  1
  Cu  Cu3  1  0.00000000  0.00000000  0.46963000  1
  Cu  Cu4  1  0.33333300  0.66666700  0.28180200  1
  Cu  Cu5  1  0.33333300  0.66666700  0.65758100  1
  C  C6  1  0.33333300  0.66666700  0.04927700  1
  C  C7  1  0.33333300  0.66666700  0.13855800  1
  C  C8  1  0.00000000  0.00000000  0.32252900  1
  C  C9  1  0.33333300  0.66666700  0.42892000  1
  C  C10  1  0.33333300  0.66666700  0.51035300  1
  C  C11  1  0.00000000  0.00000000  0.24106800  1
