# generated using pymatgen
data_CuNi2C3
_symmetry_space_group_name_H-M   'P 1'
_cell_length_a   3.34361566
_cell_length_b   3.34361566
_cell_length_c   38.05478200
_cell_angle_alpha   90.00000000
_cell_angle_beta   90.00000000
_cell_angle_gamma   119.99999321
_symmetry_Int_Tables_number   1
_chemical_formula_structural   CuNi2C3
_chemical_formula_sum   'Cu2 Ni4 C6'
_cell_volume   368.44494305
_cell_formula_units_Z   2
loop_
 _symmetry_equiv_pos_site_id
 _symmetry_equiv_pos_as_xyz
  1  'x, y, z'
loop_
 _atom_site_type_symbol
 _atom_site_label
 _atom_site_symmetry_multiplicity
 _atom_site_fract_x
 _atom_site_fract_y
 _atom_site_fract_z
 _atom_site_occupancy
  C  C0  1  0.00000000  0.00000000  0.70762600  1
  C  C1  1  0.00000000  0.00000000  0.60746900  1
  C  C2  1  0.00000000  0.00000000  0.09389300  1
  C  C3  1  0.00000000  0.00000000  0.46964600  1
  C  C4  1  0.33333300  0.66666700  0.28178600  1
  C  C5  1  0.33333300  0.66666700  0.65757000  1
  Ni  Ni6  1  0.00000000  0.00000000  0.32579100  1
  Ni  Ni7  1  0.33333300  0.66666700  0.05014400  1
  Ni  Ni8  1  0.33333300  0.66666700  0.13768300  1
  Ni  Ni9  1  0.00000000  0.00000000  0.23782600  1
  Cu  Cu10  1  0.33333300  0.66666700  0.42969100  1
  Cu  Cu11  1  0.33333300  0.66666700  0.50962300  1
