# generated using pymatgen
data_Cu14Ni2C
_symmetry_space_group_name_H-M   'P 1'
_cell_length_a   4.90216700
_cell_length_b   7.45036700
_cell_length_c   12.91138000
_cell_angle_alpha   90.00000000
_cell_angle_beta   90.00000000
_cell_angle_gamma   90.00000000
_symmetry_Int_Tables_number   1
_chemical_formula_structural   Cu14Ni2C
_chemical_formula_sum   'Cu28 Ni4 C2'
_cell_volume   471.56159896
_cell_formula_units_Z   2
loop_
 _symmetry_equiv_pos_site_id
 _symmetry_equiv_pos_as_xyz
  1  'x, y, z'
loop_
 _atom_site_type_symbol
 _atom_site_label
 _atom_site_symmetry_multiplicity
 _atom_site_fract_x
 _atom_site_fract_y
 _atom_site_fract_z
 _atom_site_occupancy
  C  C0  1  0.24232000  0.50000000  0.74946400  1
  C  C1  1  0.74232000  0.00000000  0.25053600  1
  Ni  Ni2  1  0.00375700  0.50000000  0.08498300  1
  Ni  Ni3  1  0.50375700  0.00000000  0.91501700  1
  Ni  Ni4  1  0.50368800  0.50000000  0.41859500  1
  Ni  Ni5  1  0.00368800  0.00000000  0.58140500  1
  Cu  Cu6  1  0.29971600  0.50000000  0.08445800  1
  Cu  Cu7  1  0.79971600  0.00000000  0.91554200  1
  Cu  Cu8  1  0.80182800  0.50000000  0.41667600  1
  Cu  Cu9  1  0.30182800  0.00000000  0.58332400  1
  Cu  Cu10  1  0.90660300  0.50000000  0.19233500  1
  Cu  Cu11  1  0.40660300  0.00000000  0.80766500  1
  Cu  Cu12  1  0.40701400  0.50000000  0.31113600  1
  Cu  Cu13  1  0.90701400  0.00000000  0.68886400  1
  Cu  Cu14  1  0.90468000  0.66036900  0.03272000  1
  Cu  Cu15  1  0.90468000  0.33963100  0.03272000  1
  Cu  Cu16  1  0.40468000  0.83963100  0.96728000  1
  Cu  Cu17  1  0.40468000  0.16036900  0.96728000  1
  Cu  Cu18  1  0.40585100  0.65945100  0.47171600  1
  Cu  Cu19  1  0.40585100  0.34054900  0.47171600  1
  Cu  Cu20  1  0.90585100  0.84054900  0.52828400  1
  Cu  Cu21  1  0.90585100  0.15945100  0.52828400  1
  Cu  Cu22  1  0.57757600  0.50000000  0.85502200  1
  Cu  Cu23  1  0.07757600  0.00000000  0.14497800  1
  Cu  Cu24  1  0.91120600  0.50000000  0.64236200  1
  Cu  Cu25  1  0.41120600  0.00000000  0.35763800  1
  Cu  Cu26  1  0.91144100  0.66119600  0.80306700  1
  Cu  Cu27  1  0.91144100  0.33880400  0.80306700  1
  Cu  Cu28  1  0.41144100  0.83880400  0.19693300  1
  Cu  Cu29  1  0.41144100  0.16119600  0.19693300  1
  Cu  Cu30  1  0.57817400  0.65807600  0.69737100  1
  Cu  Cu31  1  0.57817400  0.34192400  0.69737100  1
  Cu  Cu32  1  0.07817400  0.84192400  0.30262900  1
  Cu  Cu33  1  0.07817400  0.15807600  0.30262900  1
