# generated using pymatgen
data_Cu4Ni3C8
_symmetry_space_group_name_H-M   'P 1'
_cell_length_a   7.18130900
_cell_length_b   7.18303560
_cell_length_c   29.63560255
_cell_angle_alpha   96.91735676
_cell_angle_beta   90.04104680
_cell_angle_gamma   119.94335489
_symmetry_Int_Tables_number   1
_chemical_formula_structural   Cu4Ni3C8
_chemical_formula_sum   'Cu20 Ni15 C40'
_cell_volume   1311.72299621
_cell_formula_units_Z   5
loop_
 _symmetry_equiv_pos_site_id
 _symmetry_equiv_pos_as_xyz
  1  'x, y, z'
loop_
 _atom_site_type_symbol
 _atom_site_label
 _atom_site_symmetry_multiplicity
 _atom_site_fract_x
 _atom_site_fract_y
 _atom_site_fract_z
 _atom_site_occupancy
  C  C0  1  0.31224900  0.63035300  0.05311600  1
  C  C1  1  0.40754200  0.45131900  0.14245800  1
  C  C2  1  0.76757600  0.63413300  0.05197400  1
  C  C3  1  0.31218800  0.18222600  0.05276700  1
  C  C4  1  0.51389900  0.23364100  0.25232500  1
  C  C5  1  0.88260100  0.41778800  0.14724900  1
  C  C6  1  0.79860200  0.14870800  0.05755300  1
  C  C7  1  0.43509000  0.96972600  0.14689600  1
  C  C8  1  0.60617900  0.05133600  0.34246400  1
  C  C9  1  0.96508300  0.23080500  0.25276300  1
  C  C10  1  0.88538300  0.96573100  0.14803600  1
  C  C11  1  0.51640300  0.78223200  0.25276300  1
  C  C12  1  0.71392700  0.83372900  0.45232600  1
  C  C13  1  0.08352000  0.01778100  0.34725600  1
  C  C14  1  0.99385900  0.74868700  0.25755000  1
  C  C15  1  0.63494300  0.56922200  0.34725800  1
  C  C16  1  0.16505400  0.83077400  0.45274900  1
  C  C17  1  0.80618200  0.65133700  0.54245800  1
  C  C18  1  0.08606700  0.56627100  0.34768300  1
  C  C19  1  0.71647400  0.38221100  0.45275300  1
  C  C20  1  0.91393300  0.43372900  0.65231700  1
  C  C21  1  0.28352600  0.61778900  0.54724700  1
  C  C22  1  0.83494600  0.16922600  0.54725100  1
  C  C23  1  0.19381800  0.34866300  0.45754200  1
  C  C24  1  0.00614100  0.25131300  0.74245000  1
  C  C25  1  0.36505700  0.43077800  0.65274200  1
  C  C26  1  0.28607300  0.16627100  0.54767400  1
  C  C27  1  0.91648000  0.98221900  0.65274400  1
  C  C28  1  0.11461700  0.03426900  0.85196400  1
  C  C29  1  0.48359700  0.21776800  0.74723700  1
  C  C30  1  0.39382100  0.94866400  0.65753600  1
  C  C31  1  0.03491700  0.76919500  0.74723700  1
  C  C32  1  0.20139800  0.85129200  0.94244700  1
  C  C33  1  0.56490900  0.03027400  0.85310400  1
  C  C34  1  0.48610100  0.76635900  0.74767500  1
  C  C35  1  0.11739900  0.58221200  0.85275100  1
  C  C36  1  0.68781200  0.81777400  0.94723300  1
  C  C37  1  0.59245800  0.54868100  0.85754200  1
  C  C38  1  0.23242400  0.36586700  0.94802600  1
  C  C39  1  0.68775100  0.36964700  0.94688400  1
  Ni  Ni40  1  0.00000000  0.00000000  0.00000000  1
  Ni  Ni41  1  0.00000000  0.50000000  0.00000000  1
  Ni  Ni42  1  0.19991500  0.10001900  0.20000000  1
  Ni  Ni43  1  0.40000500  0.70000600  0.39999600  1
  Ni  Ni44  1  0.70000300  0.60004600  0.20000100  1
  Ni  Ni45  1  0.09914800  0.80000700  0.09999400  1
  Ni  Ni46  1  0.30000800  0.40000800  0.29999100  1
  Ni  Ni47  1  0.59999500  0.29999400  0.60000400  1
  Ni  Ni48  1  0.89999800  0.19999900  0.39999600  1
  Ni  Ni49  1  0.90085200  0.19999300  0.90000600  1
  Ni  Ni50  1  0.80008500  0.89998100  0.80000000  1
  Ni  Ni51  1  0.69999200  0.59999200  0.70000900  1
  Ni  Ni52  1  0.10000200  0.80000100  0.60000400  1
  Ni  Ni53  1  0.50000000  0.00000000  0.50000000  1
  Ni  Ni54  1  0.29999700  0.39995400  0.79999900  1
  Cu  Cu55  1  0.50000000  0.50000000  0.00000000  1
  Cu  Cu56  1  0.09986900  0.29976700  0.10014300  1
  Cu  Cu57  1  0.60024100  0.30023100  0.09984200  1
  Cu  Cu58  1  0.80000700  0.40001000  0.29998800  1
  Cu  Cu59  1  0.70015100  0.10000800  0.19999300  1
  Cu  Cu60  1  0.30001800  0.90000200  0.29999000  1
  Cu  Cu61  1  0.80000000  0.89999700  0.29999100  1
  Cu  Cu62  1  0.60031600  0.80001200  0.09999000  1
  Cu  Cu63  1  0.00000000  0.00000000  0.50000000  1
  Cu  Cu64  1  0.90000500  0.70000100  0.39999300  1
  Cu  Cu65  1  0.50000000  0.50000000  0.50000000  1
  Cu  Cu66  1  0.00000000  0.50000000  0.50000000  1
  Cu  Cu67  1  0.19999300  0.59999000  0.70001200  1
  Cu  Cu68  1  0.69998200  0.09999800  0.70001000  1
  Cu  Cu69  1  0.09999500  0.29999900  0.60000700  1
  Cu  Cu70  1  0.20000000  0.10000300  0.70000900  1
  Cu  Cu71  1  0.29984900  0.89999200  0.80000700  1
  Cu  Cu72  1  0.90013100  0.70023300  0.89985700  1
  Cu  Cu73  1  0.39975900  0.69976900  0.90015800  1
  Cu  Cu74  1  0.39968400  0.19998800  0.90001000  1
