# generated using pymatgen
data_Cu2(NiC3)3
_symmetry_space_group_name_H-M   'P 1'
_cell_length_a   7.28674722
_cell_length_b   7.28674722
_cell_length_c   7.28674743
_cell_angle_alpha   61.91015349
_cell_angle_beta   61.91015349
_cell_angle_gamma   61.91015523
_symmetry_Int_Tables_number   1
_chemical_formula_structural   Cu2(NiC3)3
_chemical_formula_sum   'Cu2 Ni3 C9'
_cell_volume   285.27760568
_cell_formula_units_Z   1
loop_
 _symmetry_equiv_pos_site_id
 _symmetry_equiv_pos_as_xyz
  1  'x, y, z'
loop_
 _atom_site_type_symbol
 _atom_site_label
 _atom_site_symmetry_multiplicity
 _atom_site_fract_x
 _atom_site_fract_y
 _atom_site_fract_z
 _atom_site_occupancy
  C  C0  1  0.50000000  0.50000000  0.50000000  1
  Ni  Ni1  1  0.00000000  0.50000000  0.50000000  1
  Ni  Ni2  1  0.50000000  0.50000000  0.00000000  1
  Ni  Ni3  1  0.50000000  0.00000000  0.50000000  1
  Cu  Cu4  1  0.12385800  0.12385800  0.12385800  1
  Cu  Cu5  1  0.87614200  0.87614200  0.87614200  1
  C  C6  1  0.25431700  0.73140200  0.25431700  1
  C  C7  1  0.25431700  0.25431700  0.73140200  1
  C  C8  1  0.73140200  0.25431700  0.25431700  1
  C  C9  1  0.25913000  0.25913000  0.25913000  1
  C  C10  1  0.74568300  0.26859800  0.74568300  1
  C  C11  1  0.74568300  0.74568300  0.26859800  1
  C  C12  1  0.26859800  0.74568300  0.74568300  1
  C  C13  1  0.74087000  0.74087000  0.74087000  1
