# generated using pymatgen
data_Cu5Ni3C28
_symmetry_space_group_name_H-M   'P 1'
_cell_length_a   11.10982905
_cell_length_b   11.30036427
_cell_length_c   17.65206767
_cell_angle_alpha   108.57723056
_cell_angle_beta   108.55787319
_cell_angle_gamma   90.08684939
_symmetry_Int_Tables_number   1
_chemical_formula_structural   Cu5Ni3C28
_chemical_formula_sum   'Cu20 Ni12 C112'
_cell_volume   1978.32909285
_cell_formula_units_Z   4
loop_
 _symmetry_equiv_pos_site_id
 _symmetry_equiv_pos_as_xyz
  1  'x, y, z'
loop_
 _atom_site_type_symbol
 _atom_site_label
 _atom_site_symmetry_multiplicity
 _atom_site_fract_x
 _atom_site_fract_y
 _atom_site_fract_z
 _atom_site_occupancy
  C  C0  1  0.30635800  0.06237100  0.61037000  1
  C  C1  1  0.30313200  0.55809800  0.61078900  1
  C  C2  1  0.80945700  0.06271100  0.61011000  1
  C  C3  1  0.81383500  0.56183000  0.61234900  1
  C  C4  1  0.19173200  0.43372200  0.38464000  1
  C  C5  1  0.19569500  0.43923800  0.89196900  1
  C  C6  1  0.69740100  0.43743300  0.38496700  1
  C  C7  1  0.69760100  0.93450700  0.38413000  1
  C  C8  1  0.69555900  0.93770600  0.88892500  1
  C  C9  1  0.06142600  0.30017800  0.61122300  1
  C  C10  1  0.05991000  0.80222900  0.61312200  1
  C  C11  1  0.55854500  0.30029100  0.61218000  1
  C  C12  1  0.56092600  0.80197800  0.61248300  1
  C  C13  1  0.44264100  0.19976900  0.38455300  1
  C  C14  1  0.44305100  0.20211000  0.88959900  1
  C  C15  1  0.44656500  0.69753600  0.38407400  1
  C  C16  1  0.44538300  0.70014800  0.88953400  1
  C  C17  1  0.94765800  0.19807400  0.38519600  1
  C  C18  1  0.94990100  0.20502200  0.89206300  1
  C  C19  1  0.94444100  0.69811600  0.38336400  1
  C  C20  1  0.30026100  0.06918700  0.10969200  1
  C  C21  1  0.29917300  0.56173200  0.11145800  1
  C  C22  1  0.80199400  0.06743900  0.10751800  1
  C  C23  1  0.80541000  0.56695200  0.10936800  1
  C  C24  1  0.18447300  0.93577600  0.38712600  1
  C  C25  1  0.19659800  0.93582100  0.89391400  1
  C  C26  1  0.69764400  0.43996600  0.89277400  1
  C  C27  1  0.05689000  0.29207500  0.11023300  1
  C  C28  1  0.04985200  0.79730600  0.11306200  1
  C  C29  1  0.54806600  0.28957500  0.10839500  1
  C  C30  1  0.55600700  0.79566100  0.11017100  1
  C  C31  1  0.94689900  0.70542700  0.89508300  1
  Ni  Ni32  1  0.00414700  0.00010200  0.00026500  1
  Ni  Ni33  1  0.00465000  0.50110400  0.00459500  1
  Ni  Ni34  1  0.50262900  0.99983900  0.00383200  1
  Ni  Ni35  1  0.49967200  0.99923500  0.49638900  1
  Ni  Ni36  1  0.50646500  0.50625000  0.00710500  1
  Ni  Ni37  1  0.50312500  0.49967200  0.49974500  1
  Ni  Ni38  1  0.25423700  0.75364500  0.00949000  1
  Ni  Ni39  1  0.25202700  0.74983800  0.49814100  1
  Ni  Ni40  1  0.75070500  0.25401500  0.00112800  1
  Ni  Ni41  1  0.75394100  0.24915400  0.49712300  1
  Ni  Ni42  1  0.75618900  0.74990900  0.00180300  1
  Ni  Ni43  1  0.75563500  0.74965600  0.49915200  1
  Cu  Cu44  1  0.00276800  0.99718600  0.49642400  1
  Cu  Cu45  1  0.00148500  0.49957800  0.49709400  1
  Cu  Cu46  1  0.25658300  0.24982900  0.00339500  1
  Cu  Cu47  1  0.25080700  0.24747700  0.49776100  1
  Cu  Cu48  1  0.10468400  0.09026500  0.24443300  1
  Cu  Cu49  1  0.11226600  0.09449100  0.75605900  1
  Cu  Cu50  1  0.10994500  0.59298300  0.24560900  1
  Cu  Cu51  1  0.11133600  0.60396800  0.75835600  1
  Cu  Cu52  1  0.60454300  0.09141900  0.24475400  1
  Cu  Cu53  1  0.61277100  0.10194600  0.75119900  1
  Cu  Cu54  1  0.60877100  0.58943200  0.24433400  1
  Cu  Cu55  1  0.61776600  0.59478500  0.75283700  1
  Cu  Cu56  1  0.35684300  0.40113600  0.24630600  1
  Cu  Cu57  1  0.36917500  0.40535000  0.75406900  1
  Cu  Cu58  1  0.35496100  0.90427100  0.24749800  1
  Cu  Cu59  1  0.36332000  0.90486000  0.75282400  1
  Cu  Cu60  1  0.85349500  0.39904200  0.24045500  1
  Cu  Cu61  1  0.86021800  0.40844700  0.75454000  1
  Cu  Cu62  1  0.85737400  0.90231300  0.24223300  1
  Cu  Cu63  1  0.86701000  0.90331600  0.75242400  1
  C  C64  1  0.12212100  0.11490600  0.49221600  1
  C  C65  1  0.12372500  0.11067200  0.99072900  1
  C  C66  1  0.12532900  0.62267600  0.49137700  1
  C  C67  1  0.12611200  0.62625900  0.98912900  1
  C  C68  1  0.62513800  0.12366600  0.49090200  1
  C  C69  1  0.62849300  0.12646300  0.99162600  1
  C  C70  1  0.62702200  0.62343200  0.49183800  1
  C  C71  1  0.63134100  0.61986600  0.98872000  1
  C  C72  1  0.13545200  0.38716300  0.01810300  1
  C  C73  1  0.12376300  0.38029700  0.50254300  1
  C  C74  1  0.14237300  0.87994800  0.01878600  1
  C  C75  1  0.13451200  0.87568600  0.50583800  1
  C  C76  1  0.64150200  0.38252700  0.01625500  1
  C  C77  1  0.63277200  0.37710000  0.50533900  1
  C  C78  1  0.64162000  0.87855100  0.01676400  1
  C  C79  1  0.63482700  0.87512700  0.50604800  1
  C  C80  1  0.37400500  0.10997700  0.48745700  1
  C  C81  1  0.37714600  0.11062300  0.99062400  1
  C  C82  1  0.37564800  0.62091700  0.49083800  1
  C  C83  1  0.38018100  0.62023000  0.99244900  1
  C  C84  1  0.87452600  0.12133600  0.49297600  1
  C  C85  1  0.87837900  0.11862700  0.99337600  1
  C  C86  1  0.87598400  0.62107800  0.49239300  1
  C  C87  1  0.87767000  0.61817300  0.98850000  1
  C  C88  1  0.39525500  0.39045900  0.01645100  1
  C  C89  1  0.38479400  0.38341700  0.50483700  1
  C  C90  1  0.39060700  0.88411800  0.01718900  1
  C  C91  1  0.38397300  0.87775000  0.50628100  1
  C  C92  1  0.88943100  0.39015100  0.01877600  1
  C  C93  1  0.88045400  0.37919600  0.50501600  1
  C  C94  1  0.89164600  0.88334600  0.01610300  1
  C  C95  1  0.88196000  0.87745700  0.50483200  1
  C  C96  1  0.08227700  0.08929900  0.13008600  1
  C  C97  1  0.07952600  0.08160100  0.64213500  1
  C  C98  1  0.08286000  0.60212400  0.12655700  1
  C  C99  1  0.07521100  0.58988800  0.64414600  1
  C  C100  1  0.58641800  0.09407100  0.12474200  1
  C  C101  1  0.57402300  0.08190800  0.62429200  1
  C  C102  1  0.58947000  0.59819400  0.12560400  1
  C  C103  1  0.57763600  0.58111800  0.62672500  1
  C  C104  1  0.44633100  0.42106100  0.37193000  1
  C  C105  1  0.45402600  0.41776600  0.87430300  1
  C  C106  1  0.45098300  0.91620900  0.37144100  1
  C  C107  1  0.45612700  0.91430500  0.87831000  1
  C  C108  1  0.93019500  0.41717200  0.35550000  1
  C  C109  1  0.95203900  0.41633700  0.87826800  1
  C  C110  1  0.94797600  0.91022100  0.36136000  1
  C  C111  1  0.95518000  0.90560400  0.87803400  1
  C  C112  1  0.32946300  0.28178400  0.12635800  1
  C  C113  1  0.32422800  0.30520000  0.63648000  1
  C  C114  1  0.33100300  0.77768300  0.12693500  1
  C  C115  1  0.32211800  0.79405300  0.62657400  1
  C  C116  1  0.83231900  0.28541800  0.12724900  1
  C  C117  1  0.82269700  0.30117100  0.62826100  1
  C  C118  1  0.83541300  0.77832700  0.12436600  1
  C  C119  1  0.82618000  0.79506900  0.62666400  1
  C  C120  1  0.18169400  0.19313000  0.35947100  1
  C  C121  1  0.19374200  0.20872000  0.87335100  1
  C  C122  1  0.19486800  0.70952000  0.37132600  1
  C  C123  1  0.19966500  0.71567200  0.87497100  1
  C  C124  1  0.69354500  0.20270600  0.37160100  1
  C  C125  1  0.70393200  0.22174500  0.87943100  1
  C  C126  1  0.69505100  0.69937700  0.37002800  1
  C  C127  1  0.70816500  0.71346300  0.87644000  1
  C  C128  1  0.41534700  0.07107200  0.23903400  1
  C  C129  1  0.42996400  0.07407200  0.75240000  1
  C  C130  1  0.42203500  0.56630000  0.23874500  1
  C  C131  1  0.43482800  0.56688200  0.75149800  1
  C  C132  1  0.92340600  0.07233800  0.23753100  1
  C  C133  1  0.93578500  0.07539100  0.75312200  1
  C  C134  1  0.92167800  0.55861700  0.23813600  1
  C  C135  1  0.93631800  0.58492500  0.76206500  1
  C  C136  1  0.16904500  0.41841500  0.23989800  1
  C  C137  1  0.18898600  0.44388000  0.75521800  1
  C  C138  1  0.16863700  0.92496000  0.24812000  1
  C  C139  1  0.18303600  0.93463300  0.76237100  1
  C  C140  1  0.67242500  0.41273000  0.23678900  1
  C  C141  1  0.67759700  0.42452900  0.75958700  1
  C  C142  1  0.67005500  0.91957200  0.23895800  1
  C  C143  1  0.68670900  0.93608100  0.75347200  1
