# generated using pymatgen
data_Cu12Ni3C5
_symmetry_space_group_name_H-M   'P 1'
_cell_length_a   9.14126025
_cell_length_b   9.14126025
_cell_length_c   16.07395517
_cell_angle_alpha   73.39539489
_cell_angle_beta   73.39539489
_cell_angle_gamma   77.65390275
_symmetry_Int_Tables_number   1
_chemical_formula_structural   Cu12Ni3C5
_chemical_formula_sum   'Cu24 Ni6 C10'
_cell_volume   1220.65632352
_cell_formula_units_Z   2
loop_
 _symmetry_equiv_pos_site_id
 _symmetry_equiv_pos_as_xyz
  1  'x, y, z'
loop_
 _atom_site_type_symbol
 _atom_site_label
 _atom_site_symmetry_multiplicity
 _atom_site_fract_x
 _atom_site_fract_y
 _atom_site_fract_z
 _atom_site_occupancy
  C  C0  1  0.95497000  0.86710800  0.40646900  1
  C  C1  1  0.13289200  0.04503000  0.09353100  1
  C  C2  1  0.04503000  0.13289200  0.59353100  1
  C  C3  1  0.86710800  0.95497000  0.90646900  1
  C  C4  1  0.58665400  0.41334600  0.25000000  1
  C  C5  1  0.41334600  0.58665400  0.75000000  1
  Ni  Ni6  1  0.00000000  0.50000000  0.00000000  1
  Ni  Ni7  1  0.50000000  0.00000000  0.50000000  1
  Ni  Ni8  1  0.99305200  0.40132500  0.34692800  1
  Ni  Ni9  1  0.59867500  0.00694800  0.15307200  1
  Ni  Ni10  1  0.00694800  0.59867500  0.65307200  1
  Ni  Ni11  1  0.40132500  0.99305200  0.84692800  1
  Cu  Cu12  1  0.83392300  0.65073100  0.45695200  1
  Cu  Cu13  1  0.34926900  0.16607700  0.04304800  1
  Cu  Cu14  1  0.16607700  0.34926900  0.54304800  1
  Cu  Cu15  1  0.65073100  0.83392300  0.95695200  1
  Cu  Cu16  1  0.09392300  0.07057800  0.34257600  1
  Cu  Cu17  1  0.92942200  0.90607700  0.15742400  1
  Cu  Cu18  1  0.90607700  0.92942200  0.65742400  1
  Cu  Cu19  1  0.07057800  0.09392300  0.84257600  1
  Cu  Cu20  1  0.72297300  0.04136100  0.43129600  1
  Cu  Cu21  1  0.95863900  0.27702700  0.06870400  1
  Cu  Cu22  1  0.27702700  0.95863900  0.56870400  1
  Cu  Cu23  1  0.04136100  0.72297300  0.93129600  1
  Cu  Cu24  1  0.18681800  0.67957500  0.39037100  1
  Cu  Cu25  1  0.32042500  0.81318200  0.10962900  1
  Cu  Cu26  1  0.81318200  0.32042500  0.60962900  1
  Cu  Cu27  1  0.67957500  0.18681800  0.89037100  1
  Cu  Cu28  1  0.75290200  0.58899900  0.16749000  1
  Cu  Cu29  1  0.41100100  0.24709800  0.33251000  1
  Cu  Cu30  1  0.24709800  0.41100100  0.83251000  1
  Cu  Cu31  1  0.58899900  0.75290200  0.66749000  1
  Cu  Cu32  1  0.62351700  0.44579100  0.37909900  1
  Cu  Cu33  1  0.55420900  0.37648300  0.12090100  1
  Cu  Cu34  1  0.37648300  0.55420900  0.62090100  1
  Cu  Cu35  1  0.44579100  0.62351700  0.87909900  1
  C  C36  1  0.25495100  0.66087200  0.13573100  1
  C  C37  1  0.33912800  0.74504900  0.36426900  1
  C  C38  1  0.74504900  0.33912800  0.86426900  1
  C  C39  1  0.66087200  0.25495100  0.63573100  1
