# generated using pymatgen
data_Cu11NiC2
_symmetry_space_group_name_H-M   'P 1'
_cell_length_a   5.86458358
_cell_length_b   7.08591017
_cell_length_c   10.96260700
_cell_angle_alpha   90.00000000
_cell_angle_beta   90.00000000
_cell_angle_gamma   94.07411307
_symmetry_Int_Tables_number   1
_chemical_formula_structural   Cu11NiC2
_chemical_formula_sum   'Cu22 Ni2 C4'
_cell_volume   454.40992695
_cell_formula_units_Z   2
loop_
 _symmetry_equiv_pos_site_id
 _symmetry_equiv_pos_as_xyz
  1  'x, y, z'
loop_
 _atom_site_type_symbol
 _atom_site_label
 _atom_site_symmetry_multiplicity
 _atom_site_fract_x
 _atom_site_fract_y
 _atom_site_fract_z
 _atom_site_occupancy
  C  C0  1  0.63142600  0.66970800  0.49903000  1
  C  C1  1  0.36857400  0.33029200  0.99903000  1
  C  C2  1  0.82269000  0.82589800  0.87351500  1
  C  C3  1  0.17731000  0.17410200  0.37351500  1
  Ni  Ni4  1  0.77441400  0.77314800  0.21259500  1
  Ni  Ni5  1  0.22558600  0.22685200  0.71259500  1
  Cu  Cu6  1  0.35330400  0.74882200  0.87049400  1
  Cu  Cu7  1  0.64669600  0.25117800  0.37049400  1
  Cu  Cu8  1  0.16786000  0.67778100  0.54178200  1
  Cu  Cu9  1  0.83214000  0.32221900  0.04178200  1
  Cu  Cu10  1  0.73727700  0.94842600  0.73071800  1
  Cu  Cu11  1  0.26272300  0.05157400  0.23071800  1
  Cu  Cu12  1  0.51608600  0.83576200  0.93890900  1
  Cu  Cu13  1  0.48391400  0.16423800  0.43890900  1
  Cu  Cu14  1  0.07122200  0.82617300  0.56416100  1
  Cu  Cu15  1  0.92877800  0.17382700  0.06416100  1
  Cu  Cu16  1  0.56424400  0.86298500  0.66199800  1
  Cu  Cu17  1  0.43575600  0.13701500  0.16199800  1
  Cu  Cu18  1  0.56041600  0.48089200  0.83562300  1
  Cu  Cu19  1  0.43958400  0.51910800  0.33562300  1
  Cu  Cu20  1  0.87691900  0.72394900  0.12188700  1
  Cu  Cu21  1  0.12308100  0.27605100  0.62188700  1
  Cu  Cu22  1  0.77713700  0.57205300  0.82931000  1
  Cu  Cu23  1  0.22286300  0.42794700  0.32931000  1
  Cu  Cu24  1  0.76316200  0.42419100  0.59601500  1
  Cu  Cu25  1  0.23683800  0.57580900  0.09601500  1
  Cu  Cu26  1  0.85186200  0.76706000  0.31856100  1
  Cu  Cu27  1  0.14813800  0.23294000  0.81856100  1
