# generated using pymatgen
data_Cu14Ni6C7
_symmetry_space_group_name_H-M   'P 1'
_cell_length_a   4.21525700
_cell_length_b   12.93437446
_cell_length_c   12.93437446
_cell_angle_alpha   120.00000237
_cell_angle_beta   90.00000000
_cell_angle_gamma   90.00000000
_symmetry_Int_Tables_number   1
_chemical_formula_structural   Cu14Ni6C7
_chemical_formula_sum   'Cu14 Ni6 C7'
_cell_volume   610.72477709
_cell_formula_units_Z   1
loop_
 _symmetry_equiv_pos_site_id
 _symmetry_equiv_pos_as_xyz
  1  'x, y, z'
loop_
 _atom_site_type_symbol
 _atom_site_label
 _atom_site_symmetry_multiplicity
 _atom_site_fract_x
 _atom_site_fract_y
 _atom_site_fract_z
 _atom_site_occupancy
  C  C0  1  0.00000000  0.81339000  0.18661000  1
  C  C1  1  0.00000000  0.18661000  0.81339000  1
  C  C2  1  0.00000000  0.37322000  0.18661000  1
  C  C3  1  0.00000000  0.62678000  0.81339000  1
  C  C4  1  0.00000000  0.81339000  0.62678000  1
  C  C5  1  0.00000000  0.18661000  0.37322000  1
  C  C6  1  0.00000000  0.00000000  0.00000000  1
  Ni  Ni7  1  0.50000000  0.41368100  0.58631900  1
  Ni  Ni8  1  0.50000000  0.58631900  0.41368100  1
  Ni  Ni9  1  0.50000000  0.17263800  0.58631900  1
  Ni  Ni10  1  0.50000000  0.82736200  0.41368100  1
  Ni  Ni11  1  0.50000000  0.41368100  0.82736200  1
  Ni  Ni12  1  0.50000000  0.58631900  0.17263800  1
  Cu  Cu13  1  0.50000000  0.64316400  0.64316400  1
  Cu  Cu14  1  0.50000000  0.35683600  0.35683600  1
  Cu  Cu15  1  0.50000000  0.00000000  0.35683600  1
  Cu  Cu16  1  0.50000000  0.00000000  0.64316400  1
  Cu  Cu17  1  0.50000000  0.35683600  0.00000000  1
  Cu  Cu18  1  0.50000000  0.64316400  0.00000000  1
  Cu  Cu19  1  0.50000000  0.81896900  0.81896900  1
  Cu  Cu20  1  0.50000000  0.18103100  0.18103100  1
  Cu  Cu21  1  0.50000000  0.00000000  0.18103100  1
  Cu  Cu22  1  0.50000000  0.00000000  0.81896900  1
  Cu  Cu23  1  0.50000000  0.18103100  0.00000000  1
  Cu  Cu24  1  0.50000000  0.81896900  0.00000000  1
  Cu  Cu25  1  0.00000000  0.66666700  0.33333300  1
  Cu  Cu26  1  0.00000000  0.33333300  0.66666700  1
