# generated using pymatgen
data_Cu2NiC7
_symmetry_space_group_name_H-M   'P 1'
_cell_length_a   12.19357000
_cell_length_b   4.80548100
_cell_length_c   9.05371671
_cell_angle_alpha   59.07256032
_cell_angle_beta   90.00000000
_cell_angle_gamma   90.00000000
_symmetry_Int_Tables_number   1
_chemical_formula_structural   Cu2NiC7
_chemical_formula_sum   'Cu8 Ni4 C28'
_cell_volume   455.08260451
_cell_formula_units_Z   4
loop_
 _symmetry_equiv_pos_site_id
 _symmetry_equiv_pos_as_xyz
  1  'x, y, z'
loop_
 _atom_site_type_symbol
 _atom_site_label
 _atom_site_symmetry_multiplicity
 _atom_site_fract_x
 _atom_site_fract_y
 _atom_site_fract_z
 _atom_site_occupancy
  Ni  Ni0  1  0.35202700  0.61953800  0.15409100  1
  Ni  Ni1  1  0.85202700  0.38046200  0.34590900  1
  Ni  Ni2  1  0.64797300  0.38046200  0.84590900  1
  Ni  Ni3  1  0.14797300  0.61953800  0.65409100  1
  Cu  Cu4  1  0.19939600  0.22040000  0.05215500  1
  Cu  Cu5  1  0.69939600  0.77960000  0.44784500  1
  Cu  Cu6  1  0.80060400  0.77960000  0.94784500  1
  Cu  Cu7  1  0.30060400  0.22040000  0.55215500  1
  Cu  Cu8  1  0.01898700  0.90247200  0.30330000  1
  Cu  Cu9  1  0.51898700  0.09752800  0.19670000  1
  Cu  Cu10  1  0.98101300  0.09752800  0.69670000  1
  Cu  Cu11  1  0.48101300  0.90247200  0.80330000  1
  C  C12  1  0.26486400  0.32279300  0.15937900  1
  C  C13  1  0.76486400  0.67720700  0.34062100  1
  C  C14  1  0.73513600  0.67720700  0.84062100  1
  C  C15  1  0.23513600  0.32279300  0.65937900  1
  C  C16  1  0.24032500  0.90298500  0.07214000  1
  C  C17  1  0.74032500  0.09701500  0.42786000  1
  C  C18  1  0.75967500  0.09701500  0.92786000  1
  C  C19  1  0.25967500  0.90298500  0.57214000  1
  C  C20  1  0.18795400  0.49593500  0.86710100  1
  C  C21  1  0.68795400  0.50406500  0.63289900  1
  C  C22  1  0.81204600  0.50406500  0.13289900  1
  C  C23  1  0.31204600  0.49593500  0.36710100  1
  C  C24  1  0.42387900  0.15947200  0.62591600  1
  C  C25  1  0.92387900  0.84052800  0.87408400  1
  C  C26  1  0.57612100  0.84052800  0.37408400  1
  C  C27  1  0.07612100  0.15947200  0.12591600  1
  C  C28  1  0.53647800  0.66404900  0.76286500  1
  C  C29  1  0.03647800  0.33595100  0.73713500  1
  C  C30  1  0.46352200  0.33595100  0.23713500  1
  C  C31  1  0.96352200  0.66404900  0.26286500  1
  C  C32  1  0.56196000  0.08247100  0.85017900  1
  C  C33  1  0.06196000  0.91752900  0.64982100  1
  C  C34  1  0.43804000  0.91752900  0.14982100  1
  C  C35  1  0.93804000  0.08247100  0.35017900  1
  C  C36  1  0.39057300  0.74213100  0.93789200  1
  C  C37  1  0.89057300  0.25786900  0.56210800  1
  C  C38  1  0.60942700  0.25786900  0.06210800  1
  C  C39  1  0.10942700  0.74213100  0.43789200  1
