# generated using pymatgen
data_CuNiC35
_symmetry_space_group_name_H-M   'P 1'
_cell_length_a   10.46764749
_cell_length_b   14.30013516
_cell_length_c   22.52050530
_cell_angle_alpha   90.00000000
_cell_angle_beta   90.00000000
_cell_angle_gamma   90.50700996
_symmetry_Int_Tables_number   1
_chemical_formula_structural   CuNiC35
_chemical_formula_sum   'Cu8 Ni8 C280'
_cell_volume   3370.93484172
_cell_formula_units_Z   8
loop_
 _symmetry_equiv_pos_site_id
 _symmetry_equiv_pos_as_xyz
  1  'x, y, z'
loop_
 _atom_site_type_symbol
 _atom_site_label
 _atom_site_symmetry_multiplicity
 _atom_site_fract_x
 _atom_site_fract_y
 _atom_site_fract_z
 _atom_site_occupancy
  C  C0  1  0.25124584  0.93101153  0.19046900  1
  C  C1  1  0.24875416  0.06898847  0.69046900  1
  C  C2  1  0.74875416  0.06898847  0.80953100  1
  C  C3  1  0.75124584  0.93101153  0.30953100  1
  C  C4  1  0.25216926  0.05551663  0.19076167  1
  C  C5  1  0.24783074  0.94448337  0.69076167  1
  C  C6  1  0.74783074  0.94448337  0.80923833  1
  C  C7  1  0.75216926  0.05551663  0.30923833  1
  C  C8  1  0.38876215  0.99350352  0.21500905  1
  C  C9  1  0.11123785  0.00649648  0.71500905  1
  C  C10  1  0.61123785  0.00649648  0.78499095  1
  C  C11  1  0.88876215  0.99350352  0.28499095  1
  C  C12  1  0.40768195  0.09439730  0.16963910  1
  C  C13  1  0.09231805  0.90560270  0.66963910  1
  C  C14  1  0.59231805  0.90560270  0.83036090  1
  C  C15  1  0.90768195  0.09439730  0.33036090  1
  C  C16  1  0.50224802  0.99401824  0.15581002  1
  C  C17  1  0.99775198  0.00598176  0.65581002  1
  C  C18  1  0.49775198  0.00598176  0.84418998  1
  C  C19  1  0.00224802  0.99401824  0.34418998  1
  C  C20  1  0.43454961  0.05628278  0.09551346  1
  C  C21  1  0.06545039  0.94371722  0.59551346  1
  C  C22  1  0.56545039  0.94371722  0.90448654  1
  C  C23  1  0.93454961  0.05628278  0.40448654  1
  C  C24  1  0.43348648  0.93180040  0.09537924  1
  C  C25  1  0.06651352  0.06819960  0.59537924  1
  C  C26  1  0.56651352  0.06819960  0.90462076  1
  C  C27  1  0.93348648  0.93180040  0.40462076  1
  C  C28  1  0.28070024  0.89213180  0.11744514  1
  C  C29  1  0.21929976  0.10786820  0.61744514  1
  C  C30  1  0.71929976  0.10786820  0.88255486  1
  C  C31  1  0.78070024  0.89213180  0.38255486  1
  C  C32  1  0.28262658  0.09540708  0.11793591  1
  C  C33  1  0.21737342  0.90459292  0.61793591  1
  C  C34  1  0.71737342  0.90459292  0.88206409  1
  C  C35  1  0.78262658  0.09540708  0.38206409  1
  C  C36  1  0.40630462  0.89323035  0.16940438  1
  C  C37  1  0.09369538  0.10676965  0.66940438  1
  C  C38  1  0.59369538  0.10676965  0.83059562  1
  C  C39  1  0.90630462  0.89323035  0.33059562  1
  C  C40  1  0.59858476  0.40655137  0.88542244  1
  C  C41  1  0.90141524  0.59344863  0.38542244  1
  C  C42  1  0.40141524  0.59344863  0.11457756  1
  C  C43  1  0.09858476  0.40655137  0.61457756  1
  C  C44  1  0.70926684  0.41006792  0.82548236  1
  C  C45  1  0.79073316  0.58993208  0.32548236  1
  C  C46  1  0.29073316  0.58993208  0.17451764  1
  C  C47  1  0.20926684  0.41006792  0.67451764  1
  C  C48  1  0.54986006  0.44785786  0.81475715  1
  C  C49  1  0.95013994  0.55214214  0.31475715  1
  C  C50  1  0.45013994  0.55214214  0.18524285  1
  C  C51  1  0.04986006  0.44785786  0.68524285  1
  C  C52  1  0.55069041  0.57257178  0.81725557  1
  C  C53  1  0.94930959  0.42742822  0.31725557  1
  C  C54  1  0.44930959  0.42742822  0.18274443  1
  C  C55  1  0.05069041  0.57257178  0.68274443  1
  C  C56  1  0.71060998  0.61026182  0.82954638  1
  C  C57  1  0.78939002  0.38973818  0.32954638  1
  C  C58  1  0.28939002  0.38973818  0.17045362  1
  C  C59  1  0.21060998  0.61026182  0.67045362  1
  C  C60  1  0.59993198  0.60718890  0.88947395  1
  C  C61  1  0.90006802  0.39281110  0.38947395  1
  C  C62  1  0.40006802  0.39281110  0.11052605  1
  C  C63  1  0.09993198  0.60718890  0.61052605  1
  C  C64  1  0.80739177  0.51016184  0.83337099  1
  C  C65  1  0.69260823  0.48983816  0.33337099  1
  C  C66  1  0.19260823  0.48983816  0.16662901  1
  C  C67  1  0.30739177  0.51016184  0.66662901  1
  C  C68  1  0.62599443  0.50478429  0.93125910  1
  C  C69  1  0.87400557  0.49521571  0.43125910  1
  C  C70  1  0.37400557  0.49521571  0.06874090  1
  C  C71  1  0.12599443  0.50478429  0.56874090  1
  C  C72  1  0.67878133  0.51228820  0.78299555  1
  C  C73  1  0.82121867  0.48771180  0.28299555  1
  C  C74  1  0.32121867  0.48771180  0.21700445  1
  C  C75  1  0.17878133  0.51228820  0.71700445  1
  C  C76  1  0.49995068  0.50690811  0.88014957  1
  C  C77  1  0.00004932  0.49309189  0.38014957  1
  C  C78  1  0.50004932  0.49309189  0.11985043  1
  C  C79  1  0.99995068  0.50690811  0.61985043  1
  C  C80  1  0.05498087  0.97091463  0.02294283  1
  C  C81  1  0.44501913  0.02908537  0.52294283  1
  C  C82  1  0.94501913  0.02908537  0.97705717  1
  C  C83  1  0.55498087  0.97091463  0.47705717  1
  C  C84  1  0.96934782  0.50248343  0.96339093  1
  C  C85  1  0.53065218  0.49751657  0.46339093  1
  C  C86  1  0.03065218  0.49751657  0.03660907  1
  C  C87  1  0.46934782  0.50248343  0.53660907  1
  C  C88  1  0.07743072  0.23771205  0.91574172  1
  C  C89  1  0.42256928  0.76228795  0.41574172  1
  C  C90  1  0.92256928  0.76228795  0.08425828  1
  C  C91  1  0.57743072  0.23771205  0.58425828  1
  C  C92  1  0.13044156  0.34407488  0.89681105  1
  C  C93  1  0.36955844  0.65592512  0.39681105  1
  C  C94  1  0.86955844  0.65592512  0.10318895  1
  C  C95  1  0.63044156  0.34407488  0.60318895  1
  C  C96  1  0.11165739  0.67312960  0.89596979  1
  C  C97  1  0.38834261  0.32687040  0.39596979  1
  C  C98  1  0.88834261  0.32687040  0.10403021  1
  C  C99  1  0.61165739  0.67312960  0.60403021  1
  C  C100  1  0.07689131  0.78252212  0.91432332  1
  C  C101  1  0.42310869  0.21747788  0.41432332  1
  C  C102  1  0.92310869  0.21747788  0.08567668  1
  C  C103  1  0.57689131  0.78252212  0.58567668  1
  C  C104  1  0.17612068  0.88877950  0.21995098  1
  C  C105  1  0.32387932  0.11122050  0.71995098  1
  C  C106  1  0.82387932  0.11122050  0.78004902  1
  C  C107  1  0.67612068  0.88877950  0.28004902  1
  C  C108  1  0.17765835  0.09702796  0.22045406  1
  C  C109  1  0.32234165  0.90297204  0.72045406  1
  C  C110  1  0.82234165  0.90297204  0.77954594  1
  C  C111  1  0.67765835  0.09702796  0.27954594  1
  C  C112  1  0.41869081  0.99331016  0.26615334  1
  C  C113  1  0.08130919  0.00668984  0.76615334  1
  C  C114  1  0.58130919  0.00668984  0.73384666  1
  C  C115  1  0.91869081  0.99331016  0.23384666  1
  C  C116  1  0.45069000  0.16693268  0.18711294  1
  C  C117  1  0.04931000  0.83306732  0.68711294  1
  C  C118  1  0.54931000  0.83306732  0.81288706  1
  C  C119  1  0.95069000  0.16693268  0.31288706  1
  C  C120  1  0.61514797  0.99439855  0.16373959  1
  C  C121  1  0.88485203  0.00560145  0.66373959  1
  C  C122  1  0.38485203  0.00560145  0.83626041  1
  C  C123  1  0.11514797  0.99439855  0.33626041  1
  C  C124  1  0.48922917  0.09841291  0.05760819  1
  C  C125  1  0.01077083  0.90158709  0.55760819  1
  C  C126  1  0.51077083  0.90158709  0.94239181  1
  C  C127  1  0.98922917  0.09841291  0.44239181  1
  C  C128  1  0.48735183  0.89007549  0.05734891  1
  C  C129  1  0.01264817  0.10992451  0.55734891  1
  C  C130  1  0.51264817  0.10992451  0.94265109  1
  C  C131  1  0.98735183  0.89007549  0.44265109  1
  C  C132  1  0.22637836  0.82834817  0.09506304  1
  C  C133  1  0.27362164  0.17165183  0.59506304  1
  C  C134  1  0.77362164  0.17165183  0.90493696  1
  C  C135  1  0.72637836  0.82834817  0.40493696  1
  C  C136  1  0.22858417  0.15853168  0.09534300  1
  C  C137  1  0.27141583  0.84146832  0.59534300  1
  C  C138  1  0.77141583  0.84146832  0.90465700  1
  C  C139  1  0.72858417  0.15853168  0.40465700  1
  C  C140  1  0.44804330  0.82078365  0.18676827  1
  C  C141  1  0.05195670  0.17921635  0.68676827  1
  C  C142  1  0.55195670  0.17921635  0.81323173  1
  C  C143  1  0.94804330  0.82078365  0.31323173  1
  C  C144  1  0.57219517  0.33379399  0.90813999  1
  C  C145  1  0.92780483  0.66620601  0.40813999  1
  C  C146  1  0.42780483  0.66620601  0.09186001  1
  C  C147  1  0.07219517  0.33379399  0.59186001  1
  C  C148  1  0.75621105  0.33957334  0.80822195  1
  C  C149  1  0.74378895  0.66042666  0.30822195  1
  C  C150  1  0.24378895  0.66042666  0.19177805  1
  C  C151  1  0.25621105  0.33957334  0.69177805  1
  C  C152  1  0.47687103  0.40326689  0.78512144  1
  C  C153  1  0.02312897  0.59673311  0.28512144  1
  C  C154  1  0.52312897  0.59673311  0.21487856  1
  C  C155  1  0.97687103  0.40326689  0.71487856  1
  C  C156  1  0.47828634  0.61952851  0.78939685  1
  C  C157  1  0.02171366  0.38047149  0.28939685  1
  C  C158  1  0.52171366  0.38047149  0.21060315  1
  C  C159  1  0.97828634  0.61952851  0.71060315  1
  C  C160  1  0.75810638  0.68271134  0.81505298  1
  C  C161  1  0.74189362  0.31728866  0.31505298  1
  C  C162  1  0.24189362  0.31728866  0.18494702  1
  C  C163  1  0.25810638  0.68271134  0.68494702  1
  C  C164  1  0.57421304  0.67749758  0.91490188  1
  C  C165  1  0.92578696  0.32250242  0.41490188  1
  C  C166  1  0.42578696  0.32250242  0.08509812  1
  C  C167  1  0.07421304  0.67749758  0.58509812  1
  C  C168  1  0.91873035  0.51101616  0.82453603  1
  C  C169  1  0.58126965  0.48898384  0.32453603  1
  C  C170  1  0.08126965  0.48898384  0.17546397  1
  C  C171  1  0.41873035  0.51101616  0.67546397  1
  C  C172  1  0.62645516  0.50209007  0.98374409  1
  C  C173  1  0.87354484  0.49790993  0.48374409  1
  C  C174  1  0.37354484  0.49790993  0.01625591  1
  C  C175  1  0.12645516  0.50209007  0.51625591  1
  C  C176  1  0.69986349  0.51493311  0.73097324  1
  C  C177  1  0.80013651  0.48506689  0.23097324  1
  C  C178  1  0.30013651  0.48506689  0.26902676  1
  C  C179  1  0.19986349  0.51493311  0.76902676  1
  C  C180  1  0.39266989  0.50567142  0.89779640  1
  C  C181  1  0.10733011  0.49432858  0.39779640  1
  C  C182  1  0.60733011  0.49432858  0.10220360  1
  C  C183  1  0.89266989  0.50567142  0.60220360  1
  C  C184  1  0.29818559  0.26109929  0.94355053  1
  C  C185  1  0.20181441  0.73890071  0.44355053  1
  C  C186  1  0.70181441  0.73890071  0.05644947  1
  C  C187  1  0.79818559  0.26109929  0.55644947  1
  C  C188  1  0.27505439  0.16570952  0.89294248  1
  C  C189  1  0.22494561  0.83429048  0.39294248  1
  C  C190  1  0.72494561  0.83429048  0.10705752  1
  C  C191  1  0.77505439  0.16570952  0.60705752  1
  C  C192  1  0.33643624  0.27557697  0.86630043  1
  C  C193  1  0.16356376  0.72442303  0.36630043  1
  C  C194  1  0.66356376  0.72442303  0.13369957  1
  C  C195  1  0.83643624  0.27557697  0.63369957  1
  C  C196  1  0.99373225  0.27081727  0.82127031  1
  C  C197  1  0.50626775  0.72918273  0.32127031  1
  C  C198  1  0.00626775  0.72918273  0.17872969  1
  C  C199  1  0.49373225  0.27081727  0.67872969  1
  C  C200  1  0.14830922  0.30713060  0.79537426  1
  C  C201  1  0.35169078  0.69286940  0.29537426  1
  C  C202  1  0.85169078  0.69286940  0.20462574  1
  C  C203  1  0.64830922  0.30713060  0.70462574  1
  C  C204  1  0.11707109  0.18593704  0.81129591  1
  C  C205  1  0.38292891  0.81406296  0.31129591  1
  C  C206  1  0.88292891  0.81406296  0.18870409  1
  C  C207  1  0.61707109  0.18593704  0.68870409  1
  C  C208  1  0.99758682  0.73509922  0.81544172  1
  C  C209  1  0.50241318  0.26490078  0.31544172  1
  C  C210  1  0.00241318  0.26490078  0.18455828  1
  C  C211  1  0.49758682  0.73509922  0.68455828  1
  C  C212  1  0.10140996  0.83565917  0.81393707  1
  C  C213  1  0.39859004  0.16434083  0.31393707  1
  C  C214  1  0.89859004  0.16434083  0.18606293  1
  C  C215  1  0.60140996  0.83565917  0.68606293  1
  C  C216  1  0.16108685  0.72272724  0.79352212  1
  C  C217  1  0.33891315  0.27727276  0.29352212  1
  C  C218  1  0.83891315  0.27727276  0.20647788  1
  C  C219  1  0.66108685  0.72272724  0.70647788  1
  C  C220  1  0.28537580  0.75653344  0.94585843  1
  C  C221  1  0.21462420  0.24346656  0.44585843  1
  C  C222  1  0.71462420  0.24346656  0.05414157  1
  C  C223  1  0.78537580  0.75653344  0.55414157  1
  C  C224  1  0.32726112  0.71062290  0.87418956  1
  C  C225  1  0.17273888  0.28937710  0.37418956  1
  C  C226  1  0.67273888  0.28937710  0.12581044  1
  C  C227  1  0.82726112  0.71062290  0.62581044  1
  C  C228  1  0.29340804  0.83285035  0.88280003  1
  C  C229  1  0.20659196  0.16714965  0.38280003  1
  C  C230  1  0.70659196  0.16714965  0.11719997  1
  C  C231  1  0.79340804  0.83285035  0.61719997  1
  C  C232  1  0.75094656  0.44901315  0.89498590  1
  C  C233  1  0.74905344  0.55098685  0.39498590  1
  C  C234  1  0.24905344  0.55098685  0.10501410  1
  C  C235  1  0.25094656  0.44901315  0.60501410  1
  C  C236  1  0.19480619  0.99355961  0.13094783  1
  C  C237  1  0.30519381  0.00644039  0.63094783  1
  C  C238  1  0.80519381  0.00644039  0.86905217  1
  C  C239  1  0.69480619  0.99355961  0.36905217  1
  C  C240  1  0.75190571  0.56454514  0.89742148  1
  C  C241  1  0.74809429  0.43545486  0.39742148  1
  C  C242  1  0.24809429  0.43545486  0.10257852  1
  C  C243  1  0.25190571  0.56454514  0.60257852  1
  C  C244  1  0.30009828  0.99396890  0.07599580  1
  C  C245  1  0.19990172  0.00603110  0.57599580  1
  C  C246  1  0.69990172  0.00603110  0.92400420  1
  C  C247  1  0.80009828  0.99396890  0.42400420  1
  C  C248  1  0.27189042  0.24182177  0.89812880  1
  C  C249  1  0.22810958  0.75817823  0.39812880  1
  C  C250  1  0.72810958  0.75817823  0.10187120  1
  C  C251  1  0.77189042  0.24182177  0.60187120  1
  C  C252  1  0.09648973  0.25810568  0.82410854  1
  C  C253  1  0.40351027  0.74189432  0.32410854  1
  C  C254  1  0.90351027  0.74189432  0.17589146  1
  C  C255  1  0.59648973  0.25810568  0.67589146  1
  C  C256  1  0.09532703  0.76046382  0.82257734  1
  C  C257  1  0.40467297  0.23953618  0.32257734  1
  C  C258  1  0.90467297  0.23953618  0.17742266  1
  C  C259  1  0.59532703  0.76046382  0.67742266  1
  C  C260  1  0.26971646  0.76209807  0.89796994  1
  C  C261  1  0.23028354  0.23790193  0.39796994  1
  C  C262  1  0.73028354  0.23790193  0.10203006  1
  C  C263  1  0.76971646  0.76209807  0.60203006  1
  C  C264  1  0.03241541  0.99675575  0.10587200  1
  C  C265  1  0.46758459  0.00324425  0.60587200  1
  C  C266  1  0.96758459  0.00324425  0.89412800  1
  C  C267  1  0.53241541  0.99675575  0.39412800  1
  C  C268  1  0.22917368  0.99837182  0.00390561  1
  C  C269  1  0.27082632  0.00162818  0.50390561  1
  C  C270  1  0.77082632  0.00162818  0.99609439  1
  C  C271  1  0.72917368  0.99837182  0.49609439  1
  C  C272  1  0.86407412  0.39622848  0.94376143  1
  C  C273  1  0.63592588  0.60377152  0.44376143  1
  C  C274  1  0.13592588  0.60377152  0.05623857  1
  C  C275  1  0.36407412  0.39622848  0.55623857  1
  C  C276  1  0.86730863  0.61176815  0.94828357  1
  C  C277  1  0.63269137  0.38823185  0.44828357  1
  C  C278  1  0.13269137  0.38823185  0.05171643  1
  C  C279  1  0.36730863  0.61176815  0.55171643  1
  Ni  Ni280  1  0.13867485  0.27319803  0.88665415  1
  Ni  Ni281  1  0.36132515  0.72680197  0.38665415  1
  Ni  Ni282  1  0.86132515  0.72680197  0.11334585  1
  Ni  Ni283  1  0.63867485  0.27319803  0.61334585  1
  Ni  Ni284  1  0.13202882  0.74249278  0.88551522  1
  Ni  Ni285  1  0.36797118  0.25750722  0.38551522  1
  Ni  Ni286  1  0.86797118  0.25750722  0.11448478  1
  Ni  Ni287  1  0.63202882  0.74249278  0.61448478  1
  Cu  Cu288  1  0.02279096  0.83430614  0.00985135  1
  Cu  Cu289  1  0.47720904  0.16569386  0.50985135  1
  Cu  Cu290  1  0.97720904  0.16569386  0.99014865  1
  Cu  Cu291  1  0.52279096  0.83430614  0.49014865  1
  Cu  Cu292  1  0.11729878  0.50612323  0.90891633  1
  Cu  Cu293  1  0.38270122  0.49387677  0.40891633  1
  Cu  Cu294  1  0.88270122  0.49387677  0.09108367  1
  Cu  Cu295  1  0.61729878  0.50612323  0.59108367  1
