# generated using pymatgen
data_Cu(NiC3)2
_symmetry_space_group_name_H-M   'P 1'
_cell_length_a   8.95328652
_cell_length_b   8.95328652
_cell_length_c   8.95328652
_cell_angle_alpha   143.96688887
_cell_angle_beta   142.80006866
_cell_angle_gamma   52.75620195
_symmetry_Int_Tables_number   1
_chemical_formula_structural   Cu(NiC3)2
_chemical_formula_sum   'Cu2 Ni4 C12'
_cell_volume   253.72366403
_cell_formula_units_Z   2
loop_
 _symmetry_equiv_pos_site_id
 _symmetry_equiv_pos_as_xyz
  1  'x, y, z'
loop_
 _atom_site_type_symbol
 _atom_site_label
 _atom_site_symmetry_multiplicity
 _atom_site_fract_x
 _atom_site_fract_y
 _atom_site_fract_z
 _atom_site_occupancy
  Ni  Ni0  1  0.92778900  0.91217600  0.04081900  1
  Ni  Ni1  1  0.62864300  0.61303000  0.04081900  1
  Ni  Ni2  1  0.07221100  0.11303000  0.98438700  1
  Ni  Ni3  1  0.37135700  0.41217600  0.98438700  1
  Cu  Cu4  1  0.29222900  0.79166700  0.58389600  1
  Cu  Cu5  1  0.70777100  0.29166700  0.49943800  1
  C  C6  1  0.00000000  0.48748100  0.48748100  1
  C  C7  1  0.50000000  0.98748100  0.48748100  1
  C  C8  1  0.33535600  0.19028400  0.02563900  1
  C  C9  1  0.66464400  0.69028400  0.85492800  1
  C  C10  1  0.95306800  0.31540100  0.52597400  1
  C  C11  1  0.04693200  0.57290500  0.36233200  1
  C  C12  1  0.28942700  0.81540100  0.36233200  1
  C  C13  1  0.71057300  0.07290500  0.52597400  1
  C  C14  1  0.27193800  0.25601600  0.49403200  1
  C  C15  1  0.72806200  0.22209500  0.98407800  1
  C  C16  1  0.73801700  0.72209500  0.49403200  1
  C  C17  1  0.26198300  0.75601600  0.98407800  1
