# generated using pymatgen
data_Cu(Ni2C5)2
_symmetry_space_group_name_H-M   'P 1'
_cell_length_a   11.08523010
_cell_length_b   16.53166230
_cell_length_c   16.78658835
_cell_angle_alpha   104.29834362
_cell_angle_beta   90.00000000
_cell_angle_gamma   90.00000000
_symmetry_Int_Tables_number   1
_chemical_formula_structural   Cu(Ni2C5)2
_chemical_formula_sum   'Cu16 Ni64 C160'
_cell_volume   2980.97068727
_cell_formula_units_Z   16
loop_
 _symmetry_equiv_pos_site_id
 _symmetry_equiv_pos_as_xyz
  1  'x, y, z'
loop_
 _atom_site_type_symbol
 _atom_site_label
 _atom_site_symmetry_multiplicity
 _atom_site_fract_x
 _atom_site_fract_y
 _atom_site_fract_z
 _atom_site_occupancy
  C  C0  1  0.15957151  0.66958310  0.37162854  1
  C  C1  1  0.65957151  0.33041690  0.12837146  1
  C  C2  1  0.84042849  0.33041690  0.62837146  1
  C  C3  1  0.34042849  0.66958310  0.87162854  1
  C  C4  1  0.93590361  0.71480294  0.31402973  1
  C  C5  1  0.43590361  0.28519706  0.18597027  1
  C  C6  1  0.06409639  0.28519706  0.68597027  1
  C  C7  1  0.56409639  0.71480294  0.81402973  1
  C  C8  1  0.15538084  0.76993571  0.26022115  1
  C  C9  1  0.65538084  0.23006429  0.23977885  1
  C  C10  1  0.84461916  0.23006429  0.73977885  1
  C  C11  1  0.34461916  0.76993571  0.76022115  1
  C  C12  1  0.07916091  0.83572312  0.42234365  1
  C  C13  1  0.57916091  0.16427688  0.07765635  1
  C  C14  1  0.92083909  0.16427688  0.57765635  1
  C  C15  1  0.42083909  0.83572312  0.92234365  1
  Ni  Ni16  1  0.80727713  0.72665674  0.47764285  1
  Ni  Ni17  1  0.30727713  0.27334326  0.02235715  1
  Ni  Ni18  1  0.19272287  0.27334326  0.52235715  1
  Ni  Ni19  1  0.69272287  0.72665674  0.97764285  1
  Ni  Ni20  1  0.96857805  0.62144942  0.50158400  1
  Ni  Ni21  1  0.46857805  0.37855058  0.99841600  1
  Ni  Ni22  1  0.03142195  0.37855058  0.49841600  1
  Ni  Ni23  1  0.53142195  0.62144942  0.00158400  1
  Ni  Ni24  1  0.99137493  0.77859361  0.57016509  1
  Ni  Ni25  1  0.49137493  0.22140639  0.92983491  1
  Ni  Ni26  1  0.00862507  0.22140639  0.42983491  1
  Ni  Ni27  1  0.50862507  0.77859361  0.07016509  1
  Ni  Ni28  1  0.08618381  0.58637885  0.20032222  1
  Ni  Ni29  1  0.58618381  0.41362115  0.29967778  1
  Ni  Ni30  1  0.91381619  0.41362115  0.79967778  1
  Ni  Ni31  1  0.41381619  0.58637885  0.70032222  1
  Ni  Ni32  1  0.10388060  0.51036770  0.24113072  1
  Ni  Ni33  1  0.60388060  0.48963230  0.25886928  1
  Ni  Ni34  1  0.89611940  0.48963230  0.75886928  1
  Ni  Ni35  1  0.39611940  0.51036770  0.74113072  1
  Ni  Ni36  1  0.96251698  0.57574011  0.15130967  1
  Ni  Ni37  1  0.46251698  0.42425989  0.34869033  1
  Ni  Ni38  1  0.03748302  0.42425989  0.84869033  1
  Ni  Ni39  1  0.53748302  0.57574011  0.65130967  1
  Ni  Ni40  1  0.34962285  0.89857042  0.44373036  1
  Ni  Ni41  1  0.84962285  0.10142958  0.05626964  1
  Ni  Ni42  1  0.65037715  0.10142958  0.55626964  1
  Ni  Ni43  1  0.15037715  0.89857042  0.94373036  1
  Ni  Ni44  1  0.38579483  0.74867783  0.45774745  1
  Ni  Ni45  1  0.88579483  0.25132217  0.04225255  1
  Ni  Ni46  1  0.61420517  0.25132217  0.54225255  1
  Ni  Ni47  1  0.11420517  0.74867783  0.95774745  1
  Ni  Ni48  1  0.43474868  0.78638447  0.32084888  1
  Ni  Ni49  1  0.93474868  0.21361553  0.17915112  1
  Ni  Ni50  1  0.56525132  0.21361553  0.67915112  1
  Ni  Ni51  1  0.06525132  0.78638447  0.82084888  1
  Ni  Ni52  1  0.05820000  0.93794839  0.25188148  1
  Ni  Ni53  1  0.55820000  0.06205161  0.24811852  1
  Ni  Ni54  1  0.94180000  0.06205161  0.74811852  1
  Ni  Ni55  1  0.44180000  0.93794839  0.75188148  1
  Ni  Ni56  1  0.87000698  0.84566671  0.20671218  1
  Ni  Ni57  1  0.37000698  0.15433329  0.29328782  1
  Ni  Ni58  1  0.12999302  0.15433329  0.79328782  1
  Ni  Ni59  1  0.62999302  0.84566671  0.70671218  1
  Ni  Ni60  1  0.87611695  0.94827448  0.35043912  1
  Ni  Ni61  1  0.37611695  0.05172552  0.14956088  1
  Ni  Ni62  1  0.12388305  0.05172552  0.64956088  1
  Ni  Ni63  1  0.62388305  0.94827448  0.85043912  1
  Ni  Ni64  1  0.94669730  0.71292473  0.49079419  1
  Ni  Ni65  1  0.44669730  0.28707527  0.00920581  1
  Ni  Ni66  1  0.05330270  0.28707527  0.50920581  1
  Ni  Ni67  1  0.55330270  0.71292473  0.99079419  1
  Ni  Ni68  1  0.19356241  0.58875337  0.13895505  1
  Ni  Ni69  1  0.69356241  0.41124663  0.36104495  1
  Ni  Ni70  1  0.80643759  0.41124663  0.86104495  1
  Ni  Ni71  1  0.30643759  0.58875337  0.63895505  1
  Ni  Ni72  1  0.34546942  0.80274051  0.39661735  1
  Ni  Ni73  1  0.84546942  0.19725949  0.10338265  1
  Ni  Ni74  1  0.65453058  0.19725949  0.60338265  1
  Ni  Ni75  1  0.15453058  0.80274051  0.89661735  1
  Ni  Ni76  1  0.95351128  0.88721867  0.28186730  1
  Ni  Ni77  1  0.45351128  0.11278133  0.21813270  1
  Ni  Ni78  1  0.04648872  0.11278133  0.71813270  1
  Ni  Ni79  1  0.54648872  0.88721867  0.78186730  1
  Cu  Cu80  1  0.00984197  0.72385862  0.42492904  1
  Cu  Cu81  1  0.50984197  0.27614138  0.07507096  1
  Cu  Cu82  1  0.99015803  0.27614138  0.57507096  1
  Cu  Cu83  1  0.49015803  0.72385862  0.92492904  1
  Cu  Cu84  1  0.08471389  0.65869280  0.26015154  1
  Cu  Cu85  1  0.58471389  0.34130720  0.23984846  1
  Cu  Cu86  1  0.91528611  0.34130720  0.73984846  1
  Cu  Cu87  1  0.41528611  0.65869280  0.76015154  1
  Cu  Cu88  1  0.23135392  0.78126304  0.36996038  1
  Cu  Cu89  1  0.73135392  0.21873696  0.13003962  1
  Cu  Cu90  1  0.76864608  0.21873696  0.63003962  1
  Cu  Cu91  1  0.26864608  0.78126304  0.86996038  1
  Cu  Cu92  1  0.00367789  0.82667554  0.31318214  1
  Cu  Cu93  1  0.50367789  0.17332446  0.18681786  1
  Cu  Cu94  1  0.99632211  0.17332446  0.68681786  1
  Cu  Cu95  1  0.49632211  0.82667554  0.81318214  1
  C  C96  1  0.77853521  0.80904849  0.49419643  1
  C  C97  1  0.27853521  0.19095151  0.00580357  1
  C  C98  1  0.22146479  0.19095151  0.50580357  1
  C  C99  1  0.72146479  0.80904849  0.99419643  1
  C  C100  1  0.73388592  0.68984965  0.52240282  1
  C  C101  1  0.23388592  0.31015035  0.97759718  1
  C  C102  1  0.26611408  0.31015035  0.47759718  1
  C  C103  1  0.76611408  0.68984965  0.02240282  1
  C  C104  1  0.77926840  0.69440829  0.39573569  1
  C  C105  1  0.27926840  0.30559171  0.10426431  1
  C  C106  1  0.22073160  0.30559171  0.60426431  1
  C  C107  1  0.72073160  0.69440829  0.89573569  1
  C  C108  1  0.08786836  0.60076915  0.48732766  1
  C  C109  1  0.58786836  0.39923085  0.01267234  1
  C  C110  1  0.91213164  0.39923085  0.51267234  1
  C  C111  1  0.41213164  0.60076915  0.98732766  1
  C  C112  1  0.90462596  0.56480509  0.44497173  1
  C  C113  1  0.40462596  0.43519491  0.05502827  1
  C  C114  1  0.09537404  0.43519491  0.55502827  1
  C  C115  1  0.59537404  0.56480509  0.94497173  1
  C  C116  1  0.94068642  0.61100603  0.57709510  1
  C  C117  1  0.44068642  0.38899397  0.92290490  1
  C  C118  1  0.05931358  0.38899397  0.42290490  1
  C  C119  1  0.55931358  0.61100603  0.07709510  1
  C  C120  1  0.00547614  0.85501848  0.55157741  1
  C  C121  1  0.50547614  0.14498152  0.94842259  1
  C  C122  1  0.99452386  0.14498152  0.44842259  1
  C  C123  1  0.49452386  0.85501848  0.05157741  1
  C  C124  1  0.10189957  0.75738670  0.59294713  1
  C  C125  1  0.60189957  0.24261330  0.90705287  1
  C  C126  1  0.89810043  0.24261330  0.40705287  1
  C  C127  1  0.39810043  0.75738670  0.09294713  1
  C  C128  1  0.91707693  0.79032657  0.63579000  1
  C  C129  1  0.41707693  0.20967343  0.86421000  1
  C  C130  1  0.08292307  0.20967343  0.36421000  1
  C  C131  1  0.58292307  0.79032657  0.13579000  1
  C  C132  1  0.00003197  0.49206182  0.27554881  1
  C  C133  1  0.50003197  0.50793818  0.22445119  1
  C  C134  1  0.99996803  0.50793818  0.72445119  1
  C  C135  1  0.49996803  0.49206182  0.77554881  1
  C  C136  1  0.14542572  0.43956664  0.18984847  1
  C  C137  1  0.64542572  0.56043336  0.31015153  1
  C  C138  1  0.85457428  0.56043336  0.81015153  1
  C  C139  1  0.35457428  0.43956664  0.68984847  1
  C  C140  1  0.18581946  0.53315771  0.30491139  1
  C  C141  1  0.68581946  0.46684229  0.19508861  1
  C  C142  1  0.81418054  0.46684229  0.69508861  1
  C  C143  1  0.31418054  0.53315771  0.80491139  1
  C  C144  1  0.93704922  0.49648571  0.10973507  1
  C  C145  1  0.43704922  0.50351429  0.39026493  1
  C  C146  1  0.06295078  0.50351429  0.89026493  1
  C  C147  1  0.56295078  0.49648571  0.60973507  1
  C  C148  1  0.86956271  0.60254471  0.20611715  1
  C  C149  1  0.36956271  0.39745529  0.29388285  1
  C  C150  1  0.13043729  0.39745529  0.79388285  1
  C  C151  1  0.63043729  0.60254471  0.70611715  1
  C  C152  1  0.95901781  0.62444327  0.09710322  1
  C  C153  1  0.45901781  0.37555673  0.40289678  1
  C  C154  1  0.04098219  0.37555673  0.90289678  1
  C  C155  1  0.54098219  0.62444327  0.59710322  1
  C  C156  1  0.19974866  0.66726880  0.12559424  1
  C  C157  1  0.69974866  0.33273120  0.37440576  1
  C  C158  1  0.80025134  0.33273120  0.87440576  1
  C  C159  1  0.30025134  0.66726880  0.62559424  1
  C  C160  1  0.18320291  0.53374364  0.06470269  1
  C  C161  1  0.68320291  0.46625636  0.43529731  1
  C  C162  1  0.81679709  0.46625636  0.93529731  1
  C  C163  1  0.31679709  0.53374364  0.56470269  1
  C  C164  1  0.30112840  0.57556225  0.17233879  1
  C  C165  1  0.80112840  0.42443775  0.32766121  1
  C  C166  1  0.69887160  0.42443775  0.82766121  1
  C  C167  1  0.19887160  0.57556225  0.67233879  1
  C  C168  1  0.44431071  0.91977670  0.49554732  1
  C  C169  1  0.94431071  0.08022330  0.00445268  1
  C  C170  1  0.55568929  0.08022330  0.50445268  1
  C  C171  1  0.05568929  0.91977670  0.99554732  1
  C  C172  1  0.35037265  0.94880704  0.39095535  1
  C  C173  1  0.85037265  0.05119296  0.10904465  1
  C  C174  1  0.64962735  0.05119296  0.60904465  1
  C  C175  1  0.14962735  0.94880704  0.89095535  1
  C  C176  1  0.24580945  0.91801670  0.48982955  1
  C  C177  1  0.74580945  0.08198330  0.01017045  1
  C  C178  1  0.75419055  0.08198330  0.51017045  1
  C  C179  1  0.25419055  0.91801670  0.98982955  1
  C  C180  1  0.33925011  0.66891602  0.43060619  1
  C  C181  1  0.83925011  0.33108398  0.06939381  1
  C  C182  1  0.66074989  0.33108398  0.56939381  1
  C  C183  1  0.16074989  0.66891602  0.93060619  1
  C  C184  1  0.33909818  0.77986160  0.53384548  1
  C  C185  1  0.83909818  0.22013840  0.96615452  1
  C  C186  1  0.66090182  0.22013840  0.46615452  1
  C  C187  1  0.16090182  0.77986160  0.03384548  1
  C  C188  1  0.50619292  0.74068406  0.46515597  1
  C  C189  1  0.00619292  0.25931594  0.03484403  1
  C  C190  1  0.49380708  0.25931594  0.53484403  1
  C  C191  1  0.99380708  0.74068406  0.96515597  1
  C  C192  1  0.38065157  0.81263040  0.25836044  1
  C  C193  1  0.88065157  0.18736960  0.24163956  1
  C  C194  1  0.61934843  0.18736960  0.74163956  1
  C  C195  1  0.11934843  0.81263040  0.75836044  1
  C  C196  1  0.54236406  0.82596281  0.33641746  1
  C  C197  1  0.04236406  0.17403719  0.16358254  1
  C  C198  1  0.45763594  0.17403719  0.66358254  1
  C  C199  1  0.95763594  0.82596281  0.83641746  1
  C  C200  1  0.45701008  0.70330065  0.29154356  1
  C  C201  1  0.95701008  0.29669935  0.20845644  1
  C  C202  1  0.54298992  0.29669935  0.70845644  1
  C  C203  1  0.04298992  0.70330065  0.79154356  1
  C  C204  1  0.02510236  0.98337796  0.19887228  1
  C  C205  1  0.52510236  0.01662204  0.30112772  1
  C  C206  1  0.97489764  0.01662204  0.80112772  1
  C  C207  1  0.47489764  0.98337796  0.69887228  1
  C  C208  1  0.11385370  0.98942206  0.31693127  1
  C  C209  1  0.61385370  0.01057794  0.18306873  1
  C  C210  1  0.88614630  0.01057794  0.68306873  1
  C  C211  1  0.38614630  0.98942206  0.81693127  1
  C  C212  1  0.14556109  0.88205972  0.21266787  1
  C  C213  1  0.64556109  0.11794028  0.28733213  1
  C  C214  1  0.85443891  0.11794028  0.78733213  1
  C  C215  1  0.35443891  0.88205972  0.71266787  1
  C  C216  1  0.93756601  0.80947327  0.13973742  1
  C  C217  1  0.43756601  0.19052673  0.36026258  1
  C  C218  1  0.06243399  0.19052673  0.86026258  1
  C  C219  1  0.56243399  0.80947327  0.63973742  1
  C  C220  1  0.79170733  0.89874327  0.18434268  1
  C  C221  1  0.29170733  0.10125673  0.31565732  1
  C  C222  1  0.20829267  0.10125673  0.81565732  1
  C  C223  1  0.70829267  0.89874327  0.68434268  1
  C  C224  1  0.80411801  0.78270203  0.22589658  1
  C  C225  1  0.30411801  0.21729797  0.27410342  1
  C  C226  1  0.19588199  0.21729797  0.77410342  1
  C  C227  1  0.69588199  0.78270203  0.72589658  1
  C  C228  1  0.93788450  0.96432759  0.42357649  1
  C  C229  1  0.43788450  0.03567241  0.07642351  1
  C  C230  1  0.06211550  0.03567241  0.57642351  1
  C  C231  1  0.56211550  0.96432759  0.92357649  1
  C  C232  1  0.76983403  0.91289347  0.36367154  1
  C  C233  1  0.26983403  0.08710653  0.13632846  1
  C  C234  1  0.23016597  0.08710653  0.63632846  1
  C  C235  1  0.73016597  0.91289347  0.86367154  1
  C  C236  1  0.85110366  0.02261623  0.33354961  1
  C  C237  1  0.35110366  0.97738377  0.16645039  1
  C  C238  1  0.14889634  0.97738377  0.66645039  1
  C  C239  1  0.64889634  0.02261623  0.83354961  1
