# generated using pymatgen
data_CuNiC6
_symmetry_space_group_name_H-M   'P 1'
_cell_length_a   5.55286300
_cell_length_b   10.75765800
_cell_length_c   16.61079700
_cell_angle_alpha   90.00000000
_cell_angle_beta   90.00000000
_cell_angle_gamma   90.00000000
_symmetry_Int_Tables_number   1
_chemical_formula_structural   CuNiC6
_chemical_formula_sum   'Cu8 Ni8 C48'
_cell_volume   992.25926529
_cell_formula_units_Z   8
loop_
 _symmetry_equiv_pos_site_id
 _symmetry_equiv_pos_as_xyz
  1  'x, y, z'
loop_
 _atom_site_type_symbol
 _atom_site_label
 _atom_site_symmetry_multiplicity
 _atom_site_fract_x
 _atom_site_fract_y
 _atom_site_fract_z
 _atom_site_occupancy
  C  C0  1  0.56305500  0.36825200  0.55240600  1
  C  C1  1  0.06305500  0.13174800  0.55240600  1
  C  C2  1  0.06305500  0.63174800  0.94759400  1
  C  C3  1  0.93694500  0.36825200  0.05240600  1
  C  C4  1  0.43694500  0.13174800  0.05240600  1
  C  C5  1  0.93694500  0.86825200  0.44759400  1
  C  C6  1  0.43694500  0.63174800  0.44759400  1
  C  C7  1  0.56305500  0.86825200  0.94759400  1
  Ni  Ni8  1  0.99129800  0.36420200  0.41319900  1
  Ni  Ni9  1  0.50870200  0.86420200  0.58680100  1
  Ni  Ni10  1  0.00870200  0.63579800  0.58680100  1
  Ni  Ni11  1  0.49129800  0.13579800  0.41319900  1
  Ni  Ni12  1  0.00870200  0.13579800  0.91319900  1
  Ni  Ni13  1  0.99129800  0.86420200  0.08680100  1
  Ni  Ni14  1  0.50870200  0.36420200  0.91319900  1
  Ni  Ni15  1  0.49129800  0.63579800  0.08680100  1
  Cu  Cu16  1  0.97396200  0.84402800  0.78257100  1
  Cu  Cu17  1  0.02603800  0.15597200  0.21742900  1
  Cu  Cu18  1  0.52603800  0.34402800  0.21742900  1
  Cu  Cu19  1  0.02603800  0.65597200  0.28257100  1
  Cu  Cu20  1  0.47396200  0.15597200  0.71742900  1
  Cu  Cu21  1  0.47396200  0.65597200  0.78257100  1
  Cu  Cu22  1  0.52603800  0.84402800  0.28257100  1
  Cu  Cu23  1  0.97396200  0.34402800  0.71742900  1
  C  C24  1  0.84255800  0.29824600  0.28941800  1
  C  C25  1  0.28684600  0.02413500  0.93848300  1
  C  C26  1  0.21315400  0.52413500  0.06151700  1
  C  C27  1  0.27580100  0.77925800  0.85839600  1
  C  C28  1  0.22419900  0.27925800  0.14160400  1
  C  C29  1  0.84255800  0.79824600  0.21058200  1
  C  C30  1  0.22419900  0.77925800  0.35839600  1
  C  C31  1  0.65744200  0.79824600  0.71058200  1
  C  C32  1  0.28684600  0.52413500  0.56151700  1
  C  C33  1  0.15744200  0.70175400  0.71058200  1
  C  C34  1  0.65744200  0.29824600  0.78941800  1
  C  C35  1  0.78904000  0.22866100  0.46491900  1
  C  C36  1  0.78684600  0.97586500  0.56151700  1
  C  C37  1  0.72419900  0.72074200  0.35839600  1
  C  C38  1  0.18632200  0.00386600  0.14704300  1
  C  C39  1  0.78684600  0.47586500  0.93848300  1
  C  C40  1  0.15744200  0.20175400  0.78941800  1
  C  C41  1  0.77580100  0.22074200  0.64160400  1
  C  C42  1  0.28904000  0.77133900  0.03508100  1
  C  C43  1  0.21315400  0.02413500  0.43848300  1
  C  C44  1  0.21096000  0.77133900  0.53508100  1
  C  C45  1  0.81367800  0.99613400  0.85295700  1
  C  C46  1  0.72419900  0.22074200  0.14160400  1
  C  C47  1  0.68632200  0.99613400  0.35295700  1
  C  C48  1  0.21096000  0.27133900  0.96491900  1
  C  C49  1  0.28904000  0.27133900  0.46491900  1
  C  C50  1  0.71315400  0.47586500  0.43848300  1
  C  C51  1  0.71315400  0.97586500  0.06151700  1
  C  C52  1  0.68632200  0.49613400  0.14704300  1
  C  C53  1  0.71096000  0.72866100  0.53508100  1
  C  C54  1  0.71096000  0.22866100  0.96491900  1
  C  C55  1  0.78904000  0.72866100  0.03508100  1
  C  C56  1  0.81367800  0.49613400  0.64704300  1
  C  C57  1  0.77580100  0.72074200  0.85839600  1
  C  C58  1  0.27580100  0.27925800  0.64160400  1
  C  C59  1  0.18632200  0.50386600  0.35295700  1
  C  C60  1  0.31367800  0.50386600  0.85295700  1
  C  C61  1  0.34255800  0.20175400  0.28941800  1
  C  C62  1  0.31367800  0.00386600  0.64704300  1
  C  C63  1  0.34255800  0.70175400  0.21058200  1
