# generated using pymatgen
data_Cu8Ni3C7
_symmetry_space_group_name_H-M   'P 1'
_cell_length_a   8.30670600
_cell_length_b   11.40000000
_cell_length_c   20.26311244
_cell_angle_alpha   73.21272628
_cell_angle_beta   90.00000000
_cell_angle_gamma   90.00000000
_symmetry_Int_Tables_number   1
_chemical_formula_structural   Cu8Ni3C7
_chemical_formula_sum   'Cu64 Ni24 C56'
_cell_volume   1837.07066358
_cell_formula_units_Z   8
loop_
 _symmetry_equiv_pos_site_id
 _symmetry_equiv_pos_as_xyz
  1  'x, y, z'
loop_
 _atom_site_type_symbol
 _atom_site_label
 _atom_site_symmetry_multiplicity
 _atom_site_fract_x
 _atom_site_fract_y
 _atom_site_fract_z
 _atom_site_occupancy
  C  C0  1  0.41364500  0.64974500  0.35404100  1
  C  C1  1  0.08635500  0.64974500  0.85404100  1
  C  C2  1  0.58635500  0.35025500  0.64595900  1
  C  C3  1  0.91364500  0.35025500  0.14595900  1
  C  C4  1  0.41549800  0.00518900  0.35460600  1
  C  C5  1  0.08450200  0.00518900  0.85460600  1
  C  C6  1  0.58450200  0.99481100  0.64539400  1
  C  C7  1  0.91549800  0.99481100  0.14539400  1
  C  C8  1  0.08653300  0.76108700  0.47955200  1
  C  C9  1  0.41346700  0.76108700  0.97955200  1
  C  C10  1  0.91346700  0.23891300  0.52044800  1
  C  C11  1  0.58653300  0.23891300  0.02044800  1
  C  C12  1  0.65431000  0.34380600  0.32470600  1
  C  C13  1  0.84569000  0.34380600  0.82470600  1
  C  C14  1  0.34569000  0.65619400  0.67529400  1
  C  C15  1  0.15431000  0.65619400  0.17529400  1
  C  C16  1  0.66571100  0.66434400  0.17158000  1
  C  C17  1  0.83428900  0.66434400  0.67158000  1
  C  C18  1  0.33428900  0.33565600  0.82842000  1
  C  C19  1  0.16571100  0.33565600  0.32842000  1
  C  C20  1  0.91708300  0.60070700  0.32682400  1
  C  C21  1  0.58291700  0.60070700  0.82682400  1
  C  C22  1  0.08291700  0.39929300  0.67317600  1
  C  C23  1  0.41708300  0.39929300  0.17317600  1
  C  C24  1  0.91626200  0.07280600  0.34259300  1
  C  C25  1  0.58373800  0.07280600  0.84259300  1
  C  C26  1  0.08373800  0.92719400  0.65740700  1
  C  C27  1  0.41626200  0.92719400  0.15740700  1
  C  C28  1  0.42112000  0.26098300  0.47727000  1
  C  C29  1  0.07888000  0.26098300  0.97727000  1
  C  C30  1  0.57888000  0.73901700  0.52273000  1
  C  C31  1  0.92112000  0.73901700  0.02273000  1
  C  C32  1  0.71441700  0.82876700  0.35795600  1
  C  C33  1  0.78558300  0.82876700  0.85795600  1
  C  C34  1  0.28558300  0.17123300  0.64204400  1
  C  C35  1  0.21441700  0.17123300  0.14204400  1
  C  C36  1  0.65204000  0.87489200  0.28202200  1
  C  C37  1  0.84796000  0.87489200  0.78202200  1
  C  C38  1  0.34796000  0.12510800  0.71797800  1
  C  C39  1  0.15204000  0.12510800  0.21797800  1
  C  C40  1  0.29427100  0.51015900  0.50399400  1
  C  C41  1  0.20572900  0.51015900  0.00399400  1
  C  C42  1  0.70572900  0.48984100  0.49600600  1
  C  C43  1  0.79427100  0.48984100  0.99600600  1
  C  C44  1  0.15063500  0.48769500  0.46216300  1
  C  C45  1  0.34936500  0.48769500  0.96216300  1
  C  C46  1  0.84936500  0.51230500  0.53783700  1
  C  C47  1  0.65063500  0.51230500  0.03783700  1
  C  C48  1  0.14808500  0.04727300  0.45651300  1
  C  C49  1  0.35191500  0.04727300  0.95651300  1
  C  C50  1  0.85191500  0.95272700  0.54348700  1
  C  C51  1  0.64808500  0.95272700  0.04348700  1
  C  C52  1  0.28531600  0.98785800  0.50699300  1
  C  C53  1  0.21468400  0.98785800  0.00699300  1
  C  C54  1  0.71468400  0.01214200  0.49300700  1
  C  C55  1  0.78531600  0.01214200  0.99300700  1
  Ni  Ni56  1  0.61676600  0.84071400  0.32996600  1
  Ni  Ni57  1  0.88323400  0.84071400  0.82996600  1
  Ni  Ni58  1  0.38323400  0.15928600  0.67003400  1
  Ni  Ni59  1  0.11676600  0.15928600  0.17003400  1
  Ni  Ni60  1  0.21197800  0.55404500  0.47127500  1
  Ni  Ni61  1  0.28802200  0.55404500  0.97127500  1
  Ni  Ni62  1  0.78802200  0.44595500  0.52872500  1
  Ni  Ni63  1  0.71197800  0.44595500  0.02872500  1
  Ni  Ni64  1  0.22191300  0.97748800  0.46834100  1
  Ni  Ni65  1  0.27808700  0.97748800  0.96834100  1
  Ni  Ni66  1  0.77808700  0.02251200  0.53165900  1
  Ni  Ni67  1  0.72191300  0.02251200  0.03165900  1
  Ni  Ni68  1  0.92236900  0.66682200  0.38954800  1
  Ni  Ni69  1  0.57763100  0.66682200  0.88954800  1
  Ni  Ni70  1  0.07763100  0.33317800  0.61045200  1
  Ni  Ni71  1  0.42236900  0.33317800  0.11045200  1
  Ni  Ni72  1  0.92398900  0.93603300  0.40054700  1
  Ni  Ni73  1  0.57601100  0.93603300  0.90054700  1
  Ni  Ni74  1  0.07601100  0.06396700  0.59945300  1
  Ni  Ni75  1  0.42398900  0.06396700  0.09945300  1
  Ni  Ni76  1  0.42524700  0.12245400  0.53416500  1
  Ni  Ni77  1  0.07475300  0.12245400  0.03416500  1
  Ni  Ni78  1  0.57475300  0.87754600  0.46583500  1
  Ni  Ni79  1  0.92524700  0.87754600  0.96583500  1
  Cu  Cu80  1  0.27414100  0.81053200  0.38378900  1
  Cu  Cu81  1  0.22585900  0.81053200  0.88378900  1
  Cu  Cu82  1  0.72585900  0.18946800  0.61621100  1
  Cu  Cu83  1  0.77414100  0.18946800  0.11621100  1
  Cu  Cu84  1  0.42422700  0.42123400  0.39283700  1
  Cu  Cu85  1  0.07577300  0.42123400  0.89283700  1
  Cu  Cu86  1  0.57577300  0.57876600  0.60716300  1
  Cu  Cu87  1  0.92422700  0.57876600  0.10716300  1
  Cu  Cu88  1  0.15151000  0.57830400  0.31275900  1
  Cu  Cu89  1  0.34849000  0.57830400  0.81275900  1
  Cu  Cu90  1  0.84849000  0.42169600  0.68724100  1
  Cu  Cu91  1  0.65151000  0.42169600  0.18724100  1
  Cu  Cu92  1  0.14507300  0.10491700  0.31457300  1
  Cu  Cu93  1  0.35492700  0.10491700  0.81457300  1
  Cu  Cu94  1  0.85492700  0.89508300  0.68542700  1
  Cu  Cu95  1  0.64507300  0.89508300  0.18542700  1
  Cu  Cu96  1  0.39534900  0.20145200  0.39379600  1
  Cu  Cu97  1  0.10465100  0.20145200  0.89379600  1
  Cu  Cu98  1  0.60465100  0.79854800  0.60620400  1
  Cu  Cu99  1  0.89534900  0.79854800  0.10620400  1
  Cu  Cu100  1  0.65270800  0.27574300  0.45448300  1
  Cu  Cu101  1  0.84729200  0.27574300  0.95448300  1
  Cu  Cu102  1  0.34729200  0.72425700  0.54551700  1
  Cu  Cu103  1  0.15270800  0.72425700  0.04551700  1
  Cu  Cu104  1  0.18855900  0.29821100  0.46651100  1
  Cu  Cu105  1  0.31144100  0.29821100  0.96651100  1
  Cu  Cu106  1  0.81144100  0.70178900  0.53348900  1
  Cu  Cu107  1  0.68855900  0.70178900  0.03348900  1
  Cu  Cu108  1  0.68303700  0.58385900  0.31050500  1
  Cu  Cu109  1  0.81696300  0.58385900  0.81050500  1
  Cu  Cu110  1  0.31696300  0.41614100  0.68949500  1
  Cu  Cu111  1  0.18303700  0.41614100  0.18949500  1
  Cu  Cu112  1  0.91723100  0.42518000  0.38118200  1
  Cu  Cu113  1  0.58276900  0.42518000  0.88118200  1
  Cu  Cu114  1  0.08276900  0.57482000  0.61881800  1
  Cu  Cu115  1  0.41723100  0.57482000  0.11881800  1
  Cu  Cu116  1  0.91774300  0.51411300  0.24727300  1
  Cu  Cu117  1  0.58225700  0.51411300  0.74727300  1
  Cu  Cu118  1  0.08225700  0.48588700  0.75272700  1
  Cu  Cu119  1  0.41774300  0.48588700  0.25272700  1
  Cu  Cu120  1  0.92257400  0.74066700  0.24367300  1
  Cu  Cu121  1  0.57742600  0.74066700  0.74367300  1
  Cu  Cu122  1  0.07742600  0.25933300  0.75632700  1
  Cu  Cu123  1  0.42257400  0.25933300  0.25632700  1
  Cu  Cu124  1  0.90653800  0.26000100  0.27705300  1
  Cu  Cu125  1  0.59346200  0.26000100  0.77705300  1
  Cu  Cu126  1  0.09346200  0.73999900  0.72294700  1
  Cu  Cu127  1  0.40653800  0.73999900  0.22294700  1
  Cu  Cu128  1  0.97542400  0.16906600  0.40814700  1
  Cu  Cu129  1  0.52457600  0.16906600  0.90814700  1
  Cu  Cu130  1  0.02457600  0.83093400  0.59185300  1
  Cu  Cu131  1  0.47542400  0.83093400  0.09185300  1
  Cu  Cu132  1  0.68761300  0.11236000  0.35005200  1
  Cu  Cu133  1  0.81238700  0.11236000  0.85005200  1
  Cu  Cu134  1  0.31238700  0.88764000  0.64994800  1
  Cu  Cu135  1  0.18761300  0.88764000  0.14994800  1
  Cu  Cu136  1  0.87475200  0.02493400  0.26080800  1
  Cu  Cu137  1  0.62524800  0.02493400  0.76080800  1
  Cu  Cu138  1  0.12524800  0.97506600  0.73919200  1
  Cu  Cu139  1  0.37475200  0.97506600  0.23919200  1
  Cu  Cu140  1  0.43869200  0.36817700  0.53601500  1
  Cu  Cu141  1  0.06130800  0.36817700  0.03601500  1
  Cu  Cu142  1  0.56130800  0.63182300  0.46398500  1
  Cu  Cu143  1  0.93869200  0.63182300  0.96398500  1
