# generated using pymatgen
data_Cu3(NiC7)4
_symmetry_space_group_name_H-M   'P 1'
_cell_length_a   15.96771912
_cell_length_b   15.96771912
_cell_length_c   15.96771851
_cell_angle_alpha   19.70611561
_cell_angle_beta   19.70611561
_cell_angle_gamma   19.70611430
_symmetry_Int_Tables_number   1
_chemical_formula_structural   Cu3(NiC7)4
_chemical_formula_sum   'Cu3 Ni4 C28'
_cell_volume   404.83914704
_cell_formula_units_Z   1
loop_
 _symmetry_equiv_pos_site_id
 _symmetry_equiv_pos_as_xyz
  1  'x, y, z'
loop_
 _atom_site_type_symbol
 _atom_site_label
 _atom_site_symmetry_multiplicity
 _atom_site_fract_x
 _atom_site_fract_y
 _atom_site_fract_z
 _atom_site_occupancy
  Ni  Ni0  1  0.14250100  0.14250100  0.14250100  1
  Ni  Ni1  1  0.85749900  0.85749900  0.85749900  1
  Ni  Ni2  1  0.57442400  0.57442400  0.57442400  1
  Ni  Ni3  1  0.42557600  0.42557600  0.42557600  1
  Cu  Cu4  1  0.28946800  0.28946800  0.28946800  1
  Cu  Cu5  1  0.00000000  0.00000000  0.00000000  1
  Cu  Cu6  1  0.71053200  0.71053200  0.71053200  1
  C  C7  1  0.78505100  0.78505100  0.78505100  1
  C  C8  1  0.21494900  0.21494900  0.21494900  1
  C  C9  1  0.50000000  0.50000000  0.50000000  1
  C  C10  1  0.93083600  0.93083600  0.93083600  1
  C  C11  1  0.64254800  0.64254800  0.64254800  1
  C  C12  1  0.35745200  0.35745200  0.35745200  1
  C  C13  1  0.06916400  0.06916400  0.06916400  1
  C  C14  1  0.14843900  0.64031800  0.64031800  1
  C  C15  1  0.64031800  0.64031800  0.14843900  1
  C  C16  1  0.85156100  0.35968200  0.35968200  1
  C  C17  1  0.35968200  0.35968200  0.85156100  1
  C  C18  1  0.64031800  0.14843900  0.64031800  1
  C  C19  1  0.57732700  0.07181800  0.07181800  1
  C  C20  1  0.07181800  0.07181800  0.57732700  1
  C  C21  1  0.35968200  0.85156100  0.35968200  1
  C  C22  1  0.28222200  0.79042100  0.79042100  1
  C  C23  1  0.79042100  0.79042100  0.28222200  1
  C  C24  1  0.07181800  0.57732700  0.07181800  1
  C  C25  1  0.00000000  0.50000000  0.50000000  1
  C  C26  1  0.50000000  0.50000000  0.00000000  1
  C  C27  1  0.79042100  0.28222200  0.79042100  1
  C  C28  1  0.71777800  0.20957900  0.20957900  1
  C  C29  1  0.20957900  0.20957900  0.71777800  1
  C  C30  1  0.50000000  0.00000000  0.50000000  1
  C  C31  1  0.42267300  0.92818200  0.92818200  1
  C  C32  1  0.92818200  0.92818200  0.42267300  1
  C  C33  1  0.20957900  0.71777800  0.20957900  1
  C  C34  1  0.92818200  0.42267300  0.92818200  1
