# generated using pymatgen
data_CuNiC6
_symmetry_space_group_name_H-M   'P 1'
_cell_length_a   7.00012192
_cell_length_b   7.00012192
_cell_length_c   7.00012192
_cell_angle_alpha   131.59067119
_cell_angle_beta   131.59067119
_cell_angle_gamma   70.87629063
_symmetry_Int_Tables_number   1
_chemical_formula_structural   CuNiC6
_chemical_formula_sum   'Cu1 Ni1 C6'
_cell_volume   187.91387584
_cell_formula_units_Z   1
loop_
 _symmetry_equiv_pos_site_id
 _symmetry_equiv_pos_as_xyz
  1  'x, y, z'
loop_
 _atom_site_type_symbol
 _atom_site_label
 _atom_site_symmetry_multiplicity
 _atom_site_fract_x
 _atom_site_fract_y
 _atom_site_fract_z
 _atom_site_occupancy
  C  C0  1  0.75000000  0.25000000  0.50000000  1
  C  C1  1  0.50000000  0.50000000  0.00000000  1
  Ni  Ni2  1  0.00000000  0.00000000  0.00000000  1
  Cu  Cu3  1  0.25000000  0.75000000  0.50000000  1
  C  C4  1  0.65096400  0.64298800  0.52779900  1
  C  C5  1  0.11518900  0.12316600  0.47220100  1
  C  C6  1  0.87683400  0.34903600  0.99202300  1
  C  C7  1  0.35701200  0.88481100  0.00797700  1
