# generated using pymatgen
data_CuNi4C
_symmetry_space_group_name_H-M   'P 1'
_cell_length_a   7.69679800
_cell_length_b   8.83300000
_cell_length_c   9.75134700
_cell_angle_alpha   90.00000000
_cell_angle_beta   90.00000000
_cell_angle_gamma   90.00000000
_symmetry_Int_Tables_number   1
_chemical_formula_structural   CuNi4C
_chemical_formula_sum   'Cu6 Ni24 C6'
_cell_volume   662.95329005
_cell_formula_units_Z   6
loop_
 _symmetry_equiv_pos_site_id
 _symmetry_equiv_pos_as_xyz
  1  'x, y, z'
loop_
 _atom_site_type_symbol
 _atom_site_label
 _atom_site_symmetry_multiplicity
 _atom_site_fract_x
 _atom_site_fract_y
 _atom_site_fract_z
 _atom_site_occupancy
  C  C0  1  0.32076700  0.50000000  0.75000000  1
  C  C1  1  0.67923300  0.50000000  0.25000000  1
  C  C2  1  0.83883800  0.24905500  0.75000000  1
  C  C3  1  0.16116200  0.75094500  0.25000000  1
  C  C4  1  0.83883800  0.75094500  0.75000000  1
  C  C5  1  0.16116200  0.24905500  0.25000000  1
  Ni  Ni6  1  0.17843200  0.23668700  0.57543700  1
  Ni  Ni7  1  0.82156800  0.76331300  0.42456300  1
  Ni  Ni8  1  0.17843200  0.76331300  0.92456300  1
  Ni  Ni9  1  0.82156800  0.23668700  0.42456300  1
  Ni  Ni10  1  0.82156800  0.23668700  0.07543700  1
  Ni  Ni11  1  0.17843200  0.76331300  0.57543700  1
  Ni  Ni12  1  0.82156800  0.76331300  0.07543700  1
  Ni  Ni13  1  0.17843200  0.23668700  0.92456300  1
  Ni  Ni14  1  0.13010900  0.00000000  0.75000000  1
  Ni  Ni15  1  0.86989100  0.00000000  0.25000000  1
  Ni  Ni16  1  0.33810200  0.00000000  0.06126000  1
  Ni  Ni17  1  0.66189800  0.00000000  0.93874000  1
  Ni  Ni18  1  0.33810200  0.00000000  0.43874000  1
  Ni  Ni19  1  0.66189800  0.00000000  0.56126000  1
  Ni  Ni20  1  0.45265700  0.15635900  0.75000000  1
  Ni  Ni21  1  0.54734300  0.84364100  0.25000000  1
  Ni  Ni22  1  0.45265700  0.84364100  0.75000000  1
  Ni  Ni23  1  0.54734300  0.15635900  0.25000000  1
  Ni  Ni24  1  0.65673600  0.50000000  0.58548100  1
  Ni  Ni25  1  0.34326400  0.50000000  0.41451900  1
  Ni  Ni26  1  0.65673600  0.50000000  0.91451900  1
  Ni  Ni27  1  0.34326400  0.50000000  0.08548100  1
  Ni  Ni28  1  0.00000000  0.50000000  0.50000000  1
  Ni  Ni29  1  0.00000000  0.50000000  0.00000000  1
  Cu  Cu30  1  0.50000000  0.25912700  0.50000000  1
  Cu  Cu31  1  0.50000000  0.74087300  0.50000000  1
  Cu  Cu32  1  0.50000000  0.74087300  0.00000000  1
  Cu  Cu33  1  0.50000000  0.25912700  0.00000000  1
  Cu  Cu34  1  0.00000000  0.00000000  0.50000000  1
  Cu  Cu35  1  0.00000000  0.00000000  0.00000000  1
