# generated using pymatgen
data_CuNiC2
_symmetry_space_group_name_H-M   'P 1'
_cell_length_a   6.11371892
_cell_length_b   10.73525746
_cell_length_c   9.03627300
_cell_angle_alpha   90.00000000
_cell_angle_beta   90.00000000
_cell_angle_gamma   28.60219750
_symmetry_Int_Tables_number   1
_chemical_formula_structural   CuNiC2
_chemical_formula_sum   'Cu4 Ni4 C8'
_cell_volume   283.91861337
_cell_formula_units_Z   4
loop_
 _symmetry_equiv_pos_site_id
 _symmetry_equiv_pos_as_xyz
  1  'x, y, z'
loop_
 _atom_site_type_symbol
 _atom_site_label
 _atom_site_symmetry_multiplicity
 _atom_site_fract_x
 _atom_site_fract_y
 _atom_site_fract_z
 _atom_site_occupancy
  Ni  Ni0  1  0.00000000  0.46570900  0.64312700  1
  Ni  Ni1  1  0.00000000  0.53429100  0.35687300  1
  Ni  Ni2  1  0.00000000  0.03429100  0.14312700  1
  Ni  Ni3  1  0.00000000  0.96570900  0.85687300  1
  Cu  Cu4  1  0.00000000  0.16403100  0.46081600  1
  Cu  Cu5  1  0.00000000  0.83596900  0.53918400  1
  Cu  Cu6  1  0.00000000  0.33596900  0.96081600  1
  Cu  Cu7  1  0.00000000  0.66403100  0.03918400  1
  C  C8  1  0.00000000  0.11937400  0.95659500  1
  C  C9  1  0.00000000  0.88062600  0.04340500  1
  C  C10  1  0.00000000  0.38062600  0.45659500  1
  C  C11  1  0.00000000  0.61937400  0.54340500  1
  C  C12  1  0.50000000  0.65441200  0.75000000  1
  C  C13  1  0.50000000  0.84558800  0.25000000  1
  C  C14  1  0.50000000  0.34558800  0.25000000  1
  C  C15  1  0.50000000  0.15441200  0.75000000  1
