# generated using pymatgen
data_Cu13(Ni3C8)2
_symmetry_space_group_name_H-M   'P 1'
_cell_length_a   9.42272265
_cell_length_b   10.82134866
_cell_length_c   10.03400926
_cell_angle_alpha   68.37973264
_cell_angle_beta   80.33854671
_cell_angle_gamma   59.08826269
_symmetry_Int_Tables_number   1
_chemical_formula_structural   Cu13(Ni3C8)2
_chemical_formula_sum   'Cu26 Ni12 C32'
_cell_volume   815.75492755
_cell_formula_units_Z   2
loop_
 _symmetry_equiv_pos_site_id
 _symmetry_equiv_pos_as_xyz
  1  'x, y, z'
loop_
 _atom_site_type_symbol
 _atom_site_label
 _atom_site_symmetry_multiplicity
 _atom_site_fract_x
 _atom_site_fract_y
 _atom_site_fract_z
 _atom_site_occupancy
  C  C0  1  0.36466800  0.86325700  0.04444800  1
  C  C1  1  0.63533200  0.13674300  0.95555200  1
  C  C2  1  0.42517300  0.71890800  0.32973900  1
  C  C3  1  0.57482700  0.28109200  0.67026100  1
  C  C4  1  0.70811300  0.99634400  0.24227500  1
  C  C5  1  0.29188700  0.00365600  0.75772500  1
  C  C6  1  0.69858300  0.03991400  0.39642500  1
  C  C7  1  0.30141700  0.96008600  0.60357500  1
  C  C8  1  0.57200700  0.24238500  0.51480600  1
  C  C9  1  0.42799300  0.75761500  0.48519400  1
  C  C10  1  0.06585000  0.10050700  0.94785700  1
  C  C11  1  0.93415000  0.89949300  0.05214300  1
  C  C12  1  0.13375700  0.61898700  0.30944400  1
  C  C13  1  0.86624300  0.38101300  0.69055600  1
  C  C14  1  0.05988900  0.61279400  0.64145400  1
  C  C15  1  0.94011100  0.38720600  0.35854600  1
  C  C16  1  0.08897900  0.72514600  0.03214900  1
  C  C17  1  0.91102100  0.27485400  0.96785100  1
  C  C18  1  0.79661700  0.43404900  0.12982600  1
  C  C19  1  0.20338300  0.56595100  0.87017400  1
  C  C20  1  0.66026800  0.61246800  0.14800400  1
  C  C21  1  0.33973200  0.38753300  0.85199600  1
  C  C22  1  0.08460600  0.24886300  0.49679500  1
  C  C23  1  0.91539400  0.75113700  0.50320500  1
  C  C24  1  0.26666700  0.47774900  0.45069800  1
  C  C25  1  0.73333300  0.52225100  0.54930200  1
  Ni  Ni26  1  0.33215800  0.44266500  0.25873100  1
  Ni  Ni27  1  0.66784200  0.55733500  0.74126900  1
  Ni  Ni28  1  0.73926000  0.06283800  0.67467700  1
  Ni  Ni29  1  0.26074000  0.93716200  0.32532300  1
  Ni  Ni30  1  0.53615300  0.21686300  0.23456400  1
  Ni  Ni31  1  0.46384700  0.78313700  0.76543600  1
  Ni  Ni32  1  0.07259100  0.12224100  0.13967600  1
  Ni  Ni33  1  0.92740900  0.87775900  0.86032400  1
  Ni  Ni34  1  0.35781000  0.40777300  0.04369800  1
  Ni  Ni35  1  0.64219000  0.59222700  0.95630200  1
  Ni  Ni36  1  0.07843900  0.17396800  0.33839800  1
  Ni  Ni37  1  0.92156100  0.82603200  0.66160200  1
  Cu  Cu38  1  0.20189200  0.03127600  0.40258800  1
  Cu  Cu39  1  0.79810800  0.96872400  0.59741200  1
  Cu  Cu40  1  0.02389900  0.27541400  0.40701600  1
  Cu  Cu41  1  0.97610100  0.72458600  0.59298400  1
  Cu  Cu42  1  0.23815200  0.26628600  0.73982600  1
  Cu  Cu43  1  0.76184800  0.73371400  0.26017400  1
  Cu  Cu44  1  0.66279600  0.07621900  0.29143300  1
  Cu  Cu45  1  0.33720400  0.92378100  0.70856700  1
  Cu  Cu46  1  0.69262900  0.53938000  0.09304300  1
  Cu  Cu47  1  0.30737100  0.46062000  0.90695700  1
  Cu  Cu48  1  0.00338300  0.22223500  0.21114200  1
  Cu  Cu49  1  0.99661700  0.77776500  0.78885800  1
  Cu  Cu50  1  0.00187100  0.16360400  0.01315100  1
  Cu  Cu51  1  0.99812900  0.83639600  0.98684900  1
  Cu  Cu52  1  0.20833600  0.98081200  0.18798700  1
  Cu  Cu53  1  0.79166400  0.01918800  0.81201300  1
  Cu  Cu54  1  0.62244500  0.20792600  0.61382400  1
  Cu  Cu55  1  0.37755500  0.79207400  0.38617600  1
  Cu  Cu56  1  0.46241000  0.30404700  0.31940400  1
  Cu  Cu57  1  0.53759000  0.69595300  0.68059600  1
  Cu  Cu58  1  0.48957500  0.26408500  0.09491600  1
  Cu  Cu59  1  0.51042500  0.73591500  0.90508400  1
  Cu  Cu60  1  0.27597400  0.50104900  0.12221600  1
  Cu  Cu61  1  0.72402600  0.49895100  0.87778400  1
  Cu  Cu62  1  0.25041300  0.53156000  0.34261800  1
  Cu  Cu63  1  0.74958700  0.46844000  0.65738200  1
  C  C64  1  0.24008200  0.39158300  0.67682200  1
  C  C65  1  0.75991800  0.60841700  0.32317800  1
  C  C66  1  0.33666500  0.16591200  0.84438800  1
  C  C67  1  0.66333500  0.83408800  0.15561200  1
  C  C68  1  0.13753000  0.24244000  0.69728000  1
  C  C69  1  0.86247000  0.75756000  0.30272000  1
