# generated using pymatgen
data_Cu6Ni6C
_symmetry_space_group_name_H-M   'P 1'
_cell_length_a   5.07175640
_cell_length_b   5.07175640
_cell_length_c   7.71801200
_cell_angle_alpha   90.00000000
_cell_angle_beta   90.00000000
_cell_angle_gamma   120.00000522
_symmetry_Int_Tables_number   1
_chemical_formula_structural   Cu6Ni6C
_chemical_formula_sum   'Cu6 Ni6 C1'
_cell_volume   171.93046200
_cell_formula_units_Z   1
loop_
 _symmetry_equiv_pos_site_id
 _symmetry_equiv_pos_as_xyz
  1  'x, y, z'
loop_
 _atom_site_type_symbol
 _atom_site_label
 _atom_site_symmetry_multiplicity
 _atom_site_fract_x
 _atom_site_fract_y
 _atom_site_fract_z
 _atom_site_occupancy
  C  C0  1  0.00000000  0.00000000  0.00000000  1
  Ni  Ni1  1  0.50000000  0.00000000  0.75007000  1
  Ni  Ni2  1  0.00000000  0.50000000  0.75007000  1
  Ni  Ni3  1  0.50000000  0.50000000  0.75007000  1
  Ni  Ni4  1  0.00000000  0.50000000  0.24993000  1
  Ni  Ni5  1  0.50000000  0.00000000  0.24993000  1
  Ni  Ni6  1  0.50000000  0.50000000  0.24993000  1
  Cu  Cu7  1  0.66666700  0.33333300  0.50000000  1
  Cu  Cu8  1  0.33333300  0.66666700  0.50000000  1
  Cu  Cu9  1  0.66666700  0.33333300  0.00000000  1
  Cu  Cu10  1  0.00000000  0.00000000  0.33749800  1
  Cu  Cu11  1  0.00000000  0.00000000  0.66250200  1
  Cu  Cu12  1  0.33333300  0.66666700  0.00000000  1
