# generated using pymatgen
data_Cu(NiC3)7
_symmetry_space_group_name_H-M   'P 1'
_cell_length_a   6.52195327
_cell_length_b   10.94129383
_cell_length_c   15.73647400
_cell_angle_alpha   90.00000000
_cell_angle_beta   90.00000000
_cell_angle_gamma   91.02582792
_symmetry_Int_Tables_number   1
_chemical_formula_structural   Cu(NiC3)7
_chemical_formula_sum   'Cu4 Ni28 C84'
_cell_volume   1122.75288786
_cell_formula_units_Z   4
loop_
 _symmetry_equiv_pos_site_id
 _symmetry_equiv_pos_as_xyz
  1  'x, y, z'
loop_
 _atom_site_type_symbol
 _atom_site_label
 _atom_site_symmetry_multiplicity
 _atom_site_fract_x
 _atom_site_fract_y
 _atom_site_fract_z
 _atom_site_occupancy
  C  C0  1  0.84874800  0.63827100  0.29672100  1
  C  C1  1  0.34874800  0.13827100  0.20327900  1
  C  C2  1  0.15125200  0.36172900  0.70327900  1
  C  C3  1  0.65125200  0.86172900  0.79672100  1
  C  C4  1  0.74105400  0.91016300  0.03985300  1
  C  C5  1  0.24105400  0.41016300  0.46014700  1
  C  C6  1  0.25894600  0.08983700  0.96014700  1
  C  C7  1  0.75894600  0.58983700  0.53985300  1
  C  C8  1  0.52611100  0.86027800  0.16518100  1
  C  C9  1  0.02611100  0.36027800  0.33481900  1
  C  C10  1  0.47388900  0.13972200  0.83481900  1
  C  C11  1  0.97388900  0.63972200  0.66518100  1
  C  C12  1  0.86369400  0.96259900  0.18447400  1
  C  C13  1  0.36369400  0.46259900  0.31552600  1
  C  C14  1  0.13630600  0.03740100  0.81552600  1
  C  C15  1  0.63630600  0.53740100  0.68447400  1
  C  C16  1  0.16070600  0.82066800  0.20885700  1
  C  C17  1  0.66070600  0.32066800  0.29114300  1
  C  C18  1  0.83929400  0.17933200  0.79114300  1
  C  C19  1  0.33929400  0.67933200  0.70885700  1
  C  C20  1  0.40547000  0.65063700  0.21916000  1
  C  C21  1  0.90547000  0.15063700  0.28084000  1
  C  C22  1  0.59453000  0.34936300  0.78084000  1
  C  C23  1  0.09453000  0.84936300  0.71916000  1
  Ni  Ni24  1  0.90276000  0.96023800  0.94002100  1
  Ni  Ni25  1  0.40276000  0.46023800  0.55997900  1
  Ni  Ni26  1  0.09724000  0.03976200  0.05997900  1
  Ni  Ni27  1  0.59724000  0.53976200  0.44002100  1
  Ni  Ni28  1  0.48734100  0.56171300  0.09713600  1
  Ni  Ni29  1  0.98734100  0.06171300  0.40286400  1
  Ni  Ni30  1  0.51265900  0.43828700  0.90286400  1
  Ni  Ni31  1  0.01265900  0.93828700  0.59713600  1
  Ni  Ni32  1  0.24147800  0.59390700  0.10075000  1
  Ni  Ni33  1  0.74147800  0.09390700  0.39925000  1
  Ni  Ni34  1  0.75852200  0.40609300  0.89925000  1
  Ni  Ni35  1  0.25852200  0.90609300  0.60075000  1
  Ni  Ni36  1  0.65781300  0.88078400  0.32750200  1
  Ni  Ni37  1  0.15781300  0.38078400  0.17249800  1
  Ni  Ni38  1  0.34218700  0.11921600  0.67249800  1
  Ni  Ni39  1  0.84218700  0.61921600  0.82750200  1
  Ni  Ni40  1  0.69773100  0.83734400  0.42249600  1
  Ni  Ni41  1  0.19773100  0.33734400  0.07750400  1
  Ni  Ni42  1  0.30226900  0.16265600  0.57750400  1
  Ni  Ni43  1  0.80226900  0.66265600  0.92249600  1
  Ni  Ni44  1  0.06128100  0.70095000  0.47198200  1
  Ni  Ni45  1  0.56128100  0.20095000  0.02801800  1
  Ni  Ni46  1  0.93871900  0.29905000  0.52801800  1
  Ni  Ni47  1  0.43871900  0.79905000  0.97198200  1
  Ni  Ni48  1  0.24210400  0.72298100  0.40502600  1
  Ni  Ni49  1  0.74210400  0.22298100  0.09497400  1
  Ni  Ni50  1  0.75789600  0.27701900  0.59497400  1
  Ni  Ni51  1  0.25789600  0.77701900  0.90502600  1
  Cu  Cu52  1  0.86249500  0.58551100  0.07663100  1
  Cu  Cu53  1  0.36249500  0.08551100  0.42336900  1
  Cu  Cu54  1  0.13750500  0.41448900  0.92336900  1
  Cu  Cu55  1  0.63750500  0.91448900  0.57663100  1
  C  C56  1  0.77246800  0.91245400  0.95229100  1
  C  C57  1  0.27246800  0.41245300  0.54770900  1
  C  C58  1  0.22753200  0.08754600  0.04770900  1
  C  C59  1  0.72753200  0.58754600  0.45229100  1
  C  C60  1  0.56657000  0.85609400  0.07134800  1
  C  C61  1  0.06657000  0.35609400  0.42865200  1
  C  C62  1  0.43343000  0.14390600  0.92865200  1
  C  C63  1  0.93343000  0.64390600  0.57134800  1
  C  C64  1  0.88999200  0.96324500  0.09026200  1
  C  C65  1  0.38999200  0.46324500  0.40973800  1
  C  C66  1  0.11000800  0.03675500  0.90973800  1
  C  C67  1  0.61000800  0.53675500  0.59026200  1
  C  C68  1  0.64681100  0.95822500  0.20633700  1
  C  C69  1  0.14681100  0.45822500  0.29366300  1
  C  C70  1  0.35318900  0.04177500  0.79366300  1
  C  C71  1  0.85318900  0.54177500  0.70633700  1
  C  C72  1  0.56365700  0.73889500  0.20206100  1
  C  C73  1  0.06365700  0.23889500  0.29793900  1
  C  C74  1  0.43634300  0.26110500  0.79793900  1
  C  C75  1  0.93634300  0.76110500  0.70206100  1
  C  C76  1  0.95911800  0.84807200  0.21918100  1
  C  C77  1  0.45911800  0.34807200  0.28081900  1
  C  C78  1  0.04088200  0.15192800  0.78081900  1
  C  C79  1  0.54088200  0.65192800  0.71918100  1
  C  C80  1  0.30839200  0.89897200  0.17817500  1
  C  C81  1  0.80839200  0.39897200  0.32182500  1
  C  C82  1  0.69160800  0.10102800  0.82182500  1
  C  C83  1  0.19160800  0.60102800  0.67817500  1
  C  C84  1  0.20340600  0.70221500  0.23408800  1
  C  C85  1  0.70340600  0.20221500  0.26591200  1
  C  C86  1  0.79659400  0.29778500  0.76591200  1
  C  C87  1  0.29659400  0.79778500  0.73408800  1
  C  C88  1  0.47622000  0.57000500  0.28366000  1
  C  C89  1  0.97622000  0.07000500  0.21634000  1
  C  C90  1  0.52378000  0.42999500  0.71634000  1
  C  C91  1  0.02378000  0.92999500  0.78366000  1
  C  C92  1  0.36387600  0.56746400  0.13467600  1
  C  C93  1  0.86387600  0.06746400  0.36532400  1
  C  C94  1  0.63612400  0.43253600  0.86532400  1
  C  C95  1  0.13612400  0.93253600  0.63467600  1
  C  C96  1  0.85472300  0.54274800  0.15188000  1
  C  C97  1  0.35472300  0.04274800  0.34812000  1
  C  C98  1  0.14527700  0.45725200  0.84812000  1
  C  C99  1  0.64527700  0.95725200  0.65188000  1
  C  C100  1  0.02824300  0.63140700  0.04755400  1
  C  C101  1  0.52824300  0.13140700  0.45244600  1
  C  C102  1  0.97175700  0.36859300  0.95244600  1
  C  C103  1  0.47175700  0.86859300  0.54755400  1
  C  C104  1  0.70365000  0.58123300  0.03037700  1
  C  C105  1  0.20365000  0.08123300  0.46962300  1
  C  C106  1  0.29635000  0.41876700  0.96962300  1
  C  C107  1  0.79635000  0.91876700  0.53037700  1
  C  C108  1  0.09376000  0.71639600  0.41121400  1
  C  C109  1  0.59376000  0.21639600  0.08878600  1
  C  C110  1  0.90624000  0.28360400  0.58878600  1
  C  C111  1  0.40624000  0.78360400  0.91121400  1
  C  C112  1  0.66070600  0.80886100  0.36506600  1
  C  C113  1  0.16070600  0.30886100  0.13493400  1
  C  C114  1  0.33929400  0.19113900  0.63493400  1
  C  C115  1  0.83929400  0.69113900  0.86506600  1
