# generated using pymatgen
data_Cu5Ni5C2
_symmetry_space_group_name_H-M   'P 1'
_cell_length_a   4.01634100
_cell_length_b   8.76690500
_cell_length_c   15.26223662
_cell_angle_alpha   89.93240012
_cell_angle_beta   90.00000000
_cell_angle_gamma   90.00000000
_symmetry_Int_Tables_number   1
_chemical_formula_structural   Cu5Ni5C2
_chemical_formula_sum   'Cu15 Ni15 C6'
_cell_volume   537.39640814
_cell_formula_units_Z   3
loop_
 _symmetry_equiv_pos_site_id
 _symmetry_equiv_pos_as_xyz
  1  'x, y, z'
loop_
 _atom_site_type_symbol
 _atom_site_label
 _atom_site_symmetry_multiplicity
 _atom_site_fract_x
 _atom_site_fract_y
 _atom_site_fract_z
 _atom_site_occupancy
  C  C0  1  0.00000000  0.00035500  0.33645800  1
  C  C1  1  0.00000000  0.50352000  0.83507900  1
  C  C2  1  0.00000000  0.50479400  0.16957000  1
  C  C3  1  0.00000000  0.00248700  0.66423400  1
  C  C4  1  0.50000000  0.99397700  0.00085200  1
  C  C5  1  0.50000000  0.49755100  0.49685400  1
  Ni  Ni6  1  0.50000000  0.50749800  0.00059400  1
  Ni  Ni7  1  0.50000000  0.00856700  0.50123800  1
  Ni  Ni8  1  0.50000000  0.74799300  0.25540600  1
  Ni  Ni9  1  0.50000000  0.25305900  0.75140100  1
  Ni  Ni10  1  0.50000000  0.24847500  0.24851300  1
  Ni  Ni11  1  0.50000000  0.75264000  0.74829300  1
  Ni  Ni12  1  0.00000000  0.14826400  0.85139600  1
  Ni  Ni13  1  0.00000000  0.14817700  0.14933100  1
  Ni  Ni14  1  0.00000000  0.64968000  0.64887900  1
  Ni  Ni15  1  0.00000000  0.29907800  0.00107100  1
  Ni  Ni16  1  0.00000000  0.78281000  0.49406300  1
  Ni  Ni17  1  0.00000000  0.84860100  0.14160700  1
  Ni  Ni18  1  0.00000000  0.34999000  0.64010600  1
  Ni  Ni19  1  0.00000000  0.35953900  0.35983600  1
  Ni  Ni20  1  0.00000000  0.84935300  0.85879800  1
  Cu  Cu21  1  0.50000000  0.99541900  0.18360500  1
  Cu  Cu22  1  0.50000000  0.49980700  0.67989500  1
  Cu  Cu23  1  0.50000000  0.22555600  0.40544900  1
  Cu  Cu24  1  0.50000000  0.72651200  0.90711900  1
  Cu  Cu25  1  0.50000000  0.78077800  0.41035500  1
  Cu  Cu26  1  0.50000000  0.27535400  0.91045700  1
  Cu  Cu27  1  0.50000000  0.49580300  0.31611000  1
  Cu  Cu28  1  0.50000000  0.99924400  0.81793100  1
  Cu  Cu29  1  0.50000000  0.72378400  0.09584300  1
  Cu  Cu30  1  0.50000000  0.22796700  0.59256700  1
  Cu  Cu31  1  0.50000000  0.27473700  0.09060300  1
  Cu  Cu32  1  0.50000000  0.77447200  0.58822600  1
  Cu  Cu33  1  0.00000000  0.19775400  0.49892900  1
  Cu  Cu34  1  0.00000000  0.69651300  0.00069300  1
  Cu  Cu35  1  0.00000000  0.65009200  0.34863900  1
