# generated using pymatgen
data_CuNiC15
_symmetry_space_group_name_H-M   'P 1'
_cell_length_a   8.72027600
_cell_length_b   8.72027600
_cell_length_c   11.92570000
_cell_angle_alpha   90.00000000
_cell_angle_beta   90.00000000
_cell_angle_gamma   90.00000000
_symmetry_Int_Tables_number   1
_chemical_formula_structural   CuNiC15
_chemical_formula_sum   'Cu4 Ni4 C60'
_cell_volume   906.86855143
_cell_formula_units_Z   4
loop_
 _symmetry_equiv_pos_site_id
 _symmetry_equiv_pos_as_xyz
  1  'x, y, z'
loop_
 _atom_site_type_symbol
 _atom_site_label
 _atom_site_symmetry_multiplicity
 _atom_site_fract_x
 _atom_site_fract_y
 _atom_site_fract_z
 _atom_site_occupancy
  Ni  Ni0  1  0.23256400  0.76743600  0.50000000  1
  Ni  Ni1  1  0.76743600  0.23256400  0.50000000  1
  Ni  Ni2  1  0.26743600  0.26743600  0.00000000  1
  Ni  Ni3  1  0.73256400  0.73256400  0.00000000  1
  Cu  Cu4  1  0.64211500  0.64211500  0.50000000  1
  Cu  Cu5  1  0.35788500  0.35788500  0.50000000  1
  Cu  Cu6  1  0.85788500  0.14211500  0.00000000  1
  Cu  Cu7  1  0.14211500  0.85788500  0.00000000  1
  C  C8  1  0.18270900  0.81729100  0.25378600  1
  C  C9  1  0.81729100  0.18270900  0.25378600  1
  C  C10  1  0.31729100  0.31729100  0.75378600  1
  C  C11  1  0.68270900  0.68270900  0.75378600  1
  C  C12  1  0.81729100  0.18270900  0.74621400  1
  C  C13  1  0.18270900  0.81729100  0.74621400  1
  C  C14  1  0.68270900  0.68270900  0.24621400  1
  C  C15  1  0.31729100  0.31729100  0.24621400  1
  C  C16  1  0.40263100  0.59736900  0.29810300  1
  C  C17  1  0.59736900  0.40263100  0.29810300  1
  C  C18  1  0.09736900  0.09736900  0.79810300  1
  C  C19  1  0.90263100  0.90263100  0.79810300  1
  C  C20  1  0.59736900  0.40263100  0.70189700  1
  C  C21  1  0.40263100  0.59736900  0.70189700  1
  C  C22  1  0.90263100  0.90263100  0.20189700  1
  C  C23  1  0.09736900  0.09736900  0.20189700  1
  C  C24  1  0.14140300  0.53738600  0.32538000  1
  C  C25  1  0.85859700  0.46261400  0.32538000  1
  C  C26  1  0.35859700  0.03738600  0.82538000  1
  C  C27  1  0.64140300  0.96261400  0.82538000  1
  C  C28  1  0.85859700  0.46261400  0.67462000  1
  C  C29  1  0.14140300  0.53738600  0.67462000  1
  C  C30  1  0.64140300  0.96261400  0.17462000  1
  C  C31  1  0.35859700  0.03738600  0.17462000  1
  C  C32  1  0.53738600  0.14140300  0.32538000  1
  C  C33  1  0.46261400  0.85859700  0.32538000  1
  C  C34  1  0.03738600  0.35859700  0.82538000  1
  C  C35  1  0.96261400  0.64140300  0.82538000  1
  C  C36  1  0.46261400  0.85859700  0.67462000  1
  C  C37  1  0.53738600  0.14140300  0.67462000  1
  C  C38  1  0.96261400  0.64140300  0.17462000  1
  C  C39  1  0.03738600  0.35859700  0.17462000  1
  C  C40  1  0.50000000  0.50000000  0.11425200  1
  C  C41  1  0.00000000  0.00000000  0.61425200  1
  C  C42  1  0.50000000  0.50000000  0.88574800  1
  C  C43  1  0.00000000  0.00000000  0.38574800  1
  C  C44  1  0.93314100  0.72387900  0.37390500  1
  C  C45  1  0.06685900  0.27612100  0.37390500  1
  C  C46  1  0.56685900  0.22387900  0.87390500  1
  C  C47  1  0.43314100  0.77612100  0.87390500  1
  C  C48  1  0.06685900  0.27612100  0.62609500  1
  C  C49  1  0.93314100  0.72387900  0.62609500  1
  C  C50  1  0.43314100  0.77612100  0.12609500  1
  C  C51  1  0.56685900  0.22387900  0.12609500  1
  C  C52  1  0.72387900  0.93314100  0.37390500  1
  C  C53  1  0.27612100  0.06685900  0.37390500  1
  C  C54  1  0.22387900  0.56685900  0.87390500  1
  C  C55  1  0.77612100  0.43314100  0.87390500  1
  C  C56  1  0.27612100  0.06685900  0.62609500  1
  C  C57  1  0.72387900  0.93314100  0.62609500  1
  C  C58  1  0.77612100  0.43314100  0.12609500  1
  C  C59  1  0.22387900  0.56685900  0.12609500  1
  C  C60  1  0.00000000  0.50000000  0.50000000  1
  C  C61  1  0.50000000  0.00000000  0.00000000  1
  C  C62  1  0.50000000  0.00000000  0.50000000  1
  C  C63  1  0.00000000  0.50000000  0.00000000  1
  C  C64  1  0.87211000  0.87211000  0.50000000  1
  C  C65  1  0.12789000  0.12789000  0.50000000  1
  C  C66  1  0.62789000  0.37211000  0.00000000  1
  C  C67  1  0.37211000  0.62789000  0.00000000  1
