# generated using pymatgen
data_CuNiC6
_symmetry_space_group_name_H-M   'P 1'
_cell_length_a   5.34502700
_cell_length_b   10.70510500
_cell_length_c   16.12970100
_cell_angle_alpha   90.00000000
_cell_angle_beta   90.00000000
_cell_angle_gamma   90.00000000
_symmetry_Int_Tables_number   1
_chemical_formula_structural   CuNiC6
_chemical_formula_sum   'Cu8 Ni8 C48'
_cell_volume   922.92657549
_cell_formula_units_Z   8
loop_
 _symmetry_equiv_pos_site_id
 _symmetry_equiv_pos_as_xyz
  1  'x, y, z'
loop_
 _atom_site_type_symbol
 _atom_site_label
 _atom_site_symmetry_multiplicity
 _atom_site_fract_x
 _atom_site_fract_y
 _atom_site_fract_z
 _atom_site_occupancy
  Ni  Ni0  1  0.97513000  0.37333700  0.41206800  1
  Ni  Ni1  1  0.52487000  0.87333700  0.58793200  1
  Ni  Ni2  1  0.02487000  0.62666300  0.58793200  1
  Ni  Ni3  1  0.47513000  0.12666300  0.41206800  1
  Ni  Ni4  1  0.02487000  0.12666300  0.91206800  1
  Ni  Ni5  1  0.97513000  0.87333700  0.08793200  1
  Ni  Ni6  1  0.52487000  0.37333700  0.91206800  1
  Ni  Ni7  1  0.47513000  0.62666300  0.08793200  1
  Cu  Cu8  1  0.49687400  0.37070800  0.54720100  1
  Cu  Cu9  1  0.99687400  0.12929200  0.54720100  1
  Cu  Cu10  1  0.99687400  0.62929200  0.95279900  1
  Cu  Cu11  1  0.00312600  0.37070800  0.04720100  1
  Cu  Cu12  1  0.50312600  0.12929200  0.04720100  1
  Cu  Cu13  1  0.00312600  0.87070800  0.45279900  1
  Cu  Cu14  1  0.50312600  0.62929200  0.45279900  1
  Cu  Cu15  1  0.49687400  0.87070800  0.95279900  1
  C  C16  1  0.01590300  0.85623700  0.77893700  1
  C  C17  1  0.98409700  0.14376300  0.22106300  1
  C  C18  1  0.48409700  0.35623700  0.22106300  1
  C  C19  1  0.98409700  0.64376300  0.27893700  1
  C  C20  1  0.51590300  0.14376300  0.72106300  1
  C  C21  1  0.51590300  0.64376300  0.77893700  1
  C  C22  1  0.48409700  0.85623700  0.27893700  1
  C  C23  1  0.01590300  0.35623700  0.72106300  1
  C  C24  1  0.84864200  0.31083100  0.31070200  1
  C  C25  1  0.27734100  0.02975700  0.96201900  1
  C  C26  1  0.22265900  0.52975700  0.03798100  1
  C  C27  1  0.35620400  0.79560300  0.84820300  1
  C  C28  1  0.14379600  0.29560300  0.15179700  1
  C  C29  1  0.84864200  0.81083100  0.18929800  1
  C  C30  1  0.14379600  0.79560300  0.34820300  1
  C  C31  1  0.65135800  0.81083100  0.68929800  1
  C  C32  1  0.27734100  0.52975700  0.53798100  1
  C  C33  1  0.15135800  0.68916900  0.68929800  1
  C  C34  1  0.65135800  0.31083100  0.81070200  1
  C  C35  1  0.71807000  0.22371600  0.47326700  1
  C  C36  1  0.77734100  0.97024300  0.53798100  1
  C  C37  1  0.64379600  0.70439700  0.34820300  1
  C  C38  1  0.17477400  0.00331600  0.13201100  1
  C  C39  1  0.77734100  0.47024300  0.96201900  1
  C  C40  1  0.15135800  0.18916900  0.81070200  1
  C  C41  1  0.85620400  0.20439700  0.65179700  1
  C  C42  1  0.21807000  0.77628400  0.02673300  1
  C  C43  1  0.22265900  0.02975700  0.46201900  1
  C  C44  1  0.28193000  0.77628400  0.52673300  1
  C  C45  1  0.82522600  0.99668400  0.86798900  1
  C  C46  1  0.64379600  0.20439700  0.15179700  1
  C  C47  1  0.67477400  0.99668400  0.36798900  1
  C  C48  1  0.28193000  0.27628400  0.97326700  1
  C  C49  1  0.21807000  0.27628400  0.47326700  1
  C  C50  1  0.72265900  0.47024300  0.46201900  1
  C  C51  1  0.72265900  0.97024300  0.03798100  1
  C  C52  1  0.67477400  0.49668400  0.13201100  1
  C  C53  1  0.78193000  0.72371600  0.52673300  1
  C  C54  1  0.78193000  0.22371600  0.97326700  1
  C  C55  1  0.71807000  0.72371600  0.02673300  1
  C  C56  1  0.82522600  0.49668400  0.63201100  1
  C  C57  1  0.85620400  0.70439700  0.84820300  1
  C  C58  1  0.35620400  0.29560300  0.65179700  1
  C  C59  1  0.17477400  0.50331600  0.36798900  1
  C  C60  1  0.32522600  0.50331600  0.86798900  1
  C  C61  1  0.34864200  0.18916900  0.31070200  1
  C  C62  1  0.32522600  0.00331600  0.63201100  1
  C  C63  1  0.34864200  0.68916900  0.18929800  1
