# generated using pymatgen
data_Cu2NiC
_symmetry_space_group_name_H-M   'P 1'
_cell_length_a   4.43013800
_cell_length_b   4.42731100
_cell_length_c   6.44448700
_cell_angle_alpha   90.00000000
_cell_angle_beta   90.00000000
_cell_angle_gamma   90.00000000
_symmetry_Int_Tables_number   1
_chemical_formula_structural   Cu2NiC
_chemical_formula_sum   'Cu8 Ni4 C4'
_cell_volume   126.39958184
_cell_formula_units_Z   4
loop_
 _symmetry_equiv_pos_site_id
 _symmetry_equiv_pos_as_xyz
  1  'x, y, z'
loop_
 _atom_site_type_symbol
 _atom_site_label
 _atom_site_symmetry_multiplicity
 _atom_site_fract_x
 _atom_site_fract_y
 _atom_site_fract_z
 _atom_site_occupancy
  C  C0  1  0.97693700  0.53969300  0.87709600  1
  C  C1  1  0.47693700  0.46030700  0.12290400  1
  C  C2  1  0.47693700  0.96030700  0.37709600  1
  C  C3  1  0.97693700  0.03969300  0.62290400  1
  Ni  Ni4  1  0.00969900  0.54860500  0.37535800  1
  Ni  Ni5  1  0.50969900  0.45139500  0.62464200  1
  Ni  Ni6  1  0.50969900  0.95139500  0.87535800  1
  Ni  Ni7  1  0.00969900  0.04860500  0.12464200  1
  Cu  Cu8  1  0.34700100  0.50744200  0.42471700  1
  Cu  Cu9  1  0.84700100  0.49255800  0.57528300  1
  Cu  Cu10  1  0.84700100  0.99255800  0.92471700  1
  Cu  Cu11  1  0.34700100  0.00744200  0.07528300  1
  Cu  Cu12  1  0.44236200  0.61841900  0.82185900  1
  Cu  Cu13  1  0.94236200  0.38158100  0.17814100  1
  Cu  Cu14  1  0.94236200  0.88158100  0.32185900  1
  Cu  Cu15  1  0.44236200  0.11841900  0.67814100  1
