# generated using pymatgen
data_Cu2Ni11C8
_symmetry_space_group_name_H-M   'P 1'
_cell_length_a   7.43736012
_cell_length_b   7.43736012
_cell_length_c   14.12558512
_cell_angle_alpha   89.05262048
_cell_angle_beta   89.05262048
_cell_angle_gamma   37.39480673
_symmetry_Int_Tables_number   1
_chemical_formula_structural   Cu2Ni11C8
_chemical_formula_sum   'Cu4 Ni22 C16'
_cell_volume   474.44286122
_cell_formula_units_Z   2
loop_
 _symmetry_equiv_pos_site_id
 _symmetry_equiv_pos_as_xyz
  1  'x, y, z'
loop_
 _atom_site_type_symbol
 _atom_site_label
 _atom_site_symmetry_multiplicity
 _atom_site_fract_x
 _atom_site_fract_y
 _atom_site_fract_z
 _atom_site_occupancy
  C  C0  1  0.46612900  0.41694600  0.37077900  1
  C  C1  1  0.58305400  0.53387100  0.12922100  1
  C  C2  1  0.53387100  0.58305400  0.62922100  1
  C  C3  1  0.41694600  0.46612900  0.87077900  1
  C  C4  1  0.74211300  0.69977400  0.37179400  1
  C  C5  1  0.30022600  0.25788800  0.12820600  1
  C  C6  1  0.25788700  0.30022600  0.62820600  1
  C  C7  1  0.69977400  0.74211200  0.87179400  1
  C  C8  1  0.07319700  0.11144300  0.28493800  1
  C  C9  1  0.88855700  0.92680300  0.21506200  1
  C  C10  1  0.92680300  0.88855700  0.71506200  1
  C  C11  1  0.11144300  0.07319700  0.78493800  1
  C  C12  1  0.85712400  0.95476600  0.52721200  1
  C  C13  1  0.04523400  0.14287600  0.97278800  1
  C  C14  1  0.14287600  0.04523400  0.47278800  1
  C  C15  1  0.95476600  0.85712400  0.02721200  1
  Ni  Ni16  1  0.96348900  0.21175900  0.39237300  1
  Ni  Ni17  1  0.78824100  0.03651100  0.10762700  1
  Ni  Ni18  1  0.03651100  0.78824100  0.60762700  1
  Ni  Ni19  1  0.21175900  0.96348900  0.89237300  1
  Ni  Ni20  1  0.64826100  0.01113900  0.25729000  1
  Ni  Ni21  1  0.98886100  0.35173900  0.24271000  1
  Ni  Ni22  1  0.35173900  0.98886100  0.74271000  1
  Ni  Ni23  1  0.01113900  0.64826100  0.75729000  1
  Ni  Ni24  1  0.58683700  0.25361100  0.53711000  1
  Ni  Ni25  1  0.74638900  0.41316300  0.96289000  1
  Ni  Ni26  1  0.41316300  0.74638900  0.46289000  1
  Ni  Ni27  1  0.25361100  0.58683700  0.03711000  1
  Ni  Ni28  1  0.85799900  0.14200100  0.25000000  1
  Ni  Ni29  1  0.14200100  0.85799900  0.75000000  1
  Ni  Ni30  1  0.94421200  0.83075200  0.43904900  1
  Ni  Ni31  1  0.16924800  0.05578800  0.06095100  1
  Ni  Ni32  1  0.05578800  0.16924800  0.56095100  1
  Ni  Ni33  1  0.83075200  0.94421200  0.93904900  1
  Ni  Ni34  1  0.37667700  0.82333800  0.27443300  1
  Ni  Ni35  1  0.17666200  0.62332300  0.22556700  1
  Ni  Ni36  1  0.62332300  0.17666200  0.72556700  1
  Ni  Ni37  1  0.82333800  0.37667700  0.77443300  1
  Cu  Cu38  1  0.29232500  0.24682300  0.42542400  1
  Cu  Cu39  1  0.75317700  0.70767500  0.07457600  1
  Cu  Cu40  1  0.70767500  0.75317700  0.57457600  1
  Cu  Cu41  1  0.24682300  0.29232500  0.92542400  1
