# generated using pymatgen
data_CuNi17C10
_symmetry_space_group_name_H-M   'P 1'
_cell_length_a   7.10735377
_cell_length_b   9.96133286
_cell_length_c   13.04682459
_cell_angle_alpha   70.58199081
_cell_angle_beta   76.90767058
_cell_angle_gamma   69.40081404
_symmetry_Int_Tables_number   1
_chemical_formula_structural   CuNi17C10
_chemical_formula_sum   'Cu2 Ni34 C20'
_cell_volume   809.15584455
_cell_formula_units_Z   2
loop_
 _symmetry_equiv_pos_site_id
 _symmetry_equiv_pos_as_xyz
  1  'x, y, z'
loop_
 _atom_site_type_symbol
 _atom_site_label
 _atom_site_symmetry_multiplicity
 _atom_site_fract_x
 _atom_site_fract_y
 _atom_site_fract_z
 _atom_site_occupancy
  C  C0  1  0.79963200  0.91844200  0.62275300  1
  C  C1  1  0.20036800  0.08155800  0.37724700  1
  C  C2  1  0.85117200  0.97099900  0.26030400  1
  C  C3  1  0.14882800  0.02900100  0.73969600  1
  C  C4  1  0.59577100  0.63675900  0.39640100  1
  C  C5  1  0.40422900  0.36324100  0.60359900  1
  C  C6  1  0.80974100  0.42050000  0.14374600  1
  C  C7  1  0.19025900  0.57950000  0.85625400  1
  C  C8  1  0.79774700  0.47489600  0.73370800  1
  C  C9  1  0.20225300  0.52510400  0.26629200  1
  C  C10  1  0.38171900  0.77835400  0.61647900  1
  C  C11  1  0.61828100  0.22164600  0.38352100  1
  C  C12  1  0.97867100  0.29347000  0.52853400  1
  C  C13  1  0.02132900  0.70653000  0.47146600  1
  C  C14  1  0.58513800  0.12808900  0.83846200  1
  C  C15  1  0.41486200  0.87191100  0.16153800  1
  C  C16  1  0.96503000  0.79438000  0.02575700  1
  C  C17  1  0.03497000  0.20562000  0.97424300  1
  C  C18  1  0.58719000  0.72586700  0.89144800  1
  C  C19  1  0.41281000  0.27413300  0.10855200  1
  Ni  Ni20  1  0.40898900  0.83782500  0.48134900  1
  Ni  Ni21  1  0.59101100  0.16217500  0.51865100  1
  Ni  Ni22  1  0.48105800  0.59578800  0.65481000  1
  Ni  Ni23  1  0.51894200  0.40421200  0.34519000  1
  Ni  Ni24  1  0.47065300  0.87508200  0.66577100  1
  Ni  Ni25  1  0.52934700  0.12491800  0.33422900  1
  Ni  Ni26  1  0.14582300  0.81034600  0.68194500  1
  Ni  Ni27  1  0.85417700  0.18965400  0.31805500  1
  Ni  Ni28  1  0.74553500  0.40579400  0.52574500  1
  Ni  Ni29  1  0.25446500  0.59420600  0.47425500  1
  Ni  Ni30  1  0.87774200  0.67072500  0.58757500  1
  Ni  Ni31  1  0.12225800  0.32927500  0.41242500  1
  Ni  Ni32  1  0.92677600  0.69777800  0.36923700  1
  Ni  Ni33  1  0.07322400  0.30222200  0.63076300  1
  Ni  Ni34  1  0.98905900  0.88878900  0.44217600  1
  Ni  Ni35  1  0.01094100  0.11121100  0.55782400  1
  Ni  Ni36  1  0.59211900  0.30456900  0.76013600  1
  Ni  Ni37  1  0.40788100  0.69543100  0.23986400  1
  Ni  Ni38  1  0.79602000  0.01552000  0.77899700  1
  Ni  Ni39  1  0.20398000  0.98448000  0.22100300  1
  Ni  Ni40  1  0.59669800  0.87869600  0.22760500  1
  Ni  Ni41  1  0.40330200  0.12130400  0.77239500  1
  Ni  Ni42  1  0.93936300  0.19127600  0.87000000  1
  Ni  Ni43  1  0.06063700  0.80872400  0.13000000  1
  Ni  Ni44  1  0.14163200  0.82759000  0.91098300  1
  Ni  Ni45  1  0.85836800  0.17241000  0.08901700  1
  Ni  Ni46  1  0.95287100  0.39840400  0.95120800  1
  Ni  Ni47  1  0.04712900  0.60159600  0.04879200  1
  Ni  Ni48  1  0.35767100  0.33989200  0.97736400  1
  Ni  Ni49  1  0.64232900  0.66010800  0.02263600  1
  Ni  Ni50  1  0.52405300  0.58476200  0.87014900  1
  Ni  Ni51  1  0.47594700  0.41523800  0.12985100  1
  Ni  Ni52  1  0.82562400  0.69538500  0.81067900  1
  Ni  Ni53  1  0.17437600  0.30461500  0.18932100  1
  Cu  Cu54  1  0.84650400  0.54643300  0.25729900  1
  Cu  Cu55  1  0.15349600  0.45356700  0.74270100  1
