# generated using pymatgen
data_Cu3Ni3C16
_symmetry_space_group_name_H-M   'P 1'
_cell_length_a   7.30316054
_cell_length_b   7.30316054
_cell_length_c   7.30316076
_cell_angle_alpha   62.00104283
_cell_angle_beta   62.00104283
_cell_angle_gamma   62.00104810
_symmetry_Int_Tables_number   1
_chemical_formula_structural   Cu3Ni3C16
_chemical_formula_sum   'Cu3 Ni3 C16'
_cell_volume   287.76192468
_cell_formula_units_Z   1
loop_
 _symmetry_equiv_pos_site_id
 _symmetry_equiv_pos_as_xyz
  1  'x, y, z'
loop_
 _atom_site_type_symbol
 _atom_site_label
 _atom_site_symmetry_multiplicity
 _atom_site_fract_x
 _atom_site_fract_y
 _atom_site_fract_z
 _atom_site_occupancy
  C  C0  1  0.50000000  0.50000000  0.50000000  1
  C  C1  1  0.00000000  0.00000000  0.00000000  1
  Ni  Ni2  1  0.00000000  0.50000000  0.50000000  1
  Ni  Ni3  1  0.50000000  0.50000000  0.00000000  1
  Ni  Ni4  1  0.50000000  0.00000000  0.50000000  1
  Cu  Cu5  1  0.50000000  0.00000000  0.00000000  1
  Cu  Cu6  1  0.00000000  0.00000000  0.50000000  1
  Cu  Cu7  1  0.00000000  0.50000000  0.00000000  1
  C  C8  1  0.92949400  0.32191800  0.32191800  1
  C  C9  1  0.33603600  0.91626400  0.91626400  1
  C  C10  1  0.32191800  0.32191800  0.92949400  1
  C  C11  1  0.91626400  0.91626400  0.33603600  1
  C  C12  1  0.91626400  0.33603600  0.91626400  1
  C  C13  1  0.32191800  0.92949400  0.32191800  1
  C  C14  1  0.07050600  0.67808200  0.67808200  1
  C  C15  1  0.66396400  0.08373600  0.08373600  1
  C  C16  1  0.67808200  0.67808200  0.07050600  1
  C  C17  1  0.08373600  0.08373600  0.66396400  1
  C  C18  1  0.08373600  0.66396400  0.08373600  1
  C  C19  1  0.67808200  0.07050600  0.67808200  1
  C  C20  1  0.39059100  0.39059100  0.39059100  1
  C  C21  1  0.60940900  0.60940900  0.60940900  1
