# generated using pymatgen
data_Cu6NiC24
_symmetry_space_group_name_H-M   'P 1'
_cell_length_a   5.79167769
_cell_length_b   5.86266436
_cell_length_c   14.98763626
_cell_angle_alpha   93.98209253
_cell_angle_beta   90.09161267
_cell_angle_gamma   119.40139381
_symmetry_Int_Tables_number   1
_chemical_formula_structural   Cu6NiC24
_chemical_formula_sum   'Cu6 Ni1 C24'
_cell_volume   441.91128883
_cell_formula_units_Z   1
loop_
 _symmetry_equiv_pos_site_id
 _symmetry_equiv_pos_as_xyz
  1  'x, y, z'
loop_
 _atom_site_type_symbol
 _atom_site_label
 _atom_site_symmetry_multiplicity
 _atom_site_fract_x
 _atom_site_fract_y
 _atom_site_fract_z
 _atom_site_occupancy
  C  C0  1  0.01071664  0.01642777  0.74674134  1
  C  C1  1  0.93700407  0.86220762  0.28865638  1
  C  C2  1  0.34327146  0.67945668  0.89617363  1
  C  C3  1  0.33736976  0.66210419  0.58856590  1
  C  C4  1  0.70680020  0.39588194  0.07696369  1
  C  C5  1  0.64404529  0.27587872  0.42369379  1
  Ni  Ni6  1  0.12803095  0.23573141  0.15650576  1
  Cu  Cu7  1  0.02500569  0.03813917  0.99097611  1
  Cu  Cu8  1  0.99355479  0.97398237  0.50406225  1
  Cu  Cu9  1  0.37711456  0.73739332  0.15527332  1
  Cu  Cu10  1  0.31413084  0.61568305  0.34373605  1
  Cu  Cu11  1  0.67337854  0.34059564  0.84239363  1
  Cu  Cu12  1  0.67452880  0.33812999  0.65474256  1
  C  C13  1  0.13502348  0.24713757  0.40307430  1
  C  C14  1  0.76191215  0.96772521  0.10305175  1
  C  C15  1  0.85525789  0.70815993  0.60042456  1
  C  C16  1  0.31036943  0.12224636  0.90014835  1
  C  C17  1  0.22802467  0.97096665  0.10106656  1
  C  C18  1  0.11417879  0.72810410  0.43857191  1
  C  C19  1  0.81405757  0.12024207  0.90255097  1
  C  C20  1  0.86923279  0.20939120  0.56830917  1
  C  C21  1  0.62734509  0.73784793  0.43918675  1
  C  C22  1  0.22626491  0.43493026  0.04428736  1
  C  C23  1  0.35225030  0.19753841  0.56780844  1
  C  C24  1  0.82933453  0.65289728  0.94054242  1
  C  C25  1  0.52638634  0.48779553  0.75242649  1
  C  C26  1  0.46683869  0.49551376  0.23195496  1
  C  C27  1  0.52964281  0.04832282  0.73922115  1
  C  C28  1  0.96764010  0.48852512  0.75317390  1
  C  C29  1  0.47802119  0.94388505  0.27501604  1
  C  C30  1  0.04534966  0.49632887  0.23141451  1
