# generated using pymatgen
data_CuNi6
_symmetry_space_group_name_H-M   'P 1'
_cell_length_a   15.62555002
_cell_length_b   15.62555002
_cell_length_c   15.62555002
_cell_angle_alpha   90.00000000
_cell_angle_beta   90.00000000
_cell_angle_gamma   90.00000000
_symmetry_Int_Tables_number   1
_chemical_formula_structural   CuNi6
_chemical_formula_sum   'Cu36 Ni216'
_cell_volume   3815.10012649
_cell_formula_units_Z   36
loop_
 _symmetry_equiv_pos_site_id
 _symmetry_equiv_pos_as_xyz
  1  'x, y, z'
loop_
 _atom_site_type_symbol
 _atom_site_label
 _atom_site_symmetry_multiplicity
 _atom_site_fract_x
 _atom_site_fract_y
 _atom_site_fract_z
 _atom_site_occupancy
  Ni  Ni0  1  0.11388098  0.45254265  0.47495064  1
  Ni  Ni1  1  0.38611902  0.54745735  0.97495064  1
  Ni  Ni2  1  0.88611902  0.95254265  0.02504936  1
  Ni  Ni3  1  0.61388098  0.04745735  0.52504936  1
  Ni  Ni4  1  0.45254265  0.47495064  0.11388098  1
  Ni  Ni5  1  0.54745735  0.97495064  0.38611902  1
  Ni  Ni6  1  0.95254265  0.02504936  0.88611902  1
  Ni  Ni7  1  0.04745735  0.52504936  0.61388098  1
  Ni  Ni8  1  0.47495064  0.11388098  0.45254265  1
  Ni  Ni9  1  0.97495064  0.38611902  0.54745735  1
  Ni  Ni10  1  0.02504936  0.88611902  0.95254265  1
  Ni  Ni11  1  0.52504936  0.61388098  0.04745735  1
  Ni  Ni12  1  0.63611902  0.27504936  0.29745735  1
  Ni  Ni13  1  0.36388098  0.77504936  0.20254265  1
  Ni  Ni14  1  0.86388098  0.72495064  0.79745735  1
  Ni  Ni15  1  0.13611902  0.22495064  0.70254265  1
  Ni  Ni16  1  0.29745735  0.63611902  0.27504936  1
  Ni  Ni17  1  0.20254265  0.36388098  0.77504936  1
  Ni  Ni18  1  0.79745735  0.86388098  0.72495064  1
  Ni  Ni19  1  0.70254265  0.13611902  0.22495064  1
  Ni  Ni20  1  0.27504936  0.29745735  0.63611902  1
  Ni  Ni21  1  0.77504936  0.20254265  0.36388098  1
  Ni  Ni22  1  0.72495064  0.79745735  0.86388098  1
  Ni  Ni23  1  0.22495064  0.70254265  0.13611902  1
  Ni  Ni24  1  0.14863350  0.03682342  0.68690466  1
  Ni  Ni25  1  0.35136650  0.96317658  0.18690466  1
  Ni  Ni26  1  0.85136650  0.53682342  0.81309534  1
  Ni  Ni27  1  0.64863350  0.46317658  0.31309534  1
  Ni  Ni28  1  0.03682342  0.68690466  0.14863350  1
  Ni  Ni29  1  0.96317658  0.18690466  0.35136650  1
  Ni  Ni30  1  0.53682342  0.81309534  0.85136650  1
  Ni  Ni31  1  0.46317658  0.31309534  0.64863350  1
  Ni  Ni32  1  0.68690466  0.14863350  0.03682342  1
  Ni  Ni33  1  0.18690466  0.35136650  0.96317658  1
  Ni  Ni34  1  0.81309534  0.85136650  0.53682342  1
  Ni  Ni35  1  0.31309534  0.64863350  0.46317658  1
  Ni  Ni36  1  0.60136650  0.06309534  0.71317658  1
  Ni  Ni37  1  0.39863350  0.56309534  0.78682342  1
  Ni  Ni38  1  0.89863350  0.93690466  0.21317658  1
  Ni  Ni39  1  0.10136650  0.43690466  0.28682342  1
  Ni  Ni40  1  0.71317658  0.60136650  0.06309534  1
  Ni  Ni41  1  0.78682342  0.39863350  0.56309534  1
  Ni  Ni42  1  0.21317658  0.89863350  0.93690466  1
  Ni  Ni43  1  0.28682342  0.10136650  0.43690466  1
  Ni  Ni44  1  0.06309534  0.71317658  0.60136650  1
  Ni  Ni45  1  0.56309534  0.78682342  0.39863350  1
  Ni  Ni46  1  0.93690466  0.21317658  0.89863350  1
  Ni  Ni47  1  0.43690466  0.28682342  0.10136650  1
  Ni  Ni48  1  0.21000480  0.33075909  0.35096303  1
  Ni  Ni49  1  0.28999520  0.66924091  0.85096303  1
  Ni  Ni50  1  0.78999520  0.83075909  0.14903697  1
  Ni  Ni51  1  0.71000480  0.16924091  0.64903697  1
  Ni  Ni52  1  0.33075909  0.35096303  0.21000480  1
  Ni  Ni53  1  0.66924091  0.85096303  0.28999520  1
  Ni  Ni54  1  0.83075909  0.14903697  0.78999520  1
  Ni  Ni55  1  0.16924091  0.64903697  0.71000480  1
  Ni  Ni56  1  0.35096303  0.21000480  0.33075909  1
  Ni  Ni57  1  0.85096303  0.28999520  0.66924091  1
  Ni  Ni58  1  0.14903697  0.78999520  0.83075909  1
  Ni  Ni59  1  0.64903697  0.71000480  0.16924091  1
  Ni  Ni60  1  0.53999520  0.39903697  0.41924091  1
  Ni  Ni61  1  0.46000480  0.89903697  0.08075909  1
  Ni  Ni62  1  0.96000480  0.60096303  0.91924091  1
  Ni  Ni63  1  0.03999520  0.10096303  0.58075909  1
  Ni  Ni64  1  0.41924091  0.53999520  0.39903697  1
  Ni  Ni65  1  0.08075909  0.46000480  0.89903697  1
  Ni  Ni66  1  0.91924091  0.96000480  0.60096303  1
  Ni  Ni67  1  0.58075909  0.03999520  0.10096303  1
  Ni  Ni68  1  0.39903697  0.41924091  0.53999520  1
  Ni  Ni69  1  0.89903697  0.08075909  0.46000480  1
  Ni  Ni70  1  0.60096303  0.91924091  0.96000480  1
  Ni  Ni71  1  0.10096303  0.58075909  0.03999520  1
  Ni  Ni72  1  0.28749470  0.27133848  0.47749468  1
  Ni  Ni73  1  0.21250530  0.72866152  0.97749468  1
  Ni  Ni74  1  0.71250530  0.77133848  0.02250532  1
  Ni  Ni75  1  0.78749470  0.22866152  0.52250532  1
  Ni  Ni76  1  0.27133848  0.47749468  0.28749470  1
  Ni  Ni77  1  0.72866152  0.97749468  0.21250530  1
  Ni  Ni78  1  0.77133848  0.02250532  0.71250530  1
  Ni  Ni79  1  0.22866152  0.52250532  0.78749470  1
  Ni  Ni80  1  0.47749468  0.28749470  0.27133848  1
  Ni  Ni81  1  0.97749468  0.21250530  0.72866152  1
  Ni  Ni82  1  0.02250532  0.71250530  0.77133848  1
  Ni  Ni83  1  0.52250532  0.78749470  0.22866152  1
  Ni  Ni84  1  0.46250530  0.27250532  0.47866152  1
  Ni  Ni85  1  0.53749470  0.77250532  0.02133848  1
  Ni  Ni86  1  0.03749470  0.72749468  0.97866152  1
  Ni  Ni87  1  0.96250530  0.22749468  0.52133848  1
  Ni  Ni88  1  0.47866152  0.46250530  0.27250532  1
  Ni  Ni89  1  0.02133848  0.53749470  0.77250532  1
  Ni  Ni90  1  0.97866152  0.03749470  0.72749468  1
  Ni  Ni91  1  0.52133848  0.96250530  0.22749468  1
  Ni  Ni92  1  0.27250532  0.47866152  0.46250530  1
  Ni  Ni93  1  0.77250532  0.02133848  0.53749470  1
  Ni  Ni94  1  0.72749468  0.97866152  0.03749470  1
  Ni  Ni95  1  0.22749468  0.52133848  0.96250530  1
  Ni  Ni96  1  0.28924796  0.13446383  0.72386431  1
  Ni  Ni97  1  0.21075204  0.86553617  0.22386431  1
  Ni  Ni98  1  0.71075204  0.63446383  0.77613569  1
  Ni  Ni99  1  0.78924796  0.36553617  0.27613569  1
  Ni  Ni100  1  0.13446383  0.72386431  0.28924796  1
  Ni  Ni101  1  0.86553617  0.22386431  0.21075204  1
  Ni  Ni102  1  0.63446383  0.77613569  0.71075204  1
  Ni  Ni103  1  0.36553617  0.27613569  0.78924796  1
  Ni  Ni104  1  0.72386431  0.28924796  0.13446383  1
  Ni  Ni105  1  0.22386431  0.21075204  0.86553617  1
  Ni  Ni106  1  0.77613569  0.71075204  0.63446383  1
  Ni  Ni107  1  0.27613569  0.78924796  0.36553617  1
  Ni  Ni108  1  0.46075204  0.02613569  0.61553617  1
  Ni  Ni109  1  0.53924796  0.52613569  0.88446383  1
  Ni  Ni110  1  0.03924796  0.97386431  0.11553617  1
  Ni  Ni111  1  0.96075204  0.47386431  0.38446383  1
  Ni  Ni112  1  0.61553617  0.46075204  0.02613569  1
  Ni  Ni113  1  0.88446383  0.53924796  0.52613569  1
  Ni  Ni114  1  0.11553617  0.03924796  0.97386431  1
  Ni  Ni115  1  0.38446383  0.96075204  0.47386431  1
  Ni  Ni116  1  0.02613569  0.61553617  0.46075204  1
  Ni  Ni117  1  0.52613569  0.88446383  0.53924796  1
  Ni  Ni118  1  0.97386431  0.11553617  0.03924796  1
  Ni  Ni119  1  0.47386431  0.38446383  0.96075204  1
  Ni  Ni120  1  0.14786490  0.74002329  0.46319510  1
  Ni  Ni121  1  0.35213510  0.25997671  0.96319510  1
  Ni  Ni122  1  0.85213510  0.24002329  0.03680490  1
  Ni  Ni123  1  0.64786490  0.75997671  0.53680490  1
  Ni  Ni124  1  0.74002329  0.46319510  0.14786490  1
  Ni  Ni125  1  0.25997671  0.96319510  0.35213510  1
  Ni  Ni126  1  0.24002329  0.03680490  0.85213510  1
  Ni  Ni127  1  0.75997671  0.53680490  0.64786490  1
  Ni  Ni128  1  0.46319510  0.14786490  0.74002329  1
  Ni  Ni129  1  0.96319510  0.35213510  0.25997671  1
  Ni  Ni130  1  0.03680490  0.85213510  0.24002329  1
  Ni  Ni131  1  0.53680490  0.64786490  0.75997671  1
  Ni  Ni132  1  0.60213510  0.28680490  0.00997671  1
  Ni  Ni133  1  0.39786490  0.78680490  0.49002329  1
  Ni  Ni134  1  0.89786490  0.71319510  0.50997671  1
  Ni  Ni135  1  0.10213510  0.21319510  0.99002329  1
  Ni  Ni136  1  0.00997671  0.60213510  0.28680490  1
  Ni  Ni137  1  0.49002329  0.39786490  0.78680490  1
  Ni  Ni138  1  0.50997671  0.89786490  0.71319510  1
  Ni  Ni139  1  0.99002329  0.10213510  0.21319510  1
  Ni  Ni140  1  0.28680490  0.00997671  0.60213510  1
  Ni  Ni141  1  0.78680490  0.49002329  0.39786490  1
  Ni  Ni142  1  0.71319510  0.50997671  0.89786490  1
  Ni  Ni143  1  0.21319510  0.99002329  0.10213510  1
  Ni  Ni144  1  0.13458802  0.01360458  0.47459741  1
  Ni  Ni145  1  0.36541198  0.98639542  0.97459741  1
  Ni  Ni146  1  0.86541198  0.51360458  0.02540259  1
  Ni  Ni147  1  0.63458802  0.48639542  0.52540259  1
  Ni  Ni148  1  0.01360458  0.47459741  0.13458802  1
  Ni  Ni149  1  0.98639542  0.97459741  0.36541198  1
  Ni  Ni150  1  0.51360458  0.02540259  0.86541198  1
  Ni  Ni151  1  0.48639542  0.52540259  0.63458802  1
  Ni  Ni152  1  0.47459741  0.13458802  0.01360458  1
  Ni  Ni153  1  0.97459741  0.36541198  0.98639542  1
  Ni  Ni154  1  0.02540259  0.86541198  0.51360458  1
  Ni  Ni155  1  0.52540259  0.63458802  0.48639542  1
  Ni  Ni156  1  0.61541198  0.27540259  0.73639542  1
  Ni  Ni157  1  0.38458802  0.77540259  0.76360458  1
  Ni  Ni158  1  0.88458802  0.72459741  0.23639542  1
  Ni  Ni159  1  0.11541198  0.22459741  0.26360458  1
  Ni  Ni160  1  0.73639542  0.61541198  0.27540259  1
  Ni  Ni161  1  0.76360458  0.38458802  0.77540259  1
  Ni  Ni162  1  0.23639542  0.88458802  0.72459741  1
  Ni  Ni163  1  0.26360458  0.11541198  0.22459741  1
  Ni  Ni164  1  0.27540259  0.73639542  0.61541198  1
  Ni  Ni165  1  0.77540259  0.76360458  0.38458802  1
  Ni  Ni166  1  0.72459741  0.23639542  0.88458802  1
  Ni  Ni167  1  0.22459741  0.26360458  0.11541198  1
  Ni  Ni168  1  0.81901425  0.93098575  0.37500000  1
  Ni  Ni169  1  0.68098575  0.06901425  0.87500000  1
  Ni  Ni170  1  0.18098575  0.43098575  0.12500000  1
  Ni  Ni171  1  0.31901425  0.56901425  0.62500000  1
  Ni  Ni172  1  0.93098575  0.37500000  0.81901425  1
  Ni  Ni173  1  0.06901425  0.87500000  0.68098575  1
  Ni  Ni174  1  0.43098575  0.12500000  0.18098575  1
  Ni  Ni175  1  0.56901425  0.62500000  0.31901425  1
  Ni  Ni176  1  0.37500000  0.81901425  0.93098575  1
  Ni  Ni177  1  0.87500000  0.68098575  0.06901425  1
  Ni  Ni178  1  0.12500000  0.18098575  0.43098575  1
  Ni  Ni179  1  0.62500000  0.31901425  0.56901425  1
  Ni  Ni180  1  0.70153190  0.04846810  0.37500000  1
  Ni  Ni181  1  0.79846810  0.95153190  0.87500000  1
  Ni  Ni182  1  0.29846810  0.54846810  0.12500000  1
  Ni  Ni183  1  0.20153190  0.45153190  0.62500000  1
  Ni  Ni184  1  0.04846810  0.37500000  0.70153190  1
  Ni  Ni185  1  0.95153190  0.87500000  0.79846810  1
  Ni  Ni186  1  0.54846810  0.12500000  0.29846810  1
  Ni  Ni187  1  0.45153190  0.62500000  0.20153190  1
  Ni  Ni188  1  0.37500000  0.70153190  0.04846810  1
  Ni  Ni189  1  0.87500000  0.79846810  0.95153190  1
  Ni  Ni190  1  0.12500000  0.29846810  0.54846810  1
  Ni  Ni191  1  0.62500000  0.20153190  0.45153190  1
  Ni  Ni192  1  0.97456074  0.77543926  0.37500000  1
  Ni  Ni193  1  0.52543926  0.22456074  0.87500000  1
  Ni  Ni194  1  0.02543926  0.27543926  0.12500000  1
  Ni  Ni195  1  0.47456074  0.72456074  0.62500000  1
  Ni  Ni196  1  0.77543926  0.37500000  0.97456074  1
  Ni  Ni197  1  0.22456074  0.87500000  0.52543926  1
  Ni  Ni198  1  0.27543926  0.12500000  0.02543926  1
  Ni  Ni199  1  0.72456074  0.62500000  0.47456074  1
  Ni  Ni200  1  0.37500000  0.97456074  0.77543926  1
  Ni  Ni201  1  0.87500000  0.52543926  0.22456074  1
  Ni  Ni202  1  0.12500000  0.02543926  0.27543926  1
  Ni  Ni203  1  0.62500000  0.47456074  0.72456074  1
  Ni  Ni204  1  0.16735993  0.58264007  0.37500000  1
  Ni  Ni205  1  0.33264007  0.41735993  0.87500000  1
  Ni  Ni206  1  0.83264007  0.08264007  0.12500000  1
  Ni  Ni207  1  0.66735993  0.91735993  0.62500000  1
  Ni  Ni208  1  0.58264007  0.37500000  0.16735993  1
  Ni  Ni209  1  0.41735993  0.87500000  0.33264007  1
  Ni  Ni210  1  0.08264007  0.12500000  0.83264007  1
  Ni  Ni211  1  0.91735993  0.62500000  0.66735993  1
  Ni  Ni212  1  0.37500000  0.16735993  0.58264007  1
  Ni  Ni213  1  0.87500000  0.33264007  0.41735993  1
  Ni  Ni214  1  0.12500000  0.83264007  0.08264007  1
  Ni  Ni215  1  0.62500000  0.66735993  0.91735993  1
  Cu  Cu216  1  0.20957866  0.15033100  0.57554829  1
  Cu  Cu217  1  0.29042134  0.84966900  0.07554829  1
  Cu  Cu218  1  0.79042134  0.65033100  0.92445171  1
  Cu  Cu219  1  0.70957866  0.34966900  0.42445171  1
  Cu  Cu220  1  0.15033100  0.57554829  0.20957866  1
  Cu  Cu221  1  0.84966900  0.07554829  0.29042134  1
  Cu  Cu222  1  0.65033100  0.92445171  0.79042134  1
  Cu  Cu223  1  0.34966900  0.42445171  0.70957866  1
  Cu  Cu224  1  0.57554829  0.20957866  0.15033100  1
  Cu  Cu225  1  0.07554829  0.29042134  0.84966900  1
  Cu  Cu226  1  0.92445171  0.79042134  0.65033100  1
  Cu  Cu227  1  0.42445171  0.70957866  0.34966900  1
  Cu  Cu228  1  0.54042134  0.17445171  0.59966900  1
  Cu  Cu229  1  0.45957866  0.67445171  0.90033100  1
  Cu  Cu230  1  0.95957866  0.82554829  0.09966900  1
  Cu  Cu231  1  0.04042134  0.32554829  0.40033100  1
  Cu  Cu232  1  0.59966900  0.54042134  0.17445171  1
  Cu  Cu233  1  0.90033100  0.45957866  0.67445171  1
  Cu  Cu234  1  0.09966900  0.95957866  0.82554829  1
  Cu  Cu235  1  0.40033100  0.04042134  0.32554829  1
  Cu  Cu236  1  0.17445171  0.59966900  0.54042134  1
  Cu  Cu237  1  0.67445171  0.90033100  0.45957866  1
  Cu  Cu238  1  0.82554829  0.09966900  0.95957866  1
  Cu  Cu239  1  0.32554829  0.40033100  0.04042134  1
  Cu  Cu240  1  0.12676922  0.87323078  0.37323078  1
  Cu  Cu241  1  0.37323078  0.12676922  0.87323078  1
  Cu  Cu242  1  0.87323078  0.37323078  0.12676922  1
  Cu  Cu243  1  0.62676922  0.62676922  0.62676922  1
  Cu  Cu244  1  0.62323078  0.37676922  0.87676922  1
  Cu  Cu245  1  0.37676922  0.87676922  0.62323078  1
  Cu  Cu246  1  0.87676922  0.62323078  0.37676922  1
  Cu  Cu247  1  0.12323078  0.12323078  0.12323078  1
  Cu  Cu248  1  0.87500000  0.12500000  0.62500000  1
  Cu  Cu249  1  0.62500000  0.87500000  0.12500000  1
  Cu  Cu250  1  0.12500000  0.62500000  0.87500000  1
  Cu  Cu251  1  0.37500000  0.37500000  0.37500000  1
