# generated using pymatgen
data_Cu14Ni2C23
_symmetry_space_group_name_H-M   'P 1'
_cell_length_a   6.39298342
_cell_length_b   9.43001718
_cell_length_c   12.69824400
_cell_angle_alpha   90.00000000
_cell_angle_beta   90.00000000
_cell_angle_gamma   106.25928309
_symmetry_Int_Tables_number   1
_chemical_formula_structural   Cu14Ni2C23
_chemical_formula_sum   'Cu28 Ni4 C46'
_cell_volume   734.90804336
_cell_formula_units_Z   2
loop_
 _symmetry_equiv_pos_site_id
 _symmetry_equiv_pos_as_xyz
  1  'x, y, z'
loop_
 _atom_site_type_symbol
 _atom_site_label
 _atom_site_symmetry_multiplicity
 _atom_site_fract_x
 _atom_site_fract_y
 _atom_site_fract_z
 _atom_site_occupancy
  C  C0  1  0.74095700  0.90787000  0.36399900  1
  C  C1  1  0.25904300  0.59213000  0.86399900  1
  C  C2  1  0.25904300  0.09213000  0.63600100  1
  C  C3  1  0.74095700  0.40787000  0.13600100  1
  C  C4  1  0.00000000  0.50000000  0.50000000  1
  C  C5  1  0.00000000  0.00000000  0.00000000  1
  C  C6  1  0.19935700  0.06239100  0.32980700  1
  C  C7  1  0.80064300  0.43760900  0.82980700  1
  C  C8  1  0.80064300  0.93760900  0.67019300  1
  C  C9  1  0.19935700  0.56239100  0.17019300  1
  C  C10  1  0.38652700  0.22516700  0.29453100  1
  C  C11  1  0.61347300  0.27483300  0.79453100  1
  C  C12  1  0.61347300  0.77483300  0.70546900  1
  C  C13  1  0.38652700  0.72516700  0.20546900  1
  C  C14  1  0.46238800  0.07200900  0.32355600  1
  C  C15  1  0.53761200  0.42799100  0.82355600  1
  C  C16  1  0.53761200  0.92799100  0.67644400  1
  C  C17  1  0.46238800  0.57200900  0.17644400  1
  C  C18  1  0.37191900  0.16673300  0.42114900  1
  C  C19  1  0.62808100  0.33326700  0.92114900  1
  C  C20  1  0.62808100  0.83326700  0.57885100  1
  C  C21  1  0.37191900  0.66673300  0.07885100  1
  C  C22  1  0.32078700  0.70982700  0.41778800  1
  C  C23  1  0.67921300  0.79017300  0.91778800  1
  C  C24  1  0.67921300  0.29017300  0.58221200  1
  C  C25  1  0.32078700  0.20982700  0.08221200  1
  C  C26  1  0.10143800  0.74318400  0.37713600  1
  C  C27  1  0.89856200  0.75681600  0.87713600  1
  C  C28  1  0.89856200  0.25681600  0.62286400  1
  C  C29  1  0.10143800  0.24318400  0.12286400  1
  C  C30  1  0.94282800  0.24097200  0.40729900  1
  C  C31  1  0.05717200  0.25902800  0.90729900  1
  C  C32  1  0.05717200  0.75902800  0.59270100  1
  C  C33  1  0.94282800  0.74097200  0.09270100  1
  C  C34  1  0.01199100  0.36254000  0.31719000  1
  C  C35  1  0.98800900  0.13746000  0.81719000  1
  C  C36  1  0.98800900  0.63746000  0.68281000  1
  C  C37  1  0.01199100  0.86254000  0.18281000  1
  C  C38  1  0.33571200  0.40403300  0.55399000  1
  C  C39  1  0.66428800  0.09596700  0.05399000  1
  C  C40  1  0.66428800  0.59596700  0.44601000  1
  C  C41  1  0.33571200  0.90403300  0.94601000  1
  C  C42  1  0.32949200  0.52593100  0.63947800  1
  C  C43  1  0.67050800  0.97406900  0.13947800  1
  C  C44  1  0.67050800  0.47406900  0.36052200  1
  C  C45  1  0.32949200  0.02593100  0.86052200  1
  Ni  Ni46  1  0.35470000  0.13253700  0.34222200  1
  Ni  Ni47  1  0.64530100  0.36746300  0.84222200  1
  Ni  Ni48  1  0.64530100  0.86746300  0.65777800  1
  Ni  Ni49  1  0.35470000  0.63253700  0.15777800  1
  Cu  Cu50  1  0.57310800  0.91445900  0.26396700  1
  Cu  Cu51  1  0.42689200  0.58554100  0.76396700  1
  Cu  Cu52  1  0.42689200  0.08554100  0.73603300  1
  Cu  Cu53  1  0.57310800  0.41445900  0.23603300  1
  Cu  Cu54  1  0.79499100  0.06552600  0.42820700  1
  Cu  Cu55  1  0.20500900  0.43447400  0.92820700  1
  Cu  Cu56  1  0.20500900  0.93447400  0.57179300  1
  Cu  Cu57  1  0.79499100  0.56552600  0.07179300  1
  Cu  Cu58  1  0.61246900  0.77125200  0.44545700  1
  Cu  Cu59  1  0.38753100  0.72874800  0.94545700  1
  Cu  Cu60  1  0.38753100  0.22874800  0.55454300  1
  Cu  Cu61  1  0.61246900  0.27125200  0.05454300  1
  Cu  Cu62  1  0.97290900  0.88082500  0.31773100  1
  Cu  Cu63  1  0.02709100  0.61917500  0.81773100  1
  Cu  Cu64  1  0.02709100  0.11917500  0.68226900  1
  Cu  Cu65  1  0.97290900  0.38082500  0.18226900  1
  Cu  Cu66  1  0.16804600  0.66343800  0.39503600  1
  Cu  Cu67  1  0.83195400  0.83656200  0.89503600  1
  Cu  Cu68  1  0.83195400  0.33656200  0.60496400  1
  Cu  Cu69  1  0.16804600  0.16343800  0.10496400  1
  Cu  Cu70  1  0.03601600  0.34304700  0.39267000  1
  Cu  Cu71  1  0.96398400  0.15695300  0.89267000  1
  Cu  Cu72  1  0.96398400  0.65695300  0.60733000  1
  Cu  Cu73  1  0.03601600  0.84304700  0.10733000  1
  Cu  Cu74  1  0.29238100  0.49604800  0.56515000  1
  Cu  Cu75  1  0.70761900  0.00395200  0.06515000  1
  Cu  Cu76  1  0.70761900  0.50395200  0.43485000  1
  Cu  Cu77  1  0.29238100  0.99604800  0.93485000  1
