# generated using pymatgen
data_Cu8(Ni5C2)3
_symmetry_space_group_name_H-M   'P 1'
_cell_length_a   7.66341399
_cell_length_b   7.66341399
_cell_length_c   7.66341399
_cell_angle_alpha   60.00000000
_cell_angle_beta   60.00000000
_cell_angle_gamma   60.00000000
_symmetry_Int_Tables_number   1
_chemical_formula_structural   Cu8(Ni5C2)3
_chemical_formula_sum   'Cu8 Ni15 C6'
_cell_volume   318.23787421
_cell_formula_units_Z   1
loop_
 _symmetry_equiv_pos_site_id
 _symmetry_equiv_pos_as_xyz
  1  'x, y, z'
loop_
 _atom_site_type_symbol
 _atom_site_label
 _atom_site_symmetry_multiplicity
 _atom_site_fract_x
 _atom_site_fract_y
 _atom_site_fract_z
 _atom_site_occupancy
  Ni  Ni0  1  0.32659900  0.32659900  0.32659900  1
  Ni  Ni1  1  0.67340100  0.67340100  0.67340100  1
  Ni  Ni2  1  0.32659900  0.32659900  0.02020400  1
  Ni  Ni3  1  0.32659900  0.02020400  0.32659900  1
  Ni  Ni4  1  0.67340100  0.67340100  0.97979600  1
  Ni  Ni5  1  0.67340100  0.97979600  0.67340100  1
  Ni  Ni6  1  0.02020400  0.32659900  0.32659900  1
  Ni  Ni7  1  0.97979600  0.67340100  0.67340100  1
  Ni  Ni8  1  0.50000000  0.00000000  0.00000000  1
  Ni  Ni9  1  0.00000000  0.50000000  0.50000000  1
  Ni  Ni10  1  0.00000000  0.50000000  0.00000000  1
  Ni  Ni11  1  0.50000000  0.00000000  0.50000000  1
  Ni  Ni12  1  0.00000000  0.00000000  0.50000000  1
  Ni  Ni13  1  0.50000000  0.50000000  0.00000000  1
  Ni  Ni14  1  0.00000000  0.00000000  0.00000000  1
  C  C15  1  0.69306400  0.30693600  0.30693600  1
  C  C16  1  0.30693600  0.69306400  0.69306400  1
  C  C17  1  0.30693600  0.69306400  0.30693600  1
  C  C18  1  0.69306400  0.30693600  0.69306400  1
  C  C19  1  0.30693600  0.30693600  0.69306400  1
  C  C20  1  0.69306400  0.69306400  0.30693600  1
  Cu  Cu21  1  0.12256000  0.12256000  0.12256000  1
  Cu  Cu22  1  0.87744000  0.87744000  0.87744000  1
  Cu  Cu23  1  0.12256000  0.12256000  0.63232000  1
  Cu  Cu24  1  0.12256000  0.63232000  0.12256000  1
  Cu  Cu25  1  0.87744000  0.87744000  0.36768000  1
  Cu  Cu26  1  0.87744000  0.36768000  0.87744000  1
  Cu  Cu27  1  0.63232000  0.12256000  0.12256000  1
  Cu  Cu28  1  0.36768000  0.87744000  0.87744000  1
