# generated using pymatgen
data_CuNi5C8
_symmetry_space_group_name_H-M   'P 1'
_cell_length_a   7.77282200
_cell_length_b   8.70958500
_cell_length_c   27.61062500
_cell_angle_alpha   90.00000000
_cell_angle_beta   90.00000000
_cell_angle_gamma   90.00000000
_symmetry_Int_Tables_number   1
_chemical_formula_structural   CuNi5C8
_chemical_formula_sum   'Cu4 Ni20 C32'
_cell_volume   1869.18557943
_cell_formula_units_Z   4
loop_
 _symmetry_equiv_pos_site_id
 _symmetry_equiv_pos_as_xyz
  1  'x, y, z'
loop_
 _atom_site_type_symbol
 _atom_site_label
 _atom_site_symmetry_multiplicity
 _atom_site_fract_x
 _atom_site_fract_y
 _atom_site_fract_z
 _atom_site_occupancy
  C  C0  1  0.00000000  0.00000000  0.50000000  1
  C  C1  1  0.00000000  0.00000000  0.00000000  1
  C  C2  1  0.50000000  0.00000000  0.00000000  1
  C  C3  1  0.50000000  0.00000000  0.50000000  1
  C  C4  1  0.08489200  0.21226100  0.41752600  1
  C  C5  1  0.08489200  0.78773900  0.08247400  1
  C  C6  1  0.41510800  0.78773900  0.91752600  1
  C  C7  1  0.41510800  0.21226100  0.58247400  1
  C  C8  1  0.91510800  0.78773900  0.58247400  1
  C  C9  1  0.91510800  0.21226100  0.91752600  1
  C  C10  1  0.58489200  0.21226100  0.08247400  1
  C  C11  1  0.58489200  0.78773900  0.41752600  1
  C  C12  1  0.95537900  0.73770500  0.43234900  1
  C  C13  1  0.95537900  0.26229500  0.06765100  1
  C  C14  1  0.54462100  0.26229500  0.93234900  1
  C  C15  1  0.54462100  0.73770500  0.56765100  1
  C  C16  1  0.04462100  0.26229500  0.56765100  1
  C  C17  1  0.04462100  0.73770500  0.93234900  1
  C  C18  1  0.45537900  0.73770500  0.06765100  1
  C  C19  1  0.45537900  0.26229500  0.43234900  1
  C  C20  1  0.08447200  0.94474700  0.36345200  1
  C  C21  1  0.08447200  0.05525300  0.13654800  1
  C  C22  1  0.41552800  0.05525300  0.86345200  1
  C  C23  1  0.41552800  0.94474700  0.63654800  1
  C  C24  1  0.91552800  0.05525300  0.63654800  1
  C  C25  1  0.91552800  0.94474700  0.86345200  1
  C  C26  1  0.58447200  0.94474700  0.13654800  1
  C  C27  1  0.58447200  0.05525300  0.36345200  1
  C  C28  1  0.26121000  0.50000000  0.75000000  1
  C  C29  1  0.23879000  0.50000000  0.25000000  1
  C  C30  1  0.73879000  0.50000000  0.25000000  1
  C  C31  1  0.76121000  0.50000000  0.75000000  1
  Ni  Ni32  1  0.25179800  0.55766100  0.65871600  1
  Ni  Ni33  1  0.25179800  0.44233900  0.84128400  1
  Ni  Ni34  1  0.24820200  0.44233900  0.15871600  1
  Ni  Ni35  1  0.24820200  0.55766100  0.34128400  1
  Ni  Ni36  1  0.74820200  0.44233900  0.34128400  1
  Ni  Ni37  1  0.74820200  0.55766100  0.15871600  1
  Ni  Ni38  1  0.75179800  0.55766100  0.84128400  1
  Ni  Ni39  1  0.75179800  0.44233900  0.65871600  1
  Ni  Ni40  1  0.25519400  0.78782000  0.76817600  1
  Ni  Ni41  1  0.25519400  0.21218000  0.73182400  1
  Ni  Ni42  1  0.24480600  0.21218000  0.26817600  1
  Ni  Ni43  1  0.24480600  0.78782000  0.23182400  1
  Ni  Ni44  1  0.74480600  0.21218000  0.23182400  1
  Ni  Ni45  1  0.74480600  0.78782000  0.26817600  1
  Ni  Ni46  1  0.75519400  0.78782000  0.73182400  1
  Ni  Ni47  1  0.75519400  0.21218000  0.76817600  1
  Ni  Ni48  1  0.25000000  0.51490400  0.50000000  1
  Ni  Ni49  1  0.25000000  0.48509600  0.00000000  1
  Ni  Ni50  1  0.75000000  0.48509600  0.50000000  1
  Ni  Ni51  1  0.75000000  0.51490400  0.00000000  1
  Cu  Cu52  1  0.50670600  0.50000000  0.75000000  1
  Cu  Cu53  1  0.99329400  0.50000000  0.25000000  1
  Cu  Cu54  1  0.49329400  0.50000000  0.25000000  1
  Cu  Cu55  1  0.00670600  0.50000000  0.75000000  1
