# generated using pymatgen
data_CuNiC12
_symmetry_space_group_name_H-M   'P 1'
_cell_length_a   6.99080451
_cell_length_b   6.99080451
_cell_length_c   5.66187800
_cell_angle_alpha   90.00000000
_cell_angle_beta   90.00000000
_cell_angle_gamma   132.84507035
_symmetry_Int_Tables_number   1
_chemical_formula_structural   CuNiC12
_chemical_formula_sum   'Cu1 Ni1 C12'
_cell_volume   202.87774976
_cell_formula_units_Z   1
loop_
 _symmetry_equiv_pos_site_id
 _symmetry_equiv_pos_as_xyz
  1  'x, y, z'
loop_
 _atom_site_type_symbol
 _atom_site_label
 _atom_site_symmetry_multiplicity
 _atom_site_fract_x
 _atom_site_fract_y
 _atom_site_fract_z
 _atom_site_occupancy
  C  C0  1  0.35177200  0.64822800  0.00000000  1
  C  C1  1  0.85385000  0.14615000  0.50000000  1
  C  C2  1  0.14615000  0.85385000  0.50000000  1
  C  C3  1  0.64822800  0.35177200  0.00000000  1
  Ni  Ni4  1  0.00000000  0.00000000  0.00000000  1
  Cu  Cu5  1  0.50000000  0.50000000  0.50000000  1
  C  C6  1  0.16120100  0.83879900  0.00000000  1
  C  C7  1  0.66130000  0.33870000  0.50000000  1
  C  C8  1  0.33870000  0.66130000  0.50000000  1
  C  C9  1  0.83879900  0.16120100  0.00000000  1
  C  C10  1  0.25429300  0.25429300  0.25094100  1
  C  C11  1  0.74570700  0.74570700  0.74905900  1
  C  C12  1  0.25429300  0.25429300  0.74905900  1
  C  C13  1  0.74570700  0.74570700  0.25094100  1
