# generated using pymatgen
data_CuNi2C7
_symmetry_space_group_name_H-M   'P 1'
_cell_length_a   6.22137400
_cell_length_b   6.33153759
_cell_length_c   6.43754412
_cell_angle_alpha   100.10703310
_cell_angle_beta   102.67223297
_cell_angle_gamma   98.72468556
_symmetry_Int_Tables_number   1
_chemical_formula_structural   CuNi2C7
_chemical_formula_sum   'Cu1 Ni2 C7'
_cell_volume   238.74182633
_cell_formula_units_Z   1
loop_
 _symmetry_equiv_pos_site_id
 _symmetry_equiv_pos_as_xyz
  1  'x, y, z'
loop_
 _atom_site_type_symbol
 _atom_site_label
 _atom_site_symmetry_multiplicity
 _atom_site_fract_x
 _atom_site_fract_y
 _atom_site_fract_z
 _atom_site_occupancy
  C  C0  1  0.45967500  0.45498000  0.44901000  1
  Ni  Ni1  1  0.99922400  0.84569100  0.26469200  1
  Ni  Ni2  1  0.26610700  0.98921600  0.85785000  1
  Cu  Cu3  1  0.84729800  0.27076600  0.99520500  1
  C  C4  1  0.03986200  0.71996000  0.58010800  1
  C  C5  1  0.59329300  0.05184600  0.73567900  1
  C  C6  1  0.71783900  0.56764300  0.02797400  1
  C  C7  1  0.89245400  0.18371600  0.30602400  1
  C  C8  1  0.34105100  0.90627500  0.19285000  1
  C  C9  1  0.15924200  0.32595200  0.90665200  1
