# generated using pymatgen
data_Cu(Ni2C17)2
_symmetry_space_group_name_H-M   'P 1'
_cell_length_a   5.40375115
_cell_length_b   7.57836648
_cell_length_c   15.03294100
_cell_angle_alpha   91.27508768
_cell_angle_beta   90.02560940
_cell_angle_gamma   110.89289259
_symmetry_Int_Tables_number   1
_chemical_formula_structural   Cu(Ni2C17)2
_chemical_formula_sum   'Cu1 Ni4 C34'
_cell_volume   574.97950279
_cell_formula_units_Z   1
loop_
 _symmetry_equiv_pos_site_id
 _symmetry_equiv_pos_as_xyz
  1  'x, y, z'
loop_
 _atom_site_type_symbol
 _atom_site_label
 _atom_site_symmetry_multiplicity
 _atom_site_fract_x
 _atom_site_fract_y
 _atom_site_fract_z
 _atom_site_occupancy
  Ni  Ni0  1  0.11738700  0.37438200  0.62206400  1
  Ni  Ni1  1  0.25678300  0.36156000  0.12625500  1
  Ni  Ni2  1  0.89424600  0.63629900  0.37340300  1
  Ni  Ni3  1  0.74286800  0.62712300  0.87809300  1
  Cu  Cu4  1  0.42363600  0.00160900  0.74920800  1
  C  C5  1  0.14062500  0.23945800  0.37227400  1
  C  C6  1  0.10130300  0.24363100  0.87419400  1
  C  C7  1  0.85361200  0.75572400  0.62502900  1
  C  C8  1  0.89897700  0.75947800  0.12756600  1
  C  C9  1  0.50052100  0.00279600  0.00102600  1
  C  C10  1  0.50078200  0.99928200  0.49764400  1
  C  C11  1  0.84345500  0.50514700  0.09554200  1
  C  C12  1  0.15875700  0.50602200  0.89887000  1
  C  C13  1  0.08505700  0.01274300  0.65345600  1
  C  C14  1  0.07119900  0.98621100  0.84528400  1
  C  C15  1  0.29571400  0.17042600  0.47789800  1
  C  C16  1  0.58524500  0.76526200  0.70933700  1
  C  C17  1  0.82575900  0.23532800  0.78920600  1
  C  C18  1  0.64615600  0.49455700  0.59976000  1
  C  C19  1  0.93612500  0.00117100  0.15077100  1
  C  C20  1  0.88742300  0.27597300  0.45220400  1
  C  C21  1  0.40354500  0.28061700  0.95275600  1
  C  C22  1  0.61864500  0.10997000  0.61239100  1
  C  C23  1  0.92765800  0.99632100  0.35063500  1
  C  C24  1  0.15198100  0.75002900  0.20493600  1
  C  C25  1  0.64446700  0.66500500  0.21896900  1
  C  C26  1  0.34083400  0.49151400  0.40393300  1
  C  C27  1  0.87841600  0.17439700  0.97974200  1
  C  C28  1  0.61040300  0.72374000  0.04719900  1
  C  C29  1  0.98352800  0.33407800  0.28045900  1
  C  C30  1  0.03033700  0.67784400  0.72289300  1
  C  C31  1  0.50742400  0.89293900  0.88621600  1
  C  C32  1  0.49773800  0.11740500  0.10994700  1
  C  C33  1  0.11787000  0.71549400  0.54729300  1
  C  C34  1  0.70340600  0.82693100  0.51910700  1
  C  C35  1  0.12380100  0.82803500  0.02217500  1
  C  C36  1  0.35924800  0.31961400  0.77693200  1
  C  C37  1  0.40064800  0.24260300  0.29554700  1
  C  C38  1  0.37457400  0.88184600  0.38977400  1
