# generated using pymatgen
data_Cu3(NiC6)2
_symmetry_space_group_name_H-M   'P 1'
_cell_length_a   8.00998600
_cell_length_b   13.62873300
_cell_length_c   20.17446950
_cell_angle_alpha   73.64321238
_cell_angle_beta   90.00000000
_cell_angle_gamma   90.00000000
_symmetry_Int_Tables_number   1
_chemical_formula_structural   Cu3(NiC6)2
_chemical_formula_sum   'Cu12 Ni8 C48'
_cell_volume   2113.22822310
_cell_formula_units_Z   4
loop_
 _symmetry_equiv_pos_site_id
 _symmetry_equiv_pos_as_xyz
  1  'x, y, z'
loop_
 _atom_site_type_symbol
 _atom_site_label
 _atom_site_symmetry_multiplicity
 _atom_site_fract_x
 _atom_site_fract_y
 _atom_site_fract_z
 _atom_site_occupancy
  C  C0  1  0.04993800  0.32075900  0.08024700  1
  C  C1  1  0.54993800  0.17924100  0.91975300  1
  C  C2  1  0.95006200  0.67924100  0.91975300  1
  C  C3  1  0.45006200  0.82075900  0.08024700  1
  C  C4  1  0.85434400  0.40244000  0.42686300  1
  C  C5  1  0.35434400  0.09756000  0.57313700  1
  C  C6  1  0.14565600  0.59756000  0.57313700  1
  C  C7  1  0.64565600  0.90244000  0.42686300  1
  Ni  Ni8  1  0.52814600  0.46726200  0.17618800  1
  Ni  Ni9  1  0.02814600  0.03273800  0.82381200  1
  Ni  Ni10  1  0.47185400  0.53273800  0.82381200  1
  Ni  Ni11  1  0.97185400  0.96726200  0.17618800  1
  Ni  Ni12  1  0.64665200  0.39910400  0.68818100  1
  Ni  Ni13  1  0.14665200  0.10089600  0.31181900  1
  Ni  Ni14  1  0.35334800  0.60089600  0.31181900  1
  Ni  Ni15  1  0.85334800  0.89910400  0.68818100  1
  Cu  Cu16  1  0.61279400  0.44892700  0.02007200  1
  Cu  Cu17  1  0.11279400  0.05107300  0.97992800  1
  Cu  Cu18  1  0.38720600  0.55107300  0.97992800  1
  Cu  Cu19  1  0.88720600  0.94892700  0.02007200  1
  Cu  Cu20  1  0.56089600  0.22596700  0.33590100  1
  Cu  Cu21  1  0.06089600  0.27403300  0.66409900  1
  Cu  Cu22  1  0.43910400  0.77403300  0.66409900  1
  Cu  Cu23  1  0.93910400  0.72596700  0.33590100  1
  Cu  Cu24  1  0.82560000  0.18383300  0.65258100  1
  Cu  Cu25  1  0.32560000  0.31616700  0.34741900  1
  Cu  Cu26  1  0.17440000  0.81616700  0.34741900  1
  Cu  Cu27  1  0.67440000  0.68383300  0.65258100  1
  C  C28  1  0.77768300  0.53593300  0.07122500  1
  C  C29  1  0.27768300  0.96406700  0.92877500  1
  C  C30  1  0.22231700  0.46406700  0.92877500  1
  C  C31  1  0.72231700  0.03593300  0.07122500  1
  C  C32  1  0.22315100  0.08344300  0.07089500  1
  C  C33  1  0.72315100  0.41655700  0.92910500  1
  C  C34  1  0.77684900  0.91655700  0.92910500  1
  C  C35  1  0.27684900  0.58344300  0.07089500  1
  C  C36  1  0.51669100  0.31827700  0.10281700  1
  C  C37  1  0.01669100  0.18172300  0.89718300  1
  C  C38  1  0.48330900  0.68172300  0.89718300  1
  C  C39  1  0.98330900  0.81827700  0.10281700  1
  C  C40  1  0.92288800  0.13253500  0.21878800  1
  C  C41  1  0.42288800  0.36746500  0.78121200  1
  C  C42  1  0.07711200  0.86746500  0.78121200  1
  C  C43  1  0.57711200  0.63253500  0.21878800  1
  C  C44  1  0.22790900  0.39530500  0.24402500  1
  C  C45  1  0.72790900  0.10469500  0.75597500  1
  C  C46  1  0.77209100  0.60469500  0.75597500  1
  C  C47  1  0.27209100  0.89530500  0.24402500  1
  C  C48  1  0.73451400  0.34329500  0.27651600  1
  C  C49  1  0.23451400  0.15670500  0.72348400  1
  C  C50  1  0.26548600  0.65670500  0.72348400  1
  C  C51  1  0.76548600  0.84329500  0.27651600  1
  C  C52  1  0.65974300  0.15427200  0.43789100  1
  C  C53  1  0.15974300  0.34572800  0.56210900  1
  C  C54  1  0.34025700  0.84572800  0.56210900  1
  C  C55  1  0.84025700  0.65427200  0.43789100  1
  C  C56  1  0.89809000  0.07968600  0.58990900  1
  C  C57  1  0.39809000  0.42031400  0.41009100  1
  C  C58  1  0.10191000  0.92031400  0.41009100  1
  C  C59  1  0.60191000  0.57968600  0.58990900  1
  C  C60  1  0.63402700  0.29216300  0.59358400  1
  C  C61  1  0.13402700  0.20783700  0.40641600  1
  C  C62  1  0.36597300  0.70783700  0.40641600  1
  C  C63  1  0.86597300  0.79216300  0.59358400  1
  C  C64  1  0.96911800  0.38344900  0.72186600  1
  C  C65  1  0.46911800  0.11655100  0.27813400  1
  C  C66  1  0.03088200  0.61655100  0.27813400  1
  C  C67  1  0.53088200  0.88344900  0.72186600  1
