# generated using pymatgen
data_Cu2NiC
_symmetry_space_group_name_H-M   'P 1'
_cell_length_a   4.57971000
_cell_length_b   4.53011300
_cell_length_c   4.55675930
_cell_angle_alpha   88.10035437
_cell_angle_beta   90.00000000
_cell_angle_gamma   90.00000000
_symmetry_Int_Tables_number   1
_chemical_formula_structural   Cu2NiC
_chemical_formula_sum   'Cu4 Ni2 C2'
_cell_volume   94.48532412
_cell_formula_units_Z   2
loop_
 _symmetry_equiv_pos_site_id
 _symmetry_equiv_pos_as_xyz
  1  'x, y, z'
loop_
 _atom_site_type_symbol
 _atom_site_label
 _atom_site_symmetry_multiplicity
 _atom_site_fract_x
 _atom_site_fract_y
 _atom_site_fract_z
 _atom_site_occupancy
  Ni  Ni0  1  0.65011900  0.09509500  0.34753800  1
  Ni  Ni1  1  0.15011900  0.90490500  0.65246200  1
  C  C2  1  0.34466000  0.60070300  0.15811500  1
  C  C3  1  0.84466000  0.39929700  0.84188500  1
  Cu  Cu4  1  0.35620500  0.40343500  0.65696700  1
  Cu  Cu5  1  0.85620500  0.59656500  0.34303300  1
  Cu  Cu6  1  0.64901600  0.88805100  0.85981400  1
  Cu  Cu7  1  0.14901600  0.11194900  0.14018600  1
