# generated using pymatgen
data_Cu4NiC6
_symmetry_space_group_name_H-M   'P 1'
_cell_length_a   11.36641800
_cell_length_b   7.48220600
_cell_length_c   8.94542962
_cell_angle_alpha   86.77934558
_cell_angle_beta   90.00000000
_cell_angle_gamma   90.00000000
_symmetry_Int_Tables_number   1
_chemical_formula_structural   Cu4NiC6
_chemical_formula_sum   'Cu16 Ni4 C24'
_cell_volume   759.57036165
_cell_formula_units_Z   4
loop_
 _symmetry_equiv_pos_site_id
 _symmetry_equiv_pos_as_xyz
  1  'x, y, z'
loop_
 _atom_site_type_symbol
 _atom_site_label
 _atom_site_symmetry_multiplicity
 _atom_site_fract_x
 _atom_site_fract_y
 _atom_site_fract_z
 _atom_site_occupancy
  C  C0  1  0.19131400  0.29949300  0.67220400  1
  C  C1  1  0.69131400  0.70050700  0.82779600  1
  C  C2  1  0.80868600  0.70050700  0.32779600  1
  C  C3  1  0.30868600  0.29949300  0.17220400  1
  C  C4  1  0.30925500  0.80827800  0.83240000  1
  C  C5  1  0.80925500  0.19172200  0.66760000  1
  C  C6  1  0.69074500  0.19172200  0.16760000  1
  C  C7  1  0.19074500  0.80827800  0.33240000  1
  C  C8  1  0.50000000  0.00000000  0.50000000  1
  C  C9  1  0.00000000  0.00000000  0.00000000  1
  C  C10  1  0.50000000  0.50000000  0.50000000  1
  C  C11  1  0.00000000  0.50000000  0.00000000  1
  Ni  Ni12  1  0.50170800  0.25270000  0.80308000  1
  Ni  Ni13  1  0.00170800  0.74730000  0.69692000  1
  Ni  Ni14  1  0.49829200  0.74730000  0.19692000  1
  Ni  Ni15  1  0.99829200  0.25270000  0.30308000  1
  Cu  Cu16  1  0.40267600  0.18076100  0.89359000  1
  Cu  Cu17  1  0.90267600  0.81923900  0.60641000  1
  Cu  Cu18  1  0.59732400  0.81923900  0.10641000  1
  Cu  Cu19  1  0.09732400  0.18076100  0.39359000  1
  Cu  Cu20  1  0.59238800  0.33853800  0.89169000  1
  Cu  Cu21  1  0.09238800  0.66146200  0.60831000  1
  Cu  Cu22  1  0.40761200  0.66146200  0.10831000  1
  Cu  Cu23  1  0.90761200  0.33853800  0.39169000  1
  Cu  Cu24  1  0.44610300  0.39495100  0.69204600  1
  Cu  Cu25  1  0.94610300  0.60504900  0.80795400  1
  Cu  Cu26  1  0.55389700  0.60504900  0.30795400  1
  Cu  Cu27  1  0.05389700  0.39495100  0.19204600  1
  Cu  Cu28  1  0.05662100  0.88956000  0.78529700  1
  Cu  Cu29  1  0.55662100  0.11044000  0.71470300  1
  Cu  Cu30  1  0.94337900  0.11044000  0.21470300  1
  Cu  Cu31  1  0.44337900  0.88956000  0.28529700  1
  C  C32  1  0.34294700  0.52098000  0.44488800  1
  C  C33  1  0.84294700  0.47902000  0.05511200  1
  C  C34  1  0.65705300  0.47902000  0.55511200  1
  C  C35  1  0.15705300  0.52098000  0.94488800  1
  C  C36  1  0.15861500  0.02304500  0.04568800  1
  C  C37  1  0.65861500  0.97695500  0.45431200  1
  C  C38  1  0.84138500  0.97695500  0.95431200  1
  C  C39  1  0.34138500  0.02304500  0.54568800  1
  C  C40  1  0.00121100  0.76599600  0.10017300  1
  C  C41  1  0.50121100  0.23400400  0.39982700  1
  C  C42  1  0.99878900  0.23400400  0.89982700  1
  C  C43  1  0.49878900  0.76599600  0.60017300  1
