# generated using pymatgen
data_CuNiC29
_symmetry_space_group_name_H-M   'P 1'
_cell_length_a   4.16908700
_cell_length_b   8.57593800
_cell_length_c   10.42442100
_cell_angle_alpha   90.00000000
_cell_angle_beta   90.00000000
_cell_angle_gamma   90.00000000
_symmetry_Int_Tables_number   1
_chemical_formula_structural   CuNiC29
_chemical_formula_sum   'Cu1 Ni1 C29'
_cell_volume   372.71299326
_cell_formula_units_Z   1
loop_
 _symmetry_equiv_pos_site_id
 _symmetry_equiv_pos_as_xyz
  1  'x, y, z'
loop_
 _atom_site_type_symbol
 _atom_site_label
 _atom_site_symmetry_multiplicity
 _atom_site_fract_x
 _atom_site_fract_y
 _atom_site_fract_z
 _atom_site_occupancy
  Ni  Ni0  1  0.00000000  0.00000000  0.91282900  1
  Cu  Cu1  1  0.00000000  0.50000000  0.44459400  1
  C  C2  1  0.00000000  0.50000000  0.98923300  1
  C  C3  1  0.00000000  0.00000000  0.47637300  1
  C  C4  1  0.50000000  0.76579200  0.99743100  1
  C  C5  1  0.50000000  0.23420800  0.99743100  1
  C  C6  1  0.50000000  0.73940400  0.57150300  1
  C  C7  1  0.50000000  0.26059600  0.57150300  1
  C  C8  1  0.50000000  0.00000000  0.70095600  1
  C  C9  1  0.50000000  0.50000000  0.78201600  1
  C  C10  1  0.50000000  0.00000000  0.22402500  1
  C  C11  1  0.50000000  0.50000000  0.17873700  1
  C  C12  1  0.00000000  0.72367600  0.77195100  1
  C  C13  1  0.00000000  0.27632400  0.77195100  1
  C  C14  1  0.00000000  0.75622600  0.18768100  1
  C  C15  1  0.00000000  0.24377400  0.18768100  1
  C  C16  1  0.00000000  0.50000000  0.79094000  1
  C  C17  1  0.00000000  0.00000000  0.27492200  1
  C  C18  1  0.00000000  0.50000000  0.18989100  1
  C  C19  1  0.50000000  0.78598300  0.77691500  1
  C  C20  1  0.50000000  0.21401700  0.77691500  1
  C  C21  1  0.50000000  0.74211500  0.20659100  1
  C  C22  1  0.50000000  0.25788500  0.20659100  1
  C  C23  1  0.50000000  0.00000000  0.03207200  1
  C  C24  1  0.50000000  0.50000000  0.98096900  1
  C  C25  1  0.50000000  0.00000000  0.51396300  1
  C  C26  1  0.50000000  0.50000000  0.58919900  1
  C  C27  1  0.00000000  0.73609500  0.98611500  1
  C  C28  1  0.00000000  0.26390500  0.98611500  1
  C  C29  1  0.00000000  0.79390500  0.58645000  1
  C  C30  1  0.00000000  0.20609500  0.58645000  1
