# generated using pymatgen
data_Cu5(NiC4)3
_symmetry_space_group_name_H-M   'P 1'
_cell_length_a   10.79782817
_cell_length_b   10.79782817
_cell_length_c   10.79782817
_cell_angle_alpha   109.47122063
_cell_angle_beta   109.47122063
_cell_angle_gamma   109.47122063
_symmetry_Int_Tables_number   1
_chemical_formula_structural   Cu5(NiC4)3
_chemical_formula_sum   'Cu20 Ni12 C48'
_cell_volume   969.14184441
_cell_formula_units_Z   4
loop_
 _symmetry_equiv_pos_site_id
 _symmetry_equiv_pos_as_xyz
  1  'x, y, z'
loop_
 _atom_site_type_symbol
 _atom_site_label
 _atom_site_symmetry_multiplicity
 _atom_site_fract_x
 _atom_site_fract_y
 _atom_site_fract_z
 _atom_site_occupancy
  Ni  Ni0  1  0.25000000  0.37500000  0.12500000  1
  Ni  Ni1  1  0.75000000  0.62500000  0.87500000  1
  Ni  Ni2  1  0.75000000  0.12500000  0.37500000  1
  Ni  Ni3  1  0.12500000  0.25000000  0.37500000  1
  Ni  Ni4  1  0.37500000  0.75000000  0.12500000  1
  Ni  Ni5  1  0.25000000  0.87500000  0.62500000  1
  Ni  Ni6  1  0.87500000  0.75000000  0.62500000  1
  Ni  Ni7  1  0.62500000  0.25000000  0.87500000  1
  Ni  Ni8  1  0.37500000  0.12500000  0.25000000  1
  Ni  Ni9  1  0.62500000  0.87500000  0.75000000  1
  Ni  Ni10  1  0.12500000  0.37500000  0.75000000  1
  Ni  Ni11  1  0.87500000  0.62500000  0.25000000  1
  Cu  Cu12  1  0.25000000  0.62500000  0.37500000  1
  Cu  Cu13  1  0.75000000  0.37500000  0.62500000  1
  Cu  Cu14  1  0.75000000  0.87500000  0.12500000  1
  Cu  Cu15  1  0.37500000  0.25000000  0.62500000  1
  Cu  Cu16  1  0.62500000  0.75000000  0.37500000  1
  Cu  Cu17  1  0.25000000  0.12500000  0.87500000  1
  Cu  Cu18  1  0.12500000  0.75000000  0.87500000  1
  Cu  Cu19  1  0.87500000  0.25000000  0.12500000  1
  Cu  Cu20  1  0.62500000  0.37500000  0.25000000  1
  Cu  Cu21  1  0.37500000  0.62500000  0.75000000  1
  Cu  Cu22  1  0.87500000  0.12500000  0.75000000  1
  Cu  Cu23  1  0.12500000  0.87500000  0.25000000  1
  Cu  Cu24  1  0.00000000  0.00000000  0.00000000  1
  Cu  Cu25  1  0.50000000  0.00000000  0.50000000  1
  Cu  Cu26  1  0.00000000  0.50000000  0.50000000  1
  Cu  Cu27  1  0.50000000  0.00000000  0.00000000  1
  Cu  Cu28  1  0.50000000  0.50000000  0.00000000  1
  Cu  Cu29  1  0.50000000  0.50000000  0.50000000  1
  Cu  Cu30  1  0.00000000  0.00000000  0.50000000  1
  Cu  Cu31  1  0.00000000  0.50000000  0.00000000  1
  C  C32  1  0.47700800  0.38087600  0.29919600  1
  C  C33  1  0.52299200  0.61912400  0.70080400  1
  C  C34  1  0.58168000  0.17781200  0.20080400  1
  C  C35  1  0.91832000  0.11912400  0.59613200  1
  C  C36  1  0.29919600  0.47700800  0.38087600  1
  C  C37  1  0.32218700  0.91832000  0.29919600  1
  C  C38  1  0.41832000  0.82218700  0.79919600  1
  C  C39  1  0.08168000  0.88087600  0.40386800  1
  C  C40  1  0.70080400  0.52299200  0.61912400  1
  C  C41  1  0.67781200  0.08168000  0.70080400  1
  C  C42  1  0.02299200  0.32218700  0.90386800  1
  C  C43  1  0.20080400  0.58168000  0.17781200  1
  C  C44  1  0.11912400  0.02299200  0.20080400  1
  C  C45  1  0.97700800  0.67781200  0.09613200  1
  C  C46  1  0.79919600  0.41832000  0.82218700  1
  C  C47  1  0.88087600  0.97700800  0.79919600  1
  C  C48  1  0.59613200  0.91832000  0.11912400  1
  C  C49  1  0.17781200  0.47700800  0.59613200  1
  C  C50  1  0.40386800  0.08168000  0.88087600  1
  C  C51  1  0.82218700  0.52299200  0.40386800  1
  C  C52  1  0.90386800  0.02299200  0.32218700  1
  C  C53  1  0.38087600  0.58168000  0.90386800  1
  C  C54  1  0.09613200  0.97700800  0.67781300  1
  C  C55  1  0.61912400  0.41832000  0.09613200  1
  C  C56  1  0.38087600  0.29919600  0.47700800  1
  C  C57  1  0.58168000  0.90386800  0.38087600  1
  C  C58  1  0.61912400  0.70080400  0.52299200  1
  C  C59  1  0.41832000  0.09613200  0.61912400  1
  C  C60  1  0.11912400  0.59613200  0.91832000  1
  C  C61  1  0.02299200  0.20080400  0.11912400  1
  C  C62  1  0.88087600  0.40386800  0.08168000  1
  C  C63  1  0.97700800  0.79919600  0.88087600  1
  C  C64  1  0.32218700  0.90386800  0.02299200  1
  C  C65  1  0.91832000  0.29919600  0.32218700  1
  C  C66  1  0.67781200  0.09613200  0.97700800  1
  C  C67  1  0.08168000  0.70080400  0.67781300  1
  C  C68  1  0.17781200  0.20080400  0.58168000  1
  C  C69  1  0.47700800  0.59613200  0.17781300  1
  C  C70  1  0.82218700  0.79919600  0.41832000  1
  C  C71  1  0.52299200  0.40386800  0.82218700  1
  C  C72  1  0.29919600  0.32218700  0.91832000  1
  C  C73  1  0.70080400  0.67781200  0.08168000  1
  C  C74  1  0.20080400  0.11912400  0.02299200  1
  C  C75  1  0.79919600  0.88087600  0.97700800  1
  C  C76  1  0.90386800  0.38087600  0.58168000  1
  C  C77  1  0.09613200  0.61912400  0.41832000  1
  C  C78  1  0.59613200  0.17781200  0.47700800  1
  C  C79  1  0.40386800  0.82218700  0.52299200  1
