# generated using pymatgen
data_Cu19Ni5C12
_symmetry_space_group_name_H-M   'P 1'
_cell_length_a   11.83396448
_cell_length_b   11.83396448
_cell_length_c   3.60618500
_cell_angle_alpha   90.00000000
_cell_angle_beta   90.00000000
_cell_angle_gamma   120.00000266
_symmetry_Int_Tables_number   1
_chemical_formula_structural   Cu19Ni5C12
_chemical_formula_sum   'Cu19 Ni5 C12'
_cell_volume   437.36008480
_cell_formula_units_Z   1
loop_
 _symmetry_equiv_pos_site_id
 _symmetry_equiv_pos_as_xyz
  1  'x, y, z'
loop_
 _atom_site_type_symbol
 _atom_site_label
 _atom_site_symmetry_multiplicity
 _atom_site_fract_x
 _atom_site_fract_y
 _atom_site_fract_z
 _atom_site_occupancy
  Ni  Ni0  1  0.33333300  0.66666700  0.50000000  1
  Ni  Ni1  1  0.66666700  0.33333300  0.50000000  1
  Ni  Ni2  1  0.81544100  0.00000000  0.00000000  1
  Ni  Ni3  1  0.00000000  0.81544100  0.00000000  1
  Ni  Ni4  1  0.18455900  0.18455900  0.00000000  1
  Cu  Cu5  1  0.62305900  0.80222000  0.50000000  1
  Cu  Cu6  1  0.19778000  0.82083900  0.50000000  1
  Cu  Cu7  1  0.17916100  0.37694100  0.50000000  1
  Cu  Cu8  1  0.37694100  0.17916100  0.50000000  1
  Cu  Cu9  1  0.80222000  0.62305900  0.50000000  1
  Cu  Cu10  1  0.82083900  0.19778000  0.50000000  1
  Cu  Cu11  1  0.28482400  0.00000000  0.00000000  1
  Cu  Cu12  1  0.00000000  0.28482400  0.00000000  1
  Cu  Cu13  1  0.71517600  0.71517600  0.00000000  1
  Cu  Cu14  1  0.45183100  0.00000000  0.50000000  1
  Cu  Cu15  1  0.00000000  0.45183100  0.50000000  1
  Cu  Cu16  1  0.54816900  0.54816900  0.50000000  1
  Cu  Cu17  1  0.51663800  0.87256000  0.00000000  1
  Cu  Cu18  1  0.12744000  0.64407800  0.00000000  1
  Cu  Cu19  1  0.35592200  0.48336200  0.00000000  1
  Cu  Cu20  1  0.48336200  0.35592200  0.00000000  1
  Cu  Cu21  1  0.87256000  0.51663800  0.00000000  1
  Cu  Cu22  1  0.64407800  0.12744000  0.00000000  1
  Cu  Cu23  1  0.00000000  0.00000000  0.50000000  1
  C  C24  1  0.17770100  0.00000000  0.50000000  1
  C  C25  1  0.00000000  0.17770100  0.50000000  1
  C  C26  1  0.82229900  0.82229900  0.50000000  1
  C  C27  1  0.51760800  0.68356600  0.00000000  1
  C  C28  1  0.31643400  0.83404200  0.00000000  1
  C  C29  1  0.16595800  0.48239200  0.00000000  1
  C  C30  1  0.48239200  0.16595800  0.00000000  1
  C  C31  1  0.68356600  0.51760800  0.00000000  1
  C  C32  1  0.83404200  0.31643400  0.00000000  1
  C  C33  1  0.63802700  0.00000000  0.50000000  1
  C  C34  1  0.00000000  0.63802700  0.50000000  1
  C  C35  1  0.36197300  0.36197300  0.50000000  1
