# generated using pymatgen
data_CuNiC7
_symmetry_space_group_name_H-M   'P 1'
_cell_length_a   20.83190700
_cell_length_b   6.65599600
_cell_length_c   8.29179684
_cell_angle_alpha   63.03869950
_cell_angle_beta   90.00000000
_cell_angle_gamma   90.00000000
_symmetry_Int_Tables_number   1
_chemical_formula_structural   CuNiC7
_chemical_formula_sum   'Cu8 Ni8 C56'
_cell_volume   1024.75714567
_cell_formula_units_Z   8
loop_
 _symmetry_equiv_pos_site_id
 _symmetry_equiv_pos_as_xyz
  1  'x, y, z'
loop_
 _atom_site_type_symbol
 _atom_site_label
 _atom_site_symmetry_multiplicity
 _atom_site_fract_x
 _atom_site_fract_y
 _atom_site_fract_z
 _atom_site_occupancy
  Ni  Ni0  1  0.46906700  0.47859500  0.76146400  1
  Ni  Ni1  1  0.96906700  0.52140500  0.73853600  1
  Ni  Ni2  1  0.53093300  0.52140500  0.23853600  1
  Ni  Ni3  1  0.03093300  0.47859500  0.26146400  1
  Ni  Ni4  1  0.27932800  0.00745500  0.73287000  1
  Ni  Ni5  1  0.77932800  0.99254500  0.76713000  1
  Ni  Ni6  1  0.72067200  0.99254500  0.26713000  1
  Ni  Ni7  1  0.22067200  0.00745500  0.23287000  1
  Cu  Cu8  1  0.41484400  0.98967600  0.26744900  1
  Cu  Cu9  1  0.91484400  0.01032400  0.23255100  1
  Cu  Cu10  1  0.58515600  0.01032400  0.73255100  1
  Cu  Cu11  1  0.08515600  0.98967600  0.76744900  1
  Cu  Cu12  1  0.33607300  0.49608600  0.25163300  1
  Cu  Cu13  1  0.83607300  0.50391400  0.24836700  1
  Cu  Cu14  1  0.66392700  0.50391400  0.74836700  1
  Cu  Cu15  1  0.16392700  0.49608600  0.75163300  1
  C  C16  1  0.44162500  0.86494300  0.92495300  1
  C  C17  1  0.94162500  0.13505700  0.57504700  1
  C  C18  1  0.55837500  0.13505700  0.07504700  1
  C  C19  1  0.05837500  0.86494300  0.42495300  1
  C  C20  1  0.30920700  0.65228200  0.58460700  1
  C  C21  1  0.80920700  0.34771800  0.91539300  1
  C  C22  1  0.69079300  0.34771800  0.41539300  1
  C  C23  1  0.19079300  0.65228200  0.08460700  1
  C  C24  1  0.31241700  0.37020500  0.91748500  1
  C  C25  1  0.81241700  0.62979500  0.58251500  1
  C  C26  1  0.68758300  0.62979500  0.08251500  1
  C  C27  1  0.18758300  0.37020500  0.41748500  1
  C  C28  1  0.43508400  0.14583200  0.59233000  1
  C  C29  1  0.93508400  0.85416800  0.90767000  1
  C  C30  1  0.56491600  0.85416800  0.40767000  1
  C  C31  1  0.06491600  0.14583200  0.09233000  1
  C  C32  1  0.49696200  0.78105200  0.88929100  1
  C  C33  1  0.99696200  0.21894800  0.61070900  1
  C  C34  1  0.50303800  0.21894800  0.11070900  1
  C  C35  1  0.00303800  0.78105200  0.38929100  1
  C  C36  1  0.25621200  0.28108300  0.89381300  1
  C  C37  1  0.75621200  0.71891700  0.60618700  1
  C  C38  1  0.74378800  0.71891700  0.10618700  1
  C  C39  1  0.24378800  0.28108300  0.39381300  1
  C  C40  1  0.24778600  0.72691000  0.57761500  1
  C  C41  1  0.74778600  0.27309000  0.92238500  1
  C  C42  1  0.75221400  0.27309000  0.42238500  1
  C  C43  1  0.25221400  0.72691000  0.07761500  1
  C  C44  1  0.49583100  0.22881500  0.56958400  1
  C  C45  1  0.99583100  0.77118500  0.93041600  1
  C  C46  1  0.50416900  0.77118500  0.43041600  1
  C  C47  1  0.00416900  0.22881500  0.06958400  1
  C  C48  1  0.41468600  0.78292300  0.09337700  1
  C  C49  1  0.91468600  0.21707700  0.40662300  1
  C  C50  1  0.58531400  0.21707700  0.90662300  1
  C  C51  1  0.08531400  0.78292300  0.59337700  1
  C  C52  1  0.40935700  0.04616700  0.77679300  1
  C  C53  1  0.90935700  0.95383300  0.72320700  1
  C  C54  1  0.59064300  0.95383300  0.22320700  1
  C  C55  1  0.09064300  0.04616700  0.27679300  1
  C  C56  1  0.34541100  0.29211200  0.07705500  1
  C  C57  1  0.84541100  0.70788800  0.42294500  1
  C  C58  1  0.65458900  0.70788800  0.92294500  1
  C  C59  1  0.15458900  0.29211200  0.57705500  1
  C  C60  1  0.39324100  0.16427200  0.45997300  1
  C  C61  1  0.89324100  0.83572800  0.04002700  1
  C  C62  1  0.60675900  0.83572800  0.54002700  1
  C  C63  1  0.10675900  0.16427200  0.95997300  1
  C  C64  1  0.34051800  0.55403300  0.76086900  1
  C  C65  1  0.84051800  0.44596700  0.73913100  1
  C  C66  1  0.65948200  0.44596700  0.23913100  1
  C  C67  1  0.15948200  0.55403300  0.26086900  1
  C  C68  1  0.34540400  0.68028500  0.43919100  1
  C  C69  1  0.84540400  0.31971500  0.06080900  1
  C  C70  1  0.65459600  0.31971500  0.56080900  1
  C  C71  1  0.15459600  0.68028500  0.93919100  1
