# generated using pymatgen
data_Cu3NiC9
_symmetry_space_group_name_H-M   'P 1'
_cell_length_a   6.56354197
_cell_length_b   6.56354197
_cell_length_c   8.30678841
_cell_angle_alpha   89.91235636
_cell_angle_beta   89.91235636
_cell_angle_gamma   55.48501838
_symmetry_Int_Tables_number   1
_chemical_formula_structural   Cu3NiC9
_chemical_formula_sum   'Cu6 Ni2 C18'
_cell_volume   294.86598687
_cell_formula_units_Z   2
loop_
 _symmetry_equiv_pos_site_id
 _symmetry_equiv_pos_as_xyz
  1  'x, y, z'
loop_
 _atom_site_type_symbol
 _atom_site_label
 _atom_site_symmetry_multiplicity
 _atom_site_fract_x
 _atom_site_fract_y
 _atom_site_fract_z
 _atom_site_occupancy
  Ni  Ni0  1  0.62132400  0.62132400  0.88143800  1
  Ni  Ni1  1  0.37867600  0.37867600  0.11856200  1
  Cu  Cu2  1  0.50000000  0.50000000  0.50000000  1
  Cu  Cu3  1  0.00000000  0.00000000  0.00000000  1
  Cu  Cu4  1  0.88571600  0.38544100  0.25208300  1
  Cu  Cu5  1  0.61455900  0.11428400  0.74791700  1
  Cu  Cu6  1  0.11428400  0.61455900  0.74791700  1
  Cu  Cu7  1  0.38544100  0.88571600  0.25208300  1
  C  C8  1  0.87653800  0.87653800  0.38460000  1
  C  C9  1  0.12346200  0.12346200  0.61540000  1
  C  C10  1  0.75353300  0.75353300  0.26809600  1
  C  C11  1  0.24646700  0.24646700  0.73190400  1
  C  C12  1  0.74924200  0.74924200  0.77105700  1
  C  C13  1  0.25075800  0.25075800  0.22894300  1
  C  C14  1  0.50207600  0.50207600  0.25419600  1
  C  C15  1  0.49792400  0.49792400  0.74580400  1
  C  C16  1  0.00388200  0.00388200  0.74892700  1
  C  C17  1  0.99611800  0.99611800  0.25107300  1
  C  C18  1  0.88620200  0.35498200  0.50022700  1
  C  C19  1  0.64501800  0.11379800  0.49977300  1
  C  C20  1  0.15084600  0.61533300  0.99754600  1
  C  C21  1  0.38466700  0.84915400  0.00245400  1
  C  C22  1  0.11379800  0.64501800  0.49977300  1
  C  C23  1  0.35498200  0.88620200  0.50022700  1
  C  C24  1  0.84915400  0.38466700  0.00245400  1
  C  C25  1  0.61533300  0.15084600  0.99754600  1
