# generated using pymatgen
data_Cu2NiC11
_symmetry_space_group_name_H-M   'P 1'
_cell_length_a   7.64391605
_cell_length_b   7.64391605
_cell_length_c   7.64391590
_cell_angle_alpha   60.16102753
_cell_angle_beta   60.16102753
_cell_angle_gamma   60.16103400
_symmetry_Int_Tables_number   1
_chemical_formula_structural   Cu2NiC11
_chemical_formula_sum   'Cu2 Ni1 C11'
_cell_volume   316.96682257
_cell_formula_units_Z   1
loop_
 _symmetry_equiv_pos_site_id
 _symmetry_equiv_pos_as_xyz
  1  'x, y, z'
loop_
 _atom_site_type_symbol
 _atom_site_label
 _atom_site_symmetry_multiplicity
 _atom_site_fract_x
 _atom_site_fract_y
 _atom_site_fract_z
 _atom_site_occupancy
  Ni  Ni0  1  0.00000000  0.00000000  0.00000000  1
  Cu  Cu1  1  0.38184100  0.38184100  0.38184100  1
  Cu  Cu2  1  0.61815900  0.61815900  0.61815900  1
  C  C3  1  0.00000000  0.50000000  0.00000000  1
  C  C4  1  0.00000000  0.00000000  0.50000000  1
  C  C5  1  0.50000000  0.00000000  0.00000000  1
  C  C6  1  0.76335500  0.21632500  0.76335500  1
  C  C7  1  0.75552200  0.75552200  0.75552200  1
  C  C8  1  0.78367500  0.23664500  0.23664500  1
  C  C9  1  0.23664500  0.23664500  0.78367500  1
  C  C10  1  0.23664500  0.78367500  0.23664500  1
  C  C11  1  0.24447800  0.24447800  0.24447800  1
  C  C12  1  0.21632500  0.76335500  0.76335500  1
  C  C13  1  0.76335500  0.76335500  0.21632500  1
