# generated using pymatgen
data_Cu12NiC24
_symmetry_space_group_name_H-M   'P 1'
_cell_length_a   3.06687771
_cell_length_b   9.35207013
_cell_length_c   12.90237023
_cell_angle_alpha   88.33736202
_cell_angle_beta   90.00000000
_cell_angle_gamma   90.00000000
_symmetry_Int_Tables_number   1
_chemical_formula_structural   Cu12NiC24
_chemical_formula_sum   'Cu12 Ni1 C24'
_cell_volume   369.90553860
_cell_formula_units_Z   1
loop_
 _symmetry_equiv_pos_site_id
 _symmetry_equiv_pos_as_xyz
  1  'x, y, z'
loop_
 _atom_site_type_symbol
 _atom_site_label
 _atom_site_symmetry_multiplicity
 _atom_site_fract_x
 _atom_site_fract_y
 _atom_site_fract_z
 _atom_site_occupancy
  Ni  Ni0  1  -0.00000000  0.33455256  0.44740586  1
  Cu  Cu1  1  0.50000000  0.75379022  0.36858096  1
  Cu  Cu2  1  0.50000000  0.24058290  0.64077638  1
  Cu  Cu3  1  0.50000000  0.24936404  0.10523562  1
  Cu  Cu4  1  0.50000000  0.74655450  0.89042265  1
  Cu  Cu5  1  -0.00000000  0.97983495  0.21392022  1
  Cu  Cu6  1  -0.00000000  0.00989060  0.78225787  1
  Cu  Cu7  1  0.00000000  0.49946460  0.25996192  1
  Cu  Cu8  1  0.00000000  0.50902950  0.73378086  1
  Cu  Cu9  1  -0.00000000  0.98457524  0.50370210  1
  Cu  Cu10  1  -0.00000000  0.49791208  0.99900221  1
  Cu  Cu11  1  0.50000000  0.55748976  0.52398482  1
  Cu  Cu12  1  0.50000000  0.99758915  0.99627893  1
  C  C13  1  0.50000000  0.71894009  0.13284278  1
  C  C14  1  0.50000000  0.27996796  0.86504624  1
  C  C15  1  0.50000000  0.19994656  0.33726358  1
  C  C16  1  0.50000000  0.78764527  0.65461184  1
  C  C17  1  0.50000000  0.86678990  0.13512017  1
  C  C18  1  0.50000000  0.13170707  0.86086681  1
  C  C19  1  0.50000000  0.35198391  0.33687855  1
  C  C20  1  0.50000000  0.63804984  0.66195585  1
  C  C21  1  0.50000000  0.85034752  0.55620867  1
  C  C22  1  0.50000000  0.14995035  0.44093565  1
  C  C23  1  0.50000000  0.35030873  0.95787719  1
  C  C24  1  0.50000000  0.64635318  0.04166435  1
  C  C25  1  0.50000000  0.64178488  0.22766568  1
  C  C26  1  0.50000000  0.35939336  0.77233997  1
  C  C27  1  0.50000000  0.12582574  0.25013194  1
  C  C28  1  0.50000000  0.86151951  0.74541843  1
  C  C29  1  0.00000000  0.57805575  0.41676895  1
  C  C30  1  -0.00000000  0.40303976  0.58698416  1
  C  C31  1  -0.00000000  0.11179179  0.07370171  1
  C  C32  1  -0.00000000  0.89115459  0.92425317  1
  C  C33  1  0.00000000  0.88487127  0.35978549  1
  C  C34  1  0.00000000  0.10987291  0.63842012  1
  C  C35  1  0.00000000  0.37552921  0.13791674  1
  C  C36  1  0.00000000  0.61739874  0.86447556  1
