# generated using pymatgen
data_CuNiC4
_symmetry_space_group_name_H-M   'P 1'
_cell_length_a   5.02065489
_cell_length_b   5.02065482
_cell_length_c   6.29715600
_cell_angle_alpha   90.00000000
_cell_angle_beta   90.00000000
_cell_angle_gamma   113.18558184
_symmetry_Int_Tables_number   1
_chemical_formula_structural   CuNiC4
_chemical_formula_sum   'Cu2 Ni2 C8'
_cell_volume   145.91215581
_cell_formula_units_Z   2
loop_
 _symmetry_equiv_pos_site_id
 _symmetry_equiv_pos_as_xyz
  1  'x, y, z'
loop_
 _atom_site_type_symbol
 _atom_site_label
 _atom_site_symmetry_multiplicity
 _atom_site_fract_x
 _atom_site_fract_y
 _atom_site_fract_z
 _atom_site_occupancy
  Ni  Ni0  1  0.64326000  0.35674000  0.25000000  1
  Ni  Ni1  1  0.35674000  0.64326000  0.75000000  1
  Cu  Cu2  1  0.00000000  0.00000000  0.00000000  1
  Cu  Cu3  1  0.00000000  0.00000000  0.50000000  1
  C  C4  1  0.27231700  0.21723300  0.25000000  1
  C  C5  1  0.72768300  0.78276700  0.75000000  1
  C  C6  1  0.21723300  0.27231700  0.75000000  1
  C  C7  1  0.78276700  0.72768300  0.25000000  1
  C  C8  1  0.75729800  0.24270200  0.03992200  1
  C  C9  1  0.24270200  0.75729800  0.53992200  1
  C  C10  1  0.24270200  0.75729800  0.96007800  1
  C  C11  1  0.75729800  0.24270200  0.46007800  1
