# generated using pymatgen
data_CuNiC13
_symmetry_space_group_name_H-M   'P 1'
_cell_length_a   5.59195056
_cell_length_b   6.57535060
_cell_length_c   13.19395300
_cell_angle_alpha   90.05887754
_cell_angle_beta   93.32227713
_cell_angle_gamma   90.11838154
_symmetry_Int_Tables_number   1
_chemical_formula_structural   CuNiC13
_chemical_formula_sum   'Cu2 Ni2 C26'
_cell_volume   484.31224465
_cell_formula_units_Z   2
loop_
 _symmetry_equiv_pos_site_id
 _symmetry_equiv_pos_as_xyz
  1  'x, y, z'
loop_
 _atom_site_type_symbol
 _atom_site_label
 _atom_site_symmetry_multiplicity
 _atom_site_fract_x
 _atom_site_fract_y
 _atom_site_fract_z
 _atom_site_occupancy
  C  C0  1  0.14886600  0.75137800  0.33650100  1
  C  C1  1  0.85113100  0.24862100  0.66349800  1
  C  C2  1  0.35407100  0.50472800  0.63338500  1
  C  C3  1  0.64592300  0.49527500  0.36661100  1
  C  C4  1  0.95928000  0.25018200  0.17644700  1
  C  C5  1  0.04074600  0.74981600  0.82356600  1
  C  C6  1  0.64599900  0.00287000  0.36750100  1
  C  C7  1  0.35399500  0.99712800  0.63249800  1
  Ni  Ni8  1  0.15626700  0.25049200  0.43883500  1
  Ni  Ni9  1  0.84372900  0.74950600  0.56116300  1
  Cu  Cu10  1  0.70635100  0.74921800  0.15654900  1
  Cu  Cu11  1  0.29364800  0.25078200  0.84345000  1
  C  C12  1  0.42650600  0.24999900  0.17901800  1
  C  C13  1  0.57350900  0.75001100  0.82098100  1
  C  C14  1  0.85051700  0.25004200  0.98242900  1
  C  C15  1  0.14948900  0.74995900  0.01757800  1
  C  C16  1  0.49158900  0.74949900  0.26708800  1
  C  C17  1  0.50840400  0.25050100  0.73290800  1
  C  C18  1  0.15417500  0.25052800  0.56548400  1
  C  C19  1  0.84581900  0.74946800  0.43451400  1
  C  C20  1  0.87931500  0.24948000  0.38766300  1
  C  C21  1  0.12068500  0.75051900  0.61233100  1
  C  C22  1  0.29417500  0.03855800  0.40868600  1
  C  C23  1  0.70585300  0.53779000  0.59166600  1
  C  C24  1  0.70582200  0.96144100  0.59131200  1
  C  C25  1  0.29414400  0.46220900  0.40833400  1
  C  C26  1  0.89677300  0.95282100  0.22851000  1
  C  C27  1  0.10284200  0.45258100  0.77086800  1
  C  C28  1  0.10322200  0.04717800  0.77149200  1
  C  C29  1  0.89715500  0.54742100  0.22913300  1
