# generated using pymatgen
data_Cu3(NiC7)2
_symmetry_space_group_name_H-M   'P 1'
_cell_length_a   10.93457400
_cell_length_b   10.93457400
_cell_length_c   10.93457400
_cell_angle_alpha   90.00000000
_cell_angle_beta   90.00000000
_cell_angle_gamma   90.00000000
_symmetry_Int_Tables_number   1
_chemical_formula_structural   Cu3(NiC7)2
_chemical_formula_sum   'Cu12 Ni8 C56'
_cell_volume   1307.39134047
_cell_formula_units_Z   4
loop_
 _symmetry_equiv_pos_site_id
 _symmetry_equiv_pos_as_xyz
  1  'x, y, z'
loop_
 _atom_site_type_symbol
 _atom_site_label
 _atom_site_symmetry_multiplicity
 _atom_site_fract_x
 _atom_site_fract_y
 _atom_site_fract_z
 _atom_site_occupancy
  C  C0  1  0.42928600  0.92928600  0.57071400  1
  C  C1  1  0.92928600  0.57071400  0.42928600  1
  C  C2  1  0.57071400  0.42928600  0.92928600  1
  C  C3  1  0.07071400  0.07071400  0.07071400  1
  C  C4  1  0.20902300  0.70902300  0.79097700  1
  C  C5  1  0.70902300  0.79097700  0.20902300  1
  C  C6  1  0.79097700  0.20902300  0.70902300  1
  C  C7  1  0.29097700  0.29097700  0.29097700  1
  Ni  Ni8  1  0.91261200  0.41261200  0.08738800  1
  Ni  Ni9  1  0.41261200  0.08738800  0.91261200  1
  Ni  Ni10  1  0.08738800  0.91261200  0.41261200  1
  Ni  Ni11  1  0.58738800  0.58738800  0.58738800  1
  Ni  Ni12  1  0.63755700  0.13755700  0.36244300  1
  Ni  Ni13  1  0.13755700  0.36244300  0.63755700  1
  Ni  Ni14  1  0.36244300  0.63755700  0.13755700  1
  Ni  Ni15  1  0.86244300  0.86244300  0.86244300  1
  Cu  Cu16  1  0.22342600  0.37377100  0.94724800  1
  Cu  Cu17  1  0.05275200  0.72342600  0.12622900  1
  Cu  Cu18  1  0.87377100  0.55275200  0.77657400  1
  Cu  Cu19  1  0.72342600  0.12622900  0.05275200  1
  Cu  Cu20  1  0.55275200  0.77657400  0.87377100  1
  Cu  Cu21  1  0.37377100  0.94724800  0.22342600  1
  Cu  Cu22  1  0.77657400  0.87377100  0.55275200  1
  Cu  Cu23  1  0.94724800  0.22342600  0.37377100  1
  Cu  Cu24  1  0.12622900  0.05275200  0.72342600  1
  Cu  Cu25  1  0.27657400  0.62622900  0.44724800  1
  Cu  Cu26  1  0.44724800  0.27657400  0.62622900  1
  Cu  Cu27  1  0.62622900  0.44724800  0.27657400  1
  C  C28  1  0.06839000  0.35403300  0.99596900  1
  C  C29  1  0.00403100  0.56839000  0.14596700  1
  C  C30  1  0.85403300  0.50403100  0.93161000  1
  C  C31  1  0.56839000  0.14596700  0.00403100  1
  C  C32  1  0.50403100  0.93161000  0.85403300  1
  C  C33  1  0.35403300  0.99596900  0.06839000  1
  C  C34  1  0.93161000  0.85403300  0.50403100  1
  C  C35  1  0.99596900  0.06839000  0.35403300  1
  C  C36  1  0.14596700  0.00403100  0.56839000  1
  C  C37  1  0.43161000  0.64596700  0.49596900  1
  C  C38  1  0.49596900  0.43161000  0.64596700  1
  C  C39  1  0.64596700  0.49596900  0.43161000  1
  C  C40  1  0.29860100  0.48896300  0.03687000  1
  C  C41  1  0.96313000  0.79860100  0.01103700  1
  C  C42  1  0.98896300  0.46313000  0.70139900  1
  C  C43  1  0.79860100  0.01103700  0.96313000  1
  C  C44  1  0.46313000  0.70139900  0.98896300  1
  C  C45  1  0.48896300  0.03687000  0.29860100  1
  C  C46  1  0.70139900  0.98896300  0.46313000  1
  C  C47  1  0.03687000  0.29860100  0.48896300  1
  C  C48  1  0.01103700  0.96313000  0.79860100  1
  C  C49  1  0.20139900  0.51103700  0.53687000  1
  C  C50  1  0.53687000  0.20139900  0.51103700  1
  C  C51  1  0.51103700  0.53687000  0.20139900  1
  C  C52  1  0.23502500  0.42061500  0.78958600  1
  C  C53  1  0.21041400  0.73502500  0.07938500  1
  C  C54  1  0.92061500  0.71041400  0.76497500  1
  C  C55  1  0.73502500  0.07938500  0.21041400  1
  C  C56  1  0.71041400  0.76497500  0.92061500  1
  C  C57  1  0.42061500  0.78958600  0.23502500  1
  C  C58  1  0.76497500  0.92061500  0.71041400  1
  C  C59  1  0.78958600  0.23502500  0.42061500  1
  C  C60  1  0.07938500  0.21041400  0.73502500  1
  C  C61  1  0.26497500  0.57938500  0.28958600  1
  C  C62  1  0.28958600  0.26497500  0.57938500  1
  C  C63  1  0.57938500  0.28958600  0.26497500  1
  C  C64  1  0.30464400  0.23311100  0.97417800  1
  C  C65  1  0.02582200  0.80464400  0.26688900  1
  C  C66  1  0.73311100  0.52582200  0.69535600  1
  C  C67  1  0.80464400  0.26688900  0.02582200  1
  C  C68  1  0.52582200  0.69535600  0.73311100  1
  C  C69  1  0.23311100  0.97417800  0.30464400  1
  C  C70  1  0.69535600  0.73311100  0.52582200  1
  C  C71  1  0.97417800  0.30464400  0.23311100  1
  C  C72  1  0.26688900  0.02582200  0.80464400  1
  C  C73  1  0.19535600  0.76688900  0.47417800  1
  C  C74  1  0.47417800  0.19535600  0.76688900  1
  C  C75  1  0.76688900  0.47417800  0.19535600  1
