# generated using pymatgen
data_CuNiC16
_symmetry_space_group_name_H-M   'P 1'
_cell_length_a   7.45187932
_cell_length_b   7.45187932
_cell_length_c   10.07589475
_cell_angle_alpha   67.63855062
_cell_angle_beta   67.63855062
_cell_angle_gamma   71.11948970
_symmetry_Int_Tables_number   1
_chemical_formula_structural   CuNiC16
_chemical_formula_sum   'Cu2 Ni2 C32'
_cell_volume   467.95344659
_cell_formula_units_Z   2
loop_
 _symmetry_equiv_pos_site_id
 _symmetry_equiv_pos_as_xyz
  1  'x, y, z'
loop_
 _atom_site_type_symbol
 _atom_site_label
 _atom_site_symmetry_multiplicity
 _atom_site_fract_x
 _atom_site_fract_y
 _atom_site_fract_z
 _atom_site_occupancy
  Ni  Ni0  1  0.45013200  0.54986800  0.25000000  1
  Ni  Ni1  1  0.54986800  0.45013200  0.75000000  1
  Cu  Cu2  1  0.50000000  0.00000000  0.00000000  1
  Cu  Cu3  1  0.00000000  0.50000000  0.50000000  1
  C  C4  1  0.76756200  0.21938700  0.47503400  1
  C  C5  1  0.23243800  0.78061300  0.52496600  1
  C  C6  1  0.78061300  0.23243800  0.02496600  1
  C  C7  1  0.21938700  0.76756200  0.97503400  1
  C  C8  1  0.81281300  0.80515600  0.19607300  1
  C  C9  1  0.18718700  0.19484400  0.80392700  1
  C  C10  1  0.19484400  0.18718700  0.30392700  1
  C  C11  1  0.80515600  0.81281300  0.69607300  1
  C  C12  1  0.59312400  0.32440100  0.41875700  1
  C  C13  1  0.40687600  0.67559900  0.58124300  1
  C  C14  1  0.67559900  0.40687600  0.08124300  1
  C  C15  1  0.32440100  0.59312400  0.91875700  1
  C  C16  1  0.30936000  0.15353400  0.15565900  1
  C  C17  1  0.69064000  0.84646600  0.84434100  1
  C  C18  1  0.84646600  0.69064000  0.34434100  1
  C  C19  1  0.15353400  0.30936000  0.65565900  1
  C  C20  1  0.62745100  0.79931100  0.16914600  1
  C  C21  1  0.37254900  0.20068900  0.83085400  1
  C  C22  1  0.20068900  0.37254900  0.33085400  1
  C  C23  1  0.79931100  0.62745100  0.66914600  1
  C  C24  1  0.30226600  0.81305100  0.07307100  1
  C  C25  1  0.69773400  0.18694900  0.92692900  1
  C  C26  1  0.18694900  0.69773400  0.42692900  1
  C  C27  1  0.81305100  0.30226600  0.57307100  1
  C  C28  1  0.81120800  0.03522000  0.16276200  1
  C  C29  1  0.18879200  0.96478000  0.83723800  1
  C  C30  1  0.96478000  0.18879200  0.33723800  1
  C  C31  1  0.03522000  0.81120800  0.66276200  1
  C  C32  1  0.73818800  0.99587300  0.56283200  1
  C  C33  1  0.26181200  0.00412700  0.43716800  1
  C  C34  1  0.00412700  0.26181200  0.93716800  1
  C  C35  1  0.99587300  0.73818800  0.06283200  1
