# generated using pymatgen
data_Cu5Ni3C2
_symmetry_space_group_name_H-M   'P 1'
_cell_length_a   8.04383344
_cell_length_b   8.04383344
_cell_length_c   5.69081904
_cell_angle_alpha   70.53419349
_cell_angle_beta   70.53419349
_cell_angle_gamma   93.79427208
_symmetry_Int_Tables_number   1
_chemical_formula_structural   Cu5Ni3C2
_chemical_formula_sum   'Cu10 Ni6 C4'
_cell_volume   320.75268888
_cell_formula_units_Z   2
loop_
 _symmetry_equiv_pos_site_id
 _symmetry_equiv_pos_as_xyz
  1  'x, y, z'
loop_
 _atom_site_type_symbol
 _atom_site_label
 _atom_site_symmetry_multiplicity
 _atom_site_fract_x
 _atom_site_fract_y
 _atom_site_fract_z
 _atom_site_occupancy
  C  C0  1  0.40943900  0.12736800  0.73235900  1
  C  C1  1  0.12736800  0.40943900  0.23235900  1
  C  C2  1  0.59056100  0.87263200  0.26764100  1
  C  C3  1  0.87263200  0.59056100  0.76764100  1
  Ni  Ni4  1  0.00273800  0.99726200  0.75000000  1
  Ni  Ni5  1  0.99726200  0.00273800  0.25000000  1
  Ni  Ni6  1  0.73862600  0.45616700  0.38031000  1
  Ni  Ni7  1  0.45616700  0.73862600  0.88031000  1
  Ni  Ni8  1  0.26137400  0.54383300  0.61969000  1
  Ni  Ni9  1  0.54383300  0.26137400  0.11969000  1
  Cu  Cu10  1  0.26193300  0.08055600  0.32641800  1
  Cu  Cu11  1  0.91944400  0.73806700  0.17358200  1
  Cu  Cu12  1  0.73806700  0.91944400  0.67358200  1
  Cu  Cu13  1  0.08055600  0.26193300  0.82641800  1
  Cu  Cu14  1  0.21274900  0.78725100  0.75000000  1
  Cu  Cu15  1  0.78725100  0.21274900  0.25000000  1
  Cu  Cu16  1  0.50923800  0.49076200  0.75000000  1
  Cu  Cu17  1  0.49076200  0.50923800  0.25000000  1
  Cu  Cu18  1  0.77442700  0.22557300  0.75000000  1
  Cu  Cu19  1  0.22557300  0.77442700  0.25000000  1
