# generated using pymatgen
data_CuNiC6
_symmetry_space_group_name_H-M   'P 1'
_cell_length_a   5.46792800
_cell_length_b   7.05286900
_cell_length_c   12.22682400
_cell_angle_alpha   90.00000000
_cell_angle_beta   90.00000000
_cell_angle_gamma   90.00000000
_symmetry_Int_Tables_number   1
_chemical_formula_structural   CuNiC6
_chemical_formula_sum   'Cu2 Ni2 C12'
_cell_volume   471.52233089
_cell_formula_units_Z   2
loop_
 _symmetry_equiv_pos_site_id
 _symmetry_equiv_pos_as_xyz
  1  'x, y, z'
loop_
 _atom_site_type_symbol
 _atom_site_label
 _atom_site_symmetry_multiplicity
 _atom_site_fract_x
 _atom_site_fract_y
 _atom_site_fract_z
 _atom_site_occupancy
  Ni  Ni0  1  0.50000000  0.50000000  0.15947900  1
  Ni  Ni1  1  0.50000000  0.00000000  0.65947900  1
  Cu  Cu2  1  0.00000000  0.50000000  0.34547700  1
  Cu  Cu3  1  0.00000000  0.00000000  0.84547700  1
  C  C4  1  0.00000000  0.76506400  0.08160200  1
  C  C5  1  0.00000000  0.23493600  0.08160200  1
  C  C6  1  0.00000000  0.00000000  0.33375900  1
  C  C7  1  0.50000000  0.25157400  0.41757700  1
  C  C8  1  0.50000000  0.74842600  0.41757700  1
  C  C9  1  0.50000000  0.00000000  0.16292800  1
  C  C10  1  0.00000000  0.26506400  0.58160200  1
  C  C11  1  0.00000000  0.73493600  0.58160200  1
  C  C12  1  0.00000000  0.50000000  0.83375900  1
  C  C13  1  0.50000000  0.75157400  0.91757700  1
  C  C14  1  0.50000000  0.24842600  0.91757700  1
  C  C15  1  0.50000000  0.50000000  0.66292800  1
