# generated using pymatgen
data_Cu2NiC8
_symmetry_space_group_name_H-M   'P 1'
_cell_length_a   6.67414300
_cell_length_b   7.40803700
_cell_length_c   13.13279091
_cell_angle_alpha   62.48368884
_cell_angle_beta   90.00000000
_cell_angle_gamma   90.00000000
_symmetry_Int_Tables_number   1
_chemical_formula_structural   Cu2NiC8
_chemical_formula_sum   'Cu8 Ni4 C32'
_cell_volume   575.86438605
_cell_formula_units_Z   4
loop_
 _symmetry_equiv_pos_site_id
 _symmetry_equiv_pos_as_xyz
  1  'x, y, z'
loop_
 _atom_site_type_symbol
 _atom_site_label
 _atom_site_symmetry_multiplicity
 _atom_site_fract_x
 _atom_site_fract_y
 _atom_site_fract_z
 _atom_site_occupancy
  C  C0  1  0.35509900  0.74630100  0.52470000  1
  C  C1  1  0.64490100  0.25369900  0.47530000  1
  C  C2  1  0.85509900  0.25369900  0.97530000  1
  C  C3  1  0.14490100  0.74630100  0.02470000  1
  Ni  Ni4  1  0.39937000  0.71155000  0.26981900  1
  Ni  Ni5  1  0.60063000  0.28845000  0.73018100  1
  Ni  Ni6  1  0.89937000  0.28845000  0.23018100  1
  Ni  Ni7  1  0.10063000  0.71155000  0.76981900  1
  Cu  Cu8  1  0.65766400  0.71395600  0.04323500  1
  Cu  Cu9  1  0.34233600  0.28604400  0.95676500  1
  Cu  Cu10  1  0.15766400  0.28604400  0.45676500  1
  Cu  Cu11  1  0.84233600  0.71395600  0.54323500  1
  Cu  Cu12  1  0.91038100  0.79969400  0.28104600  1
  Cu  Cu13  1  0.08961900  0.20030600  0.71895400  1
  Cu  Cu14  1  0.41038100  0.20030600  0.21895400  1
  Cu  Cu15  1  0.58961900  0.79969400  0.78104600  1
  C  C16  1  0.37383800  0.93465100  0.30539200  1
  C  C17  1  0.62616200  0.06534900  0.69460800  1
  C  C18  1  0.87383800  0.06534900  0.19460800  1
  C  C19  1  0.12616200  0.93465100  0.80539200  1
  C  C20  1  0.82489300  0.90901300  0.02154900  1
  C  C21  1  0.17510700  0.09098700  0.97845100  1
  C  C22  1  0.32489300  0.09098700  0.47845100  1
  C  C23  1  0.67510700  0.90901300  0.52154900  1
  C  C24  1  0.60981800  0.27728300  0.27907600  1
  C  C25  1  0.39018200  0.72271700  0.72092400  1
  C  C26  1  0.10981800  0.72271700  0.22092400  1
  C  C27  1  0.89018200  0.27728300  0.77907600  1
  C  C28  1  0.99679200  0.75273600  0.42271600  1
  C  C29  1  0.00320800  0.24726400  0.57728400  1
  C  C30  1  0.49679200  0.24726400  0.07728400  1
  C  C31  1  0.50320800  0.75273600  0.92271600  1
  C  C32  1  0.44910500  0.70332300  0.12773200  1
  C  C33  1  0.55089500  0.29667700  0.87226800  1
  C  C34  1  0.94910500  0.29667700  0.37226800  1
  C  C35  1  0.05089500  0.70332300  0.62773200  1
  C  C36  1  0.83750000  0.51394300  0.07816800  1
  C  C37  1  0.16250000  0.48605700  0.92183200  1
  C  C38  1  0.33750000  0.48605700  0.42183200  1
  C  C39  1  0.66250000  0.51394300  0.57816800  1
  C  C40  1  0.68699100  0.65563300  0.31311100  1
  C  C41  1  0.31300900  0.34436700  0.68688900  1
  C  C42  1  0.18699100  0.34436700  0.18688900  1
  C  C43  1  0.81300900  0.65563300  0.81311100  1
