# generated using pymatgen
data_Cu7Ni2C
_symmetry_space_group_name_H-M   'P 1'
_cell_length_a   6.44026900
_cell_length_b   9.16208126
_cell_length_c   10.75538130
_cell_angle_alpha   85.86328857
_cell_angle_beta   78.92107444
_cell_angle_gamma   77.57033678
_symmetry_Int_Tables_number   1
_chemical_formula_structural   Cu7Ni2C
_chemical_formula_sum   'Cu28 Ni8 C4'
_cell_volume   607.89579753
_cell_formula_units_Z   4
loop_
 _symmetry_equiv_pos_site_id
 _symmetry_equiv_pos_as_xyz
  1  'x, y, z'
loop_
 _atom_site_type_symbol
 _atom_site_label
 _atom_site_symmetry_multiplicity
 _atom_site_fract_x
 _atom_site_fract_y
 _atom_site_fract_z
 _atom_site_occupancy
  C  C0  1  0.82988600  0.11168500  0.21206000  1
  C  C1  1  0.17011400  0.88831500  0.78794000  1
  C  C2  1  0.02791100  0.44026100  0.72757900  1
  C  C3  1  0.97208900  0.55973900  0.27242100  1
  Ni  Ni4  1  0.88493600  0.22999700  0.88721000  1
  Ni  Ni5  1  0.11506400  0.77000300  0.11279000  1
  Ni  Ni6  1  0.81109000  0.37813300  0.95828500  1
  Ni  Ni7  1  0.18891000  0.62186700  0.04171500  1
  Ni  Ni8  1  0.25078300  0.50171700  0.49593500  1
  Ni  Ni9  1  0.74921700  0.49828300  0.50406500  1
  Ni  Ni10  1  0.20392200  0.64581500  0.57164800  1
  Ni  Ni11  1  0.79607800  0.35418500  0.42835200  1
  Cu  Cu12  1  0.58582700  0.83134200  0.15018900  1
  Cu  Cu13  1  0.41417300  0.16865800  0.84981100  1
  Cu  Cu14  1  0.26243300  0.17992300  0.13673900  1
  Cu  Cu15  1  0.73756700  0.82007700  0.86326100  1
  Cu  Cu16  1  0.56870600  0.96536300  0.45862700  1
  Cu  Cu17  1  0.43129400  0.03463700  0.54137300  1
  Cu  Cu18  1  0.19857500  0.07026500  0.33095300  1
  Cu  Cu19  1  0.80142500  0.92973500  0.66904700  1
  Cu  Cu20  1  0.32664700  0.14079100  0.24705600  1
  Cu  Cu21  1  0.67335300  0.85920900  0.75294400  1
  Cu  Cu22  1  0.40530400  0.30334700  0.82388500  1
  Cu  Cu23  1  0.59469600  0.69665300  0.17611500  1
  Cu  Cu24  1  0.98411000  0.23878400  0.77112000  1
  Cu  Cu25  1  0.01589000  0.76121600  0.22888000  1
  Cu  Cu26  1  0.86583600  0.49229800  0.89296800  1
  Cu  Cu27  1  0.13416400  0.50770200  0.10703200  1
  Cu  Cu28  1  0.85809200  0.10868700  0.94271700  1
  Cu  Cu29  1  0.14190800  0.89131300  0.05728300  1
  Cu  Cu30  1  0.71515900  0.37790100  0.07022800  1
  Cu  Cu31  1  0.28484100  0.62209900  0.92977200  1
  Cu  Cu32  1  0.18420700  0.38976700  0.56204400  1
  Cu  Cu33  1  0.81579300  0.61023300  0.43795600  1
  Cu  Cu34  1  0.09707300  0.63171900  0.68757500  1
  Cu  Cu35  1  0.90292700  0.36828100  0.31242500  1
  Cu  Cu36  1  0.33953700  0.49485000  0.38324000  1
  Cu  Cu37  1  0.66046300  0.50515000  0.61676000  1
  Cu  Cu38  1  0.26043900  0.76347500  0.53133900  1
  Cu  Cu39  1  0.73956100  0.23652500  0.46866100  1
