# generated using pymatgen
data_Cu8Ni7C17
_symmetry_space_group_name_H-M   'P 1'
_cell_length_a   6.87583500
_cell_length_b   7.26349171
_cell_length_c   12.86852097
_cell_angle_alpha   94.83058001
_cell_angle_beta   98.24185331
_cell_angle_gamma   102.18413473
_symmetry_Int_Tables_number   1
_chemical_formula_structural   Cu8Ni7C17
_chemical_formula_sum   'Cu16 Ni14 C34'
_cell_volume   617.35418147
_cell_formula_units_Z   2
loop_
 _symmetry_equiv_pos_site_id
 _symmetry_equiv_pos_as_xyz
  1  'x, y, z'
loop_
 _atom_site_type_symbol
 _atom_site_label
 _atom_site_symmetry_multiplicity
 _atom_site_fract_x
 _atom_site_fract_y
 _atom_site_fract_z
 _atom_site_occupancy
  C  C0  1  0.77969600  0.76330900  0.54476800  1
  C  C1  1  0.22030400  0.23669100  0.45523200  1
  Ni  Ni2  1  0.68308600  0.69800700  0.30053000  1
  Ni  Ni3  1  0.31691400  0.30199300  0.69947000  1
  Ni  Ni4  1  0.65571400  0.38435600  0.62935200  1
  Ni  Ni5  1  0.34428600  0.61564400  0.37064800  1
  Ni  Ni6  1  0.93180600  0.17851400  0.63383200  1
  Ni  Ni7  1  0.06819400  0.82148600  0.36616800  1
  Ni  Ni8  1  0.26259300  0.75914200  0.53913500  1
  Ni  Ni9  1  0.73740700  0.24085800  0.46086500  1
  Ni  Ni10  1  0.57641300  0.60573800  0.76595600  1
  Ni  Ni11  1  0.42358700  0.39426200  0.23404400  1
  Ni  Ni12  1  0.88376300  0.97915000  0.23218200  1
  Ni  Ni13  1  0.11623700  0.02085000  0.76781800  1
  Ni  Ni14  1  0.71190400  0.33972600  0.98057800  1
  Ni  Ni15  1  0.28809600  0.66027400  0.01942200  1
  Cu  Cu16  1  0.12248500  0.58433600  0.63727000  1
  Cu  Cu17  1  0.87751500  0.41566400  0.36273000  1
  Cu  Cu18  1  0.79111300  0.27248300  0.76783500  1
  Cu  Cu19  1  0.20888700  0.72751700  0.23216500  1
  Cu  Cu20  1  0.47722100  0.98171600  0.62409900  1
  Cu  Cu21  1  0.52277900  0.01828400  0.37590100  1
  Cu  Cu22  1  0.04248800  0.15758500  0.15405200  1
  Cu  Cu23  1  0.95751200  0.84241500  0.84594800  1
  Cu  Cu24  1  0.60123700  0.76209900  0.90540200  1
  Cu  Cu25  1  0.39876300  0.23790100  0.09459800  1
  Cu  Cu26  1  0.73450400  0.47722000  0.12621300  1
  Cu  Cu27  1  0.26549600  0.52278000  0.87378700  1
  Cu  Cu28  1  0.43921100  0.18324300  0.90983400  1
  Cu  Cu29  1  0.56078900  0.81675700  0.09016600  1
  Cu  Cu30  1  0.95358600  0.40347500  0.91185300  1
  Cu  Cu31  1  0.04641400  0.59652500  0.08814700  1
  C  C32  1  0.54849200  0.72704400  0.37788800  1
  C  C33  1  0.45150800  0.27295600  0.62211200  1
  C  C34  1  0.70657700  0.84934700  0.23087300  1
  C  C35  1  0.29342300  0.15065300  0.76912700  1
  C  C36  1  0.82429000  0.10621600  0.52646400  1
  C  C37  1  0.17571000  0.89378400  0.47353600  1
  C  C38  1  0.68412100  0.57697100  0.68413100  1
  C  C39  1  0.31587900  0.42302900  0.31586900  1
  C  C40  1  0.71560700  0.40955300  0.52733500  1
  C  C41  1  0.28439300  0.59044700  0.47266500  1
  C  C42  1  0.60547400  0.51436600  0.23180400  1
  C  C43  1  0.39452600  0.48563400  0.76819600  1
  C  C44  1  0.11268100  0.70389700  0.60877300  1
  C  C45  1  0.88731900  0.29610300  0.39122700  1
  C  C46  1  0.94948100  0.01274000  0.68870200  1
  C  C47  1  0.05051900  0.98726000  0.31129800  1
  C  C48  1  0.80158100  0.28446400  0.69093500  1
  C  C49  1  0.19841900  0.71553600  0.30906500  1
  C  C50  1  0.46799700  0.85010800  0.59575600  1
  C  C51  1  0.53200300  0.14989200  0.40424400  1
  C  C52  1  0.87461400  0.69754800  0.37038500  1
  C  C53  1  0.12538600  0.30245200  0.62961500  1
  C  C54  1  0.90133000  0.09201300  0.15352100  1
  C  C55  1  0.09867000  0.90798700  0.84647900  1
  C  C56  1  0.66996500  0.75039100  0.84342000  1
  C  C57  1  0.33003500  0.24960900  0.15658000  1
  C  C58  1  0.81366100  0.46278500  0.06822900  1
  C  C59  1  0.18633900  0.53721500  0.93177100  1
  C  C60  1  0.51589900  0.24479700  0.97922300  1
  C  C61  1  0.48410100  0.75520300  0.02077700  1
  C  C62  1  0.81265800  0.32145400  0.89591300  1
  C  C63  1  0.18734200  0.67854600  0.10408700  1
