# generated using pymatgen
data_CuNiC6
_symmetry_space_group_name_H-M   'P 1'
_cell_length_a   6.87686096
_cell_length_b   6.87686096
_cell_length_c   6.87686096
_cell_angle_alpha   129.71685854
_cell_angle_beta   129.71685854
_cell_angle_gamma   73.85982014
_symmetry_Int_Tables_number   1
_chemical_formula_structural   CuNiC6
_chemical_formula_sum   'Cu1 Ni1 C6'
_cell_volume   187.69961671
_cell_formula_units_Z   1
loop_
 _symmetry_equiv_pos_site_id
 _symmetry_equiv_pos_as_xyz
  1  'x, y, z'
loop_
 _atom_site_type_symbol
 _atom_site_label
 _atom_site_symmetry_multiplicity
 _atom_site_fract_x
 _atom_site_fract_y
 _atom_site_fract_z
 _atom_site_occupancy
  Ni  Ni0  1  0.25000000  0.75000000  0.50000000  1
  Cu  Cu1  1  0.00000000  0.00000000  0.00000000  1
  C  C2  1  0.75000000  0.25000000  0.50000000  1
  C  C3  1  0.50000000  0.50000000  0.00000000  1
  C  C4  1  0.13419200  0.08991800  0.49012000  1
  C  C5  1  0.59979800  0.64407200  0.50988000  1
  C  C6  1  0.35592800  0.86580800  0.95572600  1
  C  C7  1  0.91008200  0.40020200  0.04427400  1
