# generated using pymatgen
data_Cu6Ni16C61
_symmetry_space_group_name_H-M   'P 1'
_cell_length_a   4.78334100
_cell_length_b   15.28853400
_cell_length_c   26.68680400
_cell_angle_alpha   90.00000000
_cell_angle_beta   90.00000000
_cell_angle_gamma   90.00000000
_symmetry_Int_Tables_number   1
_chemical_formula_structural   Cu6Ni16C61
_chemical_formula_sum   'Cu12 Ni32 C122'
_cell_volume   1951.61322231
_cell_formula_units_Z   2
loop_
 _symmetry_equiv_pos_site_id
 _symmetry_equiv_pos_as_xyz
  1  'x, y, z'
loop_
 _atom_site_type_symbol
 _atom_site_label
 _atom_site_symmetry_multiplicity
 _atom_site_fract_x
 _atom_site_fract_y
 _atom_site_fract_z
 _atom_site_occupancy
  C  C0  1  0.50538800  0.86103900  0.35335800  1
  C  C1  1  0.50538800  0.13896100  0.64664200  1
  C  C2  1  0.50538800  0.63896100  0.85335800  1
  C  C3  1  0.50538800  0.36103900  0.14664200  1
  C  C4  1  0.53713400  0.25573900  0.42407000  1
  C  C5  1  0.53713400  0.74426100  0.57593000  1
  C  C6  1  0.53713400  0.24426100  0.92407000  1
  C  C7  1  0.53713400  0.75573900  0.07593000  1
  C  C8  1  0.51764700  0.38431000  0.29560800  1
  C  C9  1  0.51764700  0.61569000  0.70439200  1
  C  C10  1  0.51764700  0.11569000  0.79560800  1
  C  C11  1  0.51764700  0.88431000  0.20439200  1
  C  C12  1  0.51949100  0.14628100  0.22332900  1
  C  C13  1  0.51949100  0.85371900  0.77667100  1
  C  C14  1  0.51949100  0.35371900  0.72332900  1
  C  C15  1  0.51949100  0.64628100  0.27667100  1
  C  C16  1  0.50681600  0.50697600  0.40042700  1
  C  C17  1  0.50681600  0.49302400  0.59957300  1
  C  C18  1  0.50681600  0.99302400  0.90042700  1
  C  C19  1  0.50681600  0.00697600  0.09957300  1
  Ni  Ni20  1  0.02668600  0.04110800  0.42244200  1
  Ni  Ni21  1  0.02668600  0.95889200  0.57755800  1
  Ni  Ni22  1  0.02668600  0.45889200  0.92244200  1
  Ni  Ni23  1  0.02668600  0.54110800  0.07755800  1
  Ni  Ni24  1  0.52662500  0.08058300  0.34627400  1
  Ni  Ni25  1  0.52662500  0.91941700  0.65372600  1
  Ni  Ni26  1  0.52662500  0.41941700  0.84627400  1
  Ni  Ni27  1  0.52662500  0.58058300  0.15372600  1
  Ni  Ni28  1  0.03090500  0.21493100  0.32302700  1
  Ni  Ni29  1  0.03090500  0.78506900  0.67697300  1
  Ni  Ni30  1  0.03090500  0.28506900  0.82302700  1
  Ni  Ni31  1  0.03090500  0.71493100  0.17697300  1
  Ni  Ni32  1  0.52520300  0.71534100  0.45075600  1
  Ni  Ni33  1  0.52520300  0.28465900  0.54924400  1
  Ni  Ni34  1  0.52520300  0.78465900  0.95075600  1
  Ni  Ni35  1  0.52520300  0.21534100  0.04924400  1
  Ni  Ni36  1  0.01866600  0.99079300  0.28446700  1
  Ni  Ni37  1  0.01866600  0.00920700  0.71553300  1
  Ni  Ni38  1  0.01866600  0.50920700  0.78446700  1
  Ni  Ni39  1  0.01866600  0.49079300  0.21553300  1
  Ni  Ni40  1  0.02311800  0.85321000  0.47482900  1
  Ni  Ni41  1  0.02311800  0.14679000  0.52517100  1
  Ni  Ni42  1  0.02311800  0.64679000  0.97482900  1
  Ni  Ni43  1  0.02311800  0.35321000  0.02517100  1
  Ni  Ni44  1  0.02557800  0.68850200  0.37039100  1
  Ni  Ni45  1  0.02557800  0.31149800  0.62960900  1
  Ni  Ni46  1  0.02557800  0.81149800  0.87039100  1
  Ni  Ni47  1  0.02557800  0.18850200  0.12960900  1
  Ni  Ni48  1  0.01770200  0.39271700  0.49394100  1
  Ni  Ni49  1  0.01770200  0.60728300  0.50605900  1
  Ni  Ni50  1  0.01770200  0.10728300  0.99394100  1
  Ni  Ni51  1  0.01770200  0.89271700  0.00605900  1
  Cu  Cu52  1  0.05501600  0.79926200  0.27721900  1
  Cu  Cu53  1  0.05501600  0.20073800  0.72278100  1
  Cu  Cu54  1  0.05501600  0.70073800  0.77721900  1
  Cu  Cu55  1  0.05501600  0.29926200  0.22278100  1
  Cu  Cu56  1  0.98878300  0.01932000  0.17809100  1
  Cu  Cu57  1  0.98878300  0.98068000  0.82190900  1
  Cu  Cu58  1  0.98878300  0.48068000  0.67809100  1
  Cu  Cu59  1  0.98878300  0.51932000  0.32190900  1
  Cu  Cu60  1  0.99814000  0.37665000  0.38100000  1
  Cu  Cu61  1  0.99814000  0.62335000  0.61900000  1
  Cu  Cu62  1  0.99814000  0.12335000  0.88100000  1
  Cu  Cu63  1  0.99814000  0.87665000  0.11900000  1
  C  C64  1  0.76016700  0.98190900  0.33177300  1
  C  C65  1  0.76016700  0.01809100  0.66822700  1
  C  C66  1  0.76016700  0.51809100  0.83177300  1
  C  C67  1  0.76016700  0.48190900  0.16822700  1
  C  C68  1  0.29634800  0.17717200  0.36391700  1
  C  C69  1  0.29634800  0.82282800  0.63608300  1
  C  C70  1  0.29634800  0.32282800  0.86391700  1
  C  C71  1  0.29634800  0.67717200  0.13608300  1
  C  C72  1  0.75789800  0.14699700  0.30125200  1
  C  C73  1  0.75789800  0.85300300  0.69874800  1
  C  C74  1  0.75789800  0.35300300  0.80125200  1
  C  C75  1  0.75789800  0.64699700  0.19874800  1
  C  C76  1  0.19116600  0.10648000  0.46990400  1
  C  C77  1  0.19116600  0.89352000  0.53009600  1
  C  C78  1  0.19116600  0.39352000  0.96990400  1
  C  C79  1  0.19116600  0.60648000  0.03009600  1
  C  C80  1  0.29607900  0.31552900  0.49336500  1
  C  C81  1  0.29607900  0.68447100  0.50663500  1
  C  C82  1  0.29607900  0.18447100  0.99336500  1
  C  C83  1  0.29607900  0.81552900  0.00663500  1
  C  C84  1  0.75747000  0.75468400  0.39629900  1
  C  C85  1  0.75747000  0.24531600  0.60370100  1
  C  C86  1  0.75747000  0.74531600  0.89629900  1
  C  C87  1  0.75747000  0.25468400  0.10370100  1
  C  C88  1  0.29333000  0.06771300  0.28854800  1
  C  C89  1  0.29333000  0.93228700  0.71145200  1
  C  C90  1  0.29333000  0.43228700  0.78854800  1
  C  C91  1  0.29333000  0.56771300  0.21145200  1
  C  C92  1  0.83232600  0.00525700  0.22807700  1
  C  C93  1  0.83232600  0.99474300  0.77192300  1
  C  C94  1  0.83232600  0.49474300  0.72807700  1
  C  C95  1  0.83232600  0.50525700  0.27192300  1
  C  C96  1  0.20222100  0.26128200  0.26966800  1
  C  C97  1  0.20222100  0.73871800  0.73033200  1
  C  C98  1  0.20222100  0.23871800  0.76966800  1
  C  C99  1  0.20222100  0.76128200  0.23033200  1
  C  C100  1  0.18276100  0.50000000  0.50000000  1
  C  C101  1  0.18276100  0.00000000  0.00000000  1
  C  C102  1  0.75609700  0.11153900  0.40090100  1
  C  C103  1  0.75609700  0.88846100  0.59909900  1
  C  C104  1  0.75609700  0.38846100  0.90090100  1
  C  C105  1  0.75609700  0.61153900  0.09909900  1
  C  C106  1  0.29583300  0.00171300  0.38226700  1
  C  C107  1  0.29583300  0.99828700  0.61773300  1
  C  C108  1  0.29583300  0.49828700  0.88226700  1
  C  C109  1  0.29583300  0.50171300  0.11773300  1
  C  C110  1  0.29156500  0.81313400  0.43455700  1
  C  C111  1  0.29156500  0.18686600  0.56544300  1
  C  C112  1  0.29156500  0.68686600  0.93455700  1
  C  C113  1  0.29156500  0.31313400  0.06544300  1
  C  C114  1  0.75756500  0.77924200  0.49580200  1
  C  C115  1  0.75756500  0.22075800  0.50419800  1
  C  C116  1  0.75756500  0.72075800  0.99580200  1
  C  C117  1  0.75756500  0.27924200  0.00419800  1
  C  C118  1  0.85149700  0.38370700  0.43441100  1
  C  C119  1  0.85149700  0.61629300  0.56558900  1
  C  C120  1  0.85149700  0.11629300  0.93441100  1
  C  C121  1  0.85149700  0.88370700  0.06558900  1
  C  C122  1  0.29463400  0.64429700  0.40845500  1
  C  C123  1  0.29463400  0.35570300  0.59154500  1
  C  C124  1  0.29463400  0.85570300  0.90845500  1
  C  C125  1  0.29463400  0.14429700  0.09154500  1
  C  C126  1  0.20021800  0.74758500  0.32144300  1
  C  C127  1  0.20021800  0.25241500  0.67855700  1
  C  C128  1  0.20021800  0.75241500  0.82144300  1
  C  C129  1  0.20021800  0.24758500  0.17855700  1
  C  C130  1  0.20181800  0.88866200  0.28172700  1
  C  C131  1  0.20181800  0.11133800  0.71827300  1
  C  C132  1  0.20181800  0.61133800  0.78172700  1
  C  C133  1  0.20181800  0.38866200  0.21827300  1
  C  C134  1  0.86002400  0.94331700  0.44416600  1
  C  C135  1  0.86002400  0.05668300  0.55583400  1
  C  C136  1  0.86002400  0.55668300  0.94416600  1
  C  C137  1  0.86002400  0.44331700  0.05583400  1
  C  C138  1  0.83895900  0.60266300  0.34140100  1
  C  C139  1  0.83895900  0.39733700  0.65859900  1
  C  C140  1  0.83895900  0.89733700  0.84140100  1
  C  C141  1  0.83895900  0.10266300  0.15859900  1
  C  C142  1  0.84880600  0.29695300  0.35752800  1
  C  C143  1  0.84880600  0.70304700  0.64247200  1
  C  C144  1  0.84880600  0.20304700  0.85752800  1
  C  C145  1  0.84880600  0.79695300  0.14247200  1
  C  C146  1  0.75435300  0.38880400  0.54104400  1
  C  C147  1  0.75435300  0.61119600  0.45895600  1
  C  C148  1  0.75435300  0.11119600  0.04104400  1
  C  C149  1  0.75435300  0.88880400  0.95895600  1
  C  C150  1  0.76552800  0.79908400  0.27758700  1
  C  C151  1  0.76552800  0.20091600  0.72241300  1
  C  C152  1  0.76552800  0.70091600  0.77758700  1
  C  C153  1  0.76552800  0.29908400  0.22241300  1
  C  C154  1  0.28034900  0.02463700  0.18114800  1
  C  C155  1  0.28034900  0.97536300  0.81885200  1
  C  C156  1  0.28034900  0.47536300  0.68114800  1
  C  C157  1  0.28034900  0.52463700  0.31885200  1
  C  C158  1  0.86838900  0.95011900  0.14595500  1
  C  C159  1  0.86838900  0.04988100  0.85404500  1
  C  C160  1  0.86838900  0.54988100  0.64595500  1
  C  C161  1  0.86838900  0.45011900  0.35404500  1
  C  C162  1  0.28968000  0.37162400  0.38202400  1
  C  C163  1  0.28968000  0.62837600  0.61797600  1
  C  C164  1  0.28968000  0.12837600  0.88202400  1
  C  C165  1  0.28968000  0.87162400  0.11797600  1
