# generated using pymatgen
data_Cu11NiC5
_symmetry_space_group_name_H-M   'P 1'
_cell_length_a   5.53843600
_cell_length_b   5.79992557
_cell_length_c   9.33213760
_cell_angle_alpha   107.43101193
_cell_angle_beta   89.74192634
_cell_angle_gamma   115.41228323
_symmetry_Int_Tables_number   1
_chemical_formula_structural   Cu11NiC5
_chemical_formula_sum   'Cu11 Ni1 C5'
_cell_volume   255.64250365
_cell_formula_units_Z   1
loop_
 _symmetry_equiv_pos_site_id
 _symmetry_equiv_pos_as_xyz
  1  'x, y, z'
loop_
 _atom_site_type_symbol
 _atom_site_label
 _atom_site_symmetry_multiplicity
 _atom_site_fract_x
 _atom_site_fract_y
 _atom_site_fract_z
 _atom_site_occupancy
  C  C0  1  0.99537300  0.34417000  0.67003700  1
  C  C1  1  0.47472800  0.10723400  0.83854000  1
  C  C2  1  0.76659900  0.63615500  0.92858300  1
  C  C3  1  0.00598400  0.68485500  0.33512100  1
  C  C4  1  0.50578300  0.82767600  0.15921700  1
  Ni  Ni5  1  0.54191100  0.81141100  0.96669600  1
  Cu  Cu6  1  0.04975200  0.97595000  0.80536300  1
  Cu  Cu7  1  0.02986200  0.36198400  0.44403700  1
  Cu  Cu8  1  0.05481200  0.65444100  0.13105600  1
  Cu  Cu9  1  0.58771400  0.51942400  0.25810500  1
  Cu  Cu10  1  0.57641800  0.08931300  0.66681700  1
  Cu  Cu11  1  0.42515500  0.85680900  0.33430900  1
  Cu  Cu12  1  0.49231400  0.17934400  0.03622900  1
  Cu  Cu13  1  0.42854400  0.44680500  0.75116500  1
  Cu  Cu14  1  0.89877100  0.40149000  0.85887400  1
  Cu  Cu15  1  0.98994800  0.71138800  0.53016000  1
  Cu  Cu16  1  0.94009600  0.99022500  0.23195600  1
