# generated using pymatgen
data_Cu4NiC2
_symmetry_space_group_name_H-M   'P 1'
_cell_length_a   6.38744400
_cell_length_b   6.72162200
_cell_length_c   17.96405000
_cell_angle_alpha   90.00000000
_cell_angle_beta   90.00000000
_cell_angle_gamma   90.00000000
_symmetry_Int_Tables_number   1
_chemical_formula_structural   Cu4NiC2
_chemical_formula_sum   'Cu16 Ni4 C8'
_cell_volume   771.26823733
_cell_formula_units_Z   4
loop_
 _symmetry_equiv_pos_site_id
 _symmetry_equiv_pos_as_xyz
  1  'x, y, z'
loop_
 _atom_site_type_symbol
 _atom_site_label
 _atom_site_symmetry_multiplicity
 _atom_site_fract_x
 _atom_site_fract_y
 _atom_site_fract_z
 _atom_site_occupancy
  C  C0  1  0.51262000  0.99409700  0.53232800  1
  C  C1  1  0.01262000  0.50590300  0.46767200  1
  C  C2  1  0.48738000  0.49409700  0.96767200  1
  C  C3  1  0.98738000  0.00590300  0.03232800  1
  C  C4  1  0.70878000  0.97763000  0.27163700  1
  C  C5  1  0.20878000  0.52237000  0.72836300  1
  C  C6  1  0.29122000  0.47763000  0.22836300  1
  C  C7  1  0.79122000  0.02237000  0.77163700  1
  Ni  Ni8  1  0.70908700  0.48255600  0.67027800  1
  Ni  Ni9  1  0.29091300  0.98255600  0.82972200  1
  Ni  Ni10  1  0.79091300  0.51744400  0.17027800  1
  Ni  Ni11  1  0.20908700  0.01744400  0.32972200  1
  Cu  Cu12  1  0.06609000  0.75327400  0.85070300  1
  Cu  Cu13  1  0.56609000  0.74672600  0.14929700  1
  Cu  Cu14  1  0.93391000  0.25327400  0.64929700  1
  Cu  Cu15  1  0.43391000  0.24672600  0.35070300  1
  Cu  Cu16  1  0.39615300  0.75327600  0.34018700  1
  Cu  Cu17  1  0.10384700  0.24672400  0.84018700  1
  Cu  Cu18  1  0.89615300  0.74672400  0.65981300  1
  Cu  Cu19  1  0.60384700  0.25327600  0.15981300  1
  Cu  Cu20  1  0.94529600  0.01144600  0.40084600  1
  Cu  Cu21  1  0.44529600  0.48855400  0.59915400  1
  Cu  Cu22  1  0.05470400  0.51144600  0.09915400  1
  Cu  Cu23  1  0.55470400  0.98855400  0.90084600  1
  Cu  Cu24  1  0.39835200  0.91922100  0.72007000  1
  Cu  Cu25  1  0.89835200  0.58077900  0.27993000  1
  Cu  Cu26  1  0.60164800  0.41922100  0.77993000  1
  Cu  Cu27  1  0.10164800  0.08077900  0.22007000  1
