# generated using pymatgen
data_Cu12Ni2C5
_symmetry_space_group_name_H-M   'P 1'
_cell_length_a   12.82575100
_cell_length_b   5.99619200
_cell_length_c   9.91868473
_cell_angle_alpha   87.69422224
_cell_angle_beta   90.00000000
_cell_angle_gamma   90.00000000
_symmetry_Int_Tables_number   1
_chemical_formula_structural   Cu12Ni2C5
_chemical_formula_sum   'Cu24 Ni4 C10'
_cell_volume   762.18544181
_cell_formula_units_Z   2
loop_
 _symmetry_equiv_pos_site_id
 _symmetry_equiv_pos_as_xyz
  1  'x, y, z'
loop_
 _atom_site_type_symbol
 _atom_site_label
 _atom_site_symmetry_multiplicity
 _atom_site_fract_x
 _atom_site_fract_y
 _atom_site_fract_z
 _atom_site_occupancy
  C  C0  1  0.50000000  0.00000000  0.50000000  1
  C  C1  1  0.00000000  0.00000000  0.00000000  1
  C  C2  1  0.59470200  0.78350900  0.10338100  1
  C  C3  1  0.09470200  0.21649100  0.39661900  1
  C  C4  1  0.40529800  0.21649100  0.89661900  1
  C  C5  1  0.90529800  0.78350900  0.60338100  1
  Ni  Ni6  1  0.77838200  0.32547400  0.89982800  1
  Ni  Ni7  1  0.27838200  0.67452600  0.60017200  1
  Ni  Ni8  1  0.22161800  0.67452600  0.10017200  1
  Ni  Ni9  1  0.72161800  0.32547400  0.39982800  1
  Cu  Cu10  1  0.54173700  0.60978400  0.18562900  1
  Cu  Cu11  1  0.04173700  0.39021600  0.31437100  1
  Cu  Cu12  1  0.45826300  0.39021600  0.81437100  1
  Cu  Cu13  1  0.95826300  0.60978400  0.68562900  1
  Cu  Cu14  1  0.67299400  0.95333200  0.12863600  1
  Cu  Cu15  1  0.17299400  0.04666800  0.37136400  1
  Cu  Cu16  1  0.32700600  0.04666800  0.87136400  1
  Cu  Cu17  1  0.82700600  0.95333200  0.62863600  1
  Cu  Cu18  1  0.76055300  0.41829100  0.00431700  1
  Cu  Cu19  1  0.26055300  0.58170900  0.49568300  1
  Cu  Cu20  1  0.23944700  0.58170900  0.99568300  1
  Cu  Cu21  1  0.73944700  0.41829100  0.50431700  1
  Cu  Cu22  1  0.59013900  0.78321900  0.56851700  1
  Cu  Cu23  1  0.09013900  0.21678100  0.93148300  1
  Cu  Cu24  1  0.40986100  0.21678100  0.43148300  1
  Cu  Cu25  1  0.90986100  0.78321900  0.06851700  1
  Cu  Cu26  1  0.58617000  0.95546500  0.64891000  1
  Cu  Cu27  1  0.08617000  0.04453500  0.85109000  1
  Cu  Cu28  1  0.41383000  0.04453500  0.35109000  1
  Cu  Cu29  1  0.91383000  0.95546500  0.14891000  1
  Cu  Cu30  1  0.34693300  0.80563700  0.62851300  1
  Cu  Cu31  1  0.84693300  0.19436300  0.87148700  1
  Cu  Cu32  1  0.65306700  0.19436300  0.37148700  1
  Cu  Cu33  1  0.15306700  0.80563700  0.12851300  1
  C  C34  1  0.55189700  0.79977500  0.95504600  1
  C  C35  1  0.05189700  0.20022500  0.54495400  1
  C  C36  1  0.44810300  0.20022500  0.04495400  1
  C  C37  1  0.94810300  0.79977500  0.45504600  1
