# generated using pymatgen
data_Cu3NiC8
_symmetry_space_group_name_H-M   'P 1'
_cell_length_a   5.74757259
_cell_length_b   5.74757259
_cell_length_c   12.06242490
_cell_angle_alpha   76.69323657
_cell_angle_beta   76.69323657
_cell_angle_gamma   61.69787038
_symmetry_Int_Tables_number   1
_chemical_formula_structural   Cu3NiC8
_chemical_formula_sum   'Cu6 Ni2 C16'
_cell_volume   337.99979417
_cell_formula_units_Z   2
loop_
 _symmetry_equiv_pos_site_id
 _symmetry_equiv_pos_as_xyz
  1  'x, y, z'
loop_
 _atom_site_type_symbol
 _atom_site_label
 _atom_site_symmetry_multiplicity
 _atom_site_fract_x
 _atom_site_fract_y
 _atom_site_fract_z
 _atom_site_occupancy
  Ni  Ni0  1  0.42118500  0.87967600  0.76018500  1
  Ni  Ni1  1  0.87967600  0.42118500  0.26018500  1
  Cu  Cu2  1  0.32353600  0.81154500  0.06125400  1
  Cu  Cu3  1  0.81154500  0.32353600  0.56125400  1
  Cu  Cu4  1  0.69043300  0.20368700  0.93040500  1
  Cu  Cu5  1  0.20368700  0.69043300  0.43040500  1
  Cu  Cu6  1  0.56305700  0.06317500  0.24231900  1
  Cu  Cu7  1  0.06317500  0.56305700  0.74231900  1
  C  C8  1  0.50379200  0.99985200  0.50434000  1
  C  C9  1  0.99985200  0.50379200  0.00434000  1
  C  C10  1  0.80136100  0.89459100  0.60182300  1
  C  C11  1  0.37137700  0.71790600  0.59395200  1
  C  C12  1  0.23784500  0.29637000  0.59641500  1
  C  C13  1  0.71790600  0.37137700  0.09395200  1
  C  C14  1  0.89459100  0.80136100  0.10182300  1
  C  C15  1  0.29637000  0.23784500  0.09641500  1
  C  C16  1  0.20305100  0.13320600  0.40674600  1
  C  C17  1  0.61755900  0.27252500  0.40175000  1
  C  C18  1  0.78589100  0.71200200  0.40373500  1
  C  C19  1  0.27252500  0.61755900  0.90175000  1
  C  C20  1  0.13320600  0.20305100  0.90674600  1
  C  C21  1  0.71200200  0.78589100  0.90373500  1
  C  C22  1  0.37442600  0.77094900  0.24707700  1
  C  C23  1  0.77094900  0.37442600  0.74707700  1
