# generated using pymatgen
data_Cu18Ni12C67
_symmetry_space_group_name_H-M   'P 1'
_cell_length_a   11.73583934
_cell_length_b   11.73583934
_cell_length_c   11.73583934
_cell_angle_alpha   109.47122063
_cell_angle_beta   109.47122063
_cell_angle_gamma   109.47122063
_symmetry_Int_Tables_number   1
_chemical_formula_structural   Cu18Ni12C67
_chemical_formula_sum   'Cu18 Ni12 C67'
_cell_volume   1244.28703338
_cell_formula_units_Z   1
loop_
 _symmetry_equiv_pos_site_id
 _symmetry_equiv_pos_as_xyz
  1  'x, y, z'
loop_
 _atom_site_type_symbol
 _atom_site_label
 _atom_site_symmetry_multiplicity
 _atom_site_fract_x
 _atom_site_fract_y
 _atom_site_fract_z
 _atom_site_occupancy
  C  C0  1  0.74922200  0.42440600  0.42440600  1
  C  C1  1  0.25077800  0.67518400  0.67518400  1
  C  C2  1  0.00000000  0.57559400  0.32481600  1
  C  C3  1  0.42440600  0.42440600  0.74922200  1
  C  C4  1  0.00000000  0.32481600  0.57559400  1
  C  C5  1  0.67518400  0.67518400  0.25077800  1
  C  C6  1  0.57559400  0.32481600  0.00000000  1
  C  C7  1  0.32481600  0.57559400  0.00000000  1
  C  C8  1  0.42440600  0.74922200  0.42440600  1
  C  C9  1  0.32481600  0.00000000  0.57559400  1
  C  C10  1  0.57559400  0.00000000  0.32481600  1
  C  C11  1  0.67518400  0.25077800  0.67518400  1
  C  C12  1  0.00000000  0.00000000  0.00000000  1
  Ni  Ni13  1  0.59227100  0.75411800  0.75411800  1
  Ni  Ni14  1  0.40772900  0.16184600  0.16184600  1
  Ni  Ni15  1  0.00000000  0.24588200  0.83815400  1
  Ni  Ni16  1  0.75411800  0.75411800  0.59227100  1
  Ni  Ni17  1  0.00000000  0.83815400  0.24588200  1
  Ni  Ni18  1  0.16184600  0.16184600  0.40772900  1
  Ni  Ni19  1  0.24588200  0.83815400  0.00000000  1
  Ni  Ni20  1  0.83815400  0.24588200  0.00000000  1
  Ni  Ni21  1  0.75411800  0.59227100  0.75411800  1
  Ni  Ni22  1  0.83815400  0.00000000  0.24588200  1
  Ni  Ni23  1  0.24588200  0.00000000  0.83815400  1
  Ni  Ni24  1  0.16184600  0.40772900  0.16184600  1
  Cu  Cu25  1  0.70123500  0.70123500  0.00000000  1
  Cu  Cu26  1  0.29876500  0.29876500  0.00000000  1
  Cu  Cu27  1  0.70123500  0.00000000  0.70123500  1
  Cu  Cu28  1  0.29876500  0.00000000  0.29876500  1
  Cu  Cu29  1  0.00000000  0.70123500  0.70123500  1
  Cu  Cu30  1  0.00000000  0.29876500  0.29876500  1
  Cu  Cu31  1  0.30061300  0.45974200  0.45974200  1
  Cu  Cu32  1  0.69938700  0.15912900  0.15912900  1
  Cu  Cu33  1  0.00000000  0.54025800  0.84087100  1
  Cu  Cu34  1  0.45974200  0.45974200  0.30061300  1
  Cu  Cu35  1  0.00000000  0.84087100  0.54025800  1
  Cu  Cu36  1  0.15912900  0.15912900  0.69938700  1
  Cu  Cu37  1  0.54025800  0.84087100  0.00000000  1
  Cu  Cu38  1  0.84087100  0.54025800  0.00000000  1
  Cu  Cu39  1  0.45974200  0.30061300  0.45974200  1
  Cu  Cu40  1  0.84087100  0.00000000  0.54025800  1
  Cu  Cu41  1  0.54025800  0.00000000  0.84087100  1
  Cu  Cu42  1  0.15912900  0.69938700  0.15912900  1
  C  C43  1  0.14604900  0.44833400  0.44833400  1
  C  C44  1  0.85395100  0.30228500  0.30228500  1
  C  C45  1  0.00000000  0.55166600  0.69771500  1
  C  C46  1  0.44833400  0.44833400  0.14604900  1
  C  C47  1  0.00000000  0.69771500  0.55166600  1
  C  C48  1  0.30228500  0.30228500  0.85395100  1
  C  C49  1  0.55166600  0.69771500  0.00000000  1
  C  C50  1  0.69771500  0.55166600  0.00000000  1
  C  C51  1  0.44833400  0.14604900  0.44833400  1
  C  C52  1  0.69771500  0.00000000  0.55166600  1
  C  C53  1  0.55166600  0.00000000  0.69771500  1
  C  C54  1  0.30228500  0.85395100  0.30228500  1
  C  C55  1  0.47627400  0.32626000  0.32626000  1
  C  C56  1  0.52372600  0.84998600  0.84998600  1
  C  C57  1  0.00000000  0.67374000  0.15001400  1
  C  C58  1  0.32626000  0.32626000  0.47627400  1
  C  C59  1  0.00000000  0.15001400  0.67374000  1
  C  C60  1  0.84998600  0.84998600  0.52372600  1
  C  C61  1  0.67374000  0.15001400  0.00000000  1
  C  C62  1  0.15001400  0.67374000  0.00000000  1
  C  C63  1  0.32626000  0.47627400  0.32626000  1
  C  C64  1  0.15001400  0.00000000  0.67374000  1
  C  C65  1  0.67374000  0.00000000  0.15001400  1
  C  C66  1  0.84998600  0.52372600  0.84998600  1
  C  C67  1  0.84499200  0.68737400  0.68737400  1
  C  C68  1  0.15500800  0.84238200  0.84238200  1
  C  C69  1  0.00000000  0.31262600  0.15761800  1
  C  C70  1  0.68737400  0.68737400  0.84499200  1
  C  C71  1  0.00000000  0.15761800  0.31262600  1
  C  C72  1  0.84238200  0.84238200  0.15500800  1
  C  C73  1  0.31262600  0.15761800  0.00000000  1
  C  C74  1  0.15761800  0.31262600  0.00000000  1
  C  C75  1  0.68737400  0.84499200  0.68737400  1
  C  C76  1  0.15761800  0.00000000  0.31262600  1
  C  C77  1  0.31262600  0.00000000  0.15761800  1
  C  C78  1  0.84238200  0.15500800  0.84238200  1
  C  C79  1  0.42376600  0.60818400  0.60818400  1
  C  C80  1  0.57623400  0.18441800  0.18441800  1
  C  C81  1  0.00000000  0.39181600  0.81558200  1
  C  C82  1  0.60818400  0.60818400  0.42376600  1
  C  C83  1  0.00000000  0.81558200  0.39181600  1
  C  C84  1  0.18441800  0.18441800  0.57623400  1
  C  C85  1  0.39181600  0.81558200  0.00000000  1
  C  C86  1  0.81558200  0.39181600  0.00000000  1
  C  C87  1  0.60818400  0.42376600  0.60818400  1
  C  C88  1  0.81558200  0.00000000  0.39181600  1
  C  C89  1  0.39181600  0.00000000  0.81558200  1
  C  C90  1  0.18441800  0.57623400  0.18441800  1
  C  C91  1  0.25000000  0.75000000  0.50000000  1
  C  C92  1  0.75000000  0.25000000  0.50000000  1
  C  C93  1  0.75000000  0.50000000  0.25000000  1
  C  C94  1  0.25000000  0.50000000  0.75000000  1
  C  C95  1  0.50000000  0.25000000  0.75000000  1
  C  C96  1  0.50000000  0.75000000  0.25000000  1
