# generated using pymatgen
data_Cu(NiC)4
_symmetry_space_group_name_H-M   'P 1'
_cell_length_a   5.66470700
_cell_length_b   7.61201800
_cell_length_c   13.04212800
_cell_angle_alpha   90.00000000
_cell_angle_beta   90.00000000
_cell_angle_gamma   90.00000000
_symmetry_Int_Tables_number   1
_chemical_formula_structural   Cu(NiC)4
_chemical_formula_sum   'Cu4 Ni16 C16'
_cell_volume   562.37462454
_cell_formula_units_Z   4
loop_
 _symmetry_equiv_pos_site_id
 _symmetry_equiv_pos_as_xyz
  1  'x, y, z'
loop_
 _atom_site_type_symbol
 _atom_site_label
 _atom_site_symmetry_multiplicity
 _atom_site_fract_x
 _atom_site_fract_y
 _atom_site_fract_z
 _atom_site_occupancy
  C  C0  1  0.22703400  0.25000000  0.60730600  1
  C  C1  1  0.72703400  0.25000000  0.89269400  1
  C  C2  1  0.77296600  0.75000000  0.39269400  1
  C  C3  1  0.27296600  0.75000000  0.10730600  1
  C  C4  1  0.22998300  0.53957400  0.32064800  1
  C  C5  1  0.72998300  0.96042600  0.17935200  1
  C  C6  1  0.77001700  0.03957400  0.67935200  1
  C  C7  1  0.27001700  0.46042600  0.82064800  1
  C  C8  1  0.77001700  0.46042600  0.67935200  1
  C  C9  1  0.27001700  0.03957400  0.82064800  1
  C  C10  1  0.22998300  0.96042600  0.32064800  1
  C  C11  1  0.72998300  0.53957400  0.17935200  1
  C  C12  1  0.70926200  0.25000000  0.41600800  1
  C  C13  1  0.20926200  0.25000000  0.08399200  1
  C  C14  1  0.29073800  0.75000000  0.58399200  1
  C  C15  1  0.79073800  0.75000000  0.91600800  1
  Ni  Ni16  1  0.82416900  0.25000000  0.54420100  1
  Ni  Ni17  1  0.32416900  0.25000000  0.95579900  1
  Ni  Ni18  1  0.17583100  0.75000000  0.45579900  1
  Ni  Ni19  1  0.67583100  0.75000000  0.04420100  1
  Ni  Ni20  1  0.81058900  0.44241600  0.34939300  1
  Ni  Ni21  1  0.31058900  0.05758400  0.15060700  1
  Ni  Ni22  1  0.18941100  0.94241600  0.65060700  1
  Ni  Ni23  1  0.68941100  0.55758400  0.84939300  1
  Ni  Ni24  1  0.18941100  0.55758400  0.65060700  1
  Ni  Ni25  1  0.68941100  0.94241600  0.84939300  1
  Ni  Ni26  1  0.81058900  0.05758400  0.34939300  1
  Ni  Ni27  1  0.31058900  0.44241600  0.15060700  1
  Ni  Ni28  1  0.39045200  0.25000000  0.42111800  1
  Ni  Ni29  1  0.89045200  0.25000000  0.07888200  1
  Ni  Ni30  1  0.60954800  0.75000000  0.57888200  1
  Ni  Ni31  1  0.10954800  0.75000000  0.92111800  1
  Cu  Cu32  1  0.50211600  0.25000000  0.73282000  1
  Cu  Cu33  1  0.00211600  0.25000000  0.76718000  1
  Cu  Cu34  1  0.49788400  0.75000000  0.26718000  1
  Cu  Cu35  1  0.99788400  0.75000000  0.23282000  1
