# generated using pymatgen
data_CuNi3C5
_symmetry_space_group_name_H-M   'P 1'
_cell_length_a   9.26832700
_cell_length_b   7.19815700
_cell_length_c   10.76909962
_cell_angle_alpha   57.53269647
_cell_angle_beta   90.00000000
_cell_angle_gamma   90.00000000
_symmetry_Int_Tables_number   1
_chemical_formula_structural   CuNi3C5
_chemical_formula_sum   'Cu4 Ni12 C20'
_cell_volume   606.16246185
_cell_formula_units_Z   4
loop_
 _symmetry_equiv_pos_site_id
 _symmetry_equiv_pos_as_xyz
  1  'x, y, z'
loop_
 _atom_site_type_symbol
 _atom_site_label
 _atom_site_symmetry_multiplicity
 _atom_site_fract_x
 _atom_site_fract_y
 _atom_site_fract_z
 _atom_site_occupancy
  Ni  Ni0  1  0.13702700  0.65749300  0.34520900  1
  Ni  Ni1  1  0.36297300  0.65749300  0.84520900  1
  Ni  Ni2  1  0.86297300  0.34250700  0.65479100  1
  Ni  Ni3  1  0.63702700  0.34250700  0.15479100  1
  Ni  Ni4  1  0.00419200  0.77400700  0.98601100  1
  Ni  Ni5  1  0.49580800  0.77400700  0.48601100  1
  Ni  Ni6  1  0.99580800  0.22599300  0.01398900  1
  Ni  Ni7  1  0.50419200  0.22599300  0.51398900  1
  Ni  Ni8  1  0.36873000  0.95932300  0.05366400  1
  Ni  Ni9  1  0.13127000  0.95932300  0.55366400  1
  Ni  Ni10  1  0.63127000  0.04067700  0.94633600  1
  Ni  Ni11  1  0.86873000  0.04067700  0.44633600  1
  Cu  Cu12  1  0.24048700  0.30224500  0.70987400  1
  Cu  Cu13  1  0.25951300  0.30224500  0.20987400  1
  Cu  Cu14  1  0.75951300  0.69775500  0.29012600  1
  Cu  Cu15  1  0.74048700  0.69775500  0.79012600  1
  C  C16  1  0.13608400  0.86207400  0.11478600  1
  C  C17  1  0.36391600  0.86207400  0.61478600  1
  C  C18  1  0.86391600  0.13792600  0.88521400  1
  C  C19  1  0.63608400  0.13792600  0.38521400  1
  C  C20  1  0.23126500  0.33586500  0.85608400  1
  C  C21  1  0.26873500  0.33586500  0.35608400  1
  C  C22  1  0.76873500  0.66413500  0.14391600  1
  C  C23  1  0.73126500  0.66413500  0.64391600  1
  C  C24  1  0.17925900  0.04832200  0.75667400  1
  C  C25  1  0.32074100  0.04832200  0.25667400  1
  C  C26  1  0.82074100  0.95167800  0.24332600  1
  C  C27  1  0.67925900  0.95167800  0.74332600  1
  C  C28  1  0.12890300  0.51390500  0.57561400  1
  C  C29  1  0.37109700  0.51390500  0.07561400  1
  C  C30  1  0.87109700  0.48609500  0.42438600  1
  C  C31  1  0.62890300  0.48609500  0.92438600  1
  C  C32  1  0.41757100  0.35259500  0.64314100  1
  C  C33  1  0.08242900  0.35259500  0.14314100  1
  C  C34  1  0.58242900  0.64740500  0.35685900  1
  C  C35  1  0.91757100  0.64740500  0.85685900  1
