# generated using pymatgen
data_Cu2NiC7
_symmetry_space_group_name_H-M   'P 1'
_cell_length_a   5.30496800
_cell_length_b   9.15138300
_cell_length_c   18.63741800
_cell_angle_alpha   90.00000000
_cell_angle_beta   90.00000000
_cell_angle_gamma   90.00000000
_symmetry_Int_Tables_number   1
_chemical_formula_structural   Cu2NiC7
_chemical_formula_sum   'Cu16 Ni8 C56'
_cell_volume   904.80552921
_cell_formula_units_Z   8
loop_
 _symmetry_equiv_pos_site_id
 _symmetry_equiv_pos_as_xyz
  1  'x, y, z'
loop_
 _atom_site_type_symbol
 _atom_site_label
 _atom_site_symmetry_multiplicity
 _atom_site_fract_x
 _atom_site_fract_y
 _atom_site_fract_z
 _atom_site_occupancy
  C  C0  1  0.36125700  0.97770400  0.87872500  1
  C  C1  1  0.63874300  0.02229600  0.12127500  1
  C  C2  1  0.86125700  0.02229600  0.62127500  1
  C  C3  1  0.13874300  0.97770400  0.37872500  1
  C  C4  1  0.36125700  0.47770400  0.62127500  1
  C  C5  1  0.63874300  0.52229600  0.37872500  1
  C  C6  1  0.86125700  0.52229600  0.87872500  1
  C  C7  1  0.13874300  0.47770400  0.12127500  1
  Ni  Ni8  1  0.62186300  0.15017300  0.37524700  1
  Ni  Ni9  1  0.37813700  0.84982700  0.62475300  1
  Ni  Ni10  1  0.62186300  0.65017300  0.12475300  1
  Ni  Ni11  1  0.12186300  0.84982700  0.12475300  1
  Ni  Ni12  1  0.87813700  0.15017300  0.87524700  1
  Ni  Ni13  1  0.37813700  0.34982700  0.87524700  1
  Ni  Ni14  1  0.12186300  0.34982700  0.37524700  1
  Ni  Ni15  1  0.87813700  0.65017300  0.62475300  1
  Cu  Cu16  1  0.55412900  0.66080100  0.76905900  1
  Cu  Cu17  1  0.70289200  0.83531600  0.47459200  1
  Cu  Cu18  1  0.79710800  0.83531600  0.97459200  1
  Cu  Cu19  1  0.94587100  0.16080100  0.23094100  1
  Cu  Cu20  1  0.05412900  0.33919900  0.73094100  1
  Cu  Cu21  1  0.44587100  0.83919900  0.26905900  1
  Cu  Cu22  1  0.20289200  0.66468400  0.47459200  1
  Cu  Cu23  1  0.70289200  0.33531600  0.02540800  1
  Cu  Cu24  1  0.79710800  0.33531600  0.52540800  1
  Cu  Cu25  1  0.94587100  0.66080100  0.26905900  1
  Cu  Cu26  1  0.44587100  0.33919900  0.23094100  1
  Cu  Cu27  1  0.55412900  0.16080100  0.73094100  1
  Cu  Cu28  1  0.29710800  0.16468400  0.52540800  1
  Cu  Cu29  1  0.05412900  0.83919900  0.76905900  1
  Cu  Cu30  1  0.29710800  0.66468400  0.97459200  1
  Cu  Cu31  1  0.20289200  0.16468400  0.02540800  1
  C  C32  1  0.94624600  0.50285400  0.30801900  1
  C  C33  1  0.29304900  0.01754300  0.06597800  1
  C  C34  1  0.05375400  0.49714600  0.69198100  1
  C  C35  1  0.71226200  0.33926400  0.93727100  1
  C  C36  1  0.21226200  0.16073600  0.93727100  1
  C  C37  1  0.90420200  0.20189700  0.05130300  1
  C  C38  1  0.95667600  0.66073200  0.18130600  1
  C  C39  1  0.04332400  0.83926800  0.68130600  1
  C  C40  1  0.71226200  0.83926400  0.56272900  1
  C  C41  1  0.95667600  0.16073200  0.31869400  1
  C  C42  1  0.44624600  0.49714600  0.19198100  1
  C  C43  1  0.78773800  0.33926400  0.43727100  1
  C  C44  1  0.70695100  0.98245700  0.93402200  1
  C  C45  1  0.45667600  0.83926800  0.18130600  1
  C  C46  1  0.55375400  0.00285400  0.69198100  1
  C  C47  1  0.29304900  0.51754300  0.43402200  1
  C  C48  1  0.44624600  0.99714600  0.30801900  1
  C  C49  1  0.17137900  0.77099000  0.29980300  1
  C  C50  1  0.32862100  0.77099000  0.79980300  1
  C  C51  1  0.59579800  0.70189700  0.94869700  1
  C  C52  1  0.78773800  0.83926400  0.06272900  1
  C  C53  1  0.54332400  0.66073200  0.68130600  1
  C  C54  1  0.79304900  0.48245700  0.06597800  1
  C  C55  1  0.17137900  0.27099000  0.20019700  1
  C  C56  1  0.28773800  0.16073600  0.43727100  1
  C  C57  1  0.54332400  0.16073200  0.81869400  1
  C  C58  1  0.70695100  0.48245700  0.56597800  1
  C  C59  1  0.21226200  0.66073600  0.56272900  1
  C  C60  1  0.20695100  0.51754300  0.93402200  1
  C  C61  1  0.67137900  0.72901000  0.29980300  1
  C  C62  1  0.05375400  0.99714600  0.80801900  1
  C  C63  1  0.82862100  0.72901000  0.79980300  1
  C  C64  1  0.82862100  0.22901000  0.70019700  1
  C  C65  1  0.79304900  0.98245700  0.43402200  1
  C  C66  1  0.28773800  0.66073600  0.06272900  1
  C  C67  1  0.20695100  0.01754300  0.56597800  1
  C  C68  1  0.32862100  0.27099000  0.70019700  1
  C  C69  1  0.09579800  0.79810300  0.94869700  1
  C  C70  1  0.40420200  0.79810300  0.44869700  1
  C  C71  1  0.67137900  0.22901000  0.20019700  1
  C  C72  1  0.40420200  0.29810300  0.05130300  1
  C  C73  1  0.59579800  0.20189700  0.55130300  1
  C  C74  1  0.09579800  0.29810300  0.55130300  1
  C  C75  1  0.45667600  0.33926800  0.31869400  1
  C  C76  1  0.55375400  0.50285400  0.80801900  1
  C  C77  1  0.90420200  0.70189700  0.44869700  1
  C  C78  1  0.04332400  0.33926800  0.81869400  1
  C  C79  1  0.94624600  0.00285400  0.19198100  1
