# generated using pymatgen
data_Cu(NiC9)2
_symmetry_space_group_name_H-M   'P 1'
_cell_length_a   6.96331800
_cell_length_b   8.29622200
_cell_length_c   9.25575140
_cell_angle_alpha   82.04956606
_cell_angle_beta   90.00000000
_cell_angle_gamma   90.00000000
_symmetry_Int_Tables_number   1
_chemical_formula_structural   Cu(NiC9)2
_chemical_formula_sum   'Cu2 Ni4 C36'
_cell_volume   529.55818699
_cell_formula_units_Z   2
loop_
 _symmetry_equiv_pos_site_id
 _symmetry_equiv_pos_as_xyz
  1  'x, y, z'
loop_
 _atom_site_type_symbol
 _atom_site_label
 _atom_site_symmetry_multiplicity
 _atom_site_fract_x
 _atom_site_fract_y
 _atom_site_fract_z
 _atom_site_occupancy
  C  C0  1  0.31479800  0.70207000  0.66550600  1
  C  C1  1  0.10043400  0.98174800  0.42223600  1
  C  C2  1  0.81967700  0.59819100  0.57827300  1
  C  C3  1  0.60043400  0.01825200  0.57776400  1
  C  C4  1  0.31967700  0.40180900  0.42172700  1
  C  C5  1  0.81479800  0.29793000  0.33449400  1
  C  C6  1  0.03966400  0.30872700  0.00251400  1
  C  C7  1  0.53966400  0.69127300  0.99748600  1
  C  C8  1  0.59816400  0.96647700  0.02175900  1
  C  C9  1  0.09816400  0.03352300  0.97824100  1
  C  C10  1  0.63819800  0.62690700  0.16031400  1
  C  C11  1  0.96957300  0.13619700  0.82252700  1
  C  C12  1  0.13819800  0.37309300  0.83968600  1
  C  C13  1  0.35590000  0.41102800  0.03639400  1
  C  C14  1  0.46957300  0.86380300  0.17747300  1
  C  C15  1  0.45293400  0.27154200  0.92120000  1
  C  C16  1  0.34497500  0.19358400  0.09316400  1
  C  C17  1  0.72393900  0.90579400  0.18989100  1
  C  C18  1  0.22393900  0.09420600  0.81010900  1
  C  C19  1  0.85590000  0.58897200  0.96360600  1
  C  C20  1  0.84497500  0.80641600  0.90683600  1
  C  C21  1  0.95293400  0.72845800  0.07880000  1
  Ni  Ni22  1  0.84080300  0.70870100  0.99976300  1
  Ni  Ni23  1  0.34080300  0.29129900  0.00023700  1
  Ni  Ni24  1  0.10693800  0.12438100  0.88103100  1
  Ni  Ni25  1  0.60693800  0.87561900  0.11896900  1
  Cu  Cu26  1  0.14945000  0.28439000  0.93008000  1
  Cu  Cu27  1  0.64945000  0.71561000  0.06992000  1
  C  C28  1  0.66742600  0.05702600  0.77236500  1
  C  C29  1  0.16742600  0.94297400  0.22763500  1
  C  C30  1  0.81470900  0.04229400  0.42415500  1
  C  C31  1  0.82648500  0.31157900  0.12749400  1
  C  C32  1  0.31470900  0.95770600  0.57584500  1
  C  C33  1  0.80685300  0.52633500  0.38357000  1
  C  C34  1  0.59842300  0.75927000  0.57914000  1
  C  C35  1  0.85192500  0.44341100  0.74912100  1
  C  C36  1  0.54401200  0.24068500  0.44195200  1
  C  C37  1  0.09842300  0.24073000  0.42086000  1
  C  C38  1  0.30685300  0.47366500  0.61643000  1
  C  C39  1  0.04401200  0.75931500  0.55804800  1
  C  C40  1  0.35192500  0.55658900  0.25087900  1
  C  C41  1  0.32648500  0.68842100  0.87250600  1
