# generated using pymatgen
data_Cu5Ni5C16
_symmetry_space_group_name_H-M   'P 1'
_cell_length_a   10.92372100
_cell_length_b   10.92372100
_cell_length_c   5.55789900
_cell_angle_alpha   90.00000000
_cell_angle_beta   90.00000000
_cell_angle_gamma   90.00000000
_symmetry_Int_Tables_number   1
_chemical_formula_structural   Cu5Ni5C16
_chemical_formula_sum   'Cu10 Ni10 C32'
_cell_volume   663.21119604
_cell_formula_units_Z   2
loop_
 _symmetry_equiv_pos_site_id
 _symmetry_equiv_pos_as_xyz
  1  'x, y, z'
loop_
 _atom_site_type_symbol
 _atom_site_label
 _atom_site_symmetry_multiplicity
 _atom_site_fract_x
 _atom_site_fract_y
 _atom_site_fract_z
 _atom_site_occupancy
  Ni  Ni0  1  0.29259400  0.88812100  0.85228300  1
  Ni  Ni1  1  0.20740600  0.38812100  0.85228300  1
  Ni  Ni2  1  0.70740600  0.11187900  0.85228300  1
  Ni  Ni3  1  0.79259400  0.61187900  0.85228300  1
  Ni  Ni4  1  0.88812100  0.70740600  0.14771700  1
  Ni  Ni5  1  0.61187900  0.20740600  0.14771700  1
  Ni  Ni6  1  0.11187900  0.29259400  0.14771700  1
  Ni  Ni7  1  0.38812100  0.79259400  0.14771700  1
  Ni  Ni8  1  0.50000000  0.00000000  0.00000000  1
  Ni  Ni9  1  0.00000000  0.50000000  0.00000000  1
  Cu  Cu10  1  0.37942600  0.61722600  0.72932100  1
  Cu  Cu11  1  0.12057400  0.11722600  0.72932100  1
  Cu  Cu12  1  0.62057400  0.38277400  0.72932100  1
  Cu  Cu13  1  0.87942600  0.88277400  0.72932100  1
  Cu  Cu14  1  0.61722600  0.62057400  0.27067900  1
  Cu  Cu15  1  0.88277400  0.12057400  0.27067900  1
  Cu  Cu16  1  0.38277400  0.37942600  0.27067900  1
  Cu  Cu17  1  0.11722600  0.87942600  0.27067900  1
  Cu  Cu18  1  0.50000000  0.00000000  0.50000000  1
  Cu  Cu19  1  0.00000000  0.50000000  0.50000000  1
  C  C20  1  0.60970700  0.76673000  0.76224800  1
  C  C21  1  0.89029300  0.26673000  0.76224800  1
  C  C22  1  0.39029300  0.23327000  0.76224800  1
  C  C23  1  0.10970700  0.73327000  0.76224800  1
  C  C24  1  0.76673000  0.39029300  0.23775200  1
  C  C25  1  0.73327000  0.89029300  0.23775200  1
  C  C26  1  0.23327000  0.60970700  0.23775200  1
  C  C27  1  0.26673000  0.10970700  0.23775200  1
  C  C28  1  0.46743900  0.83376500  0.79594900  1
  C  C29  1  0.03256100  0.33376500  0.79594900  1
  C  C30  1  0.53256100  0.16623500  0.79594900  1
  C  C31  1  0.96743900  0.66623500  0.79594900  1
  C  C32  1  0.83376500  0.53256100  0.20405100  1
  C  C33  1  0.66623500  0.03256100  0.20405100  1
  C  C34  1  0.16623500  0.46743900  0.20405100  1
  C  C35  1  0.33376500  0.96743900  0.20405100  1
  C  C36  1  0.60356400  0.60524600  0.73690000  1
  C  C37  1  0.89643600  0.10524600  0.73690000  1
  C  C38  1  0.39643600  0.39475400  0.73690000  1
  C  C39  1  0.10356400  0.89475400  0.73690000  1
  C  C40  1  0.60524600  0.39643600  0.26310000  1
  C  C41  1  0.89475400  0.89643600  0.26310000  1
  C  C42  1  0.39475400  0.60356400  0.26310000  1
  C  C43  1  0.10524600  0.10356400  0.26310000  1
  C  C44  1  0.21388300  0.71388300  0.00000000  1
  C  C45  1  0.28611700  0.21388300  0.00000000  1
  C  C46  1  0.78611700  0.28611700  0.00000000  1
  C  C47  1  0.71388300  0.78611700  0.00000000  1
  C  C48  1  0.67602800  0.82397200  0.50000000  1
  C  C49  1  0.82397200  0.32397200  0.50000000  1
  C  C50  1  0.32397200  0.17602800  0.50000000  1
  C  C51  1  0.17602800  0.67602800  0.50000000  1
