# generated using pymatgen
data_Cu6Ni3C13
_symmetry_space_group_name_H-M   'P 1'
_cell_length_a   6.65876200
_cell_length_b   8.08397474
_cell_length_c   9.80302629
_cell_angle_alpha   93.42353007
_cell_angle_beta   90.00000000
_cell_angle_gamma   90.00000000
_symmetry_Int_Tables_number   1
_chemical_formula_structural   Cu6Ni3C13
_chemical_formula_sum   'Cu12 Ni6 C26'
_cell_volume   526.74796739
_cell_formula_units_Z   2
loop_
 _symmetry_equiv_pos_site_id
 _symmetry_equiv_pos_as_xyz
  1  'x, y, z'
loop_
 _atom_site_type_symbol
 _atom_site_label
 _atom_site_symmetry_multiplicity
 _atom_site_fract_x
 _atom_site_fract_y
 _atom_site_fract_z
 _atom_site_occupancy
  C  C0  1  0.64515100  0.75000000  0.75000000  1
  C  C1  1  0.35484900  0.25000000  0.25000000  1
  C  C2  1  0.97191800  0.48204000  0.68286200  1
  C  C3  1  0.02808200  0.51796000  0.31713800  1
  C  C4  1  0.97191800  0.01796000  0.81713800  1
  C  C5  1  0.02808200  0.98204000  0.18286200  1
  C  C6  1  0.04950300  0.64175900  0.61533100  1
  C  C7  1  0.95049700  0.35824100  0.38466900  1
  C  C8  1  0.04950300  0.85824100  0.88466900  1
  C  C9  1  0.95049700  0.14175900  0.11533100  1
  C  C10  1  0.75229900  0.00776000  0.54053300  1
  C  C11  1  0.24770100  0.99224000  0.45946700  1
  C  C12  1  0.75229900  0.49224000  0.95946700  1
  C  C13  1  0.24770100  0.50776000  0.04053300  1
  C  C14  1  0.83000100  0.84182600  0.46768500  1
  C  C15  1  0.16999900  0.15817400  0.53231500  1
  C  C16  1  0.83000100  0.65817400  0.03231500  1
  C  C17  1  0.16999900  0.34182600  0.96768500  1
  C  C18  1  0.41217700  0.08950100  0.76125200  1
  C  C19  1  0.58782300  0.91049900  0.23874800  1
  C  C20  1  0.41217700  0.41049900  0.73874800  1
  C  C21  1  0.58782300  0.58950100  0.26125200  1
  C  C22  1  0.59031700  0.11111600  0.86587600  1
  C  C23  1  0.40968300  0.88888400  0.13412400  1
  C  C24  1  0.59031700  0.38888400  0.63412400  1
  C  C25  1  0.40968300  0.61111600  0.36587600  1
  Ni  Ni26  1  0.32612800  0.74475300  0.94860400  1
  Ni  Ni27  1  0.67387200  0.25524700  0.05139600  1
  Ni  Ni28  1  0.32612800  0.75524700  0.55139600  1
  Ni  Ni29  1  0.67387200  0.24475300  0.44860400  1
  Ni  Ni30  1  0.86078800  0.75000000  0.25000000  1
  Ni  Ni31  1  0.13921200  0.25000000  0.75000000  1
  Cu  Cu32  1  0.92581900  0.58640200  0.64604100  1
  Cu  Cu33  1  0.07418100  0.41359800  0.35395900  1
  Cu  Cu34  1  0.92581900  0.91359800  0.85395900  1
  Cu  Cu35  1  0.07418100  0.08640200  0.14604100  1
  Cu  Cu36  1  0.79649300  0.89442900  0.55849100  1
  Cu  Cu37  1  0.20350700  0.10557100  0.44150900  1
  Cu  Cu38  1  0.79649300  0.60557100  0.94150900  1
  Cu  Cu39  1  0.20350700  0.39442900  0.05849100  1
  Cu  Cu40  1  0.54600500  0.04544300  0.78268800  1
  Cu  Cu41  1  0.45399500  0.95455700  0.21731200  1
  Cu  Cu42  1  0.54600500  0.45455700  0.71731200  1
  Cu  Cu43  1  0.45399500  0.54544300  0.28268800  1
