# generated using pymatgen
data_Cu4(NiC2)3
_symmetry_space_group_name_H-M   'P 1'
_cell_length_a   5.05611704
_cell_length_b   5.05611704
_cell_length_c   7.85442100
_cell_angle_alpha   90.00000000
_cell_angle_beta   90.00000000
_cell_angle_gamma   119.52463941
_symmetry_Int_Tables_number   1
_chemical_formula_structural   Cu4(NiC2)3
_chemical_formula_sum   'Cu4 Ni3 C6'
_cell_volume   174.71873228
_cell_formula_units_Z   1
loop_
 _symmetry_equiv_pos_site_id
 _symmetry_equiv_pos_as_xyz
  1  'x, y, z'
loop_
 _atom_site_type_symbol
 _atom_site_label
 _atom_site_symmetry_multiplicity
 _atom_site_fract_x
 _atom_site_fract_y
 _atom_site_fract_z
 _atom_site_occupancy
  Ni  Ni0  1  0.00000000  0.00000000  0.00131200  1
  Ni  Ni1  1  0.00000000  0.50000000  0.24884300  1
  Ni  Ni2  1  0.50000000  0.00000000  0.24884300  1
  Cu  Cu3  1  0.50000000  0.50000000  0.24883600  1
  Cu  Cu4  1  0.00000000  0.50000000  0.74991300  1
  Cu  Cu5  1  0.50000000  0.00000000  0.74991300  1
  Cu  Cu6  1  0.50000000  0.50000000  0.74954300  1
  C  C7  1  0.33456200  0.66543800  0.99261100  1
  C  C8  1  0.66543800  0.33456200  0.99261100  1
  C  C9  1  0.00000000  0.00000000  0.33314500  1
  C  C10  1  0.00000000  0.00000000  0.66969300  1
  C  C11  1  0.33454500  0.66545500  0.50733000  1
  C  C12  1  0.66545500  0.33454500  0.50733000  1
