# generated using pymatgen
data_CuNi2C
_symmetry_space_group_name_H-M   'P 1'
_cell_length_a   3.50306006
_cell_length_b   14.75448449
_cell_length_c   7.06839250
_cell_angle_alpha   81.28355868
_cell_angle_beta   104.36570380
_cell_angle_gamma   83.17630852
_symmetry_Int_Tables_number   1
_chemical_formula_structural   CuNi2C
_chemical_formula_sum   'Cu4 Ni8 C4'
_cell_volume   345.12617565
_cell_formula_units_Z   4
loop_
 _symmetry_equiv_pos_site_id
 _symmetry_equiv_pos_as_xyz
  1  'x, y, z'
loop_
 _atom_site_type_symbol
 _atom_site_label
 _atom_site_symmetry_multiplicity
 _atom_site_fract_x
 _atom_site_fract_y
 _atom_site_fract_z
 _atom_site_occupancy
  C  C0  1  0.26537600  0.73451600  0.26533500  1
  C  C1  1  0.01543700  0.98442700  0.01561900  1
  C  C2  1  0.76547300  0.23453100  0.76556700  1
  C  C3  1  0.51538800  0.48441300  0.51566000  1
  Ni  Ni4  1  0.15663100  0.21760100  0.53115300  1
  Ni  Ni5  1  0.90701600  0.46724400  0.28167200  1
  Ni  Ni6  1  0.65664900  0.71751000  0.03110100  1
  Ni  Ni7  1  0.40692200  0.96736300  0.78142200  1
  Ni  Ni8  1  0.34549100  0.28044400  0.97110400  1
  Ni  Ni9  1  0.09555100  0.53011700  0.72120800  1
  Ni  Ni10  1  0.84549300  0.78029700  0.47087700  1
  Ni  Ni11  1  0.59553100  0.03021700  0.22120400  1
  Cu  Cu12  1  0.62871400  0.37148400  0.62851300  1
  Cu  Cu13  1  0.37837500  0.62157100  0.37810000  1
  Cu  Cu14  1  0.12865300  0.87153100  0.12837700  1
  Cu  Cu15  1  0.87840200  0.12163200  0.87818600  1
