# generated using pymatgen
data_Cu2NiC3
_symmetry_space_group_name_H-M   'P 1'
_cell_length_a   3.30851472
_cell_length_b   3.30851472
_cell_length_c   37.62362300
_cell_angle_alpha   90.00000000
_cell_angle_beta   90.00000000
_cell_angle_gamma   120.00001433
_symmetry_Int_Tables_number   1
_chemical_formula_structural   Cu2NiC3
_chemical_formula_sum   'Cu4 Ni2 C6'
_cell_volume   356.66239741
_cell_formula_units_Z   2
loop_
 _symmetry_equiv_pos_site_id
 _symmetry_equiv_pos_as_xyz
  1  'x, y, z'
loop_
 _atom_site_type_symbol
 _atom_site_label
 _atom_site_symmetry_multiplicity
 _atom_site_fract_x
 _atom_site_fract_y
 _atom_site_fract_z
 _atom_site_occupancy
  C  C0  1  0.33333300  0.66666700  0.33263200  1
  C  C1  1  0.33333300  0.66666700  0.23093800  1
  C  C2  1  0.33333300  0.66666700  0.09389700  1
  C  C3  1  0.33333300  0.66666700  0.46969100  1
  C  C4  1  0.66666700  0.33333300  0.28180500  1
  C  C5  1  0.66666700  0.33333300  0.65754300  1
  Ni  Ni6  1  0.33333300  0.66666700  0.70246200  1
  Ni  Ni7  1  0.33333300  0.66666700  0.61261000  1
  Cu  Cu8  1  0.66666700  0.33333300  0.05331700  1
  Cu  Cu9  1  0.66666700  0.33333300  0.42909500  1
  Cu  Cu10  1  0.66666700  0.33333300  0.13448700  1
  Cu  Cu11  1  0.66666700  0.33333300  0.51027000  1
