# generated using pymatgen
data_Cu2NiC6
_symmetry_space_group_name_H-M   'P 1'
_cell_length_a   5.18299401
_cell_length_b   5.18299401
_cell_length_c   10.64786196
_cell_angle_alpha   85.25356964
_cell_angle_beta   85.25356964
_cell_angle_gamma   120.06133791
_symmetry_Int_Tables_number   1
_chemical_formula_structural   Cu2NiC6
_chemical_formula_sum   'Cu2 Ni1 C6'
_cell_volume   244.14297018
_cell_formula_units_Z   1
loop_
 _symmetry_equiv_pos_site_id
 _symmetry_equiv_pos_as_xyz
  1  'x, y, z'
loop_
 _atom_site_type_symbol
 _atom_site_label
 _atom_site_symmetry_multiplicity
 _atom_site_fract_x
 _atom_site_fract_y
 _atom_site_fract_z
 _atom_site_occupancy
  Ni  Ni0  1  0.00000000  0.00000000  0.00000000  1
  Cu  Cu1  1  0.66695000  0.33305000  0.00000000  1
  Cu  Cu2  1  0.33305000  0.66695000  0.00000000  1
  C  C3  1  0.96859300  0.28908900  0.09090100  1
  C  C4  1  0.28908900  0.96859300  0.09090100  1
  C  C5  1  0.64978000  0.64978000  0.09094100  1
  C  C6  1  0.03140700  0.71091100  0.90909900  1
  C  C7  1  0.35022000  0.35022000  0.90905900  1
  C  C8  1  0.71091100  0.03140700  0.90909900  1
