# generated using pymatgen
data_Cu6Ni3C7
_symmetry_space_group_name_H-M   'P 1'
_cell_length_a   5.73536851
_cell_length_b   5.73536851
_cell_length_c   8.77777226
_cell_angle_alpha   83.76661027
_cell_angle_beta   83.76661027
_cell_angle_gamma   120.05045508
_symmetry_Int_Tables_number   1
_chemical_formula_structural   Cu6Ni3C7
_chemical_formula_sum   'Cu6 Ni3 C7'
_cell_volume   243.95557841
_cell_formula_units_Z   1
loop_
 _symmetry_equiv_pos_site_id
 _symmetry_equiv_pos_as_xyz
  1  'x, y, z'
loop_
 _atom_site_type_symbol
 _atom_site_label
 _atom_site_symmetry_multiplicity
 _atom_site_fract_x
 _atom_site_fract_y
 _atom_site_fract_z
 _atom_site_occupancy
  C  C0  1  0.45511400  0.78814900  0.63485900  1
  C  C1  1  0.12289800  0.12289800  0.63092000  1
  C  C2  1  0.78814900  0.45511400  0.63485900  1
  C  C3  1  0.54488600  0.21185100  0.36514100  1
  C  C4  1  0.21185100  0.54488600  0.36514100  1
  C  C5  1  0.87710200  0.87710200  0.36908000  1
  C  C6  1  0.00000000  0.00000000  0.00000000  1
  Ni  Ni7  1  0.50000000  0.50000000  0.50000000  1
  Ni  Ni8  1  0.16887600  0.83112400  0.50000000  1
  Ni  Ni9  1  0.83112400  0.16887600  0.50000000  1
  Cu  Cu10  1  0.60764600  0.94238000  0.17235100  1
  Cu  Cu11  1  0.27763900  0.27763900  0.17097800  1
  Cu  Cu12  1  0.94238000  0.60764600  0.17235100  1
  Cu  Cu13  1  0.39235400  0.05762000  0.82764900  1
  Cu  Cu14  1  0.05762000  0.39235400  0.82764900  1
  Cu  Cu15  1  0.72236100  0.72236100  0.82902200  1
