# generated using pymatgen
data_CuNi2
_symmetry_space_group_name_H-M   'P 1'
_cell_length_a   5.46984467
_cell_length_b   5.46984467
_cell_length_c   6.20251636
_cell_angle_alpha   61.62497354
_cell_angle_beta   61.62497354
_cell_angle_gamma   57.94102873
_symmetry_Int_Tables_number   1
_chemical_formula_structural   CuNi2
_chemical_formula_sum   'Cu2 Ni4'
_cell_volume   132.04694944
_cell_formula_units_Z   2
loop_
 _symmetry_equiv_pos_site_id
 _symmetry_equiv_pos_as_xyz
  1  'x, y, z'
loop_
 _atom_site_type_symbol
 _atom_site_label
 _atom_site_symmetry_multiplicity
 _atom_site_fract_x
 _atom_site_fract_y
 _atom_site_fract_z
 _atom_site_occupancy
  Ni  Ni0  1  0.24915600  0.41591600  0.75116700  1
  Ni  Ni1  1  0.58408400  0.75084400  0.74883300  1
  Ni  Ni2  1  0.41591600  0.24915600  0.25116700  1
  Ni  Ni3  1  0.75084400  0.58408400  0.24883300  1
  Cu  Cu4  1  0.08511100  0.91488900  0.25000000  1
  Cu  Cu5  1  0.91488900  0.08511100  0.75000000  1
