# generated using pymatgen
data_Cu4Ni2C3
_symmetry_space_group_name_H-M   'P 1'
_cell_length_a   4.30141900
_cell_length_b   6.61207600
_cell_length_c   16.04112000
_cell_angle_alpha   90.00000000
_cell_angle_beta   90.00000000
_cell_angle_gamma   90.00000000
_symmetry_Int_Tables_number   1
_chemical_formula_structural   Cu4Ni2C3
_chemical_formula_sum   'Cu8 Ni4 C6'
_cell_volume   456.23045601
_cell_formula_units_Z   2
loop_
 _symmetry_equiv_pos_site_id
 _symmetry_equiv_pos_as_xyz
  1  'x, y, z'
loop_
 _atom_site_type_symbol
 _atom_site_label
 _atom_site_symmetry_multiplicity
 _atom_site_fract_x
 _atom_site_fract_y
 _atom_site_fract_z
 _atom_site_occupancy
  C  C0  1  0.00000000  0.21005300  0.30131200  1
  C  C1  1  0.00000000  0.78994700  0.69868800  1
  C  C2  1  0.50000000  0.28994700  0.80131200  1
  C  C3  1  0.50000000  0.71005300  0.19868800  1
  C  C4  1  0.50000000  0.00000000  0.00000000  1
  C  C5  1  0.00000000  0.50000000  0.50000000  1
  Ni  Ni6  1  0.50000000  0.86010100  0.41253800  1
  Ni  Ni7  1  0.50000000  0.13989900  0.58746200  1
  Ni  Ni8  1  0.00000000  0.63989900  0.91253800  1
  Ni  Ni9  1  0.00000000  0.36010100  0.08746200  1
  Cu  Cu10  1  0.50000000  0.23401400  0.16978600  1
  Cu  Cu11  1  0.50000000  0.76598600  0.83021400  1
  Cu  Cu12  1  0.00000000  0.26598600  0.66978600  1
  Cu  Cu13  1  0.00000000  0.73401400  0.33021400  1
  Cu  Cu14  1  0.00000000  0.74971700  0.07029800  1
  Cu  Cu15  1  0.00000000  0.25028300  0.92970200  1
  Cu  Cu16  1  0.50000000  0.75028300  0.57029800  1
  Cu  Cu17  1  0.50000000  0.24971700  0.42970200  1
