# generated using pymatgen
data_Cu6NiC4
_symmetry_space_group_name_H-M   'P 1'
_cell_length_a   3.63731800
_cell_length_b   7.38900025
_cell_length_c   7.38900025
_cell_angle_alpha   120.00000226
_cell_angle_beta   90.00000000
_cell_angle_gamma   90.00000000
_symmetry_Int_Tables_number   1
_chemical_formula_structural   Cu6NiC4
_chemical_formula_sum   'Cu6 Ni1 C4'
_cell_volume   171.98210347
_cell_formula_units_Z   1
loop_
 _symmetry_equiv_pos_site_id
 _symmetry_equiv_pos_as_xyz
  1  'x, y, z'
loop_
 _atom_site_type_symbol
 _atom_site_label
 _atom_site_symmetry_multiplicity
 _atom_site_fract_x
 _atom_site_fract_y
 _atom_site_fract_z
 _atom_site_occupancy
  Ni  Ni0  1  0.00000000  0.00000000  0.00000000  1
  C  C1  1  0.50000000  0.81201300  0.18798700  1
  C  C2  1  0.50000000  0.81201300  0.62402700  1
  C  C3  1  0.00000000  0.33333300  0.66666700  1
  C  C4  1  0.50000000  0.37597300  0.18798700  1
  Cu  Cu5  1  0.50000000  0.19213300  0.80786700  1
  Cu  Cu6  1  0.50000000  0.61573300  0.80786700  1
  Cu  Cu7  1  0.00000000  0.93126400  0.46563200  1
  Cu  Cu8  1  0.00000000  0.53436800  0.06873600  1
  Cu  Cu9  1  0.00000000  0.53436800  0.46563200  1
  Cu  Cu10  1  0.50000000  0.19213300  0.38426700  1
