# generated using pymatgen
data_Cu15Ni3C
_symmetry_space_group_name_H-M   'P 1'
_cell_length_a   6.97726297
_cell_length_b   9.21938363
_cell_length_c   11.30436834
_cell_angle_alpha   68.14581350
_cell_angle_beta   89.17738099
_cell_angle_gamma   64.70345022
_symmetry_Int_Tables_number   1
_chemical_formula_structural   Cu15Ni3C
_chemical_formula_sum   'Cu30 Ni6 C2'
_cell_volume   601.04795557
_cell_formula_units_Z   2
loop_
 _symmetry_equiv_pos_site_id
 _symmetry_equiv_pos_as_xyz
  1  'x, y, z'
loop_
 _atom_site_type_symbol
 _atom_site_label
 _atom_site_symmetry_multiplicity
 _atom_site_fract_x
 _atom_site_fract_y
 _atom_site_fract_z
 _atom_site_occupancy
  C  C0  1  0.87445000  0.64272900  0.72241100  1
  C  C1  1  0.12555000  0.35727200  0.27758900  1
  Ni  Ni2  1  0.94613400  0.83211700  0.48472400  1
  Ni  Ni3  1  0.05386600  0.16788300  0.51527600  1
  Ni  Ni4  1  0.86109900  0.71818500  0.19970800  1
  Ni  Ni5  1  0.13890100  0.28181500  0.80029200  1
  Ni  Ni6  1  0.89364900  0.85075600  0.84206600  1
  Ni  Ni7  1  0.10635100  0.14924400  0.15793400  1
  Cu  Cu8  1  0.55447200  0.63609400  0.53232600  1
  Cu  Cu9  1  0.44552800  0.36390600  0.46767400  1
  Cu  Cu10  1  0.01463700  0.37585500  0.68801500  1
  Cu  Cu11  1  0.98536300  0.62414500  0.31198500  1
  Cu  Cu12  1  0.53027300  0.68539800  0.63137000  1
  Cu  Cu13  1  0.46972700  0.31460200  0.36863000  1
  Cu  Cu14  1  0.71713600  0.89111400  0.77307400  1
  Cu  Cu15  1  0.28286400  0.10888600  0.22692600  1
  Cu  Cu16  1  0.09848500  0.69415900  0.57724100  1
  Cu  Cu17  1  0.90151500  0.30584100  0.42275900  1
  Cu  Cu18  1  0.05183200  0.69806000  0.85790100  1
  Cu  Cu19  1  0.94816800  0.30194000  0.14209900  1
  Cu  Cu20  1  0.73113200  0.87085800  0.16470400  1
  Cu  Cu21  1  0.26886800  0.12914200  0.83529600  1
  Cu  Cu22  1  0.53473200  0.63953500  0.98476900  1
  Cu  Cu23  1  0.46526800  0.36046500  0.01523100  1
  Cu  Cu24  1  0.11346900  0.36940800  0.87322700  1
  Cu  Cu25  1  0.88653100  0.63059200  0.12677300  1
  Cu  Cu26  1  0.75374200  0.86277100  0.50668600  1
  Cu  Cu27  1  0.24625800  0.13722900  0.49331400  1
  Cu  Cu28  1  0.98526500  0.92287200  0.38816200  1
  Cu  Cu29  1  0.01473500  0.07712800  0.61183800  1
  Cu  Cu30  1  0.57654900  0.25642700  0.57093300  1
  Cu  Cu31  1  0.42345100  0.74357300  0.42906700  1
  Cu  Cu32  1  0.91256100  0.94477300  0.88764200  1
  Cu  Cu33  1  0.08743900  0.05522700  0.11235800  1
  Cu  Cu34  1  0.65370600  0.36583900  0.85795400  1
  Cu  Cu35  1  0.34629400  0.63416100  0.14204600  1
  Cu  Cu36  1  0.61624700  0.27586400  0.96613500  1
  Cu  Cu37  1  0.38375300  0.72413600  0.03386500  1
