# generated using pymatgen
data_Cu2Ni2C9
_symmetry_space_group_name_H-M   'P 1'
_cell_length_a   6.55415395
_cell_length_b   6.55415395
_cell_length_c   9.18730061
_cell_angle_alpha   64.21253568
_cell_angle_beta   64.21253568
_cell_angle_gamma   50.05118210
_symmetry_Int_Tables_number   1
_chemical_formula_structural   Cu2Ni2C9
_chemical_formula_sum   'Cu4 Ni4 C18'
_cell_volume   265.40183948
_cell_formula_units_Z   2
loop_
 _symmetry_equiv_pos_site_id
 _symmetry_equiv_pos_as_xyz
  1  'x, y, z'
loop_
 _atom_site_type_symbol
 _atom_site_label
 _atom_site_symmetry_multiplicity
 _atom_site_fract_x
 _atom_site_fract_y
 _atom_site_fract_z
 _atom_site_occupancy
  C  C0  1  0.89485600  0.10514400  0.25000000  1
  C  C1  1  0.10514400  0.89485600  0.75000000  1
  Ni  Ni2  1  0.56558600  0.23444800  0.01458100  1
  Ni  Ni3  1  0.43441400  0.76555200  0.98541900  1
  Ni  Ni4  1  0.76555200  0.43441400  0.48541900  1
  Ni  Ni5  1  0.23444800  0.56558600  0.51458100  1
  Cu  Cu6  1  0.49458100  0.00956400  0.24601100  1
  Cu  Cu7  1  0.50541900  0.99043600  0.75398900  1
  Cu  Cu8  1  0.99043600  0.50541900  0.25398900  1
  Cu  Cu9  1  0.00956400  0.49458100  0.74601100  1
  C  C10  1  0.35760600  0.93286100  0.08224000  1
  C  C11  1  0.64239400  0.06713900  0.91776000  1
  C  C12  1  0.06713900  0.64239400  0.41776000  1
  C  C13  1  0.93286100  0.35760600  0.58224000  1
  C  C14  1  0.71037100  0.49996900  0.01274300  1
  C  C15  1  0.28962900  0.50003100  0.98725700  1
  C  C16  1  0.50003100  0.28962900  0.48725700  1
  C  C17  1  0.49996900  0.71037100  0.51274300  1
  C  C18  1  0.56886000  0.12077500  0.18958500  1
  C  C19  1  0.43114000  0.87922500  0.81041500  1
  C  C20  1  0.87922500  0.43114000  0.31041500  1
  C  C21  1  0.12077500  0.56886000  0.68958500  1
  C  C22  1  0.21712200  0.70187400  0.06138800  1
  C  C23  1  0.78287800  0.29812600  0.93861200  1
  C  C24  1  0.29812600  0.78287800  0.43861200  1
  C  C25  1  0.70187400  0.21712200  0.56138800  1
