# generated using pymatgen
data_Cu4Ni3C13
_symmetry_space_group_name_H-M   'P 1'
_cell_length_a   5.92836334
_cell_length_b   5.92836334
_cell_length_c   5.92836319
_cell_angle_alpha   104.26838532
_cell_angle_beta   104.26838532
_cell_angle_gamma   104.26839786
_symmetry_Int_Tables_number   1
_chemical_formula_structural   Cu4Ni3C13
_chemical_formula_sum   'Cu4 Ni3 C13'
_cell_volume   184.93486667
_cell_formula_units_Z   1
loop_
 _symmetry_equiv_pos_site_id
 _symmetry_equiv_pos_as_xyz
  1  'x, y, z'
loop_
 _atom_site_type_symbol
 _atom_site_label
 _atom_site_symmetry_multiplicity
 _atom_site_fract_x
 _atom_site_fract_y
 _atom_site_fract_z
 _atom_site_occupancy
  C  C0  1  0.50000000  0.50000000  0.50000000  1
  Ni  Ni1  1  0.05575100  0.94424900  0.50000000  1
  Ni  Ni2  1  0.94424900  0.50000000  0.05575100  1
  Ni  Ni3  1  0.50000000  0.05575100  0.94424900  1
  Cu  Cu4  1  0.44323300  0.55676700  0.00000000  1
  Cu  Cu5  1  0.55676700  0.00000000  0.44323300  1
  Cu  Cu6  1  0.00000000  0.44323300  0.55676700  1
  Cu  Cu7  1  0.00000000  0.00000000  0.00000000  1
  C  C8  1  0.27922300  0.52865400  0.12838000  1
  C  C9  1  0.52865400  0.12838000  0.27922300  1
  C  C10  1  0.72077700  0.87162000  0.47134600  1
  C  C11  1  0.12838000  0.27922300  0.52865400  1
  C  C12  1  0.47134600  0.72077700  0.87162000  1
  C  C13  1  0.87162000  0.47134600  0.72077700  1
  C  C14  1  0.85132000  0.14868000  0.00000000  1
  C  C15  1  0.14868000  0.00000000  0.85132000  1
  C  C16  1  0.00000000  0.85132000  0.14868000  1
  C  C17  1  0.59150200  0.40849800  0.00000000  1
  C  C18  1  0.40849800  0.00000000  0.59150200  1
  C  C19  1  0.00000000  0.59150200  0.40849800  1
