# generated using pymatgen
data_CuNiC7
_symmetry_space_group_name_H-M   'P 1'
_cell_length_a   5.42712000
_cell_length_b   7.57792400
_cell_length_c   11.09694100
_cell_angle_alpha   90.00000000
_cell_angle_beta   90.00000000
_cell_angle_gamma   90.00000000
_symmetry_Int_Tables_number   1
_chemical_formula_structural   CuNiC7
_chemical_formula_sum   'Cu4 Ni4 C28'
_cell_volume   456.37615682
_cell_formula_units_Z   4
loop_
 _symmetry_equiv_pos_site_id
 _symmetry_equiv_pos_as_xyz
  1  'x, y, z'
loop_
 _atom_site_type_symbol
 _atom_site_label
 _atom_site_symmetry_multiplicity
 _atom_site_fract_x
 _atom_site_fract_y
 _atom_site_fract_z
 _atom_site_occupancy
  C  C0  1  0.45581300  0.74878500  0.95674800  1
  C  C1  1  0.04418700  0.74878500  0.45674800  1
  C  C2  1  0.54418700  0.24878500  0.04325200  1
  C  C3  1  0.95581300  0.24878500  0.54325200  1
  Ni  Ni4  1  0.46198000  0.50550300  0.64373700  1
  Ni  Ni5  1  0.53802000  0.00550300  0.35626300  1
  Ni  Ni6  1  0.96198000  0.00550300  0.85626300  1
  Ni  Ni7  1  0.03802000  0.50550300  0.14373700  1
  Cu  Cu8  1  0.03500600  0.99329100  0.14318100  1
  Cu  Cu9  1  0.96499400  0.49329100  0.85681900  1
  Cu  Cu10  1  0.53500600  0.49329100  0.35681900  1
  Cu  Cu11  1  0.46499400  0.99329100  0.64318100  1
  C  C12  1  0.04673400  0.74881300  0.85565200  1
  C  C13  1  0.45326600  0.74881300  0.35565200  1
  C  C14  1  0.95326600  0.24881300  0.14434800  1
  C  C15  1  0.54673400  0.24881300  0.64434800  1
  C  C16  1  0.15377000  0.75232500  0.12283500  1
  C  C17  1  0.34623000  0.75232500  0.62283500  1
  C  C18  1  0.84623000  0.25232500  0.87716500  1
  C  C19  1  0.65377000  0.25232500  0.37716500  1
  C  C20  1  0.63107200  0.55812100  0.79029700  1
  C  C21  1  0.87375800  0.94272700  0.28796500  1
  C  C22  1  0.36892800  0.05812100  0.20970300  1
  C  C23  1  0.12624200  0.44272700  0.71203500  1
  C  C24  1  0.37375800  0.44272700  0.21203500  1
  C  C25  1  0.13107200  0.05812100  0.70970300  1
  C  C26  1  0.62624200  0.94272700  0.78796500  1
  C  C27  1  0.86892800  0.55812100  0.29029700  1
  C  C28  1  0.23303600  0.03744500  0.97299900  1
  C  C29  1  0.27128400  0.46299000  0.47444800  1
  C  C30  1  0.76696400  0.53744500  0.02700100  1
  C  C31  1  0.72871600  0.96299000  0.52555200  1
  C  C32  1  0.77128400  0.96299000  0.02555200  1
  C  C33  1  0.73303600  0.53744500  0.52700100  1
  C  C34  1  0.22871600  0.46299000  0.97444800  1
  C  C35  1  0.26696400  0.03744500  0.47299900  1
