# generated using pymatgen
data_Cu18Ni3C
_symmetry_space_group_name_H-M   'P 1'
_cell_length_a   9.70588700
_cell_length_b   11.28811200
_cell_length_c   16.61141280
_cell_angle_alpha   84.61439520
_cell_angle_beta   90.00000000
_cell_angle_gamma   90.00000000
_symmetry_Int_Tables_number   1
_chemical_formula_structural   Cu18Ni3C
_chemical_formula_sum   'Cu72 Ni12 C4'
_cell_volume   1811.93121888
_cell_formula_units_Z   4
loop_
 _symmetry_equiv_pos_site_id
 _symmetry_equiv_pos_as_xyz
  1  'x, y, z'
loop_
 _atom_site_type_symbol
 _atom_site_label
 _atom_site_symmetry_multiplicity
 _atom_site_fract_x
 _atom_site_fract_y
 _atom_site_fract_z
 _atom_site_occupancy
  C  C0  1  0.50490500  0.75032600  0.74674900  1
  C  C1  1  0.00490500  0.74967400  0.25325100  1
  C  C2  1  0.49509500  0.24967400  0.25325100  1
  C  C3  1  0.99509500  0.25032600  0.74674900  1
  Ni  Ni4  1  0.16088300  0.81153800  0.94092500  1
  Ni  Ni5  1  0.66088300  0.68846200  0.05907500  1
  Ni  Ni6  1  0.83911700  0.18846200  0.05907500  1
  Ni  Ni7  1  0.33911700  0.31153800  0.94092500  1
  Ni  Ni8  1  0.14087900  0.56369900  0.66405700  1
  Ni  Ni9  1  0.64087900  0.93630100  0.33594300  1
  Ni  Ni10  1  0.85912100  0.43630100  0.33594300  1
  Ni  Ni11  1  0.35912100  0.06369900  0.66405700  1
  Ni  Ni12  1  0.83382300  0.94580200  0.57315000  1
  Ni  Ni13  1  0.33382300  0.55419800  0.42685000  1
  Ni  Ni14  1  0.16617700  0.05419800  0.42685000  1
  Ni  Ni15  1  0.66617700  0.44580200  0.57315000  1
  Cu  Cu16  1  0.22548800  0.86708500  0.99072300  1
  Cu  Cu17  1  0.72548800  0.63291500  0.00927700  1
  Cu  Cu18  1  0.77451200  0.13291500  0.00927700  1
  Cu  Cu19  1  0.27451200  0.36708500  0.99072300  1
  Cu  Cu20  1  0.19083100  0.70525600  0.93295300  1
  Cu  Cu21  1  0.69083100  0.79474400  0.06704700  1
  Cu  Cu22  1  0.80916900  0.29474400  0.06704700  1
  Cu  Cu23  1  0.30916900  0.20525600  0.93295300  1
  Cu  Cu24  1  0.06609000  0.86148000  0.89945000  1
  Cu  Cu25  1  0.56609000  0.63852000  0.10055000  1
  Cu  Cu26  1  0.93391000  0.13852000  0.10055000  1
  Cu  Cu27  1  0.43391000  0.36148000  0.89945000  1
  Cu  Cu28  1  0.24143400  0.50440800  0.64224400  1
  Cu  Cu29  1  0.74143400  0.99559200  0.35775600  1
  Cu  Cu30  1  0.75856600  0.49559200  0.35775600  1
  Cu  Cu31  1  0.25856600  0.00440800  0.64224400  1
  Cu  Cu32  1  0.12447900  0.57738700  0.73753500  1
  Cu  Cu33  1  0.62447900  0.92261300  0.26246500  1
  Cu  Cu34  1  0.87552100  0.42261300  0.26246500  1
  Cu  Cu35  1  0.37552100  0.07738700  0.73753500  1
  Cu  Cu36  1  0.05671600  0.60898100  0.61308000  1
  Cu  Cu37  1  0.55671600  0.89101900  0.38692000  1
  Cu  Cu38  1  0.94328400  0.39101900  0.38692000  1
  Cu  Cu39  1  0.44328400  0.10898100  0.61308000  1
  Cu  Cu40  1  0.79589100  0.05001300  0.55220900  1
  Cu  Cu41  1  0.29589100  0.44998700  0.44779100  1
  Cu  Cu42  1  0.20410900  0.94998700  0.44779100  1
  Cu  Cu43  1  0.70410900  0.55001300  0.55220900  1
  Cu  Cu44  1  0.76068800  0.85994000  0.55682000  1
  Cu  Cu45  1  0.26068800  0.64006000  0.44318000  1
  Cu  Cu46  1  0.23931200  0.14006000  0.44318000  1
  Cu  Cu47  1  0.73931200  0.35994000  0.55682000  1
  Cu  Cu48  1  0.94560700  0.92713000  0.60970000  1
  Cu  Cu49  1  0.44560700  0.57287000  0.39030000  1
  Cu  Cu50  1  0.05439300  0.07287000  0.39030000  1
  Cu  Cu51  1  0.55439300  0.42713000  0.60970000  1
  Cu  Cu52  1  0.47470900  0.83278200  0.83366200  1
  Cu  Cu53  1  0.97470900  0.66721800  0.16633800  1
  Cu  Cu54  1  0.52529100  0.16721800  0.16633800  1
  Cu  Cu55  1  0.02529100  0.33278200  0.83366200  1
  Cu  Cu56  1  0.40024300  0.63495100  0.79456200  1
  Cu  Cu57  1  0.90024300  0.86504900  0.20543800  1
  Cu  Cu58  1  0.59975700  0.36504900  0.20543800  1
  Cu  Cu59  1  0.09975700  0.13495100  0.79456200  1
  Cu  Cu60  1  0.59940300  0.86707000  0.69368500  1
  Cu  Cu61  1  0.09940300  0.63293000  0.30631500  1
  Cu  Cu62  1  0.40059700  0.13293000  0.30631500  1
  Cu  Cu63  1  0.90059700  0.36707000  0.69368500  1
  Cu  Cu64  1  0.63017300  0.64165500  0.72680900  1
  Cu  Cu65  1  0.13017300  0.85834500  0.27319100  1
  Cu  Cu66  1  0.36982700  0.35834500  0.27319100  1
  Cu  Cu67  1  0.86982700  0.14165500  0.72680900  1
  Cu  Cu68  1  0.63293400  0.81634600  0.87617600  1
  Cu  Cu69  1  0.13293400  0.68365400  0.12382400  1
  Cu  Cu70  1  0.36706600  0.18365400  0.12382400  1
  Cu  Cu71  1  0.86706600  0.31634600  0.87617600  1
  Cu  Cu72  1  0.39243900  0.75362500  0.62054300  1
  Cu  Cu73  1  0.89243900  0.74637500  0.37945700  1
  Cu  Cu74  1  0.60756100  0.24637500  0.37945700  1
  Cu  Cu75  1  0.10756100  0.25362500  0.62054300  1
  Cu  Cu76  1  0.99383300  0.51571900  0.96382400  1
  Cu  Cu77  1  0.49383300  0.98428100  0.03617600  1
  Cu  Cu78  1  0.00616700  0.48428100  0.03617600  1
  Cu  Cu79  1  0.50616700  0.01571900  0.96382400  1
  Cu  Cu80  1  0.69648500  0.91110500  0.87283300  1
  Cu  Cu81  1  0.19648500  0.58889500  0.12716700  1
  Cu  Cu82  1  0.30351500  0.08889500  0.12716700  1
  Cu  Cu83  1  0.80351500  0.41110500  0.87283300  1
  Cu  Cu84  1  0.45851700  0.72914900  0.56076000  1
  Cu  Cu85  1  0.95851700  0.77085100  0.43924000  1
  Cu  Cu86  1  0.54148300  0.27085100  0.43924000  1
  Cu  Cu87  1  0.04148300  0.22914900  0.56076000  1
