# generated using pymatgen
data_Cu5Ni3C28
_symmetry_space_group_name_H-M   'P 1'
_cell_length_a   10.36709389
_cell_length_b   10.36709389
_cell_length_c   31.32962221
_cell_angle_alpha   90.00000000
_cell_angle_beta   90.00000000
_cell_angle_gamma   119.99999840
_symmetry_Int_Tables_number   1
_chemical_formula_structural   Cu5Ni3C28
_chemical_formula_sum   'Cu30 Ni18 C168'
_cell_volume   2916.08285946
_cell_formula_units_Z   6
loop_
 _symmetry_equiv_pos_site_id
 _symmetry_equiv_pos_as_xyz
  1  'x, y, z'
loop_
 _atom_site_type_symbol
 _atom_site_label
 _atom_site_symmetry_multiplicity
 _atom_site_fract_x
 _atom_site_fract_y
 _atom_site_fract_z
 _atom_site_occupancy
  C  C0  1  0.30078777  0.61267660  0.43748640  1
  C  C1  1  0.38732340  0.68811118  0.77082040  1
  C  C2  1  0.31188882  0.69921223  0.10415340  1
  C  C3  1  0.69921084  0.31188922  0.22917982  1
  C  C4  1  0.68811078  0.38732162  0.56251382  1
  C  C5  1  0.61267838  0.30078916  0.89584682  1
  C  C6  1  0.39547884  0.71611845  0.39153982  1
  C  C7  1  0.28388155  0.67936039  0.72487382  1
  C  C8  1  0.32063961  0.60452116  0.05820682  1
  C  C9  1  0.60451894  0.32063805  0.27512691  1
  C  C10  1  0.67936195  0.28388089  0.60846091  1
  C  C11  1  0.71611911  0.39548106  0.94179391  1
  C  C12  1  0.16556637  0.92001909  0.43994407  1
  C  C13  1  0.07998091  0.24554729  0.77327807  1
  C  C14  1  0.75445271  0.83443363  0.10661107  1
  C  C15  1  0.83444077  0.75446562  0.22672279  1
  C  C16  1  0.24553438  0.07997516  0.56005679  1
  C  C17  1  0.92002484  0.16555923  0.89338979  1
  C  C18  1  0.06934229  0.82426112  0.39390277  1
  C  C19  1  0.17573888  0.24508116  0.72723677  1
  C  C20  1  0.75491883  0.93065771  0.06056977  1
  C  C21  1  0.93065724  0.75491656  0.27276325  1
  C  C22  1  0.24508344  0.17574068  0.60609725  1
  C  C23  1  0.82425932  0.06934276  0.93943025  1
  C  C24  1  0.56020224  0.82175192  0.51697217  1
  C  C25  1  0.17824808  0.73845032  0.85030617  1
  C  C26  1  0.26154968  0.43979776  0.18363917  1
  C  C27  1  0.43979688  0.26155040  0.14969414  1
  C  C28  1  0.73844960  0.17824648  0.48302814  1
  C  C29  1  0.82175352  0.56020312  0.81636114  1
  C  C30  1  0.57875644  0.85779627  0.46017420  1
  C  C31  1  0.14220373  0.72096016  0.79350820  1
  C  C32  1  0.27903984  0.42124356  0.12684120  1
  C  C33  1  0.42124211  0.27904084  0.20649206  1
  C  C34  1  0.72095916  0.14220127  0.53982606  1
  C  C35  1  0.85779873  0.57875789  0.87315906  1
  C  C36  1  0.57771046  0.69783592  0.48042252  1
  C  C37  1  0.30216408  0.87987455  0.81375652  1
  C  C38  1  0.12012545  0.42228954  0.14708952  1
  C  C39  1  0.42229152  0.12012753  0.18624376  1
  C  C40  1  0.87987247  0.30216399  0.51957776  1
  C  C41  1  0.69783601  0.57770848  0.85291076  1
  C  C42  1  0.26269326  0.53198249  0.52804534  1
  C  C43  1  0.46801751  0.73071077  0.86137934  1
  C  C44  1  0.26928923  0.73730674  0.19471234  1
  C  C45  1  0.73730338  0.26928644  0.13862128  1
  C  C46  1  0.73071356  0.46801695  0.47195528  1
  C  C47  1  0.53198305  0.26269662  0.80528828  1
  C  C48  1  0.17853011  0.64033572  0.51485722  1
  C  C49  1  0.35966428  0.53819438  0.84819122  1
  C  C50  1  0.46180562  0.82146989  0.18152422  1
  C  C51  1  0.82147056  0.46180425  0.15180828  1
  C  C52  1  0.53819575  0.35966631  0.48514228  1
  C  C53  1  0.64033369  0.17852944  0.81847528  1
  C  C54  1  0.34817404  0.72177087  0.54549654  1
  C  C55  1  0.27822913  0.62640317  0.87883054  1
  C  C56  1  0.37359683  0.65182596  0.21216354  1
  C  C57  1  0.65182533  0.37359516  0.12116927  1
  C  C58  1  0.62640484  0.27823017  0.45450327  1
  C  C59  1  0.72176983  0.34817467  0.78783627  1
  C  C60  1  0.32252190  0.45400152  0.32977880  1
  C  C61  1  0.54599848  0.86852038  0.66311280  1
  C  C62  1  0.13147962  0.67747810  0.99644580  1
  C  C63  1  0.67747986  0.13147815  0.33688727  1
  C  C64  1  0.86852185  0.54600171  0.67022127  1
  C  C65  1  0.45399829  0.32252014  0.00355427  1
  C  C66  1  0.15909672  0.46185151  0.31643440  1
  C  C67  1  0.53814849  0.69724521  0.64976840  1
  C  C68  1  0.30275479  0.84090328  0.98310140  1
  C  C69  1  0.84090419  0.30275442  0.35023133  1
  C  C70  1  0.69724558  0.53814976  0.68356533  1
  C  C71  1  0.46185024  0.15909581  0.01689833  1
  C  C72  1  0.19235420  0.42831453  0.37092633  1
  C  C73  1  0.57168547  0.76403966  0.70426033  1
  C  C74  1  0.23596034  0.80764580  0.03759333  1
  C  C75  1  0.80764517  0.23595971  0.29573950  1
  C  C76  1  0.76404029  0.57168546  0.62907350  1
  C  C77  1  0.42831454  0.19235483  0.96240650  1
  C  C78  1  0.44058632  0.71319491  0.29126914  1
  C  C79  1  0.28680509  0.72739141  0.62460314  1
  C  C80  1  0.27260859  0.55941368  0.95793614  1
  C  C81  1  0.55941620  0.27260954  0.37539801  1
  C  C82  1  0.72739046  0.28680666  0.70873201  1
  C  C83  1  0.71319334  0.44058380  0.04206501  1
  C  C84  1  0.41192164  0.85278533  0.31662053  1
  C  C85  1  0.14721467  0.55913631  0.64995453  1
  C  C86  1  0.44086369  0.58807836  0.98328753  1
  C  C87  1  0.58807951  0.44086302  0.35004580  1
  C  C88  1  0.55913698  0.14721649  0.68337980  1
  C  C89  1  0.85278351  0.41192049  0.01671280  1
  C  C90  1  0.26067194  0.69773344  0.29000576  1
  C  C91  1  0.30226656  0.56293850  0.62333976  1
  C  C92  1  0.43706150  0.73932806  0.95667276  1
  C  C93  1  0.73933153  0.43706332  0.37666015  1
  C  C94  1  0.56293668  0.30226821  0.70999415  1
  C  C95  1  0.69773179  0.26066847  0.04332715  1
  C  C96  1  0.95672489  0.91047413  0.47008087  1
  C  C97  1  0.08952587  0.04625075  0.80341487  1
  C  C98  1  0.95374925  0.04327511  0.13674787  1
  C  C99  1  0.04327761  0.95375096  0.19658719  1
  C  C100  1  0.04624904  0.08952665  0.52992119  1
  C  C101  1  0.91047335  0.95672239  0.86325419  1
  C  C102  1  0.91009726  0.72787435  0.45411994  1
  C  C103  1  0.27212565  0.18222291  0.78745394  1
  C  C104  1  0.81777709  0.08990274  0.12078694  1
  C  C105  1  0.08990862  0.81778074  0.21254743  1
  C  C106  1  0.18221926  0.27212788  0.54588143  1
  C  C107  1  0.72787212  0.91009138  0.87921443  1
  C  C108  1  0.85161711  0.83211288  0.42163152  1
  C  C109  1  0.16788712  0.01950423  0.75496552  1
  C  C110  1  0.98049577  0.14838289  0.08829852  1
  C  C111  1  0.14839311  0.98050333  0.24503532  1
  C  C112  1  0.01949667  0.16788978  0.57836932  1
  C  C113  1  0.83211022  0.85160689  0.91170232  1
  C  C114  1  0.01892515  0.03641045  0.38305230  1
  C  C115  1  0.96358955  0.98251471  0.71638630  1
  C  C116  1  0.01748529  0.98107485  0.04971930  1
  C  C117  1  0.98107952  0.01749408  0.28361565  1
  C  C118  1  0.98250592  0.96358544  0.61694965  1
  C  C119  1  0.03641456  0.01892048  0.95028265  1
  C  C120  1  0.19561792  0.05926166  0.36912838  1
  C  C121  1  0.94073834  0.13635626  0.70246238  1
  C  C122  1  0.86364374  0.80438208  0.03579538  1
  C  C123  1  0.80438680  0.86364796  0.29753948  1
  C  C124  1  0.13635204  0.94073884  0.63087348  1
  C  C125  1  0.05926116  0.19561320  0.96420648  1
  C  C126  1  0.17492777  0.13627136  0.41842334  1
  C  C127  1  0.86372864  0.03865641  0.75175734  1
  C  C128  1  0.96134359  0.82507223  0.08509034  1
  C  C129  1  0.82507652  0.96134238  0.24824382  1
  C  C130  1  0.03865762  0.86373413  0.58157782  1
  C  C131  1  0.13626587  0.17492348  0.91491082  1
  C  C132  1  0.53096091  0.77192584  0.48507004  1
  C  C133  1  0.22807416  0.75903506  0.81840404  1
  C  C134  1  0.24096494  0.46903909  0.15173704  1
  C  C135  1  0.46903867  0.24096720  0.18159601  1
  C  C136  1  0.75903280  0.22807147  0.51493001  1
  C  C137  1  0.77192853  0.53096133  0.84826301  1
  C  C138  1  0.28521880  0.64513628  0.51948267  1
  C  C139  1  0.35486372  0.64008252  0.85281667  1
  C  C140  1  0.35991748  0.71478120  0.18614967  1
  C  C141  1  0.71478087  0.35991772  0.14718329  1
  C  C142  1  0.64008228  0.35486316  0.48051729  1
  C  C143  1  0.64513684  0.28521913  0.81385029  1
  C  C144  1  0.24323265  0.48847669  0.34130009  1
  C  C145  1  0.51152331  0.75475596  0.67463409  1
  C  C146  1  0.24524404  0.75676735  0.00796709  1
  C  C147  1  0.75676746  0.24524294  0.32536588  1
  C  C148  1  0.75475706  0.51152452  0.65869988  1
  C  C149  1  0.48847548  0.24323254  0.99203288  1
  C  C150  1  0.36137031  0.73426109  0.30942122  1
  C  C151  1  0.26573891  0.62710922  0.64275522  1
  C  C152  1  0.37289078  0.63862969  0.97608822  1
  C  C153  1  0.63863149  0.37289064  0.35724542  1
  C  C154  1  0.62710936  0.26574085  0.69057942  1
  C  C155  1  0.73425915  0.36136851  0.02391242  1
  C  C156  1  0.93960904  0.83884720  0.44242504  1
  C  C157  1  0.16115280  0.10076184  0.77575904  1
  C  C158  1  0.89923816  0.06039096  0.10909204  1
  C  C159  1  0.06039832  0.89924298  0.22424245  1
  C  C160  1  0.10075702  0.16115534  0.55757645  1
  C  C161  1  0.83884466  0.93960168  0.89090945  1
  C  C162  1  0.12080927  0.04374814  0.39581034  1
  C  C163  1  0.95625186  0.07706113  0.72914434  1
  C  C164  1  0.92293887  0.87919073  0.06247734  1
  C  C165  1  0.87919737  0.92294434  0.27085777  1
  C  C166  1  0.07705566  0.95625303  0.60419177  1
  C  C167  1  0.04374697  0.12080263  0.93752477  1
  Ni  Ni168  1  0.37106840  0.68720923  0.48054679  1
  Ni  Ni169  1  0.31279077  0.68385917  0.81388079  1
  Ni  Ni170  1  0.31614083  0.62893160  0.14721379  1
  Ni  Ni171  1  0.62893204  0.31614433  0.18611935  1
  Ni  Ni172  1  0.68385567  0.31278771  0.51945335  1
  Ni  Ni173  1  0.68721229  0.37106796  0.85278635  1
  Ni  Ni174  1  0.32311512  0.64742628  0.34825540  1
  Ni  Ni175  1  0.35257372  0.67568884  0.68158940  1
  Ni  Ni176  1  0.32431116  0.67688488  0.01492240  1
  Ni  Ni177  1  0.67688369  0.32430894  0.31841106  1
  Ni  Ni178  1  0.67569106  0.35257474  0.65174506  1
  Ni  Ni179  1  0.64742526  0.32311631  0.98507806  1
  Ni  Ni180  1  0.08086395  0.90112405  0.41785261  1
  Ni  Ni181  1  0.09887595  0.17973990  0.75118661  1
  Ni  Ni182  1  0.82026010  0.91913605  0.08451961  1
  Ni  Ni183  1  0.91914400  0.82026514  0.24881573  1
  Ni  Ni184  1  0.17973486  0.09887887  0.58214973  1
  Ni  Ni185  1  0.90112113  0.08085600  0.91548273  1
  Cu  Cu186  1  0.31219759  0.43335044  0.44300933  1
  Cu  Cu187  1  0.56664956  0.87884715  0.77634333  1
  Cu  Cu188  1  0.12115285  0.68780241  0.10967633  1
  Cu  Cu189  1  0.68779862  0.12115270  0.22365585  1
  Cu  Cu190  1  0.87884730  0.56664592  0.55698985  1
  Cu  Cu191  1  0.43335408  0.31220138  0.89032285  1
  Cu  Cu192  1  0.09994072  0.55993324  0.43614299  1
  Cu  Cu193  1  0.44006676  0.54000748  0.76947699  1
  Cu  Cu194  1  0.45999252  0.90005928  0.10280999  1
  Cu  Cu195  1  0.90005923  0.45999135  0.23052422  1
  Cu  Cu196  1  0.54000865  0.44006788  0.56385822  1
  Cu  Cu197  1  0.55993212  0.09994077  0.89719122  1
  Cu  Cu198  1  0.58438000  0.72535069  0.38311347  1
  Cu  Cu199  1  0.27464931  0.85902931  0.71644747  1
  Cu  Cu200  1  0.14097069  0.41562000  0.04978047  1
  Cu  Cu201  1  0.41562083  0.14096384  0.28355353  1
  Cu  Cu202  1  0.85903616  0.27465699  0.61688753  1
  Cu  Cu203  1  0.72534301  0.58437917  0.95022053  1
  Cu  Cu204  1  0.43035896  0.91120975  0.39550898  1
  Cu  Cu205  1  0.08879025  0.51914921  0.72884298  1
  Cu  Cu206  1  0.48085079  0.56964104  0.06217598  1
  Cu  Cu207  1  0.56963242  0.48084460  0.27115984  1
  Cu  Cu208  1  0.51915540  0.08878782  0.60449384  1
  Cu  Cu209  1  0.91121218  0.43036758  0.93782684  1
  Cu  Cu210  1  0.27642696  0.99998488  0.50000223  1
  Cu  Cu211  1  0.00001512  0.27644208  0.83333623  1
  Cu  Cu212  1  0.72355792  0.72357304  0.16666923  1
  Cu  Cu213  1  0.00000687  0.71809140  0.33333956  1
  Cu  Cu214  1  0.28190860  0.28191546  0.66667356  1
  Cu  Cu215  1  0.71808454  0.99999313  0.00000656  1
