# generated using pymatgen
data_Cu(NiC10)10
_symmetry_space_group_name_H-M   'P 1'
_cell_length_a   9.00261367
_cell_length_b   11.42576409
_cell_length_c   11.85234475
_cell_angle_alpha   105.53092433
_cell_angle_beta   96.24034599
_cell_angle_gamma   100.53901470
_symmetry_Int_Tables_number   1
_chemical_formula_structural   Cu(NiC10)10
_chemical_formula_sum   'Cu1 Ni10 C100'
_cell_volume   1138.71002928
_cell_formula_units_Z   1
loop_
 _symmetry_equiv_pos_site_id
 _symmetry_equiv_pos_as_xyz
  1  'x, y, z'
loop_
 _atom_site_type_symbol
 _atom_site_label
 _atom_site_symmetry_multiplicity
 _atom_site_fract_x
 _atom_site_fract_y
 _atom_site_fract_z
 _atom_site_occupancy
  C  C0  1  0.78749385  0.90310413  0.20441778  1
  C  C1  1  0.21250615  0.09689587  0.79558222  1
  C  C2  1  -0.00000000  0.00000000  0.50000000  1
  C  C3  1  -0.00000000  0.00000000  0.00000000  1
  Ni  Ni4  1  0.53233178  0.47385565  0.72590170  1
  Ni  Ni5  1  0.46766822  0.52614435  0.27409830  1
  Ni  Ni6  1  0.67025726  0.75644156  0.74386385  1
  Ni  Ni7  1  0.32974274  0.24355844  0.25613615  1
  Ni  Ni8  1  0.46015669  0.73612123  0.50288391  1
  Ni  Ni9  1  0.53984331  0.26387877  0.49711609  1
  Ni  Ni10  1  0.31385103  0.44878907  0.48168095  1
  Ni  Ni11  1  0.68614897  0.55121093  0.51831905  1
  Ni  Ni12  1  0.31564699  0.66009624  0.71186930  1
  Ni  Ni13  1  0.68435301  0.33990376  0.28813070  1
  Cu  Cu14  1  -0.00000000  0.50000000  0.00000000  1
  C  C15  1  0.01153512  0.18248205  0.36256796  1
  C  C16  1  0.98846488  0.81751795  0.63743204  1
  C  C17  1  0.25857690  0.03143885  0.37650857  1
  C  C18  1  0.74142310  0.96856115  0.62349143  1
  C  C19  1  0.25151133  0.89941414  0.39220111  1
  C  C20  1  0.74848867  0.10058586  0.60779889  1
  C  C21  1  0.13767079  0.37050489  0.12587732  1
  C  C22  1  0.86232921  0.62949511  0.87412268  1
  C  C23  1  0.75544556  0.59584342  0.05738011  1
  C  C24  1  0.24455444  0.40415658  0.94261989  1
  C  C25  1  0.95979560  0.33952314  0.13267025  1
  C  C26  1  0.04020440  0.66047686  0.86732975  1
  C  C27  1  0.53952120  0.03863296  0.27923081  1
  C  C28  1  0.46047880  0.96136704  0.72076919  1
  C  C29  1  0.84363746  0.16376388  0.38545227  1
  C  C30  1  0.15636254  0.83623612  0.61454773  1
  C  C31  1  0.23937238  0.63825165  0.15487629  1
  C  C32  1  0.76062762  0.36174835  0.84512371  1
  C  C33  1  0.09157904  0.89547086  0.20633402  1
  C  C34  1  0.90842096  0.10452914  0.79366598  1
  C  C35  1  0.75582987  0.49378009  0.12447595  1
  C  C36  1  0.24417013  0.50621991  0.87552405  1
  C  C37  1  0.09002152  0.63628515  0.21747014  1
  C  C38  1  0.90997848  0.36371485  0.78252986  1
  C  C39  1  0.29523033  0.95327389  0.96405830  1
  C  C40  1  0.70476967  0.04672611  0.03594170  1
  C  C41  1  0.55105878  0.68106924  0.08715984  1
  C  C42  1  0.44894122  0.31893076  0.91284016  1
  C  C43  1  0.92007134  0.76152791  0.35160692  1
  C  C44  1  0.07992866  0.23847209  0.64839308  1
  C  C45  1  0.75543120  0.75707909  0.38117744  1
  C  C46  1  0.24456880  0.24292091  0.61882256  1
  C  C47  1  0.61277463  0.69627239  0.97104485  1
  C  C48  1  0.38722537  0.30372761  0.02895515  1
  C  C49  1  0.02603035  0.78781630  0.08751417  1
  C  C50  1  0.97396965  0.21218370  0.91248583  1
  C  C51  1  0.95931562  0.57951030  0.37247186  1
  C  C52  1  0.04068438  0.42048970  0.62752814  1
  C  C53  1  0.50826907  0.91483098  0.31526112  1
  C  C54  1  0.49173093  0.08516902  0.68473888  1
  C  C55  1  0.18282238  0.86863532  0.85114260  1
  C  C56  1  0.81717762  0.13136468  0.14885740  1
  C  C57  1  0.13787617  0.62291406  0.38783199  1
  C  C58  1  0.86212383  0.37708594  0.61216801  1
  C  C59  1  0.55843352  0.95473506  0.26059334  1
  C  C60  1  0.44156648  0.04526494  0.73940666  1
  C  C61  1  0.20735948  0.95318391  0.90669705  1
  C  C62  1  0.79264052  0.04681609  0.09330295  1
  C  C63  1  0.61482940  0.83121019  0.62377795  1
  C  C64  1  0.38517060  0.16878981  0.37622205  1
  C  C65  1  0.39142223  0.35178476  0.58088368  1
  C  C66  1  0.60857777  0.64821524  0.41911632  1
  C  C67  1  0.03348468  0.35784349  0.08000841  1
  C  C68  1  0.96651532  0.64215651  0.91999159  1
  C  C69  1  0.43004108  0.82960696  0.42205252  1
  C  C70  1  0.56995892  0.17039304  0.57794748  1
  C  C71  1  0.12949528  0.63945329  0.14218445  1
  C  C72  1  0.87050472  0.36054671  0.85781555  1
  C  C73  1  0.18566782  0.95279567  0.37136819  1
  C  C74  1  0.81433218  0.04720433  0.62863181  1
  C  C75  1  0.01699302  0.87100119  0.13180922  1
  C  C76  1  0.98300698  0.12899881  0.86819078  1
  C  C77  1  0.04087678  0.63819961  0.35331595  1
  C  C78  1  0.95912322  0.36180039  0.64668405  1
  C  C79  1  0.64479156  0.70627789  0.05539490  1
  C  C80  1  0.35520844  0.29372211  0.94460510  1
  C  C81  1  0.17555381  0.69864578  0.78336995  1
  C  C82  1  0.82444619  0.30135422  0.21663005  1
  C  C83  1  0.67721427  0.61808850  0.80330763  1
  C  C84  1  0.32278573  0.38191150  0.19669237  1
  C  C85  1  0.37044582  0.53562221  0.77712041  1
  C  C86  1  0.62955418  0.46437779  0.22287959  1
  C  C87  1  0.83992828  0.80996453  0.35852019  1
  C  C88  1  0.16007172  0.19003547  0.64147981  1
  C  C89  1  0.56234034  0.38024343  0.80673149  1
  C  C90  1  0.43765966  0.61975657  0.19326851  1
  C  C91  1  0.19556577  0.50976751  0.57756074  1
  C  C92  1  0.80443423  0.49023249  0.42243926  1
  C  C93  1  0.48879698  0.77263594  0.80002815  1
  C  C94  1  0.51120302  0.22736406  0.19997185  1
  C  C95  1  0.80167924  0.86533657  0.83955117  1
  C  C96  1  0.19832076  0.13466343  0.16044883  1
  C  C97  1  0.31004070  0.74612513  0.59697482  1
  C  C98  1  0.68995930  0.25387487  0.40302518  1
  C  C99  1  0.49748831  0.58792702  0.59723448  1
  C  C100  1  0.50251169  0.41207298  0.40276552  1
  C  C101  1  0.32657266  0.57095304  0.39599265  1
  C  C102  1  0.67342734  0.42904696  0.60400735  1
  C  C103  1  0.79955552  0.67792616  0.62762884  1
  C  C104  1  0.20044448  0.32207384  0.37237116  1
  C  C105  1  0.92553919  0.11829415  0.36684563  1
  C  C106  1  0.07446081  0.88170585  0.63315437  1
  C  C107  1  0.80644397  0.52725360  0.06603937  1
  C  C108  1  0.19355603  0.47274640  0.93396063  1
  C  C109  1  0.39318622  0.85914772  0.05514545  1
  C  C110  1  0.60681378  0.14085228  0.94485455  1
