# generated using pymatgen
data_CuNiC8
_symmetry_space_group_name_H-M   'P 1'
_cell_length_a   8.46782389
_cell_length_b   8.59203896
_cell_length_c   8.59218570
_cell_angle_alpha   90.00000000
_cell_angle_beta   90.00000000
_cell_angle_gamma   90.00000000
_symmetry_Int_Tables_number   1
_chemical_formula_structural   CuNiC8
_chemical_formula_sum   'Cu4 Ni4 C32'
_cell_volume   625.13196960
_cell_formula_units_Z   4
loop_
 _symmetry_equiv_pos_site_id
 _symmetry_equiv_pos_as_xyz
  1  'x, y, z'
loop_
 _atom_site_type_symbol
 _atom_site_label
 _atom_site_symmetry_multiplicity
 _atom_site_fract_x
 _atom_site_fract_y
 _atom_site_fract_z
 _atom_site_occupancy
  C  C0  1  0.50000000  0.00000000  0.50000000  1
  C  C1  1  0.50000000  0.50000000  -0.00000000  1
  C  C2  1  -0.00000000  0.50000000  -0.00000000  1
  C  C3  1  -0.00000000  -0.00000000  0.50000000  1
  Ni  Ni4  1  -0.00000000  0.50000000  0.50000000  1
  Ni  Ni5  1  0.50000000  -0.00000000  -0.00000000  1
  Ni  Ni6  1  -0.00000000  0.00000000  -0.00000000  1
  Ni  Ni7  1  0.50000000  0.50000000  0.50000000  1
  Cu  Cu8  1  0.25000000  0.25000000  0.25000000  1
  Cu  Cu9  1  0.75000000  0.75000000  0.25000000  1
  Cu  Cu10  1  0.75000000  0.25000000  0.75000000  1
  Cu  Cu11  1  0.25000000  0.75000000  0.75000000  1
  C  C12  1  0.75000000  0.75000000  0.75000000  1
  C  C13  1  0.25000000  0.25000000  0.75000000  1
  C  C14  1  0.25000000  0.75000000  0.25000000  1
  C  C15  1  0.75000000  0.25000000  0.25000000  1
  C  C16  1  0.99381506  0.21098705  0.27524128  1
  C  C17  1  0.00618494  0.78901295  0.27524128  1
  C  C18  1  0.00618494  0.21098705  0.72475872  1
  C  C19  1  0.99381506  0.78901295  0.72475872  1
  C  C20  1  0.28229016  0.99424825  0.19108665  1
  C  C21  1  0.28229016  0.00575175  0.80891335  1
  C  C22  1  0.71770984  0.00575175  0.19108665  1
  C  C23  1  0.71770984  0.99424825  0.80891335  1
  C  C24  1  0.20838059  0.25949954  0.99346954  1
  C  C25  1  0.79161941  0.25949954  0.00653046  1
  C  C26  1  0.20838059  0.74050046  0.00653046  1
  C  C27  1  0.79161941  0.74050046  0.99346954  1
  C  C28  1  0.50618494  0.28901295  0.22475872  1
  C  C29  1  0.49381506  0.71098705  0.22475872  1
  C  C30  1  0.49381506  0.28901295  0.77524128  1
  C  C31  1  0.50618494  0.71098705  0.77524128  1
  C  C32  1  0.21770984  0.50575175  0.30891335  1
  C  C33  1  0.21770984  0.49424825  0.69108665  1
  C  C34  1  0.78229016  0.49424825  0.30891335  1
  C  C35  1  0.78229016  0.50575175  0.69108665  1
  C  C36  1  0.29161941  0.24050046  0.50653046  1
  C  C37  1  0.70838059  0.24050046  0.49346954  1
  C  C38  1  0.29161941  0.75949954  0.49346954  1
  C  C39  1  0.70838059  0.75949954  0.50653046  1
