# generated using pymatgen
data_CuNiC9
_symmetry_space_group_name_H-M   'P 1'
_cell_length_a   7.62888711
_cell_length_b   7.62888711
_cell_length_c   8.96527662
_cell_angle_alpha   79.71654764
_cell_angle_beta   79.71654764
_cell_angle_gamma   38.04862029
_symmetry_Int_Tables_number   1
_chemical_formula_structural   CuNiC9
_chemical_formula_sum   'Cu2 Ni2 C18'
_cell_volume   315.80208303
_cell_formula_units_Z   2
loop_
 _symmetry_equiv_pos_site_id
 _symmetry_equiv_pos_as_xyz
  1  'x, y, z'
loop_
 _atom_site_type_symbol
 _atom_site_label
 _atom_site_symmetry_multiplicity
 _atom_site_fract_x
 _atom_site_fract_y
 _atom_site_fract_z
 _atom_site_occupancy
  Ni  Ni0  1  0.50000000  0.00000000  0.00000000  1
  Ni  Ni1  1  0.00000000  0.50000000  0.50000000  1
  C  C2  1  0.73422900  0.46738100  0.22552600  1
  C  C3  1  0.53261900  0.26577100  0.27447400  1
  C  C4  1  0.26577100  0.53261900  0.77447400  1
  C  C5  1  0.46738100  0.73422900  0.72552600  1
  Cu  Cu6  1  0.00000000  0.00000000  0.00000000  1
  Cu  Cu7  1  0.00000000  0.00000000  0.50000000  1
  C  C8  1  0.92779000  0.28554200  0.08830600  1
  C  C9  1  0.71445800  0.07221000  0.41169400  1
  C  C10  1  0.07221000  0.71445800  0.91169400  1
  C  C11  1  0.28554200  0.92779000  0.58830600  1
  C  C12  1  0.47636100  0.52363900  0.25000000  1
  C  C13  1  0.52363900  0.47636100  0.75000000  1
  C  C14  1  0.40285000  0.24032300  0.79509700  1
  C  C15  1  0.75967700  0.59715000  0.70490300  1
  C  C16  1  0.59715000  0.75967700  0.20490300  1
  C  C17  1  0.24032300  0.40285000  0.29509700  1
  C  C18  1  0.66864900  0.12269100  0.12176900  1
  C  C19  1  0.87730900  0.33135100  0.37823100  1
  C  C20  1  0.33135100  0.87730900  0.87823100  1
  C  C21  1  0.12269100  0.66864900  0.62176900  1
