# generated using pymatgen
data_CuNi3C5
_symmetry_space_group_name_H-M   'P 1'
_cell_length_a   6.44216000
_cell_length_b   8.51941851
_cell_length_c   8.53956197
_cell_angle_alpha   119.92200125
_cell_angle_beta   90.00000000
_cell_angle_gamma   90.00000000
_symmetry_Int_Tables_number   1
_chemical_formula_structural   CuNi3C5
_chemical_formula_sum   'Cu2 Ni6 C10'
_cell_volume   406.20801736
_cell_formula_units_Z   2
loop_
 _symmetry_equiv_pos_site_id
 _symmetry_equiv_pos_as_xyz
  1  'x, y, z'
loop_
 _atom_site_type_symbol
 _atom_site_label
 _atom_site_symmetry_multiplicity
 _atom_site_fract_x
 _atom_site_fract_y
 _atom_site_fract_z
 _atom_site_occupancy
  C  C0  1  0.50001700  0.33314500  0.66587600  1
  C  C1  1  0.50001700  0.66727000  0.33412400  1
  C  C2  1  0.00001700  0.66685500  0.33412400  1
  C  C3  1  0.00001700  0.33273000  0.66587600  1
  C  C4  1  0.75018600  0.22084900  0.00000000  1
  C  C5  1  0.74987700  0.77813800  0.77743600  1
  C  C6  1  0.74987700  0.00070200  0.22256400  1
  C  C7  1  0.25018600  0.77915100  0.00000000  1
  C  C8  1  0.24987700  0.22186200  0.22256400  1
  C  C9  1  0.24987700  0.99929800  0.77743600  1
  Ni  Ni10  1  0.74930500  0.59201500  0.00000000  1
  Ni  Ni11  1  0.75036000  0.40714800  0.40724400  1
  Ni  Ni12  1  0.75036000  0.99990400  0.59275600  1
  Ni  Ni13  1  0.24930500  0.40798500  0.00000000  1
  Ni  Ni14  1  0.25036000  0.59285200  0.59275600  1
  Ni  Ni15  1  0.25036000  0.00009600  0.40724400  1
  Cu  Cu16  1  0.50000000  0.00019100  0.00000000  1
  Cu  Cu17  1  0.00000000  0.99980900  0.00000000  1
