# generated using pymatgen
data_Cu2NiC40
_symmetry_space_group_name_H-M   'P 1'
_cell_length_a   7.07513999
_cell_length_b   7.44879987
_cell_length_c   9.31131167
_cell_angle_alpha   105.17496611
_cell_angle_beta   103.90520947
_cell_angle_gamma   97.80412534
_symmetry_Int_Tables_number   1
_chemical_formula_structural   Cu2NiC40
_chemical_formula_sum   'Cu2 Ni1 C40'
_cell_volume   449.26960367
_cell_formula_units_Z   1
loop_
 _symmetry_equiv_pos_site_id
 _symmetry_equiv_pos_as_xyz
  1  'x, y, z'
loop_
 _atom_site_type_symbol
 _atom_site_label
 _atom_site_symmetry_multiplicity
 _atom_site_fract_x
 _atom_site_fract_y
 _atom_site_fract_z
 _atom_site_occupancy
  Ni  Ni0  1  0.00000000  0.00000000  0.50000000  1
  Cu  Cu1  1  0.00000000  0.00000000  0.00000000  1
  Cu  Cu2  1  0.00000000  0.50000000  0.50000000  1
  C  C3  1  0.24609897  0.63243656  0.91337171  1
  C  C4  1  0.75390103  0.36756344  0.08662829  1
  C  C5  1  0.35761706  0.42260519  0.14849759  1
  C  C6  1  0.64238294  0.57739481  0.85150241  1
  C  C7  1  0.08686350  0.19823802  0.82585109  1
  C  C8  1  0.91313650  0.80176198  0.17414891  1
  C  C9  1  0.22260607  0.04514537  0.81248166  1
  C  C10  1  0.77739393  0.95485463  0.18751834  1
  C  C11  1  0.32694342  0.81276550  0.59306601  1
  C  C12  1  0.67305658  0.18723450  0.40693399  1
  C  C13  1  0.31112662  0.67719326  0.42210187  1
  C  C14  1  0.68887338  0.32280674  0.57789813  1
  C  C15  1  0.21097942  0.28423165  0.35616201  1
  C  C16  1  0.78902058  0.71576835  0.64383799  1
  C  C17  1  0.31176930  0.34627715  0.54305624  1
  C  C18  1  0.68823070  0.65372285  0.45694376  1
  C  C19  1  0.45264190  0.12916152  0.71499390  1
  C  C20  1  0.54735810  0.87083848  0.28500610  1
  C  C21  1  0.56132561  0.04193994  0.83721130  1
  C  C22  1  0.43867439  0.95806006  0.16278870  1
  C  C23  1  0.21891757  0.47291371  0.00334627  1
  C  C24  1  0.78108243  0.52708629  0.99665373  1
  C  C25  1  0.48266267  0.66661852  0.93132954  1
  C  C26  1  0.51733733  0.33338148  0.06867046  1
  C  C27  1  0.21706602  0.81918380  0.00900129  1
  C  C28  1  0.78293398  0.18081620  0.99099871  1
  C  C29  1  0.12338605  0.54227174  0.74865239  1
  C  C30  1  0.87661395  0.45772826  0.25134761  1
  C  C31  1  0.45515696  0.59902039  0.28477362  1
  C  C32  1  0.54484304  0.40097961  0.71522638  1
  C  C33  1  0.23096408  0.25862709  0.17203141  1
  C  C34  1  0.76903592  0.74137291  0.82796859  1
  C  C35  1  0.08713374  0.06497746  0.82165336  1
  C  C36  1  0.91286626  0.93502254  0.17834664  1
  C  C37  1  0.23630398  0.71252210  0.49896594  1
  C  C38  1  0.76369602  0.28747790  0.50103406  1
  C  C39  1  0.18345645  0.30337642  0.45942399  1
  C  C40  1  0.81654355  0.69662358  0.54057601  1
  C  C41  1  0.43509120  0.01772179  0.75293502  1
  C  C42  1  0.56490880  0.98227821  0.24706398  1
