# generated using pymatgen
data_CuNiC5
_symmetry_space_group_name_H-M   'P 1'
_cell_length_a   5.67621600
_cell_length_b   10.34510700
_cell_length_c   13.27454300
_cell_angle_alpha   90.00000000
_cell_angle_beta   90.00000000
_cell_angle_gamma   90.00000000
_symmetry_Int_Tables_number   1
_chemical_formula_structural   CuNiC5
_chemical_formula_sum   'Cu8 Ni8 C40'
_cell_volume   779.49526087
_cell_formula_units_Z   8
loop_
 _symmetry_equiv_pos_site_id
 _symmetry_equiv_pos_as_xyz
  1  'x, y, z'
loop_
 _atom_site_type_symbol
 _atom_site_label
 _atom_site_symmetry_multiplicity
 _atom_site_fract_x
 _atom_site_fract_y
 _atom_site_fract_z
 _atom_site_occupancy
  Ni  Ni0  1  0.25000000  0.40688300  0.42278000  1
  Ni  Ni1  1  0.75000000  0.59311700  0.57722000  1
  Ni  Ni2  1  0.75000000  0.90688300  0.07722000  1
  Ni  Ni3  1  0.25000000  0.09311700  0.92278000  1
  Ni  Ni4  1  0.25000000  0.68480900  0.20710000  1
  Ni  Ni5  1  0.75000000  0.31519100  0.79290000  1
  Ni  Ni6  1  0.75000000  0.18480900  0.29290000  1
  Ni  Ni7  1  0.25000000  0.81519100  0.70710000  1
  Cu  Cu8  1  0.25000000  0.01261300  0.41772700  1
  Cu  Cu9  1  0.75000000  0.98738700  0.58227300  1
  Cu  Cu10  1  0.75000000  0.51261300  0.08227300  1
  Cu  Cu11  1  0.25000000  0.48738700  0.91772700  1
  Cu  Cu12  1  0.25000000  0.31268600  0.14064900  1
  Cu  Cu13  1  0.75000000  0.68731400  0.85935100  1
  Cu  Cu14  1  0.75000000  0.81268600  0.35935100  1
  Cu  Cu15  1  0.25000000  0.18731400  0.64064900  1
  C  C16  1  0.25000000  0.73433300  0.46071000  1
  C  C17  1  0.75000000  0.26566700  0.53929000  1
  C  C18  1  0.75000000  0.23433300  0.03929000  1
  C  C19  1  0.25000000  0.76566700  0.96071000  1
  C  C20  1  0.25000000  0.03194900  0.19512400  1
  C  C21  1  0.75000000  0.96805100  0.80487600  1
  C  C22  1  0.75000000  0.53194900  0.30487600  1
  C  C23  1  0.25000000  0.46805100  0.69512400  1
  C  C24  1  0.25000000  0.18556300  0.29759600  1
  C  C25  1  0.75000000  0.81443700  0.70240400  1
  C  C26  1  0.75000000  0.68556300  0.20240400  1
  C  C27  1  0.25000000  0.31443700  0.79759600  1
  C  C28  1  0.50918400  0.44238100  0.21278800  1
  C  C29  1  0.49081600  0.55761900  0.78721200  1
  C  C30  1  0.49081600  0.94238100  0.28721200  1
  C  C31  1  0.00918400  0.55761900  0.78721200  1
  C  C32  1  0.50918400  0.05761900  0.71278800  1
  C  C33  1  0.99081600  0.44238100  0.21278800  1
  C  C34  1  0.99081600  0.05761900  0.71278800  1
  C  C35  1  0.00918400  0.94238100  0.28721200  1
  C  C36  1  0.01138000  0.14165600  0.11405100  1
  C  C37  1  0.98862000  0.85834400  0.88594900  1
  C  C38  1  0.98862000  0.64165600  0.38594900  1
  C  C39  1  0.51138000  0.85834400  0.88594900  1
  C  C40  1  0.01138000  0.35834400  0.61405100  1
  C  C41  1  0.48862000  0.14165600  0.11405100  1
  C  C42  1  0.48862000  0.35834400  0.61405100  1
  C  C43  1  0.51138000  0.64165600  0.38594900  1
  C  C44  1  0.50271900  0.36688900  0.00885400  1
  C  C45  1  0.49728100  0.63311100  0.99114600  1
  C  C46  1  0.49728100  0.86688900  0.49114600  1
  C  C47  1  0.00271900  0.63311100  0.99114600  1
  C  C48  1  0.50271900  0.13311100  0.50885400  1
  C  C49  1  0.99728100  0.36688900  0.00885400  1
  C  C50  1  0.99728100  0.13311100  0.50885400  1
  C  C51  1  0.00271900  0.86688900  0.49114600  1
  C  C52  1  0.25000000  0.60964800  0.58841300  1
  C  C53  1  0.75000000  0.39035200  0.41158700  1
  C  C54  1  0.75000000  0.10964800  0.91158700  1
  C  C55  1  0.25000000  0.89035200  0.08841300  1
