# generated using pymatgen
data_Cu2NiC5
_symmetry_space_group_name_H-M   'P 1'
_cell_length_a   5.36279766
_cell_length_b   5.36279766
_cell_length_c   11.45988900
_cell_angle_alpha   90.00000000
_cell_angle_beta   90.00000000
_cell_angle_gamma   140.99913053
_symmetry_Int_Tables_number   1
_chemical_formula_structural   Cu2NiC5
_chemical_formula_sum   'Cu4 Ni2 C10'
_cell_volume   207.41643992
_cell_formula_units_Z   2
loop_
 _symmetry_equiv_pos_site_id
 _symmetry_equiv_pos_as_xyz
  1  'x, y, z'
loop_
 _atom_site_type_symbol
 _atom_site_label
 _atom_site_symmetry_multiplicity
 _atom_site_fract_x
 _atom_site_fract_y
 _atom_site_fract_z
 _atom_site_occupancy
  Ni  Ni0  1  0.09771600  0.90228400  0.75000000  1
  Ni  Ni1  1  0.90228400  0.09771600  0.25000000  1
  Cu  Cu2  1  0.79240100  0.20759800  0.59937500  1
  Cu  Cu3  1  0.20759900  0.79240100  0.40062500  1
  Cu  Cu4  1  0.20759900  0.79240100  0.09937500  1
  Cu  Cu5  1  0.79240100  0.20759800  0.90062500  1
  C  C6  1  0.30040100  0.69959900  0.25000000  1
  C  C7  1  0.69959900  0.30040100  0.75000000  1
  C  C8  1  0.76639000  0.23361000  0.07728400  1
  C  C9  1  0.23361000  0.76639000  0.92271600  1
  C  C10  1  0.23361000  0.76639000  0.57728400  1
  C  C11  1  0.76639000  0.23361000  0.42271600  1
  C  C12  1  0.95622700  0.04377300  0.63044700  1
  C  C13  1  0.04377300  0.95622700  0.36955300  1
  C  C14  1  0.95622700  0.04377300  0.86955300  1
  C  C15  1  0.04377300  0.95622700  0.13044700  1
