# generated using pymatgen
data_Cu(NiC4)5
_symmetry_space_group_name_H-M   'P 1'
_cell_length_a   10.17573011
_cell_length_b   10.17573011
_cell_length_c   10.17573011
_cell_angle_alpha   109.34845848
_cell_angle_beta   109.34845848
_cell_angle_gamma   109.71702492
_symmetry_Int_Tables_number   1
_chemical_formula_structural   Cu(NiC4)5
_chemical_formula_sum   'Cu2 Ni10 C40'
_cell_volume   811.08963203
_cell_formula_units_Z   2
loop_
 _symmetry_equiv_pos_site_id
 _symmetry_equiv_pos_as_xyz
  1  'x, y, z'
loop_
 _atom_site_type_symbol
 _atom_site_label
 _atom_site_symmetry_multiplicity
 _atom_site_fract_x
 _atom_site_fract_y
 _atom_site_fract_z
 _atom_site_occupancy
  Ni  Ni0  1  0.90877700  0.58090300  0.91909100  1
  Ni  Ni1  1  0.23968700  0.65877700  0.82787500  1
  Ni  Ni2  1  0.83090300  0.41181200  0.17212500  1
  Ni  Ni3  1  0.66181200  0.98968700  0.08090900  1
  Ni  Ni4  1  0.34122300  0.16909700  0.58090900  1
  Ni  Ni5  1  0.01031300  0.09122300  0.67212500  1
  Ni  Ni6  1  0.41909700  0.33818800  0.32787500  1
  Ni  Ni7  1  0.58818800  0.76031300  0.41909100  1
  Ni  Ni8  1  0.50000000  0.50000000  0.00000000  1
  Ni  Ni9  1  0.75000000  0.25000000  0.50000000  1
  Cu  Cu10  1  0.25000000  0.75000000  0.50000000  1
  Cu  Cu11  1  0.00000000  0.00000000  0.00000000  1
  C  C12  1  0.69795600  0.11604600  0.77588500  1
  C  C13  1  0.17207100  0.44795600  0.08191000  1
  C  C14  1  0.90983900  0.82792900  0.27588500  1
  C  C15  1  0.88395400  0.65983900  0.58191000  1
  C  C16  1  0.07792900  0.30204400  0.41809000  1
  C  C17  1  0.55204400  0.63395400  0.72411500  1
  C  C18  1  0.34016100  0.92207100  0.22411500  1
  C  C19  1  0.36604600  0.09016100  0.91809000  1
  C  C20  1  0.12160100  0.89504000  0.40112800  1
  C  C21  1  0.97047300  0.87160100  0.72656000  1
  C  C22  1  0.14504000  0.24391300  0.27344000  1
  C  C23  1  0.49391300  0.72047300  0.59887200  1
  C  C24  1  0.12839900  0.85496000  0.09887200  1
  C  C25  1  0.27952700  0.87839900  0.77344000  1
  C  C26  1  0.10496000  0.50608700  0.22656000  1
  C  C27  1  0.75608700  0.02952700  0.90112800  1
  C  C28  1  0.88860600  0.94159000  0.17364700  1
  C  C29  1  0.96495900  0.63860600  0.44701600  1
  C  C30  1  0.19159000  0.51794300  0.55298400  1
  C  C31  1  0.76794300  0.71495900  0.82635300  1
  C  C32  1  0.36139400  0.80841000  0.32635300  1
  C  C33  1  0.28504100  0.11139400  0.05298400  1
  C  C34  1  0.05841000  0.23205700  0.94701600  1
  C  C35  1  0.48205700  0.03504100  0.67364700  1
  C  C36  1  0.79451200  0.61940100  0.12234300  1
  C  C37  1  0.92216900  0.54451200  0.67511000  1
  C  C38  1  0.86940100  0.24705800  0.32489000  1
  C  C39  1  0.49705800  0.67216900  0.87765700  1
  C  C40  1  0.78739500  0.32790700  0.89441100  1
  C  C41  1  0.14298400  0.53739500  0.95948800  1
  C  C42  1  0.57790700  0.18349600  0.04051200  1
  C  C43  1  0.43349600  0.89298400  0.10559000  1
  C  C44  1  0.46260500  0.42209300  0.60558900  1
  C  C45  1  0.10701600  0.21260500  0.54051200  1
  C  C46  1  0.67209300  0.56650400  0.45948800  1
  C  C47  1  0.81650400  0.85701600  0.39441000  1
  C  C48  1  0.75294200  0.07783100  0.62234300  1
  C  C49  1  0.38059900  0.50294200  0.17511000  1
  C  C50  1  0.32783100  0.20548800  0.82489000  1
  C  C51  1  0.45548800  0.13059900  0.37765700  1
