# generated using pymatgen
data_Cu16Ni2C39
_symmetry_space_group_name_H-M   'P 1'
_cell_length_a   13.50404139
_cell_length_b   13.50404139
_cell_length_c   14.75367200
_cell_angle_alpha   90.00000000
_cell_angle_beta   90.00000000
_cell_angle_gamma   120.71052975
_symmetry_Int_Tables_number   1
_chemical_formula_structural   Cu16Ni2C39
_chemical_formula_sum   'Cu32 Ni4 C78'
_cell_volume   2313.15155186
_cell_formula_units_Z   2
loop_
 _symmetry_equiv_pos_site_id
 _symmetry_equiv_pos_as_xyz
  1  'x, y, z'
loop_
 _atom_site_type_symbol
 _atom_site_label
 _atom_site_symmetry_multiplicity
 _atom_site_fract_x
 _atom_site_fract_y
 _atom_site_fract_z
 _atom_site_occupancy
  C  C0  1  0.01408200  0.98591800  0.25000000  1
  C  C1  1  0.98591800  0.01408200  0.75000000  1
  Ni  Ni2  1  0.10070600  0.43424200  0.75000000  1
  Ni  Ni3  1  0.56575800  0.89929400  0.75000000  1
  Ni  Ni4  1  0.89929400  0.56575800  0.25000000  1
  Ni  Ni5  1  0.43424200  0.10070600  0.25000000  1
  Cu  Cu6  1  0.00261500  0.22418500  0.38914500  1
  Cu  Cu7  1  0.76728600  0.76642000  0.39137200  1
  Cu  Cu8  1  0.22997500  0.00243800  0.39250100  1
  Cu  Cu9  1  0.99756200  0.77002500  0.39250100  1
  Cu  Cu10  1  0.77581500  0.99738500  0.38914500  1
  Cu  Cu11  1  0.23358000  0.23271400  0.39137200  1
  Cu  Cu12  1  0.99738500  0.77581500  0.61085500  1
  Cu  Cu13  1  0.23271400  0.23358000  0.60862800  1
  Cu  Cu14  1  0.77002500  0.99756200  0.60749900  1
  Cu  Cu15  1  0.00243800  0.22997500  0.60749900  1
  Cu  Cu16  1  0.22418500  0.00261500  0.61085500  1
  Cu  Cu17  1  0.76642000  0.76728600  0.60862800  1
  Cu  Cu18  1  0.99738500  0.77581500  0.88914500  1
  Cu  Cu19  1  0.23271400  0.23358000  0.89137200  1
  Cu  Cu20  1  0.77002500  0.99756200  0.89250100  1
  Cu  Cu21  1  0.00243800  0.22997500  0.89250100  1
  Cu  Cu22  1  0.22418500  0.00261500  0.88914500  1
  Cu  Cu23  1  0.76642000  0.76728600  0.89137200  1
  Cu  Cu24  1  0.00261500  0.22418500  0.11085500  1
  Cu  Cu25  1  0.76728600  0.76642000  0.10862800  1
  Cu  Cu26  1  0.22997500  0.00243800  0.10749900  1
  Cu  Cu27  1  0.99756200  0.77002500  0.10749900  1
  Cu  Cu28  1  0.77581500  0.99738500  0.11085500  1
  Cu  Cu29  1  0.23358000  0.23271400  0.10862800  1
  Cu  Cu30  1  0.57032200  0.66406600  0.75000000  1
  Cu  Cu31  1  0.32832800  0.90888800  0.75000000  1
  Cu  Cu32  1  0.09111200  0.67167200  0.75000000  1
  Cu  Cu33  1  0.33593400  0.42967800  0.75000000  1
  Cu  Cu34  1  0.42967800  0.33593400  0.25000000  1
  Cu  Cu35  1  0.67167200  0.09111200  0.25000000  1
  Cu  Cu36  1  0.90888800  0.32832800  0.25000000  1
  Cu  Cu37  1  0.66406600  0.57032200  0.25000000  1
  C  C38  1  0.33430300  0.66569700  0.42994900  1
  C  C39  1  0.66569700  0.33430300  0.57005100  1
  C  C40  1  0.66569700  0.33430300  0.92994900  1
  C  C41  1  0.33430300  0.66569700  0.07005100  1
  C  C42  1  0.99802800  0.23501300  0.49764300  1
  C  C43  1  0.74895400  0.74895400  0.50000000  1
  C  C44  1  0.23501300  0.99802800  0.50235700  1
  C  C45  1  0.00197200  0.76498700  0.50235700  1
  C  C46  1  0.76498700  0.00197200  0.49764300  1
  C  C47  1  0.25104600  0.25104600  0.50000000  1
  C  C48  1  0.00197200  0.76498700  0.99764300  1
  C  C49  1  0.25104600  0.25104600  0.00000000  1
  C  C50  1  0.76498700  0.00197200  0.00235700  1
  C  C51  1  0.99802800  0.23501300  0.00235700  1
  C  C52  1  0.23501300  0.99802800  0.99764300  1
  C  C53  1  0.74895400  0.74895400  0.00000000  1
  C  C54  1  0.09536500  0.18548500  0.86435100  1
  C  C55  1  0.81451500  0.90463500  0.86435100  1
  C  C56  1  0.08649700  0.91350300  0.85884300  1
  C  C57  1  0.90463500  0.81451500  0.13564900  1
  C  C58  1  0.18548500  0.09536500  0.13564900  1
  C  C59  1  0.91350300  0.08649700  0.14115700  1
  C  C60  1  0.90463500  0.81451500  0.36435100  1
  C  C61  1  0.18548500  0.09536500  0.36435100  1
  C  C62  1  0.91350300  0.08649700  0.35884300  1
  C  C63  1  0.09536500  0.18548500  0.63564900  1
  C  C64  1  0.81451500  0.90463500  0.63564900  1
  C  C65  1  0.08649700  0.91350300  0.64115700  1
  C  C66  1  0.46909900  0.53090100  0.75000000  1
  C  C67  1  0.45003800  0.92017400  0.75000000  1
  C  C68  1  0.07982600  0.54996200  0.75000000  1
  C  C69  1  0.53090100  0.46909900  0.25000000  1
  C  C70  1  0.54996200  0.07982600  0.25000000  1
  C  C71  1  0.92017400  0.45003800  0.25000000  1
  C  C72  1  0.03368800  0.34711900  0.84608800  1
  C  C73  1  0.64964200  0.67874700  0.84035400  1
  C  C74  1  0.31067600  0.97210900  0.83955200  1
  C  C75  1  0.02789100  0.68932400  0.83955200  1
  C  C76  1  0.65288100  0.96631200  0.84608800  1
  C  C77  1  0.32125300  0.35035800  0.84035400  1
  C  C78  1  0.96631200  0.65288100  0.15391200  1
  C  C79  1  0.35035800  0.32125300  0.15964600  1
  C  C80  1  0.68932400  0.02789100  0.16044800  1
  C  C81  1  0.97210900  0.31067600  0.16044800  1
  C  C82  1  0.34711900  0.03368800  0.15391200  1
  C  C83  1  0.67874700  0.64964200  0.15964600  1
  C  C84  1  0.96631200  0.65288100  0.34608800  1
  C  C85  1  0.35035800  0.32125300  0.34035400  1
  C  C86  1  0.68932400  0.02789100  0.33955200  1
  C  C87  1  0.97210900  0.31067600  0.33955200  1
  C  C88  1  0.34711900  0.03368800  0.34608800  1
  C  C89  1  0.67874700  0.64964200  0.34035400  1
  C  C90  1  0.03368800  0.34711900  0.65391200  1
  C  C91  1  0.64964200  0.67874700  0.65964600  1
  C  C92  1  0.31067600  0.97210900  0.66044800  1
  C  C93  1  0.02789100  0.68932400  0.66044800  1
  C  C94  1  0.65288100  0.96631200  0.65391200  1
  C  C95  1  0.32125300  0.35035800  0.65964600  1
  C  C96  1  0.24540100  0.47145300  0.75000000  1
  C  C97  1  0.52854700  0.75459900  0.75000000  1
  C  C98  1  0.22440300  0.77559700  0.75000000  1
  C  C99  1  0.75459900  0.52854700  0.25000000  1
  C  C100  1  0.47145300  0.24540100  0.25000000  1
  C  C101  1  0.77559700  0.22440300  0.25000000  1
  C  C102  1  0.12850100  0.24928100  0.14342900  1
  C  C103  1  0.75071900  0.87149900  0.14342900  1
  C  C104  1  0.11716400  0.88283600  0.14479700  1
  C  C105  1  0.87149900  0.75071900  0.85657100  1
  C  C106  1  0.24928100  0.12850100  0.85657100  1
  C  C107  1  0.88283600  0.11716400  0.85520300  1
  C  C108  1  0.87149900  0.75071900  0.64342900  1
  C  C109  1  0.24928100  0.12850100  0.64342900  1
  C  C110  1  0.88283600  0.11716400  0.64479700  1
  C  C111  1  0.12850100  0.24928100  0.35657100  1
  C  C112  1  0.75071900  0.87149900  0.35657100  1
  C  C113  1  0.11716400  0.88283600  0.35520300  1
