# generated using pymatgen
data_Cu5Ni2C23
_symmetry_space_group_name_H-M   'P 1'
_cell_length_a   5.76641048
_cell_length_b   40.41787755
_cell_length_c   9.39492169
_cell_angle_alpha   96.21548931
_cell_angle_beta   72.08737285
_cell_angle_gamma   89.99913674
_symmetry_Int_Tables_number   1
_chemical_formula_structural   Cu5Ni2C23
_chemical_formula_sum   'Cu20 Ni8 C92'
_cell_volume   2069.96610528
_cell_formula_units_Z   4
loop_
 _symmetry_equiv_pos_site_id
 _symmetry_equiv_pos_as_xyz
  1  'x, y, z'
loop_
 _atom_site_type_symbol
 _atom_site_label
 _atom_site_symmetry_multiplicity
 _atom_site_fract_x
 _atom_site_fract_y
 _atom_site_fract_z
 _atom_site_occupancy
  C  C0  1  0.96288070  0.15001419  0.70000105  1
  C  C1  1  0.16282729  0.35000110  0.29971481  1
  C  C2  1  0.36282646  0.54998209  0.89973380  1
  C  C3  1  0.56293478  0.75000239  0.49998544  1
  C  C4  1  0.76289834  0.94999802  0.10002146  1
  C  C5  1  0.23706522  0.04999761  0.90001456  1
  C  C6  1  0.43717354  0.25001791  0.50026620  1
  C  C7  1  0.63717271  0.44999890  0.10028519  1
  C  C8  1  0.83711930  0.64998581  0.69999895  1
  C  C9  1  0.03710166  0.85000198  0.29997854  1
  C  C10  1  0.30001110  0.30000040  0.90000046  1
  C  C11  1  0.49998890  0.49999960  0.49999954  1
  Ni  Ni12  1  0.49990580  0.00003904  0.50007730  1
  Ni  Ni13  1  0.69980610  0.20008111  0.09987709  1
  Ni  Ni14  1  0.90000000  0.40000000  0.70000000  1
  Ni  Ni15  1  0.10019390  0.59991889  0.30012291  1
  Ni  Ni16  1  0.30009420  0.79996096  0.89992270  1
  Ni  Ni17  1  0.10003012  0.10000973  0.29999824  1
  Ni  Ni18  1  0.69996988  0.69999027  0.10000176  1
  Ni  Ni19  1  0.90000000  0.90000000  0.70000000  1
  Cu  Cu20  1  0.56803578  0.14691390  0.40712775  1
  Cu  Cu21  1  0.76855062  0.34624523  0.00664723  1
  Cu  Cu22  1  0.96853528  0.54623424  0.60665610  1
  Cu  Cu23  1  0.16800519  0.74690272  0.20716541  1
  Cu  Cu24  1  0.36803549  0.94690910  0.80712253  1
  Cu  Cu25  1  0.27509659  0.15310109  0.99284924  1
  Cu  Cu26  1  0.47352287  0.35273335  0.59583735  1
  Cu  Cu27  1  0.67360328  0.55272234  0.19581822  1
  Cu  Cu28  1  0.87518412  0.75308504  0.79284362  1
  Cu  Cu29  1  0.07515242  0.95309587  0.39283330  1
  Cu  Cu30  1  0.63199481  0.05309728  0.19283459  1
  Cu  Cu31  1  0.83146472  0.25376576  0.79334390  1
  Cu  Cu32  1  0.03144938  0.45375477  0.39335277  1
  Cu  Cu33  1  0.23196422  0.65308610  0.99287225  1
  Cu  Cu34  1  0.43196451  0.85309090  0.59287747  1
  Cu  Cu35  1  0.92481588  0.04691496  0.60715638  1
  Cu  Cu36  1  0.12639672  0.24727766  0.20418178  1
  Cu  Cu37  1  0.32647713  0.44726665  0.80416265  1
  Cu  Cu38  1  0.52490341  0.64689891  0.40715076  1
  Cu  Cu39  1  0.72484758  0.84690413  0.00716670  1
  C  C40  1  0.66079010  0.16387003  0.23052471  1
  C  C41  1  0.85995312  0.36379417  0.83168080  1
  C  C42  1  0.05999975  0.56376104  0.43170563  1
  C  C43  1  0.26087040  0.76382199  0.03054650  1
  C  C44  1  0.46083560  0.96385163  0.63054966  1
  C  C45  1  0.19139626  0.13616669  0.16943681  1
  C  C46  1  0.38883283  0.33483772  0.77130930  1
  C  C47  1  0.58883918  0.53483519  0.37131096  1
  C  C48  1  0.79137724  0.73615920  0.96944609  1
  C  C49  1  0.99140279  0.93616419  0.56943308  1
  C  C50  1  0.53912960  0.03617801  0.36945350  1
  C  C51  1  0.74000025  0.23623896  0.96829437  1
  C  C52  1  0.94004688  0.43620583  0.56831920  1
  C  C53  1  0.13920990  0.63612997  0.16947529  1
  C  C54  1  0.33916440  0.83614837  0.76945034  1
  C  C55  1  0.00862276  0.06384080  0.43055391  1
  C  C56  1  0.21116082  0.26516481  0.02868904  1
  C  C57  1  0.41116717  0.46516228  0.62869070  1
  C  C58  1  0.60860374  0.66383331  0.23056319  1
  C  C59  1  0.80859721  0.86383581  0.83056692  1
  C  C60  1  0.44384434  0.17858299  0.55312479  1
  C  C61  1  0.64557739  0.37815595  0.15210489  1
  C  C62  1  0.84560832  0.57815698  0.75211207  1
  C  C63  1  0.04386785  0.77858407  0.35313896  1
  C  C64  1  0.24386582  0.97858513  0.95313282  1
  C  C65  1  0.29705054  0.12141700  0.84687816  1
  C  C66  1  0.49688105  0.32154471  0.44772519  1
  C  C67  1  0.69689522  0.52154144  0.04771629  1
  C  C68  1  0.89704591  0.72141265  0.64687359  1
  C  C69  1  0.09706167  0.92141529  0.24686725  1
  C  C70  1  0.75613215  0.02141593  0.04686104  1
  C  C71  1  0.95439168  0.22184302  0.64788793  1
  C  C72  1  0.15442261  0.42184405  0.24789511  1
  C  C73  1  0.35615566  0.62141701  0.84687521  1
  C  C74  1  0.55613418  0.82141487  0.44686718  1
  C  C75  1  0.90295409  0.07858735  0.75312641  1
  C  C76  1  0.10310478  0.27845856  0.35228371  1
  C  C77  1  0.30311895  0.47845529  0.95227481  1
  C  C78  1  0.50294946  0.67858300  0.55312184  1
  C  C79  1  0.70293833  0.87858471  0.15313275  1
  C  C80  1  0.83050485  0.12895024  0.44569106  1
  C  C81  1  0.03783151  0.32799789  0.03864861  1
  C  C82  1  0.23783807  0.52799326  0.63863996  1
  C  C83  1  0.43051599  0.72894239  0.24567971  1
  C  C84  1  0.63050977  0.92894724  0.84567886  1
  C  C85  1  0.57621693  0.17105775  0.95436673  1
  C  C86  1  0.77450326  0.37093319  0.55516026  1
  C  C87  1  0.97453311  0.57093173  0.15512534  1
  C  C88  1  0.17627694  0.77104547  0.75426364  1
  C  C89  1  0.37621501  0.97106892  0.35438456  1
  C  C90  1  0.36948401  0.07105761  0.15432029  1
  C  C91  1  0.56216193  0.27200674  0.76136004  1
  C  C92  1  0.76216849  0.47200211  0.36135139  1
  C  C93  1  0.96949515  0.67104976  0.95430894  1
  C  C94  1  0.16949023  0.87105276  0.55432114  1
  C  C95  1  0.62372306  0.02895453  0.64573636  1
  C  C96  1  0.82546689  0.22906827  0.24487466  1
  C  C97  1  0.02549674  0.42906681  0.84483974  1
  C  C98  1  0.22378307  0.62894225  0.44563327  1
  C  C99  1  0.42378499  0.82893108  0.04561544  1
  C  C100  1  0.33228322  0.11650133  0.41167411  1
  C  C101  1  0.52773199  0.31655217  0.00754685  1
  C  C102  1  0.72771564  0.51654846  0.60753794  1
  C  C103  1  0.93226503  0.71649566  0.21164396  1
  C  C104  1  0.13228815  0.91649784  0.81165372  1
  C  C105  1  0.04387804  0.18351411  0.98835675  1
  C  C106  1  0.24463128  0.38333332  0.58896631  1
  C  C107  1  0.44473468  0.58332141  0.18894504  1
  C  C108  1  0.64403741  0.78349542  0.78828860  1
  C  C109  1  0.84392514  0.98351038  0.38836739  1
  C  C110  1  0.86773497  0.08350434  0.18835604  1
  C  C111  1  0.07228436  0.28345154  0.79246206  1
  C  C112  1  0.27226801  0.48344783  0.39245315  1
  C  C113  1  0.46771678  0.68349867  0.98832589  1
  C  C114  1  0.66771185  0.88350216  0.58834628  1
  C  C115  1  0.15596259  0.01650458  0.61171140  1
  C  C116  1  0.35526532  0.21667859  0.21105496  1
  C  C117  1  0.55536872  0.41666668  0.81103369  1
  C  C118  1  0.75612196  0.61648589  0.41164325  1
  C  C119  1  0.95607486  0.81648962  0.01163261  1
