# generated using pymatgen
data_Cu3NiC6
_symmetry_space_group_name_H-M   'P 1'
_cell_length_a   3.95477600
_cell_length_b   11.03068100
_cell_length_c   11.24381317
_cell_angle_alpha   71.17422055
_cell_angle_beta   90.00000000
_cell_angle_gamma   90.00000000
_symmetry_Int_Tables_number   1
_chemical_formula_structural   Cu3NiC6
_chemical_formula_sum   'Cu6 Ni2 C12'
_cell_volume   464.25903610
_cell_formula_units_Z   2
loop_
 _symmetry_equiv_pos_site_id
 _symmetry_equiv_pos_as_xyz
  1  'x, y, z'
loop_
 _atom_site_type_symbol
 _atom_site_label
 _atom_site_symmetry_multiplicity
 _atom_site_fract_x
 _atom_site_fract_y
 _atom_site_fract_z
 _atom_site_occupancy
  Ni  Ni0  1  0.75000000  0.55009200  0.80517900  1
  Ni  Ni1  1  0.25000000  0.44990800  0.19482100  1
  Cu  Cu2  1  0.75000000  0.17972400  0.99979900  1
  Cu  Cu3  1  0.25000000  0.82027600  0.00020100  1
  Cu  Cu4  1  0.75000000  0.94313200  0.66635900  1
  Cu  Cu5  1  0.25000000  0.05686800  0.33364100  1
  Cu  Cu6  1  0.75000000  0.66025300  0.41372500  1
  Cu  Cu7  1  0.25000000  0.33974700  0.58627500  1
  C  C8  1  0.75000000  0.97881600  0.88811100  1
  C  C9  1  0.25000000  0.02118400  0.11188900  1
  C  C10  1  0.75000000  0.30333100  0.74960800  1
  C  C11  1  0.25000000  0.69666900  0.25039200  1
  C  C12  1  0.75000000  0.89260100  0.44257600  1
  C  C13  1  0.25000000  0.10739900  0.55742400  1
  C  C14  1  0.75000000  0.41882900  0.40579800  1
  C  C15  1  0.25000000  0.58117100  0.59420200  1
  C  C16  1  0.75000000  0.23238300  0.22997000  1
  C  C17  1  0.25000000  0.76761700  0.77003000  1
  C  C18  1  0.75000000  0.61913400  0.03665200  1
  C  C19  1  0.25000000  0.38086600  0.96334800  1
