# generated using pymatgen
data_Cu3Ni3C
_symmetry_space_group_name_H-M   'P 1'
_cell_length_a   9.09653354
_cell_length_b   9.09653354
_cell_length_c   8.18801400
_cell_angle_alpha   90.00000000
_cell_angle_beta   90.00000000
_cell_angle_gamma   119.99999666
_symmetry_Int_Tables_number   1
_chemical_formula_structural   Cu3Ni3C
_chemical_formula_sum   'Cu18 Ni18 C6'
_cell_volume   586.76077461
_cell_formula_units_Z   6
loop_
 _symmetry_equiv_pos_site_id
 _symmetry_equiv_pos_as_xyz
  1  'x, y, z'
loop_
 _atom_site_type_symbol
 _atom_site_label
 _atom_site_symmetry_multiplicity
 _atom_site_fract_x
 _atom_site_fract_y
 _atom_site_fract_z
 _atom_site_occupancy
  C  C0  1  0.00000000  0.00000000  0.50000000  1
  C  C1  1  0.66666700  0.33333300  0.85555000  1
  C  C2  1  0.33333300  0.66666700  0.14445000  1
  C  C3  1  0.66666700  0.33333300  0.32653000  1
  C  C4  1  0.33333300  0.66666700  0.67347000  1
  C  C5  1  0.00000000  0.00000000  0.00000000  1
  Ni  Ni6  1  0.71514400  0.19123700  0.93822000  1
  Ni  Ni7  1  0.28485600  0.80876300  0.06178000  1
  Ni  Ni8  1  0.47609300  0.28485600  0.93822000  1
  Ni  Ni9  1  0.52390700  0.71514400  0.06178000  1
  Ni  Ni10  1  0.80876300  0.52390700  0.93822000  1
  Ni  Ni11  1  0.19123700  0.47609300  0.06178000  1
  Ni  Ni12  1  0.85873400  0.42505200  0.70053600  1
  Ni  Ni13  1  0.14126600  0.57494800  0.29946400  1
  Ni  Ni14  1  0.56631700  0.14126600  0.70053600  1
  Ni  Ni15  1  0.43368300  0.85873400  0.29946400  1
  Ni  Ni16  1  0.57494800  0.43368300  0.70053600  1
  Ni  Ni17  1  0.42505200  0.56631700  0.29946400  1
  Ni  Ni18  1  0.80832800  0.86264700  0.62175200  1
  Ni  Ni19  1  0.19167200  0.13735300  0.37824800  1
  Ni  Ni20  1  0.05431800  0.19167200  0.62175200  1
  Ni  Ni21  1  0.94568200  0.80832800  0.37824800  1
  Ni  Ni22  1  0.13735300  0.94568200  0.62175200  1
  Ni  Ni23  1  0.86264700  0.05431800  0.37824800  1
  Cu  Cu24  1  0.96850400  0.13647700  0.87866500  1
  Cu  Cu25  1  0.03149600  0.86352300  0.12133500  1
  Cu  Cu26  1  0.16797300  0.03149600  0.87866500  1
  Cu  Cu27  1  0.83202700  0.96850400  0.12133500  1
  Cu  Cu28  1  0.86352300  0.83202700  0.87866500  1
  Cu  Cu29  1  0.13647700  0.16797300  0.12133500  1
  Cu  Cu30  1  0.46484900  0.62732900  0.79215400  1
  Cu  Cu31  1  0.53515100  0.37267100  0.20784600  1
  Cu  Cu32  1  0.16248000  0.53515100  0.79215400  1
  Cu  Cu33  1  0.83752000  0.46484900  0.20784600  1
  Cu  Cu34  1  0.37267100  0.83752000  0.79215400  1
  Cu  Cu35  1  0.62732900  0.16248000  0.20784600  1
  Cu  Cu36  1  0.50372700  0.79804000  0.55096700  1
  Cu  Cu37  1  0.49627300  0.20196000  0.44903300  1
  Cu  Cu38  1  0.29431400  0.49627300  0.55096700  1
  Cu  Cu39  1  0.70568600  0.50372700  0.44903300  1
  Cu  Cu40  1  0.20196000  0.70568600  0.55096700  1
  Cu  Cu41  1  0.79804000  0.29431400  0.44903300  1
