# generated using pymatgen
data_Cu18Ni4C21
_symmetry_space_group_name_H-M   'P 1'
_cell_length_a   13.63230643
_cell_length_b   13.63230643
_cell_length_c   38.41398959
_cell_angle_alpha   90.00000000
_cell_angle_beta   90.00000000
_cell_angle_gamma   92.54424098
_symmetry_Int_Tables_number   1
_chemical_formula_structural   Cu18Ni4C21
_chemical_formula_sum   'Cu72 Ni16 C84'
_cell_volume   7131.81014922
_cell_formula_units_Z   4
loop_
 _symmetry_equiv_pos_site_id
 _symmetry_equiv_pos_as_xyz
  1  'x, y, z'
loop_
 _atom_site_type_symbol
 _atom_site_label
 _atom_site_symmetry_multiplicity
 _atom_site_fract_x
 _atom_site_fract_y
 _atom_site_fract_z
 _atom_site_occupancy
  C  C0  1  0.73057368  0.26942632  0.79689582  1
  C  C1  1  0.26942632  0.73057368  0.20310418  1
  C  C2  1  0.76942632  0.23057368  0.29689582  1
  C  C3  1  0.23057368  0.76942632  0.70310418  1
  C  C4  1  0.41191846  0.94029982  0.87058528  1
  C  C5  1  0.58808154  0.05970018  0.12941472  1
  C  C6  1  0.08808154  0.55970018  0.37058528  1
  C  C7  1  0.55970018  0.08808154  0.62941472  1
  C  C8  1  0.91191846  0.44029982  0.62941472  1
  C  C9  1  0.44029982  0.91191846  0.37058528  1
  C  C10  1  0.94029982  0.41191846  0.12941472  1
  C  C11  1  0.05970018  0.58808154  0.87058528  1
  C  C12  1  0.39235326  0.26753974  0.82912765  1
  C  C13  1  0.60764674  0.73246026  0.17087235  1
  C  C14  1  0.10764674  0.23246026  0.32912765  1
  C  C15  1  0.23246026  0.10764674  0.67087235  1
  C  C16  1  0.89235326  0.76753974  0.67087235  1
  C  C17  1  0.76753974  0.89235326  0.32912765  1
  C  C18  1  0.26753974  0.39235326  0.17087235  1
  C  C19  1  0.73246026  0.60764674  0.82912765  1
  C  C20  1  0.42504423  0.32599162  0.94010768  1
  C  C21  1  0.57495577  0.67400838  0.05989232  1
  C  C22  1  0.07495577  0.17400838  0.44010768  1
  C  C23  1  0.17400838  0.07495577  0.55989232  1
  C  C24  1  0.92504423  0.82599162  0.55989232  1
  C  C25  1  0.82599162  0.92504423  0.44010768  1
  C  C26  1  0.32599162  0.42504423  0.05989232  1
  C  C27  1  0.67400838  0.57495577  0.94010768  1
  C  C28  1  0.74163715  0.93611748  0.82252098  1
  C  C29  1  0.25836285  0.06388252  0.17747902  1
  C  C30  1  0.75836285  0.56388252  0.32252098  1
  C  C31  1  0.56388252  0.75836285  0.67747902  1
  C  C32  1  0.24163715  0.43611748  0.67747902  1
  C  C33  1  0.43611748  0.24163715  0.32252098  1
  C  C34  1  0.93611748  0.74163715  0.17747902  1
  C  C35  1  0.06388252  0.25836285  0.82252098  1
  C  C36  1  0.50205523  0.82547845  0.96776328  1
  C  C37  1  0.49794477  0.17452155  0.03223672  1
  C  C38  1  0.99794477  0.67452155  0.46776328  1
  C  C39  1  0.67452155  0.99794477  0.53223672  1
  C  C40  1  0.00205523  0.32547845  0.53223672  1
  C  C41  1  0.32547845  0.00205523  0.46776328  1
  C  C42  1  0.82547845  0.50205523  0.03223672  1
  C  C43  1  0.17452155  0.49794477  0.96776328  1
  C  C44  1  0.75662510  0.93681934  0.92468619  1
  C  C45  1  0.24337490  0.06318066  0.07531381  1
  C  C46  1  0.74337490  0.56318066  0.42468619  1
  C  C47  1  0.56318066  0.74337490  0.57531381  1
  C  C48  1  0.25662510  0.43681934  0.57531381  1
  C  C49  1  0.43681934  0.25662510  0.42468619  1
  C  C50  1  0.93681934  0.75662510  0.07531381  1
  C  C51  1  0.06318066  0.24337490  0.92468619  1
  C  C52  1  0.22515286  0.01073861  0.96144027  1
  C  C53  1  0.77484714  0.98926139  0.03855973  1
  C  C54  1  0.27484714  0.48926139  0.46144027  1
  C  C55  1  0.48926139  0.27484714  0.53855973  1
  C  C56  1  0.72515286  0.51073861  0.53855973  1
  C  C57  1  0.51073861  0.72515286  0.46144027  1
  C  C58  1  0.01073861  0.22515286  0.03855973  1
  C  C59  1  0.98926139  0.77484714  0.96144027  1
  C  C60  1  0.72904249  0.00803646  0.71912974  1
  C  C61  1  0.27095751  0.99196354  0.28087026  1
  C  C62  1  0.77095751  0.49196354  0.21912974  1
  C  C63  1  0.49196354  0.77095751  0.78087026  1
  C  C64  1  0.22904249  0.50803646  0.78087026  1
  C  C65  1  0.50803646  0.22904249  0.21912974  1
  C  C66  1  0.00803646  0.72904249  0.28087026  1
  C  C67  1  0.99196354  0.27095751  0.71912974  1
  C  C68  1  0.89439961  0.10560039  0.62204377  1
  C  C69  1  0.10560039  0.89439961  0.37795623  1
  C  C70  1  0.60560039  0.39439961  0.12204377  1
  C  C71  1  0.39439961  0.60560039  0.87795623  1
  C  C72  1  0.74358733  0.25641267  0.95797445  1
  C  C73  1  0.25641267  0.74358733  0.04202555  1
  C  C74  1  0.75641267  0.24358733  0.45797445  1
  C  C75  1  0.24358733  0.75641267  0.54202555  1
  C  C76  1  0.48610030  0.27182292  0.72227298  1
  C  C77  1  0.51389970  0.72817708  0.27772702  1
  C  C78  1  0.01389970  0.22817708  0.22227298  1
  C  C79  1  0.22817708  0.01389970  0.77772702  1
  C  C80  1  0.98610030  0.77182292  0.77772702  1
  C  C81  1  0.77182292  0.98610030  0.22227298  1
  C  C82  1  0.27182292  0.48610030  0.27772702  1
  C  C83  1  0.72817708  0.51389970  0.72227298  1
  Ni  Ni84  1  0.99183699  0.00816301  0.85410886  1
  Ni  Ni85  1  0.00816301  0.99183699  0.14589114  1
  Ni  Ni86  1  0.50816301  0.49183699  0.35410886  1
  Ni  Ni87  1  0.49183699  0.50816301  0.64589114  1
  Ni  Ni88  1  0.60857066  0.15048885  0.87308681  1
  Ni  Ni89  1  0.39142934  0.84951115  0.12691319  1
  Ni  Ni90  1  0.89142934  0.34951115  0.37308681  1
  Ni  Ni91  1  0.34951115  0.89142934  0.62691319  1
  Ni  Ni92  1  0.10857066  0.65048885  0.62691319  1
  Ni  Ni93  1  0.65048885  0.10857066  0.37308681  1
  Ni  Ni94  1  0.15048885  0.60857066  0.12691319  1
  Ni  Ni95  1  0.84951115  0.39142934  0.87308681  1
  Ni  Ni96  1  0.64853304  0.35146696  0.62672055  1
  Ni  Ni97  1  0.35146696  0.64853304  0.37327945  1
  Ni  Ni98  1  0.85146696  0.14853304  0.12672055  1
  Ni  Ni99  1  0.14853304  0.85146696  0.87327945  1
  Cu  Cu100  1  0.59583256  0.77075703  0.87855273  1
  Cu  Cu101  1  0.40416744  0.22924297  0.12144727  1
  Cu  Cu102  1  0.90416744  0.72924297  0.37855273  1
  Cu  Cu103  1  0.72924297  0.90416744  0.62144727  1
  Cu  Cu104  1  0.09583256  0.27075703  0.62144727  1
  Cu  Cu105  1  0.27075703  0.09583256  0.37855273  1
  Cu  Cu106  1  0.77075703  0.59583256  0.12144727  1
  Cu  Cu107  1  0.22924297  0.40416744  0.87855273  1
  Cu  Cu108  1  0.53228704  0.07976589  0.94432567  1
  Cu  Cu109  1  0.46771296  0.92023411  0.05567433  1
  Cu  Cu110  1  0.96771296  0.42023411  0.44432567  1
  Cu  Cu111  1  0.42023411  0.96771296  0.55567433  1
  Cu  Cu112  1  0.03228704  0.57976589  0.55567433  1
  Cu  Cu113  1  0.57976589  0.03228704  0.44432567  1
  Cu  Cu114  1  0.07976589  0.53228704  0.05567433  1
  Cu  Cu115  1  0.92023411  0.46771296  0.94432567  1
  Cu  Cu116  1  0.74858488  0.25141512  0.56087419  1
  Cu  Cu117  1  0.25141512  0.74858488  0.43912581  1
  Cu  Cu118  1  0.75141512  0.24858488  0.06087419  1
  Cu  Cu119  1  0.24858488  0.75141512  0.93912581  1
  Cu  Cu120  1  0.53294622  0.06867757  0.79764880  1
  Cu  Cu121  1  0.46705378  0.93132243  0.20235120  1
  Cu  Cu122  1  0.96705378  0.43132243  0.29764880  1
  Cu  Cu123  1  0.43132243  0.96705378  0.70235120  1
  Cu  Cu124  1  0.03294622  0.56867757  0.70235120  1
  Cu  Cu125  1  0.56867757  0.03294622  0.29764880  1
  Cu  Cu126  1  0.06867757  0.53294622  0.20235120  1
  Cu  Cu127  1  0.93132243  0.46705378  0.79764880  1
  Cu  Cu128  1  0.92503527  0.07496473  0.51527971  1
  Cu  Cu129  1  0.07496473  0.92503527  0.48472029  1
  Cu  Cu130  1  0.57496473  0.42503527  0.01527971  1
  Cu  Cu131  1  0.42503527  0.57496473  0.98472029  1
  Cu  Cu132  1  0.74505677  0.25494323  0.69030463  1
  Cu  Cu133  1  0.25494323  0.74505677  0.30969537  1
  Cu  Cu134  1  0.75494323  0.24505677  0.19030463  1
  Cu  Cu135  1  0.24505677  0.75494323  0.80969537  1
  Cu  Cu136  1  0.20007980  0.07814285  0.87065750  1
  Cu  Cu137  1  0.79992020  0.92185715  0.12934250  1
  Cu  Cu138  1  0.29992020  0.42185715  0.37065750  1
  Cu  Cu139  1  0.42185715  0.29992020  0.62934250  1
  Cu  Cu140  1  0.70007980  0.57814285  0.62934250  1
  Cu  Cu141  1  0.57814285  0.70007980  0.37065750  1
  Cu  Cu142  1  0.07814285  0.20007980  0.12934250  1
  Cu  Cu143  1  0.92185715  0.79992020  0.87065750  1
  Cu  Cu144  1  0.84031996  0.15968004  0.87582028  1
  Cu  Cu145  1  0.15968004  0.84031996  0.12417972  1
  Cu  Cu146  1  0.65968004  0.34031996  0.37582028  1
  Cu  Cu147  1  0.34031996  0.65968004  0.62417972  1
  Cu  Cu148  1  0.52646859  0.47353141  0.79047714  1
  Cu  Cu149  1  0.47353141  0.52646859  0.20952286  1
  Cu  Cu150  1  0.97353141  0.02646859  0.29047714  1
  Cu  Cu151  1  0.02646859  0.97353141  0.70952286  1
  Cu  Cu152  1  0.93650052  0.06349948  0.77732837  1
  Cu  Cu153  1  0.06349948  0.93650052  0.22267163  1
  Cu  Cu154  1  0.56349948  0.43650052  0.27732837  1
  Cu  Cu155  1  0.43650052  0.56349948  0.72267163  1
  Cu  Cu156  1  0.73768428  0.76231572  0.75000000  1
  Cu  Cu157  1  0.26231572  0.23768428  0.25000000  1
  Cu  Cu158  1  0.76231572  0.73768428  0.25000000  1
  Cu  Cu159  1  0.23768428  0.26231572  0.75000000  1
  Cu  Cu160  1  0.95226299  0.04773701  0.96877289  1
  Cu  Cu161  1  0.04773701  0.95226299  0.03122711  1
  Cu  Cu162  1  0.54773701  0.45226299  0.46877289  1
  Cu  Cu163  1  0.45226299  0.54773701  0.53122711  1
  Cu  Cu164  1  0.75360794  0.75360794  -0.00000000  1
  Cu  Cu165  1  0.24639206  0.24639206  -0.00000000  1
  Cu  Cu166  1  0.74639206  0.74639206  0.50000000  1
  Cu  Cu167  1  0.25360794  0.25360794  0.50000000  1
  Cu  Cu168  1  0.61714248  0.38285752  0.87531055  1
  Cu  Cu169  1  0.38285752  0.61714248  0.12468945  1
  Cu  Cu170  1  0.88285752  0.11714248  0.37531055  1
  Cu  Cu171  1  0.11714248  0.88285752  0.62468945  1
