# generated using pymatgen
data_Cu7NiC29
_symmetry_space_group_name_H-M   'P 1'
_cell_length_a   11.23200031
_cell_length_b   15.56268459
_cell_length_c   11.18458610
_cell_angle_alpha   90.12994566
_cell_angle_beta   91.24131276
_cell_angle_gamma   90.38777306
_symmetry_Int_Tables_number   1
_chemical_formula_structural   Cu7NiC29
_chemical_formula_sum   'Cu28 Ni4 C116'
_cell_volume   1954.55725056
_cell_formula_units_Z   4
loop_
 _symmetry_equiv_pos_site_id
 _symmetry_equiv_pos_as_xyz
  1  'x, y, z'
loop_
 _atom_site_type_symbol
 _atom_site_label
 _atom_site_symmetry_multiplicity
 _atom_site_fract_x
 _atom_site_fract_y
 _atom_site_fract_z
 _atom_site_occupancy
  Ni  Ni0  1  0.98140030  0.12417867  0.52648508  1
  Ni  Ni1  1  0.50989680  0.38733138  0.99097582  1
  Ni  Ni2  1  0.24596714  0.38553960  0.22735308  1
  Ni  Ni3  1  0.22755911  0.12179410  0.21823356  1
  Cu  Cu4  1  0.97645101  0.11748069  0.01956595  1
  Cu  Cu5  1  0.99441191  0.62001559  0.52515540  1
  Cu  Cu6  1  0.98970990  0.61834237  0.00145857  1
  Cu  Cu7  1  0.54209090  0.12091404  0.48052305  1
  Cu  Cu8  1  0.54527238  0.12327753  0.98363897  1
  Cu  Cu9  1  0.53440288  0.62905854  0.51385904  1
  Cu  Cu10  1  0.54412705  0.62228809  0.97112680  1
  Cu  Cu11  1  0.49314366  0.37684100  0.52337415  1
  Cu  Cu12  1  0.53664859  0.85721826  0.97764353  1
  Cu  Cu13  1  0.48824797  0.86393584  0.50143001  1
  Cu  Cu14  1  0.96327260  0.38852797  0.00810579  1
  Cu  Cu15  1  0.95335348  0.38756372  0.51117880  1
  Cu  Cu16  1  0.95557520  0.87632266  0.99725470  1
  Cu  Cu17  1  0.96281405  0.86774168  0.51573742  1
  Cu  Cu18  1  0.23354149  0.40500518  0.75488171  1
  Cu  Cu19  1  0.23809080  0.88112785  0.27622748  1
  Cu  Cu20  1  0.22700932  0.86303011  0.72109839  1
  Cu  Cu21  1  0.74918419  0.37993601  0.25385542  1
  Cu  Cu22  1  0.72531260  0.39305054  0.76253346  1
  Cu  Cu23  1  0.74469818  0.85914032  0.24416395  1
  Cu  Cu24  1  0.71969927  0.86350270  0.73906977  1
  Cu  Cu25  1  0.23014372  0.10897511  0.74088918  1
  Cu  Cu26  1  0.24430965  0.62028726  0.27439974  1
  Cu  Cu27  1  0.26475153  0.62820093  0.71856989  1
  Cu  Cu28  1  0.76203291  0.12106166  0.24719855  1
  Cu  Cu29  1  0.76627404  0.12773111  0.75302053  1
  Cu  Cu30  1  0.76626228  0.61434256  0.25214302  1
  Cu  Cu31  1  0.77069478  0.62541030  0.75099755  1
  C  C32  1  0.98383613  0.99273987  0.26368671  1
  C  C33  1  0.98099170  0.99204821  0.75901826  1
  C  C34  1  0.00171191  0.50054852  0.25835913  1
  C  C35  1  0.23822082  0.96894236  0.02068455  1
  C  C36  1  0.23081070  0.99790461  0.51236562  1
  C  C37  1  0.24973327  0.52826511  0.00584506  1
  C  C38  1  0.26272379  0.24092513  0.93326080  1
  C  C39  1  0.26066484  0.23868958  0.45092657  1
  C  C40  1  0.26445283  0.74387901  0.97766526  1
  C  C41  1  0.98210646  0.25351221  0.26942473  1
  C  C42  1  -0.00076270  0.25908631  0.77904399  1
  C  C43  1  0.99869964  0.74684783  0.27176258  1
  C  C44  1  0.99497655  0.50043497  0.75669913  1
  C  C45  1  0.50338607  0.98605158  0.22144058  1
  C  C46  1  0.50284813  0.99765549  0.72355339  1
  C  C47  1  0.50734034  0.49593893  0.24894651  1
  C  C48  1  0.49150705  0.50378618  0.74807678  1
  C  C49  1  0.23101547  0.49314901  0.50826897  1
  C  C50  1  0.74258708  0.99887710  0.98868330  1
  C  C51  1  0.73943223  0.99576376  0.48657883  1
  C  C52  1  0.75223305  0.50348233  0.00333338  1
  C  C53  1  0.73815045  0.50021066  0.50606348  1
  C  C54  1  0.24384901  0.74559635  0.49283381  1
  C  C55  1  0.74793117  0.25072882  0.00583883  1
  C  C56  1  0.74093862  0.25006995  0.50358953  1
  C  C57  1  0.75990790  0.74738819  0.99698968  1
  C  C58  1  0.74878324  0.74856756  0.50148928  1
  C  C59  1  0.99992798  0.75102626  0.75198444  1
  C  C60  1  0.51023738  0.25791379  0.26200791  1
  C  C61  1  0.50886714  0.24837563  0.75484882  1
  C  C62  1  0.51434492  0.75049785  0.26309269  1
  C  C63  1  0.49917337  0.74811527  0.74371976  1
  C  C64  1  0.09735638  0.77001151  0.60508472  1
  C  C65  1  0.56833592  0.24947307  0.09935787  1
  C  C66  1  0.56856830  0.24795098  0.59070978  1
  C  C67  1  0.60674423  0.76268964  0.11898694  1
  C  C68  1  0.60510072  0.76382150  0.59682014  1
  C  C69  1  0.38734709  0.19140681  0.36736781  1
  C  C70  1  0.39071760  0.18219409  0.86577584  1
  C  C71  1  0.40836932  0.69496676  0.36869027  1
  C  C72  1  0.41136222  0.73425701  0.92491653  1
  C  C73  1  0.91198677  0.24764355  0.40822409  1
  C  C74  1  0.92576385  0.24119694  0.91635323  1
  C  C75  1  0.91058476  0.72905703  0.40089040  1
  C  C76  1  0.91571132  0.73869570  0.90140904  1
  C  C77  1  0.15796821  0.24909901  0.32122200  1
  C  C78  1  0.17964012  0.25596643  0.78864830  1
  C  C79  1  0.16407577  0.75007064  0.31335770  1
  C  C80  1  0.17631703  0.74241998  0.84464672  1
  C  C81  1  0.65745831  0.22649351  0.35020921  1
  C  C82  1  0.66173305  0.23412171  0.85315487  1
  C  C83  1  0.66305668  0.72469643  0.34951183  1
  C  C84  1  0.64449320  0.73114627  0.84939094  1
  C  C85  1  0.35667248  0.76060896  0.64115809  1
  C  C86  1  0.85458672  0.26702467  0.15683550  1
  C  C87  1  0.88821589  0.26352616  0.65367184  1
  C  C88  1  0.89079347  0.77535199  0.14664802  1
  C  C89  1  0.84832373  0.77401585  0.64252355  1
  C  C90  1  0.36049010  0.51749290  0.16232749  1
  C  C91  1  0.34552785  0.49529875  0.64048164  1
  C  C92  1  0.35595906  0.01997477  0.11282689  1
  C  C93  1  0.36027505  0.03013047  0.61484441  1
  C  C94  1  0.86782319  0.48424791  0.14935337  1
  C  C95  1  0.84511123  0.47790254  0.64163543  1
  C  C96  1  0.86126856  0.97556256  0.15821311  1
  C  C97  1  0.85877107  0.97928598  0.65626109  1
  C  C98  1  0.16757712  0.01628733  0.35955847  1
  C  C99  1  0.23121639  0.98726527  0.86276692  1
  C  C100  1  0.15521494  0.49717930  0.34857227  1
  C  C101  1  0.16119320  0.53058368  0.86513168  1
  C  C102  1  0.62553436  0.03041632  0.33483366  1
  C  C103  1  0.62964329  0.03952858  0.83365923  1
  C  C104  1  0.63199843  0.52668292  0.36246767  1
  C  C105  1  0.63859907  0.51532683  0.85608912  1
  C  C106  1  0.39101454  0.51814599  0.91202364  1
  C  C107  1  0.89267040  0.01430882  0.39631069  1
  C  C108  1  0.89810105  0.00960779  0.90130926  1
  C  C109  1  0.90488445  0.51485871  0.38829626  1
  C  C110  1  0.89381835  0.51106290  0.89526998  1
  C  C111  1  0.12021669  0.48024889  0.09380550  1
  C  C112  1  0.09174438  0.47319107  0.61618917  1
  C  C113  1  0.10152025  0.98781364  0.10323372  1
  C  C114  1  0.10803044  0.98320900  0.61460865  1
  C  C115  1  0.61278141  0.50331451  0.11596758  1
  C  C116  1  0.59445394  0.48886190  0.61168098  1
  C  C117  1  0.59676000  0.98488102  0.07302225  1
  C  C118  1  0.59760696  0.98170408  0.57479025  1
  C  C119  1  0.00916072  0.37331521  0.26506011  1
  C  C120  1  0.02059577  0.37691457  0.80396390  1
  C  C121  1  0.01647208  0.87840381  0.30126346  1
  C  C122  1  0.02489969  0.88007623  0.79643821  1
  C  C123  1  0.46471323  0.38140516  0.30834674  1
  C  C124  1  0.48417395  0.37770976  0.76703741  1
  C  C125  1  0.45377971  0.86874341  0.28480502  1
  C  C126  1  0.50068368  0.87260568  0.77403363  1
  C  C127  1  0.48007257  0.62574036  0.72171969  1
  C  C128  1  0.99498423  0.12824865  0.23028086  1
  C  C129  1  0.01675593  0.11819144  0.75226769  1
  C  C130  1  0.01135557  0.62554295  0.22101381  1
  C  C131  1  0.98555068  0.62491859  0.72463609  1
  C  C132  1  0.17435476  0.16952999  0.01903120  1
  C  C133  1  0.20132244  0.15459870  0.54396382  1
  C  C134  1  0.22033259  0.64506703  0.05854687  1
  C  C135  1  0.21518116  0.61867119  0.50891347  1
  C  C136  1  0.75709806  0.12382991  0.03604408  1
  C  C137  1  0.75046907  0.12456633  0.53981519  1
  C  C138  1  0.76414438  0.62660090  0.03509166  1
  C  C139  1  0.75110278  0.62551722  0.54187845  1
  C  C140  1  0.27989785  0.34764727  0.51029504  1
  C  C141  1  0.29236827  0.34252011  0.00564184  1
  C  C142  1  0.27680995  0.88689211  0.48415138  1
  C  C143  1  0.25728838  0.85105177  0.05676539  1
  C  C144  1  0.74374543  0.37623186  0.46464936  1
  C  C145  1  0.74767541  0.37582104  0.97757169  1
  C  C146  1  0.75500521  0.87099024  0.45211656  1
  C  C147  1  0.74764633  0.87476607  0.95694804  1
