# generated using pymatgen
data_Cu4NiC5
_symmetry_space_group_name_H-M   'P 1'
_cell_length_a   8.24394000
_cell_length_b   4.50553000
_cell_length_c   15.04641100
_cell_angle_alpha   90.00000000
_cell_angle_beta   90.00000000
_cell_angle_gamma   90.00000000
_symmetry_Int_Tables_number   1
_chemical_formula_structural   Cu4NiC5
_chemical_formula_sum   'Cu16 Ni4 C20'
_cell_volume   558.87364340
_cell_formula_units_Z   4
loop_
 _symmetry_equiv_pos_site_id
 _symmetry_equiv_pos_as_xyz
  1  'x, y, z'
loop_
 _atom_site_type_symbol
 _atom_site_label
 _atom_site_symmetry_multiplicity
 _atom_site_fract_x
 _atom_site_fract_y
 _atom_site_fract_z
 _atom_site_occupancy
  C  C0  1  0.38505200  0.25000000  0.61516900  1
  C  C1  1  0.11494800  0.25000000  0.11516900  1
  C  C2  1  0.61494800  0.75000000  0.38483100  1
  C  C3  1  0.88505200  0.75000000  0.88483100  1
  C  C4  1  0.73067500  0.25000000  0.54696200  1
  C  C5  1  0.76932500  0.25000000  0.04696200  1
  C  C6  1  0.26932500  0.75000000  0.45303800  1
  C  C7  1  0.23067500  0.75000000  0.95303800  1
  Ni  Ni8  1  0.08385100  0.25000000  0.71442200  1
  Ni  Ni9  1  0.41614900  0.25000000  0.21442200  1
  Ni  Ni10  1  0.91614900  0.75000000  0.28557800  1
  Ni  Ni11  1  0.58385100  0.75000000  0.78557800  1
  Cu  Cu12  1  0.48138000  0.25000000  0.71868400  1
  Cu  Cu13  1  0.01862000  0.25000000  0.21868400  1
  Cu  Cu14  1  0.51862000  0.75000000  0.28131600  1
  Cu  Cu15  1  0.98138000  0.75000000  0.78131600  1
  Cu  Cu16  1  0.20232600  0.25000000  0.98627700  1
  Cu  Cu17  1  0.29767400  0.25000000  0.48627700  1
  Cu  Cu18  1  0.79767400  0.75000000  0.01372300  1
  Cu  Cu19  1  0.70232600  0.75000000  0.51372300  1
  Cu  Cu20  1  0.24109100  0.99236200  0.65255400  1
  Cu  Cu21  1  0.25890900  0.50763800  0.15255400  1
  Cu  Cu22  1  0.75890900  0.49236200  0.34744600  1
  Cu  Cu23  1  0.74109100  0.00763800  0.84744600  1
  Cu  Cu24  1  0.75890900  0.00763800  0.34744600  1
  Cu  Cu25  1  0.74109100  0.49236200  0.84744600  1
  Cu  Cu26  1  0.24109100  0.50763800  0.65255400  1
  Cu  Cu27  1  0.25890900  0.99236200  0.15255400  1
  C  C28  1  0.86804700  0.25000000  0.52186800  1
  C  C29  1  0.63195300  0.25000000  0.02186800  1
  C  C30  1  0.13195300  0.75000000  0.47813200  1
  C  C31  1  0.36804700  0.75000000  0.97813200  1
  C  C32  1  0.63052000  0.00586200  0.56185300  1
  C  C33  1  0.86948000  0.49413800  0.06185300  1
  C  C34  1  0.36948000  0.50586200  0.43814700  1
  C  C35  1  0.13052000  0.99413800  0.93814700  1
  C  C36  1  0.36948000  0.99413800  0.43814700  1
  C  C37  1  0.13052000  0.50586200  0.93814700  1
  C  C38  1  0.63052000  0.49413800  0.56185300  1
  C  C39  1  0.86948000  0.00586200  0.06185300  1
