# generated using pymatgen
data_CuNiC8
_symmetry_space_group_name_H-M   'P 1'
_cell_length_a   5.84690800
_cell_length_b   5.50626000
_cell_length_c   9.60274491
_cell_angle_alpha   55.28679087
_cell_angle_beta   90.00000000
_cell_angle_gamma   90.00000000
_symmetry_Int_Tables_number   1
_chemical_formula_structural   CuNiC8
_chemical_formula_sum   'Cu2 Ni2 C16'
_cell_volume   254.13058409
_cell_formula_units_Z   2
loop_
 _symmetry_equiv_pos_site_id
 _symmetry_equiv_pos_as_xyz
  1  'x, y, z'
loop_
 _atom_site_type_symbol
 _atom_site_label
 _atom_site_symmetry_multiplicity
 _atom_site_fract_x
 _atom_site_fract_y
 _atom_site_fract_z
 _atom_site_occupancy
  C  C0  1  0.43107500  0.23227200  0.74900100  1
  C  C1  1  0.56892500  0.76772800  0.25099900  1
  C  C2  1  0.93107500  0.76772800  0.75099900  1
  C  C3  1  0.06892500  0.23227200  0.24900100  1
  Ni  Ni4  1  0.00000000  0.50000000  0.50000000  1
  Ni  Ni5  1  0.50000000  0.50000000  0.00000000  1
  Cu  Cu6  1  0.00000000  0.00000000  0.00000000  1
  Cu  Cu7  1  0.50000000  0.00000000  0.50000000  1
  C  C8  1  0.03505900  0.35524900  0.75240100  1
  C  C9  1  0.96494100  0.64475100  0.24759900  1
  C  C10  1  0.53505900  0.64475100  0.74759900  1
  C  C11  1  0.46494100  0.35524900  0.25240100  1
  C  C12  1  0.70462100  0.86702700  0.94420900  1
  C  C13  1  0.29537900  0.13297300  0.05579100  1
  C  C14  1  0.20462100  0.13297300  0.55579100  1
  C  C15  1  0.79537900  0.86702700  0.44420900  1
  C  C16  1  0.19506900  0.75167300  0.94680900  1
  C  C17  1  0.80493100  0.24832700  0.05319100  1
  C  C18  1  0.69506900  0.24832700  0.55319100  1
  C  C19  1  0.30493100  0.75167300  0.44680900  1
