# generated using pymatgen
data_Cu(NiC5)2
_symmetry_space_group_name_H-M   'P 1'
_cell_length_a   5.20845030
_cell_length_b   6.07971669
_cell_length_c   10.07894559
_cell_angle_alpha   105.09953587
_cell_angle_beta   91.01042374
_cell_angle_gamma   90.95632000
_symmetry_Int_Tables_number   1
_chemical_formula_structural   Cu(NiC5)2
_chemical_formula_sum   'Cu2 Ni4 C20'
_cell_volume   308.01705133
_cell_formula_units_Z   2
loop_
 _symmetry_equiv_pos_site_id
 _symmetry_equiv_pos_as_xyz
  1  'x, y, z'
loop_
 _atom_site_type_symbol
 _atom_site_label
 _atom_site_symmetry_multiplicity
 _atom_site_fract_x
 _atom_site_fract_y
 _atom_site_fract_z
 _atom_site_occupancy
  C  C0  1  0.75227600  0.41668700  0.54557700  1
  C  C1  1  0.74366800  0.86988600  0.45622600  1
  C  C2  1  0.24692900  0.58401000  0.45260000  1
  C  C3  1  0.25501900  0.13076300  0.54213000  1
  Ni  Ni4  1  0.73955000  0.29117900  0.23716300  1
  Ni  Ni5  1  0.76456400  0.03526700  0.76253200  1
  Ni  Ni6  1  0.25942900  0.70998200  0.76093400  1
  Ni  Ni7  1  0.23441200  0.96579500  0.23557800  1
  Cu  Cu8  1  0.74764500  0.65222000  0.99757100  1
  Cu  Cu9  1  0.25020800  0.34924900  0.00018200  1
  C  C10  1  0.07156300  0.20363200  0.14851800  1
  C  C11  1  0.43550500  0.01284100  0.84806000  1
  C  C12  1  0.92788700  0.79790300  0.84987800  1
  C  C13  1  0.56345400  0.98854200  0.14986100  1
  C  C14  1  0.58920300  0.44285300  0.11757700  1
  C  C15  1  0.92472400  0.28733500  0.87697800  1
  C  C16  1  0.40968100  0.55772200  0.88031800  1
  C  C17  1  0.07314100  0.71530100  0.12019400  1
  C  C18  1  0.45288100  0.29800500  0.37646200  1
  C  C19  1  0.04894200  0.91211900  0.62533900  1
  C  C20  1  0.37617900  0.84364700  0.38291200  1
  C  C21  1  0.12097000  0.44955900  0.61492000  1
  C  C22  1  0.62264700  0.15720700  0.61516700  1
  C  C23  1  0.87853300  0.55124300  0.38317500  1
  C  C24  1  0.95045700  0.08821000  0.37334400  1
  C  C25  1  0.54674800  0.70293100  0.62184800  1
