# generated using pymatgen
data_Cu2Ni6C11
_symmetry_space_group_name_H-M   'P 1'
_cell_length_a   9.84832741
_cell_length_b   9.84832741
_cell_length_c   9.63506654
_cell_angle_alpha   89.92070425
_cell_angle_beta   89.92070425
_cell_angle_gamma   122.22783102
_symmetry_Int_Tables_number   1
_chemical_formula_structural   Cu2Ni6C11
_chemical_formula_sum   'Cu4 Ni12 C22'
_cell_volume   790.52296259
_cell_formula_units_Z   2
loop_
 _symmetry_equiv_pos_site_id
 _symmetry_equiv_pos_as_xyz
  1  'x, y, z'
loop_
 _atom_site_type_symbol
 _atom_site_label
 _atom_site_symmetry_multiplicity
 _atom_site_fract_x
 _atom_site_fract_y
 _atom_site_fract_z
 _atom_site_occupancy
  C  C0  1  0.95110800  0.68165000  0.15728000  1
  C  C1  1  0.31835000  0.04889200  0.34272000  1
  C  C2  1  0.04889200  0.31835000  0.84272000  1
  C  C3  1  0.68165000  0.95110800  0.65728000  1
  C  C4  1  0.74210400  0.45670400  0.55323400  1
  C  C5  1  0.54329600  0.25789600  0.94676600  1
  C  C6  1  0.25789600  0.54329600  0.44676600  1
  C  C7  1  0.45670400  0.74210400  0.05323400  1
  C  C8  1  0.17689900  0.82310100  0.75000000  1
  C  C9  1  0.82310100  0.17689900  0.25000000  1
  C  C10  1  0.11042200  0.75508300  0.54986300  1
  C  C11  1  0.24491700  0.88957800  0.95013700  1
  C  C12  1  0.88957800  0.24491700  0.45013700  1
  C  C13  1  0.75508300  0.11042200  0.04986300  1
  C  C14  1  0.97353400  0.62134300  0.81666100  1
  C  C15  1  0.37865700  0.02646600  0.68333900  1
  C  C16  1  0.02646600  0.37865700  0.18333900  1
  C  C17  1  0.62134300  0.97353400  0.31666100  1
  C  C18  1  0.06021800  0.93978200  0.75000000  1
  C  C19  1  0.93978200  0.06021800  0.25000000  1
  C  C20  1  0.29539500  0.70460500  0.75000000  1
  C  C21  1  0.70460500  0.29539500  0.25000000  1
  Ni  Ni22  1  0.07322200  0.71319100  0.43417300  1
  Ni  Ni23  1  0.28680900  0.92677800  0.06582700  1
  Ni  Ni24  1  0.92677800  0.28680900  0.56582700  1
  Ni  Ni25  1  0.71319100  0.07322200  0.93417300  1
  Ni  Ni26  1  0.85467500  0.50355200  0.85405800  1
  Ni  Ni27  1  0.49644800  0.14532500  0.64594200  1
  Ni  Ni28  1  0.14532500  0.49644800  0.14594200  1
  Ni  Ni29  1  0.50355200  0.85467500  0.35405800  1
  Ni  Ni30  1  0.99177300  0.00822700  0.75000000  1
  Ni  Ni31  1  0.00822700  0.99177300  0.25000000  1
  Ni  Ni32  1  0.36393600  0.63606400  0.75000000  1
  Ni  Ni33  1  0.63606400  0.36393600  0.25000000  1
  Cu  Cu34  1  0.74103000  0.74247700  0.50524800  1
  Cu  Cu35  1  0.25752300  0.25897000  0.99475200  1
  Cu  Cu36  1  0.25897000  0.25752300  0.49475200  1
  Cu  Cu37  1  0.74247700  0.74103000  0.00524800  1
