# generated using pymatgen
data_CuNiC11
_symmetry_space_group_name_H-M   'P 1'
_cell_length_a   6.45644900
_cell_length_b   7.97633700
_cell_length_c   14.29875800
_cell_angle_alpha   90.00000000
_cell_angle_beta   90.00000000
_cell_angle_gamma   90.00000000
_symmetry_Int_Tables_number   1
_chemical_formula_structural   CuNiC11
_chemical_formula_sum   'Cu4 Ni4 C44'
_cell_volume   736.36906505
_cell_formula_units_Z   4
loop_
 _symmetry_equiv_pos_site_id
 _symmetry_equiv_pos_as_xyz
  1  'x, y, z'
loop_
 _atom_site_type_symbol
 _atom_site_label
 _atom_site_symmetry_multiplicity
 _atom_site_fract_x
 _atom_site_fract_y
 _atom_site_fract_z
 _atom_site_occupancy
  Ni  Ni0  1  0.75000000  0.84475600  0.38019300  1
  Ni  Ni1  1  0.25000000  0.15524400  0.61980700  1
  Ni  Ni2  1  0.25000000  0.34475600  0.11980700  1
  Ni  Ni3  1  0.75000000  0.65524400  0.88019300  1
  Cu  Cu4  1  0.50000000  0.50000000  0.50000000  1
  Cu  Cu5  1  0.50000000  0.00000000  0.00000000  1
  Cu  Cu6  1  0.00000000  0.00000000  0.00000000  1
  Cu  Cu7  1  0.00000000  0.50000000  0.50000000  1
  C  C8  1  0.25000000  0.84376200  0.44319900  1
  C  C9  1  0.75000000  0.15623800  0.55680100  1
  C  C10  1  0.75000000  0.34376200  0.05680100  1
  C  C11  1  0.25000000  0.65623800  0.94319900  1
  C  C12  1  0.75000000  0.89319600  0.18653800  1
  C  C13  1  0.25000000  0.10680400  0.81346200  1
  C  C14  1  0.25000000  0.39319600  0.31346200  1
  C  C15  1  0.75000000  0.60680400  0.68653800  1
  C  C16  1  0.05523100  0.10429200  0.87448000  1
  C  C17  1  0.55523100  0.89570800  0.12552000  1
  C  C18  1  0.94476900  0.60429200  0.62552000  1
  C  C19  1  0.44476900  0.39570800  0.37448000  1
  C  C20  1  0.94476900  0.89570800  0.12552000  1
  C  C21  1  0.44476900  0.10429200  0.87448000  1
  C  C22  1  0.05523100  0.39570800  0.37448000  1
  C  C23  1  0.55523100  0.60429200  0.62552000  1
  C  C24  1  0.25000000  0.83536300  0.98239200  1
  C  C25  1  0.75000000  0.16463700  0.01760800  1
  C  C26  1  0.75000000  0.33536300  0.51760800  1
  C  C27  1  0.25000000  0.66463700  0.48239200  1
  C  C28  1  0.75000000  0.65012800  0.44754100  1
  C  C29  1  0.25000000  0.34987200  0.55245900  1
  C  C30  1  0.25000000  0.15012800  0.05245900  1
  C  C31  1  0.75000000  0.84987200  0.94754100  1
  C  C32  1  0.75000000  0.73507200  0.25295800  1
  C  C33  1  0.25000000  0.26492800  0.74704200  1
  C  C34  1  0.25000000  0.23507200  0.24704200  1
  C  C35  1  0.75000000  0.76492800  0.75295800  1
  C  C36  1  0.44318400  0.62994000  0.88105200  1
  C  C37  1  0.94318400  0.37006000  0.11894800  1
  C  C38  1  0.55681600  0.12994000  0.61894800  1
  C  C39  1  0.05681600  0.87006000  0.38105200  1
  C  C40  1  0.55681600  0.37006000  0.11894800  1
  C  C41  1  0.05681600  0.62994000  0.88105200  1
  C  C42  1  0.44318400  0.87006000  0.38105200  1
  C  C43  1  0.94318400  0.12994000  0.61894800  1
  C  C44  1  0.75000000  0.46355200  0.76044600  1
  C  C45  1  0.25000000  0.53644800  0.23955400  1
  C  C46  1  0.25000000  0.96355200  0.73955400  1
  C  C47  1  0.75000000  0.03644800  0.26044600  1
  C  C48  1  0.75000000  0.47570200  0.97809300  1
  C  C49  1  0.25000000  0.52429800  0.02190700  1
  C  C50  1  0.25000000  0.97570200  0.52190700  1
  C  C51  1  0.75000000  0.02429800  0.47809300  1
