# generated using pymatgen
data_CuNiC6
_symmetry_space_group_name_H-M   'P 1'
_cell_length_a   4.13399195
_cell_length_b   15.11031004
_cell_length_c   5.22052690
_cell_angle_alpha   98.47520139
_cell_angle_beta   66.67250812
_cell_angle_gamma   89.99921036
_symmetry_Int_Tables_number   1
_chemical_formula_structural   CuNiC6
_chemical_formula_sum   'Cu4 Ni4 C24'
_cell_volume   295.56550701
_cell_formula_units_Z   4
loop_
 _symmetry_equiv_pos_site_id
 _symmetry_equiv_pos_as_xyz
  1  'x, y, z'
loop_
 _atom_site_type_symbol
 _atom_site_label
 _atom_site_symmetry_multiplicity
 _atom_site_fract_x
 _atom_site_fract_y
 _atom_site_fract_z
 _atom_site_occupancy
  C  C0  1  0.31068100  0.93745000  0.37862100  1
  C  C1  1  0.81085300  0.43730100  0.37828100  1
  C  C2  1  0.06181100  0.18673500  0.87638300  1
  C  C3  1  0.56128200  0.68703200  0.87743300  1
  C  C4  1  0.62599300  0.87547900  0.74802200  1
  C  C5  1  0.12595700  0.37546400  0.74809800  1
  C  C6  1  0.37526100  0.12482900  0.24948900  1
  C  C7  1  0.87544700  0.62498300  0.24910800  1
  Ni  Ni8  1  0.68655300  0.06142800  0.62683200  1
  Ni  Ni9  1  0.18648500  0.56153400  0.62698200  1
  Ni  Ni10  1  0.43946800  0.31407900  0.12110600  1
  Ni  Ni11  1  0.93920100  0.81428600  0.12166800  1
  Cu  Cu12  1  0.49778400  0.49885900  0.00437800  1
  Cu  Cu13  1  0.25011400  0.75017900  0.49970500  1
  Cu  Cu14  1  0.99830500  0.99892100  0.00340000  1
  Cu  Cu15  1  0.75009100  0.24996300  0.49979800  1
  C  C16  1  0.85741600  0.12073700  0.28525200  1
  C  C17  1  0.35748000  0.62098300  0.28511400  1
  C  C18  1  0.61321500  0.36915500  0.77359900  1
  C  C19  1  0.11330100  0.86919500  0.77342300  1
  C  C20  1  0.51612600  0.00560300  0.96774900  1
  C  C21  1  0.01592900  0.50565300  0.96809000  1
  C  C22  1  0.26701200  0.25512200  0.46593800  1
  C  C23  1  0.76701900  0.75529700  0.46591300  1
  C  C24  1  0.81308200  0.93823100  0.37383600  1
  C  C25  1  0.31289900  0.43825800  0.37420000  1
  C  C26  1  0.56595500  0.18827800  0.86810600  1
  C  C27  1  0.06604600  0.68843300  0.86792700  1
  C  C28  1  0.18421200  0.06113400  0.63161000  1
  C  C29  1  0.68401200  0.56122200  0.63200000  1
  C  C30  1  0.93550500  0.31200600  0.12897300  1
  C  C31  1  0.43550400  0.81217200  0.12896700  1
