# generated using pymatgen
data_Cu2Ni5C3
_symmetry_space_group_name_H-M   'P 1'
_cell_length_a   9.13872300
_cell_length_b   13.52786300
_cell_length_c   19.44994300
_cell_angle_alpha   90.00000000
_cell_angle_beta   90.00000000
_cell_angle_gamma   90.00000000
_symmetry_Int_Tables_number   1
_chemical_formula_structural   Cu2Ni5C3
_chemical_formula_sum   'Cu16 Ni40 C24'
_cell_volume   2404.54574201
_cell_formula_units_Z   8
loop_
 _symmetry_equiv_pos_site_id
 _symmetry_equiv_pos_as_xyz
  1  'x, y, z'
loop_
 _atom_site_type_symbol
 _atom_site_label
 _atom_site_symmetry_multiplicity
 _atom_site_fract_x
 _atom_site_fract_y
 _atom_site_fract_z
 _atom_site_occupancy
  C  C0  1  0.97191400  0.38512700  0.25000000  1
  C  C1  1  0.47191400  0.11487300  0.25000000  1
  C  C2  1  0.02808600  0.61487300  0.75000000  1
  C  C3  1  0.52808600  0.88512700  0.75000000  1
  C  C4  1  0.84962700  0.66221600  0.25000000  1
  C  C5  1  0.34962700  0.83778400  0.25000000  1
  C  C6  1  0.15037300  0.33778400  0.75000000  1
  C  C7  1  0.65037300  0.16221600  0.75000000  1
  C  C8  1  0.02396700  0.28577400  0.01671000  1
  C  C9  1  0.52396700  0.21422600  0.48329000  1
  C  C10  1  0.97603300  0.71422600  0.51671000  1
  C  C11  1  0.47603300  0.78577400  0.98329000  1
  C  C12  1  0.97603300  0.71422600  0.98329000  1
  C  C13  1  0.47603300  0.78577400  0.51671000  1
  C  C14  1  0.02396700  0.28577400  0.48329000  1
  C  C15  1  0.52396700  0.21422600  0.01671000  1
  C  C16  1  0.90289500  0.00333400  0.11805100  1
  C  C17  1  0.40289500  0.49666600  0.38194900  1
  C  C18  1  0.09710500  0.99666600  0.61805100  1
  C  C19  1  0.59710500  0.50333400  0.88194900  1
  C  C20  1  0.09710500  0.99666600  0.88194900  1
  C  C21  1  0.59710500  0.50333400  0.61805100  1
  C  C22  1  0.90289500  0.00333400  0.38194900  1
  C  C23  1  0.40289500  0.49666600  0.11805100  1
  Ni  Ni24  1  0.57400700  0.97312900  0.09039400  1
  Ni  Ni25  1  0.07400700  0.52687100  0.40960600  1
  Ni  Ni26  1  0.42599300  0.02687100  0.59039400  1
  Ni  Ni27  1  0.92599300  0.47312900  0.90960600  1
  Ni  Ni28  1  0.42599300  0.02687100  0.90960600  1
  Ni  Ni29  1  0.92599300  0.47312900  0.59039400  1
  Ni  Ni30  1  0.57400700  0.97312900  0.40960600  1
  Ni  Ni31  1  0.07400700  0.52687100  0.09039400  1
  Ni  Ni32  1  0.17529800  0.05787000  0.02225800  1
  Ni  Ni33  1  0.67529800  0.44213000  0.47774200  1
  Ni  Ni34  1  0.82470200  0.94213000  0.52225800  1
  Ni  Ni35  1  0.32470200  0.55787000  0.97774200  1
  Ni  Ni36  1  0.82470200  0.94213000  0.97774200  1
  Ni  Ni37  1  0.32470200  0.55787000  0.52225800  1
  Ni  Ni38  1  0.17529800  0.05787000  0.47774200  1
  Ni  Ni39  1  0.67529800  0.44213000  0.02225800  1
  Ni  Ni40  1  0.74174600  0.24050600  0.15505700  1
  Ni  Ni41  1  0.24174600  0.25949400  0.34494300  1
  Ni  Ni42  1  0.25825400  0.75949400  0.65505700  1
  Ni  Ni43  1  0.75825400  0.74050600  0.84494300  1
  Ni  Ni44  1  0.25825400  0.75949400  0.84494300  1
  Ni  Ni45  1  0.75825400  0.74050600  0.65505700  1
  Ni  Ni46  1  0.74174600  0.24050600  0.34494300  1
  Ni  Ni47  1  0.24174600  0.25949400  0.15505700  1
  Ni  Ni48  1  0.04628700  0.81070500  0.13404300  1
  Ni  Ni49  1  0.54628700  0.68929500  0.36595700  1
  Ni  Ni50  1  0.95371300  0.18929500  0.63404300  1
  Ni  Ni51  1  0.45371300  0.31070500  0.86595700  1
  Ni  Ni52  1  0.95371300  0.18929500  0.86595700  1
  Ni  Ni53  1  0.45371300  0.31070500  0.63404300  1
  Ni  Ni54  1  0.04628700  0.81070500  0.36595700  1
  Ni  Ni55  1  0.54628700  0.68929500  0.13404300  1
  Ni  Ni56  1  0.76403800  0.95418400  0.25000000  1
  Ni  Ni57  1  0.26403800  0.54581600  0.25000000  1
  Ni  Ni58  1  0.23596200  0.04581600  0.75000000  1
  Ni  Ni59  1  0.73596200  0.45418400  0.75000000  1
  Ni  Ni60  1  0.08843500  0.10959700  0.25000000  1
  Ni  Ni61  1  0.58843500  0.39040300  0.25000000  1
  Ni  Ni62  1  0.91156500  0.89040300  0.75000000  1
  Ni  Ni63  1  0.41156500  0.60959700  0.75000000  1
  Cu  Cu64  1  0.94509200  0.52469800  0.15904700  1
  Cu  Cu65  1  0.44509200  0.97530200  0.34095300  1
  Cu  Cu66  1  0.05490800  0.47530200  0.65904700  1
  Cu  Cu67  1  0.55490800  0.02469800  0.84095300  1
  Cu  Cu68  1  0.05490800  0.47530200  0.84095300  1
  Cu  Cu69  1  0.55490800  0.02469800  0.65904700  1
  Cu  Cu70  1  0.94509200  0.52469800  0.34095300  1
  Cu  Cu71  1  0.44509200  0.97530200  0.15904700  1
  Cu  Cu72  1  0.65806200  0.66192600  0.90918700  1
  Cu  Cu73  1  0.15806200  0.83807400  0.59081300  1
  Cu  Cu74  1  0.34193800  0.33807400  0.40918700  1
  Cu  Cu75  1  0.84193800  0.16192600  0.09081300  1
  Cu  Cu76  1  0.34193800  0.33807400  0.09081300  1
  Cu  Cu77  1  0.84193800  0.16192600  0.40918700  1
  Cu  Cu78  1  0.65806200  0.66192600  0.59081300  1
  Cu  Cu79  1  0.15806200  0.83807400  0.90918700  1
