# generated using pymatgen
data_Cu7Ni2C3
_symmetry_space_group_name_H-M   'P 1'
_cell_length_a   11.61718960
_cell_length_b   11.61718960
_cell_length_c   13.88036889
_cell_angle_alpha   73.62731983
_cell_angle_beta   73.62731983
_cell_angle_gamma   67.65303676
_symmetry_Int_Tables_number   1
_chemical_formula_structural   Cu7Ni2C3
_chemical_formula_sum   'Cu28 Ni8 C12'
_cell_volume   1629.80103430
_cell_formula_units_Z   4
loop_
 _symmetry_equiv_pos_site_id
 _symmetry_equiv_pos_as_xyz
  1  'x, y, z'
loop_
 _atom_site_type_symbol
 _atom_site_label
 _atom_site_symmetry_multiplicity
 _atom_site_fract_x
 _atom_site_fract_y
 _atom_site_fract_z
 _atom_site_occupancy
  C  C0  1  0.39553200  0.40623100  0.67247500  1
  C  C1  1  0.59376900  0.60446800  0.82752500  1
  C  C2  1  0.60446800  0.59376900  0.32752500  1
  C  C3  1  0.40623100  0.39553200  0.17247500  1
  C  C4  1  0.89816400  0.89269500  0.67487200  1
  C  C5  1  0.10730500  0.10183600  0.82512800  1
  C  C6  1  0.10183600  0.10730500  0.32512800  1
  C  C7  1  0.89269500  0.89816400  0.17487200  1
  C  C8  1  0.11486100  0.62018100  0.94444800  1
  C  C9  1  0.37981900  0.88513900  0.55555200  1
  C  C10  1  0.88513900  0.37981900  0.05555200  1
  C  C11  1  0.62018100  0.11486100  0.44444800  1
  Ni  Ni12  1  0.75950000  0.70510700  0.50926000  1
  Ni  Ni13  1  0.29489300  0.24050000  0.99074000  1
  Ni  Ni14  1  0.24050000  0.29489300  0.49074000  1
  Ni  Ni15  1  0.70510700  0.75950000  0.00926000  1
  Ni  Ni16  1  0.85895300  0.30933800  0.59519900  1
  Ni  Ni17  1  0.69066200  0.14104700  0.90480100  1
  Ni  Ni18  1  0.14104700  0.69066200  0.40480100  1
  Ni  Ni19  1  0.30933800  0.85895300  0.09519900  1
  Cu  Cu20  1  0.19556200  0.70201000  0.68290500  1
  Cu  Cu21  1  0.29799000  0.80443800  0.81709500  1
  Cu  Cu22  1  0.80443800  0.29799000  0.31709500  1
  Cu  Cu23  1  0.70201000  0.19556200  0.18290500  1
  Cu  Cu24  1  0.09924500  0.60163900  0.61216500  1
  Cu  Cu25  1  0.39836000  0.90075500  0.88783500  1
  Cu  Cu26  1  0.90075500  0.39836000  0.38783500  1
  Cu  Cu27  1  0.60164000  0.09924500  0.11216500  1
  Cu  Cu28  1  0.14550200  0.35750400  0.85966600  1
  Cu  Cu29  1  0.64249600  0.85449800  0.64033400  1
  Cu  Cu30  1  0.85449800  0.64249600  0.14033400  1
  Cu  Cu31  1  0.35750400  0.14550200  0.35966600  1
  Cu  Cu32  1  0.85035300  0.64246100  0.86204500  1
  Cu  Cu33  1  0.35753900  0.14964700  0.63795500  1
  Cu  Cu34  1  0.14964700  0.35753900  0.13795500  1
  Cu  Cu35  1  0.64246100  0.85035300  0.36204500  1
  Cu  Cu36  1  0.59547500  0.57490900  0.58570100  1
  Cu  Cu37  1  0.42509100  0.40452500  0.91429900  1
  Cu  Cu38  1  0.40452500  0.42509100  0.41429900  1
  Cu  Cu39  1  0.57490900  0.59547500  0.08570100  1
  Cu  Cu40  1  0.06060300  0.10036000  0.58884900  1
  Cu  Cu41  1  0.89964000  0.93939700  0.91115100  1
  Cu  Cu42  1  0.93939700  0.89964000  0.41115100  1
  Cu  Cu43  1  0.10036000  0.06060300  0.08884900  1
  Cu  Cu44  1  0.69600600  0.19533300  0.63139700  1
  Cu  Cu45  1  0.80466700  0.30399400  0.86860300  1
  Cu  Cu46  1  0.30399400  0.80466700  0.36860300  1
  Cu  Cu47  1  0.19533300  0.69600600  0.13139700  1
