# generated using pymatgen
data_Cu(NiC16)2
_symmetry_space_group_name_H-M   'P 1'
_cell_length_a   8.73480653
_cell_length_b   8.73480653
_cell_length_c   13.82457558
_cell_angle_alpha   96.14408512
_cell_angle_beta   105.06493026
_cell_angle_gamma   114.78661618
_symmetry_Int_Tables_number   1
_chemical_formula_structural   Cu(NiC16)2
_chemical_formula_sum   'Cu2 Ni4 C64'
_cell_volume   896.18494144
_cell_formula_units_Z   2
loop_
 _symmetry_equiv_pos_site_id
 _symmetry_equiv_pos_as_xyz
  1  'x, y, z'
loop_
 _atom_site_type_symbol
 _atom_site_label
 _atom_site_symmetry_multiplicity
 _atom_site_fract_x
 _atom_site_fract_y
 _atom_site_fract_z
 _atom_site_occupancy
  Ni  Ni0  1  0.00000000  0.50000000  0.00000000  1
  Ni  Ni1  1  0.00000000  0.00000000  0.50000000  1
  Ni  Ni2  1  0.42492100  0.17492100  0.25000000  1
  Ni  Ni3  1  0.57507900  0.82507900  0.75000000  1
  Cu  Cu4  1  0.00065300  0.75065300  0.25000000  1
  Cu  Cu5  1  0.99934700  0.24934700  0.75000000  1
  C  C6  1  0.60356500  0.95897000  0.04178900  1
  C  C7  1  0.41718100  0.56177600  0.45821100  1
  C  C8  1  0.39643500  0.04103000  0.95821100  1
  C  C9  1  0.58281900  0.43822400  0.54178900  1
  C  C10  1  0.62779000  0.70506300  0.20129500  1
  C  C11  1  0.00376700  0.42649500  0.29870500  1
  C  C12  1  0.37221000  0.29493700  0.79870500  1
  C  C13  1  0.99623300  0.57350500  0.70129500  1
  C  C14  1  0.65725100  0.63427200  0.29859200  1
  C  C15  1  0.83568000  0.35865900  0.20140800  1
  C  C16  1  0.34274900  0.36572800  0.70140800  1
  C  C17  1  0.16432000  0.64134100  0.79859200  1
  C  C18  1  0.02660800  0.02523500  0.12647900  1
  C  C19  1  0.39875600  0.90012900  0.37352100  1
  C  C20  1  0.97339200  0.97476500  0.87352100  1
  C  C21  1  0.60124400  0.09987100  0.62647900  1
  C  C22  1  0.11686600  0.92643000  0.08077400  1
  C  C23  1  0.34565500  0.03609200  0.41922600  1
  C  C24  1  0.88313400  0.07357000  0.91922600  1
  C  C25  1  0.65434500  0.96390800  0.58077400  1
  C  C26  1  0.70540800  0.47802200  0.05826200  1
  C  C27  1  0.91976000  0.64714600  0.44173800  1
  C  C28  1  0.29459200  0.52197800  0.94173800  1
  C  C29  1  0.08024000  0.35285400  0.55826200  1
  C  C30  1  0.75593000  0.65307500  0.02651400  1
  C  C31  1  0.12656100  0.72941600  0.47348600  1
  C  C32  1  0.24407000  0.34692500  0.97348600  1
  C  C33  1  0.87343900  0.27058400  0.52651400  1
  C  C34  1  0.22089700  0.57296600  0.21821200  1
  C  C35  1  0.85475400  0.00268500  0.28178800  1
  C  C36  1  0.77910300  0.42703400  0.78178800  1
  C  C37  1  0.14524600  0.99731500  0.71821200  1
  C  C38  1  0.30462600  0.73566500  0.17293600  1
  C  C39  1  0.06272900  0.13169000  0.32706400  1
  C  C40  1  0.69537400  0.26433500  0.82706400  1
  C  C41  1  0.93727100  0.86831000  0.67293600  1
  C  C42  1  0.54896900  0.73481000  0.94737800  1
  C  C43  1  0.28743200  0.60159100  0.55262200  1
  C  C44  1  0.45103100  0.26519000  0.05262200  1
  C  C45  1  0.71256800  0.39840900  0.44737800  1
  C  C46  1  0.85195400  0.15649300  0.06392200  1
  C  C47  1  0.59257200  0.78803300  0.43607800  1
  C  C48  1  0.14804600  0.84350700  0.93607800  1
  C  C49  1  0.40742800  0.21196700  0.56392200  1
  C  C50  1  0.57059900  0.93651300  0.18207500  1
  C  C51  1  0.25443800  0.38852400  0.31792500  1
  C  C52  1  0.42940100  0.06348700  0.81792500  1
  C  C53  1  0.74556200  0.61147600  0.68207500  1
  C  C54  1  0.68493300  0.63800100  0.23405800  1
  C  C55  1  0.90394300  0.45087500  0.26594200  1
  C  C56  1  0.31506700  0.36199900  0.76594200  1
  C  C57  1  0.09605700  0.54912500  0.73405800  1
  C  C58  1  0.10163200  0.96639700  0.14648200  1
  C  C59  1  0.31991500  0.95515000  0.35351800  1
  C  C60  1  0.89836800  0.03360300  0.85351800  1
  C  C61  1  0.68008500  0.04485000  0.64648200  1
  C  C62  1  0.81218200  0.58663500  0.06159300  1
  C  C63  1  0.02504200  0.75058900  0.43840700  1
  C  C64  1  0.18781800  0.41336500  0.93840700  1
  C  C65  1  0.97495800  0.24941100  0.56159300  1
  C  C66  1  0.18913200  0.64827000  0.17693200  1
  C  C67  1  0.97133800  0.01220000  0.32306800  1
  C  C68  1  0.81086800  0.35173000  0.82306800  1
  C  C69  1  0.02866200  0.98780000  0.67693200  1
