# generated using pymatgen
data_Cu5Ni2C25
_symmetry_space_group_name_H-M   'P 1'
_cell_length_a   5.08366600
_cell_length_b   5.89114957
_cell_length_c   10.09419816
_cell_angle_alpha   88.84453635
_cell_angle_beta   99.76659611
_cell_angle_gamma   107.65282792
_symmetry_Int_Tables_number   1
_chemical_formula_structural   Cu5Ni2C25
_chemical_formula_sum   'Cu5 Ni2 C25'
_cell_volume   283.73972663
_cell_formula_units_Z   1
loop_
 _symmetry_equiv_pos_site_id
 _symmetry_equiv_pos_as_xyz
  1  'x, y, z'
loop_
 _atom_site_type_symbol
 _atom_site_label
 _atom_site_symmetry_multiplicity
 _atom_site_fract_x
 _atom_site_fract_y
 _atom_site_fract_z
 _atom_site_occupancy
  C  C0  1  0.99032400  0.62072900  0.37075300  1
  C  C1  1  0.49674400  0.25369500  0.75439400  1
  C  C2  1  0.00967600  0.37927100  0.62924700  1
  C  C3  1  0.50000000  0.00000000  0.00000000  1
  C  C4  1  0.00830500  0.12465700  0.87944400  1
  C  C5  1  0.50325600  0.74630500  0.24560600  1
  C  C6  1  0.99169500  0.87534300  0.12055600  1
  C  C7  1  0.50000000  0.50000000  0.50000000  1
  C  C8  1  0.50000000  0.50000000  0.00000000  1
  Ni  Ni9  1  0.99959500  0.37500500  0.12358600  1
  Ni  Ni10  1  0.00040500  0.62499500  0.87641400  1
  Cu  Cu11  1  0.50000000  0.00000000  0.50000000  1
  Cu  Cu12  1  0.49850000  0.25106900  0.24697200  1
  Cu  Cu13  1  0.00279700  0.87411000  0.62661300  1
  Cu  Cu14  1  0.99720300  0.12589000  0.37338700  1
  Cu  Cu15  1  0.50150000  0.74893100  0.75302800  1
  C  C16  1  0.74715400  0.52861000  0.18513700  1
  C  C17  1  0.24617500  0.17776900  0.55858800  1
  C  C18  1  0.73845000  0.29095900  0.42930200  1
  C  C19  1  0.23561400  0.92495100  0.81633300  1
  C  C20  1  0.74532500  0.03259700  0.68489100  1
  C  C21  1  0.21514700  0.67213300  0.05749700  1
  C  C22  1  0.75254600  0.79329900  0.92201600  1
  C  C23  1  0.22980800  0.43596300  0.30189500  1
  C  C24  1  0.26155000  0.70904100  0.57069800  1
  C  C25  1  0.78485300  0.32786700  0.94250300  1
  C  C26  1  0.25284600  0.47139000  0.81486300  1
  C  C27  1  0.76438600  0.07504900  0.18366700  1
  C  C28  1  0.24745400  0.20670100  0.07798400  1
  C  C29  1  0.75382500  0.82223100  0.44141200  1
  C  C30  1  0.25467500  0.96740300  0.31510900  1
  C  C31  1  0.77019200  0.56403700  0.69810500  1
