# generated using pymatgen
data_CuNiC2
_symmetry_space_group_name_H-M   'P 1'
_cell_length_a   6.30149500
_cell_length_b   7.37954700
_cell_length_c   4.36235400
_cell_angle_alpha   90.00000000
_cell_angle_beta   90.00000000
_cell_angle_gamma   90.00000000
_symmetry_Int_Tables_number   1
_chemical_formula_structural   CuNiC2
_chemical_formula_sum   'Cu4 Ni4 C8'
_cell_volume   202.85896449
_cell_formula_units_Z   4
loop_
 _symmetry_equiv_pos_site_id
 _symmetry_equiv_pos_as_xyz
  1  'x, y, z'
loop_
 _atom_site_type_symbol
 _atom_site_label
 _atom_site_symmetry_multiplicity
 _atom_site_fract_x
 _atom_site_fract_y
 _atom_site_fract_z
 _atom_site_occupancy
  Ni  Ni0  1  0.59832300  0.37190700  0.93522200  1
  Ni  Ni1  1  0.40167700  0.62809300  0.43522200  1
  Ni  Ni2  1  0.90167700  0.87190700  0.43522200  1
  Ni  Ni3  1  0.09832300  0.12809300  0.93522200  1
  Cu  Cu4  1  0.56897600  0.87147400  0.93526300  1
  Cu  Cu5  1  0.43102400  0.12852600  0.43526300  1
  Cu  Cu6  1  0.93102400  0.37147400  0.43526300  1
  Cu  Cu7  1  0.06897600  0.62852600  0.93526300  1
  C  C8  1  0.58515200  0.38431600  0.43529700  1
  C  C9  1  0.41484800  0.61568400  0.93529700  1
  C  C10  1  0.91484800  0.88431600  0.93529700  1
  C  C11  1  0.08515200  0.11568400  0.43529700  1
  C  C12  1  0.56755100  0.87151200  0.43521700  1
  C  C13  1  0.43244900  0.12848800  0.93521700  1
  C  C14  1  0.93244900  0.37151200  0.93521700  1
  C  C15  1  0.06755100  0.62848800  0.43521700  1
