# generated using pymatgen
data_Cu5(NiC3)3
_symmetry_space_group_name_H-M   'P 1'
_cell_length_a   6.82145500
_cell_length_b   9.54878200
_cell_length_c   11.15106100
_cell_angle_alpha   90.00000000
_cell_angle_beta   90.00000000
_cell_angle_gamma   90.00000000
_symmetry_Int_Tables_number   1
_chemical_formula_structural   Cu5(NiC3)3
_chemical_formula_sum   'Cu20 Ni12 C36'
_cell_volume   726.34205182
_cell_formula_units_Z   4
loop_
 _symmetry_equiv_pos_site_id
 _symmetry_equiv_pos_as_xyz
  1  'x, y, z'
loop_
 _atom_site_type_symbol
 _atom_site_label
 _atom_site_symmetry_multiplicity
 _atom_site_fract_x
 _atom_site_fract_y
 _atom_site_fract_z
 _atom_site_occupancy
  Ni  Ni0  1  0.81563800  0.72973100  0.77109800  1
  Ni  Ni1  1  0.68436200  0.27026900  0.27109800  1
  Ni  Ni2  1  0.31563800  0.77026900  0.22890200  1
  Ni  Ni3  1  0.18436200  0.22973100  0.72890200  1
  Ni  Ni4  1  0.56447000  0.69114500  0.98730900  1
  Ni  Ni5  1  0.93553000  0.30885500  0.48730900  1
  Ni  Ni6  1  0.06447000  0.80885500  0.01269100  1
  Ni  Ni7  1  0.43553000  0.19114500  0.51269100  1
  Ni  Ni8  1  0.02810600  0.60265000  0.57409800  1
  Ni  Ni9  1  0.47189400  0.39735000  0.07409800  1
  Ni  Ni10  1  0.52810600  0.89735000  0.42590200  1
  Ni  Ni11  1  0.97189400  0.10265000  0.92590200  1
  Cu  Cu12  1  0.52754600  0.96564800  0.73439700  1
  Cu  Cu13  1  0.97245400  0.03435200  0.23439700  1
  Cu  Cu14  1  0.02754600  0.53435200  0.26560300  1
  Cu  Cu15  1  0.47245400  0.46564800  0.76560300  1
  Cu  Cu16  1  0.29718400  0.76425500  0.78358300  1
  Cu  Cu17  1  0.20281600  0.23574500  0.28358300  1
  Cu  Cu18  1  0.79718400  0.73574500  0.21641700  1
  Cu  Cu19  1  0.70281600  0.26425500  0.71641700  1
  Cu  Cu20  1  0.85131000  0.02666000  0.62373700  1
  Cu  Cu21  1  0.64869000  0.97334000  0.12373700  1
  Cu  Cu22  1  0.35131000  0.47334000  0.37626300  1
  Cu  Cu23  1  0.14869000  0.52666000  0.87626300  1
  Cu  Cu24  1  0.79715500  0.42647700  0.88309600  1
  Cu  Cu25  1  0.70284500  0.57352300  0.38309600  1
  Cu  Cu26  1  0.29715500  0.07352300  0.11690400  1
  Cu  Cu27  1  0.20284500  0.92647700  0.61690400  1
  Cu  Cu28  1  0.49711000  0.57352000  0.56849000  1
  Cu  Cu29  1  0.00289000  0.42648000  0.06849000  1
  Cu  Cu30  1  0.99711000  0.92648000  0.43151000  1
  Cu  Cu31  1  0.50289000  0.07352000  0.93151000  1
  C  C32  1  0.94100200  0.53215100  0.84063400  1
  C  C33  1  0.55899800  0.46784900  0.34063400  1
  C  C34  1  0.44100200  0.96784900  0.15936600  1
  C  C35  1  0.05899800  0.03215100  0.65936600  1
  C  C36  1  0.67047700  0.60687900  0.51112600  1
  C  C37  1  0.82952300  0.39312100  0.01112600  1
  C  C38  1  0.17047700  0.89312100  0.48887400  1
  C  C39  1  0.32952300  0.10687900  0.98887400  1
  C  C40  1  0.45518200  0.84792700  0.81064400  1
  C  C41  1  0.04481800  0.15207300  0.31064400  1
  C  C42  1  0.95518200  0.65207300  0.18935600  1
  C  C43  1  0.54481800  0.34792700  0.68935600  1
  C  C44  1  0.73357200  0.93893000  0.70301100  1
  C  C45  1  0.76642800  0.06107000  0.20301100  1
  C  C46  1  0.23357200  0.56107000  0.29698900  1
  C  C47  1  0.26642800  0.43893000  0.79698900  1
  C  C48  1  0.73445300  0.82607700  0.12313900  1
  C  C49  1  0.76554700  0.17392300  0.62313900  1
  C  C50  1  0.23445300  0.67392300  0.87686100  1
  C  C51  1  0.26554700  0.32607700  0.37686100  1
  C  C52  1  0.33949500  0.52339200  0.50388300  1
  C  C53  1  0.16050500  0.47660800  0.00388300  1
  C  C54  1  0.83949500  0.97660800  0.49611700  1
  C  C55  1  0.66050500  0.02339200  0.99611700  1
  C  C56  1  0.48718300  0.59487100  0.69116300  1
  C  C57  1  0.01281700  0.40512900  0.19116300  1
  C  C58  1  0.98718300  0.90512900  0.30883700  1
  C  C59  1  0.51281700  0.09487100  0.80883700  1
  C  C60  1  0.17790700  0.79354400  0.68685300  1
  C  C61  1  0.32209300  0.20645600  0.18685300  1
  C  C62  1  0.67790700  0.70645600  0.31314700  1
  C  C63  1  0.82209300  0.29354400  0.81314700  1
  C  C64  1  0.40391100  0.97994400  0.62602000  1
  C  C65  1  0.09608900  0.02005600  0.12602000  1
  C  C66  1  0.90391100  0.52005600  0.37398000  1
  C  C67  1  0.59608900  0.47994400  0.87398000  1
