# generated using pymatgen
data_Cu2Ni3C4
_symmetry_space_group_name_H-M   'P 1'
_cell_length_a   8.46064548
_cell_length_b   3.70322199
_cell_length_c   9.20080162
_cell_angle_alpha   90.00000318
_cell_angle_beta   50.80709723
_cell_angle_gamma   77.35851274
_symmetry_Int_Tables_number   1
_chemical_formula_structural   Cu2Ni3C4
_chemical_formula_sum   'Cu2 Ni3 C4'
_cell_volume   214.32813820
_cell_formula_units_Z   1
loop_
 _symmetry_equiv_pos_site_id
 _symmetry_equiv_pos_as_xyz
  1  'x, y, z'
loop_
 _atom_site_type_symbol
 _atom_site_label
 _atom_site_symmetry_multiplicity
 _atom_site_fract_x
 _atom_site_fract_y
 _atom_site_fract_z
 _atom_site_occupancy
  C  C0  1  0.27798400  0.86100800  0.58724300  1
  C  C1  1  0.72201600  0.13899200  0.41275700  1
  C  C2  1  0.67970200  0.66014900  0.08761200  1
  C  C3  1  0.32029800  0.33985100  0.91238800  1
  Ni  Ni4  1  0.00000000  0.00000000  0.00000000  1
  Ni  Ni5  1  0.60959900  0.69520100  0.75010000  1
  Ni  Ni6  1  0.39040100  0.30479900  0.24990000  1
  Cu  Cu7  1  0.62052800  0.68973600  0.35279400  1
  Cu  Cu8  1  0.37947200  0.31026400  0.64720600  1
