# generated using pymatgen
data_Cu5(NiC)2
_symmetry_space_group_name_H-M   'P 1'
_cell_length_a   7.40497846
_cell_length_b   7.40497846
_cell_length_c   7.40497846
_cell_angle_alpha   128.01582058
_cell_angle_beta   119.48805891
_cell_angle_gamma   83.79297796
_symmetry_Int_Tables_number   1
_chemical_formula_structural   Cu5(NiC)2
_chemical_formula_sum   'Cu10 Ni4 C4'
_cell_volume   266.95763830
_cell_formula_units_Z   2
loop_
 _symmetry_equiv_pos_site_id
 _symmetry_equiv_pos_as_xyz
  1  'x, y, z'
loop_
 _atom_site_type_symbol
 _atom_site_label
 _atom_site_symmetry_multiplicity
 _atom_site_fract_x
 _atom_site_fract_y
 _atom_site_fract_z
 _atom_site_occupancy
  C  C0  1  0.50000000  0.50000000  0.00000000  1
  C  C1  1  0.00000000  0.00000000  0.00000000  1
  C  C2  1  0.50000000  0.50000000  0.50000000  1
  C  C3  1  0.00000000  0.50000000  0.00000000  1
  Ni  Ni4  1  0.55125700  0.84373100  0.29247400  1
  Ni  Ni5  1  0.44874300  0.15626900  0.70752600  1
  Ni  Ni6  1  0.05125700  0.75878300  0.70752600  1
  Ni  Ni7  1  0.94874300  0.24121700  0.29247400  1
  Cu  Cu8  1  0.43714600  0.57372700  0.76265900  1
  Cu  Cu9  1  0.18893200  0.42627300  0.86341900  1
  Cu  Cu10  1  0.93714600  0.17448700  0.86341900  1
  Cu  Cu11  1  0.68893200  0.82551300  0.76265900  1
  Cu  Cu12  1  0.56285400  0.42627300  0.23734100  1
  Cu  Cu13  1  0.81106800  0.57372700  0.13658100  1
  Cu  Cu14  1  0.06285400  0.82551300  0.13658100  1
  Cu  Cu15  1  0.31106800  0.17448700  0.23734100  1
  Cu  Cu16  1  0.75000000  0.40439600  0.65439600  1
  Cu  Cu17  1  0.25000000  0.59560400  0.34560400  1
