# generated using pymatgen
data_Cu6Ni4C25
_symmetry_space_group_name_H-M   'P 1'
_cell_length_a   9.18627200
_cell_length_b   9.32478205
_cell_length_c   9.93852090
_cell_angle_alpha   98.46039695
_cell_angle_beta   117.52624606
_cell_angle_gamma   90.00000000
_symmetry_Int_Tables_number   1
_chemical_formula_structural   Cu6Ni4C25
_chemical_formula_sum   'Cu12 Ni8 C50'
_cell_volume   744.49927350
_cell_formula_units_Z   2
loop_
 _symmetry_equiv_pos_site_id
 _symmetry_equiv_pos_as_xyz
  1  'x, y, z'
loop_
 _atom_site_type_symbol
 _atom_site_label
 _atom_site_symmetry_multiplicity
 _atom_site_fract_x
 _atom_site_fract_y
 _atom_site_fract_z
 _atom_site_occupancy
  C  C0  1  0.15485000  0.88374300  0.35919800  1
  C  C1  1  0.79565200  0.61625700  0.64080200  1
  C  C2  1  0.84515000  0.11625700  0.64080200  1
  C  C3  1  0.20434800  0.38374300  0.35919800  1
  C  C4  1  0.77204600  0.82389400  0.38714100  1
  C  C5  1  0.38490500  0.67610600  0.61285900  1
  C  C6  1  0.22795400  0.17610600  0.61285900  1
  C  C7  1  0.61509500  0.32389400  0.38714100  1
  C  C8  1  0.10007200  0.75000000  0.00000000  1
  C  C9  1  0.89992800  0.25000000  0.00000000  1
  Ni  Ni10  1  0.90177300  0.13794900  0.32134400  1
  Ni  Ni11  1  0.58042900  0.36205100  0.67865500  1
  Ni  Ni12  1  0.09822700  0.86205100  0.67865500  1
  Ni  Ni13  1  0.41957100  0.63794900  0.32134400  1
  Ni  Ni14  1  0.89987500  0.60591000  0.17533900  1
  Ni  Ni15  1  0.72453600  0.89409000  0.82466100  1
  Ni  Ni16  1  0.10012500  0.39409000  0.82466100  1
  Ni  Ni17  1  0.27546400  0.10591000  0.17533900  1
  Cu  Cu18  1  0.70237600  0.48872100  0.95457700  1
  Cu  Cu19  1  0.74779900  0.01127900  0.04542300  1
  Cu  Cu20  1  0.29762400  0.51127900  0.04542300  1
  Cu  Cu21  1  0.25220100  0.98872100  0.95457700  1
  Cu  Cu22  1  0.48664400  0.77851100  0.14150300  1
  Cu  Cu23  1  0.34514100  0.72148900  0.85849700  1
  Cu  Cu24  1  0.51335600  0.22148900  0.85849700  1
  Cu  Cu25  1  0.65485900  0.27851100  0.14150300  1
  Cu  Cu26  1  0.60629500  0.85215500  0.08399700  1
  Cu  Cu27  1  0.52229700  0.64784500  0.91600300  1
  Cu  Cu28  1  0.39370500  0.14784500  0.91600300  1
  Cu  Cu29  1  0.47770200  0.35215500  0.08399700  1
  C  C30  1  0.93747100  0.97351600  0.33108100  1
  C  C31  1  0.60639000  0.52648400  0.66891900  1
  C  C32  1  0.06252900  0.02648400  0.66891900  1
  C  C33  1  0.39361000  0.47351600  0.33108100  1
  C  C34  1  0.80879700  0.16110100  0.14979500  1
  C  C35  1  0.65900200  0.33889900  0.85020500  1
  C  C36  1  0.19120300  0.83889900  0.85020500  1
  C  C37  1  0.34099800  0.66110100  0.14979500  1
  C  C38  1  0.80201300  0.18141500  0.40561700  1
  C  C39  1  0.39639600  0.31858500  0.59438300  1
  C  C40  1  0.19798700  0.81858500  0.59438300  1
  C  C41  1  0.60360400  0.68141500  0.40561700  1
  C  C42  1  0.07099800  0.22919800  0.40359100  1
  C  C43  1  0.66740600  0.27080200  0.59640900  1
  C  C44  1  0.92900200  0.77080200  0.59640900  1
  C  C45  1  0.33259400  0.72919800  0.40359100  1
  C  C46  1  0.01726400  0.72305500  0.16804500  1
  C  C47  1  0.84921900  0.77694500  0.83195500  1
  C  C48  1  0.98273600  0.27694500  0.83195500  1
  C  C49  1  0.15078100  0.22305500  0.16804500  1
  C  C50  1  0.86652500  0.66201500  0.30851500  1
  C  C51  1  0.55801000  0.83798500  0.69148500  1
  C  C52  1  0.13347500  0.33798500  0.69148500  1
  C  C53  1  0.44199000  0.16201500  0.30851500  1
  C  C54  1  0.72912200  0.58926900  0.02097600  1
  C  C55  1  0.70814700  0.91073100  0.97902400  1
  C  C56  1  0.27087800  0.41073100  0.97902400  1
  C  C57  1  0.29185300  0.08926900  0.02097600  1
  C  C58  1  0.97180300  0.45514000  0.17751200  1
  C  C59  1  0.79429100  0.04486000  0.82248800  1
  C  C60  1  0.02819700  0.54486000  0.82248800  1
  C  C61  1  0.20570900  0.95514000  0.17751200  1
  C  C62  1  0.29161300  0.03452000  0.50385800  1
  C  C63  1  0.78775500  0.46548000  0.49614200  1
  C  C64  1  0.70838700  0.96548000  0.49614200  1
  C  C65  1  0.21224500  0.53452000  0.50385800  1
  C  C66  1  0.58110000  0.84988200  0.17018200  1
  C  C67  1  0.41091800  0.65011800  0.82981800  1
  C  C68  1  0.41890000  0.15011800  0.82981800  1
  C  C69  1  0.58908200  0.34988200  0.17018200  1
