# generated using pymatgen
data_Cu(NiC5)2
_symmetry_space_group_name_H-M   'P 1'
_cell_length_a   6.60685600
_cell_length_b   11.01103800
_cell_length_c   13.42708200
_cell_angle_alpha   90.00000000
_cell_angle_beta   90.00000000
_cell_angle_gamma   90.00000000
_symmetry_Int_Tables_number   1
_chemical_formula_structural   Cu(NiC5)2
_chemical_formula_sum   'Cu4 Ni8 C40'
_cell_volume   976.79795980
_cell_formula_units_Z   4
loop_
 _symmetry_equiv_pos_site_id
 _symmetry_equiv_pos_as_xyz
  1  'x, y, z'
loop_
 _atom_site_type_symbol
 _atom_site_label
 _atom_site_symmetry_multiplicity
 _atom_site_fract_x
 _atom_site_fract_y
 _atom_site_fract_z
 _atom_site_occupancy
  C  C0  1  0.43760600  0.75000000  0.94217500  1
  C  C1  1  0.56239400  0.25000000  0.05782500  1
  C  C2  1  0.43760600  0.25000000  0.55782500  1
  C  C3  1  0.56239400  0.75000000  0.44217500  1
  C  C4  1  0.04405800  0.87872300  0.07883600  1
  C  C5  1  0.95594200  0.37872300  0.92116400  1
  C  C6  1  0.04405800  0.12127700  0.42116400  1
  C  C7  1  0.95594200  0.62127700  0.57883600  1
  C  C8  1  0.95594200  0.12127700  0.92116400  1
  C  C9  1  0.04405800  0.62127700  0.07883600  1
  C  C10  1  0.95594200  0.87872300  0.57883600  1
  C  C11  1  0.04405800  0.37872300  0.42116400  1
  C  C12  1  0.24549500  0.96847300  0.13191400  1
  C  C13  1  0.75450500  0.46847300  0.86808600  1
  C  C14  1  0.24549500  0.03152700  0.36808600  1
  C  C15  1  0.75450500  0.53152700  0.63191400  1
  C  C16  1  0.75450500  0.03152700  0.86808600  1
  C  C17  1  0.24549500  0.53152700  0.13191400  1
  C  C18  1  0.75450500  0.96847300  0.63191400  1
  C  C19  1  0.24549500  0.46847300  0.36808600  1
  C  C20  1  0.08986800  0.87514000  0.21186000  1
  C  C21  1  0.91013200  0.37514000  0.78814000  1
  C  C22  1  0.08986800  0.12486000  0.28814000  1
  C  C23  1  0.91013200  0.62486000  0.71186000  1
  C  C24  1  0.91013200  0.12486000  0.78814000  1
  C  C25  1  0.08986800  0.62486000  0.21186000  1
  C  C26  1  0.91013200  0.87514000  0.71186000  1
  C  C27  1  0.08986800  0.37514000  0.28814000  1
  Ni  Ni28  1  0.15815600  0.88429400  0.13780500  1
  Ni  Ni29  1  0.84184400  0.38429400  0.86219500  1
  Ni  Ni30  1  0.15815600  0.11570600  0.36219500  1
  Ni  Ni31  1  0.84184400  0.61570600  0.63780500  1
  Ni  Ni32  1  0.84184400  0.11570600  0.86219500  1
  Ni  Ni33  1  0.15815600  0.61570600  0.13780500  1
  Ni  Ni34  1  0.84184400  0.88429400  0.63780500  1
  Ni  Ni35  1  0.15815600  0.38429400  0.36219500  1
  Cu  Cu36  1  0.35248700  0.75000000  0.12684600  1
  Cu  Cu37  1  0.64751300  0.25000000  0.87315400  1
  Cu  Cu38  1  0.35248700  0.25000000  0.37315400  1
  Cu  Cu39  1  0.64751300  0.75000000  0.62684600  1
  C  C40  1  0.76192400  0.75000000  0.93400300  1
  C  C41  1  0.23807600  0.25000000  0.06599700  1
  C  C42  1  0.76192400  0.25000000  0.56599700  1
  C  C43  1  0.23807600  0.75000000  0.43400300  1
  C  C44  1  0.31614600  0.58602600  0.88187900  1
  C  C45  1  0.68385400  0.08602600  0.11812100  1
  C  C46  1  0.31614600  0.41397400  0.61812100  1
  C  C47  1  0.68385400  0.91397400  0.38187900  1
  C  C48  1  0.68385400  0.41397400  0.11812100  1
  C  C49  1  0.31614600  0.91397400  0.88187900  1
  C  C50  1  0.68385400  0.58602600  0.38187900  1
  C  C51  1  0.31614600  0.08602600  0.61812100  1
