# generated using pymatgen
data_CuNi2C15
_symmetry_space_group_name_H-M   'P 1'
_cell_length_a   9.06423800
_cell_length_b   6.40734700
_cell_length_c   12.25213277
_cell_angle_alpha   85.27611403
_cell_angle_beta   90.00000000
_cell_angle_gamma   90.00000000
_symmetry_Int_Tables_number   1
_chemical_formula_structural   CuNi2C15
_chemical_formula_sum   'Cu2 Ni4 C30'
_cell_volume   709.15879064
_cell_formula_units_Z   2
loop_
 _symmetry_equiv_pos_site_id
 _symmetry_equiv_pos_as_xyz
  1  'x, y, z'
loop_
 _atom_site_type_symbol
 _atom_site_label
 _atom_site_symmetry_multiplicity
 _atom_site_fract_x
 _atom_site_fract_y
 _atom_site_fract_z
 _atom_site_occupancy
  Ni  Ni0  1  0.75000000  0.86567000  0.10351600  1
  Ni  Ni1  1  0.25000000  0.13433000  0.89648400  1
  Ni  Ni2  1  0.75000000  0.79443900  0.41467600  1
  Ni  Ni3  1  0.25000000  0.20556100  0.58532400  1
  Cu  Cu4  1  0.25000000  0.54061400  0.19212700  1
  Cu  Cu5  1  0.75000000  0.45938600  0.80787300  1
  C  C6  1  0.25000000  0.66024100  0.08939700  1
  C  C7  1  0.75000000  0.33975900  0.91060300  1
  C  C8  1  0.44321500  0.34939000  0.20414900  1
  C  C9  1  0.94321500  0.65061000  0.79585100  1
  C  C10  1  0.55678500  0.65061000  0.79585100  1
  C  C11  1  0.05678500  0.34939000  0.20414900  1
  C  C12  1  0.25000000  0.75628300  0.31619700  1
  C  C13  1  0.75000000  0.24371700  0.68380300  1
  C  C14  1  0.55648500  0.85956500  0.11056200  1
  C  C15  1  0.05648500  0.14043500  0.88943800  1
  C  C16  1  0.44351500  0.14043500  0.88943800  1
  C  C17  1  0.94351500  0.85956500  0.11056200  1
  C  C18  1  0.75000000  0.97701800  0.96766100  1
  C  C19  1  0.25000000  0.02298200  0.03233900  1
  C  C20  1  0.75000000  0.11414800  0.15538000  1
  C  C21  1  0.25000000  0.88585200  0.84462000  1
  C  C22  1  0.75000000  0.60806200  0.06241100  1
  C  C23  1  0.25000000  0.39193800  0.93758900  1
  C  C24  1  0.75000000  0.73902000  0.24923100  1
  C  C25  1  0.25000000  0.26098000  0.75076900  1
  C  C26  1  0.61403100  0.98170500  0.37917400  1
  C  C27  1  0.11403100  0.01829500  0.62082600  1
  C  C28  1  0.38596900  0.01829500  0.62082600  1
  C  C29  1  0.88596900  0.98170500  0.37917400  1
  C  C30  1  0.75000000  0.83378100  0.55396800  1
  C  C31  1  0.25000000  0.16621900  0.44603200  1
  C  C32  1  0.61445000  0.60099100  0.42347800  1
  C  C33  1  0.11445000  0.39900900  0.57652200  1
  C  C34  1  0.38555000  0.39900900  0.57652200  1
  C  C35  1  0.88555000  0.60099100  0.42347800  1
