# generated using pymatgen
data_Cu12(Ni2C)5
_symmetry_space_group_name_H-M   'P 1'
_cell_length_a   8.18981100
_cell_length_b   7.74579577
_cell_length_c   13.20691149
_cell_angle_alpha   101.88133411
_cell_angle_beta   90.00000000
_cell_angle_gamma   58.08492907
_symmetry_Int_Tables_number   1
_chemical_formula_structural   Cu12(Ni2C)5
_chemical_formula_sum   'Cu12 Ni10 C5'
_cell_volume   689.91733174
_cell_formula_units_Z   1
loop_
 _symmetry_equiv_pos_site_id
 _symmetry_equiv_pos_as_xyz
  1  'x, y, z'
loop_
 _atom_site_type_symbol
 _atom_site_label
 _atom_site_symmetry_multiplicity
 _atom_site_fract_x
 _atom_site_fract_y
 _atom_site_fract_z
 _atom_site_occupancy
  C  C0  1  0.72610500  0.55115400  0.78443300  1
  C  C1  1  0.27726000  0.44884600  0.21556700  1
  C  C2  1  0.00018700  0.00000000  0.00000000  1
  C  C3  1  0.51052500  0.00000000  0.50000000  1
  Ni  Ni4  1  0.67438900  0.67019400  0.91571900  1
  Ni  Ni5  1  0.34458300  0.32980600  0.08428100  1
  Ni  Ni6  1  0.70983900  0.25681500  0.76965400  1
  Ni  Ni7  1  0.02655300  0.25103000  0.76037500  1
  Ni  Ni8  1  0.27758300  0.74897000  0.23962500  1
  Ni  Ni9  1  0.96665300  0.74318500  0.23034600  1
  Ni  Ni10  1  0.49651500  0.65239400  0.73452100  1
  Ni  Ni11  1  0.82313700  0.67138300  0.72528300  1
  Ni  Ni12  1  0.49452100  0.32861700  0.27471700  1
  Ni  Ni13  1  0.14890900  0.34760600  0.26547900  1
  Cu  Cu14  1  0.05726100  0.87470300  0.24188400  1
  Cu  Cu15  1  0.93196500  0.12529700  0.75811600  1
  Cu  Cu16  1  0.28303100  0.00000000  0.00000000  1
  Cu  Cu17  1  0.71632300  0.00000000  0.00000000  1
  Cu  Cu18  1  0.50083700  0.01324600  0.32628200  1
  Cu  Cu19  1  0.51408300  0.98675400  0.67371800  1
  Cu  Cu20  1  0.82218400  0.35639800  0.07595400  1
  Cu  Cu21  1  0.17858200  0.64360200  0.92404600  1
  Cu  Cu22  1  0.68713000  0.63626700  0.44633200  1
  Cu  Cu23  1  0.32339700  0.36373300  0.55366800  1
  Cu  Cu24  1  0.88347700  0.22955700  0.50351400  1
  Cu  Cu25  1  0.11303400  0.77044300  0.49648600  1
  C  C26  1  0.89093600  0.00000000  0.50000000  1
