# generated using pymatgen
data_Cu5Ni2C43
_symmetry_space_group_name_H-M   'P 1'
_cell_length_a   5.65487814
_cell_length_b   56.61730067
_cell_length_c   5.66884342
_cell_angle_alpha   119.77604449
_cell_angle_beta   119.74319130
_cell_angle_gamma   90.24812880
_symmetry_Int_Tables_number   1
_chemical_formula_structural   Cu5Ni2C43
_chemical_formula_sum   'Cu10 Ni4 C86'
_cell_volume   1289.89381930
_cell_formula_units_Z   2
loop_
 _symmetry_equiv_pos_site_id
 _symmetry_equiv_pos_as_xyz
  1  'x, y, z'
loop_
 _atom_site_type_symbol
 _atom_site_label
 _atom_site_symmetry_multiplicity
 _atom_site_fract_x
 _atom_site_fract_y
 _atom_site_fract_z
 _atom_site_occupancy
  C  C0  1  0.24968161  0.07496215  0.49974629  1
  C  C1  1  0.25004740  0.17500584  0.50029862  1
  C  C2  1  0.25005197  0.27499294  0.50026023  1
  C  C3  1  0.25009046  0.37499400  0.50033725  1
  C  C4  1  0.25016082  0.47490465  0.50044436  1
  C  C5  1  0.25648163  0.57608143  0.50899984  1
  C  C6  1  0.24655673  0.67511895  0.49652042  1
  C  C7  1  0.25154565  0.77522795  0.50677546  1
  C  C8  1  0.24735910  0.87383102  0.48977010  1
  C  C9  1  0.25049632  0.97504273  0.50071516  1
  C  C10  1  0.74983918  0.02509535  0.49955564  1
  C  C11  1  0.74990954  0.12500600  0.49966275  1
  C  C12  1  0.74994803  0.22500706  0.49973977  1
  C  C13  1  0.74995260  0.32499416  0.49970138  1
  C  C14  1  0.74950368  0.52495727  0.49928484  1
  C  C15  1  0.75264090  0.62616898  0.51022990  1
  C  C16  1  0.75031839  0.42503785  0.50025371  1
  C  C17  1  0.74845435  0.72477205  0.49322454  1
  C  C18  1  0.75344327  0.82488105  0.50347958  1
  C  C19  1  0.74351837  0.92391857  0.49100016  1
  C  C20  1  0.00018683  0.00008300  0.00022475  1
  C  C21  1  0.00015388  0.10004350  0.00010176  1
  C  C22  1  0.00005481  0.20001860  0.00006323  1
  C  C23  1  -0.00005481  0.29998140  -0.00006323  1
  C  C24  1  -0.00015388  0.39995650  -0.00010176  1
  C  C25  1  -0.00018683  0.49991700  -0.00022475  1
  Ni  Ni26  1  0.00345589  0.60065940  0.00362873  1
  Ni  Ni27  1  0.99870343  0.69975131  0.99739844  1
  Ni  Ni28  1  0.00129657  0.80024869  0.00260156  1
  Ni  Ni29  1  0.99654411  0.89934060  0.99637127  1
  Cu  Cu30  1  0.49923187  0.04986293  0.99867392  1
  Cu  Cu31  1  0.49990227  0.14997935  -0.00017798  1
  Cu  Cu32  1  0.50000000  0.25000000  -0.00000000  1
  Cu  Cu33  1  0.50076813  0.45013707  0.00132608  1
  Cu  Cu34  1  0.50009773  0.35002065  0.00017798  1
  Cu  Cu35  1  0.50032331  0.54976005  0.99900183  1
  Cu  Cu36  1  0.49724385  0.64982285  0.99880131  1
  Cu  Cu37  1  0.50000000  0.75000000  -0.00000000  1
  Cu  Cu38  1  0.50275615  0.85017715  0.00119869  1
  Cu  Cu39  1  0.49967669  0.95023995  0.00099817  1
  C  C40  1  0.25762971  0.02570070  0.51485179  1
  C  C41  1  0.25781272  0.12572782  0.51535893  1
  C  C42  1  0.25800496  0.22577959  0.51573621  1
  C  C43  1  0.25819768  0.32583789  0.51614818  1
  C  C44  1  0.25855859  0.42596992  0.51677740  1
  C  C45  1  0.25896898  0.52574132  0.51747352  1
  C  C46  1  0.25047885  0.62323627  0.50136160  1
  C  C47  1  0.25996405  0.72629478  0.51901167  1
  C  C48  1  0.26011350  0.82763867  0.53152913  1
  C  C49  1  0.25737572  0.92640890  0.51352345  1
  C  C50  1  0.22250363  0.07039828  0.99873302  1
  C  C51  1  0.22288686  0.17045822  0.99943339  1
  C  C52  1  0.22306837  0.27050766  0.99982963  1
  C  C53  1  0.22334884  0.37056615  0.00035807  1
  C  C54  1  0.22443398  0.47068398  0.00158241  1
  C  C55  1  0.21855615  0.56999002  0.99611959  1
  C  C56  1  0.21074370  0.66928886  0.98873807  1
  C  C57  1  0.22143780  0.76986616  0.00308331  1
  C  C58  1  0.21084827  0.87259103  0.00802299  1
  C  C59  1  0.22493771  0.97070724  0.00017514  1
  C  C60  1  0.29296313  0.02215521  0.99801921  1
  C  C61  1  0.29396121  0.12220060  0.99935120  1
  C  C62  1  0.29422618  0.22225875  -0.00007893  1
  C  C63  1  0.29438292  0.32231080  0.00027928  1
  C  C64  1  0.29446129  0.42239769  0.00092235  1
  C  C65  1  0.29417661  0.52217817  -0.00099911  1
  C  C66  1  0.28848138  0.61948350  0.99658754  1
  C  C67  1  0.29487701  0.72163464  0.99470317  1
  C  C68  1  0.30383910  0.82240188  0.01686439  1
  C  C69  1  0.29082550  0.92277745  0.00202398  1
  C  C70  1  0.74144141  0.07403008  0.48322260  1
  C  C71  1  0.74180232  0.17416211  0.48385182  1
  C  C72  1  0.74199504  0.27422041  0.48426379  1
  C  C73  1  0.74218728  0.37427218  0.48464107  1
  C  C74  1  0.74237029  0.47429930  0.48514821  1
  C  C75  1  0.74262428  0.57359110  0.48647655  1
  C  C76  1  0.73988650  0.67236133  0.46847087  1
  C  C77  1  0.74003595  0.77370522  0.48098833  1
  C  C78  1  0.74952115  0.87676373  0.49863840  1
  C  C79  1  0.74103102  0.97425868  0.48252648  1
  C  C80  1  0.70553871  0.07760231  0.99907765  1
  C  C81  1  0.70561708  0.17768920  0.99972072  1
  C  C82  1  0.70577382  0.27774125  0.00007893  1
  C  C83  1  0.70603879  0.37779940  0.00064880  1
  C  C84  1  0.70703687  0.47784479  0.00198079  1
  C  C85  1  0.70917450  0.57722255  0.99797602  1
  C  C86  1  0.69616090  0.67759812  0.98313561  1
  C  C87  1  0.70512299  0.77836536  0.00529683  1
  C  C88  1  0.71151862  0.88051650  0.00341246  1
  C  C89  1  0.70582339  0.97782183  0.00099911  1
  C  C90  1  0.77556602  0.02931602  0.99841759  1
  C  C91  1  0.77665116  0.12943385  -0.00035807  1
  C  C92  1  0.77693163  0.22949234  0.00017037  1
  C  C93  1  0.77711314  0.32954178  0.00056661  1
  C  C94  1  0.77749637  0.42960172  0.00126698  1
  C  C95  1  0.77506229  0.52929276  -0.00017514  1
  C  C96  1  0.78915173  0.62740897  0.99197701  1
  C  C97  1  0.77856220  0.73013384  0.99691669  1
  C  C98  1  0.78925630  0.83071114  0.01126193  1
  C  C99  1  0.78144385  0.93000998  0.00388041  1
