# generated using pymatgen
data_CuNiC9
_symmetry_space_group_name_H-M   'P 1'
_cell_length_a   15.10880800
_cell_length_b   6.62872400
_cell_length_c   12.74186381
_cell_angle_alpha   76.46971284
_cell_angle_beta   90.00000000
_cell_angle_gamma   90.00000000
_symmetry_Int_Tables_number   1
_chemical_formula_structural   CuNiC9
_chemical_formula_sum   'Cu8 Ni8 C72'
_cell_volume   1240.70757541
_cell_formula_units_Z   8
loop_
 _symmetry_equiv_pos_site_id
 _symmetry_equiv_pos_as_xyz
  1  'x, y, z'
loop_
 _atom_site_type_symbol
 _atom_site_label
 _atom_site_symmetry_multiplicity
 _atom_site_fract_x
 _atom_site_fract_y
 _atom_site_fract_z
 _atom_site_occupancy
  C  C0  1  0.89621500  0.17077300  0.98423500  1
  C  C1  1  0.02769800  0.56132000  0.68791900  1
  C  C2  1  0.47230200  0.56132000  0.18791900  1
  C  C3  1  0.97230200  0.43868000  0.31208100  1
  C  C4  1  0.73110600  0.48827000  0.79630000  1
  C  C5  1  0.23110600  0.51173000  0.70370000  1
  C  C6  1  0.26889400  0.51173000  0.20370000  1
  C  C7  1  0.76889400  0.48827000  0.29630000  1
  C  C8  1  0.52769800  0.43868000  0.81208100  1
  C  C9  1  0.13941100  0.12354500  0.49598200  1
  C  C10  1  0.63941100  0.87645500  0.00401800  1
  C  C11  1  0.86058900  0.87645500  0.50401800  1
  C  C12  1  0.39621500  0.82922700  0.51576500  1
  C  C13  1  0.60378500  0.17077300  0.48423500  1
  C  C14  1  0.10378500  0.82922700  0.01576500  1
  C  C15  1  0.36058900  0.12354500  0.99598200  1
  Ni  Ni16  1  0.52794000  0.98256000  0.74849400  1
  Ni  Ni17  1  0.89676200  0.70330500  0.90992700  1
  Ni  Ni18  1  0.39676200  0.29669500  0.59007300  1
  Ni  Ni19  1  0.10323800  0.29669500  0.09007300  1
  Ni  Ni20  1  0.60323800  0.70330500  0.40992700  1
  Ni  Ni21  1  0.97206000  0.98256000  0.24849400  1
  Ni  Ni22  1  0.47206000  0.01744000  0.25150600  1
  Ni  Ni23  1  0.02794000  0.01744000  0.75150600  1
  Cu  Cu24  1  0.68461700  0.37020500  0.06044000  1
  Cu  Cu25  1  0.18461700  0.62979500  0.43956000  1
  Cu  Cu26  1  0.31538300  0.62979500  0.93956000  1
  Cu  Cu27  1  0.81538300  0.37020500  0.56044000  1
  Cu  Cu28  1  0.76822900  0.02905300  0.22693900  1
  Cu  Cu29  1  0.26822900  0.97094700  0.27306100  1
  Cu  Cu30  1  0.23177100  0.97094700  0.77306100  1
  Cu  Cu31  1  0.73177100  0.02905300  0.72693900  1
  C  C32  1  0.01207500  0.25353800  0.97615500  1
  C  C33  1  0.51207500  0.74646200  0.52384500  1
  C  C34  1  0.98792500  0.74646200  0.02384500  1
  C  C35  1  0.48792500  0.25353800  0.47615500  1
  C  C36  1  0.86606200  0.99601400  0.89568700  1
  C  C37  1  0.36606200  0.00398600  0.60431300  1
  C  C38  1  0.13393800  0.00398600  0.10431300  1
  C  C39  1  0.63393800  0.99601400  0.39568700  1
  C  C40  1  0.87665100  0.05425000  0.13221300  1
  C  C41  1  0.37665100  0.94575000  0.36778700  1
  C  C42  1  0.12334900  0.94575000  0.86778700  1
  C  C43  1  0.62334900  0.05425000  0.63221300  1
  C  C44  1  0.28069900  0.33506300  0.97162200  1
  C  C45  1  0.78069900  0.66493700  0.52837800  1
  C  C46  1  0.71930100  0.66493700  0.02837800  1
  C  C47  1  0.21930100  0.33506300  0.47162200  1
  C  C48  1  0.36688200  0.00609300  0.14671900  1
  C  C49  1  0.86688200  0.99390700  0.35328100  1
  C  C50  1  0.63311800  0.99390700  0.85328100  1
  C  C51  1  0.13311800  0.00609300  0.64671900  1
  C  C52  1  0.31563400  0.93035100  0.92376000  1
  C  C53  1  0.47980200  0.69883900  0.79827900  1
  C  C54  1  0.81563400  0.06964900  0.57624000  1
  C  C55  1  0.18436600  0.93035100  0.42376000  1
  C  C56  1  0.47492200  0.27078000  0.72428800  1
  C  C57  1  0.97492200  0.72922000  0.77571200  1
  C  C58  1  0.52507800  0.72922000  0.27571200  1
  C  C59  1  0.02507800  0.27078000  0.22428800  1
  C  C60  1  0.46945300  0.25100100  0.94241900  1
  C  C61  1  0.96945300  0.74899900  0.55758100  1
  C  C62  1  0.53054700  0.74899900  0.05758100  1
  C  C63  1  0.03054700  0.25100100  0.44241900  1
  C  C64  1  0.87524300  0.52140900  0.21091000  1
  C  C65  1  0.37524300  0.47859100  0.28909000  1
  C  C66  1  0.12475700  0.47859100  0.78909000  1
  C  C67  1  0.62475700  0.52140900  0.71091000  1
  C  C68  1  0.71859700  0.31193000  0.21673000  1
  C  C69  1  0.21859700  0.68807000  0.28327000  1
  C  C70  1  0.28140300  0.68807000  0.78327000  1
  C  C71  1  0.78140300  0.31193000  0.71673000  1
  C  C72  1  0.67171500  0.42136400  0.42623700  1
  C  C73  1  0.17171500  0.57863600  0.07376300  1
  C  C74  1  0.32828500  0.57863600  0.57376300  1
  C  C75  1  0.82828500  0.42136400  0.92623700  1
  C  C76  1  0.72326300  0.74872000  0.26174800  1
  C  C77  1  0.22326300  0.25128000  0.23825200  1
  C  C78  1  0.27673700  0.25128000  0.73825200  1
  C  C79  1  0.77673700  0.74872000  0.76174800  1
  C  C80  1  0.86393900  0.41660200  0.40964600  1
  C  C81  1  0.36393900  0.58339800  0.09035400  1
  C  C82  1  0.13606100  0.58339800  0.59035400  1
  C  C83  1  0.63606100  0.41660200  0.90964600  1
  C  C84  1  0.02019800  0.69883900  0.29827900  1
  C  C85  1  0.52019800  0.30116100  0.20172100  1
  C  C86  1  0.97980200  0.30116100  0.70172100  1
  C  C87  1  0.68436600  0.06964900  0.07624000  1
