# generated using pymatgen
data_Cu8Ni4C47
_symmetry_space_group_name_H-M   'P 1'
_cell_length_a   9.15515016
_cell_length_b   9.10919086
_cell_length_c   9.79312988
_cell_angle_alpha   95.11340956
_cell_angle_beta   77.61162612
_cell_angle_gamma   90.45269404
_symmetry_Int_Tables_number   1
_chemical_formula_structural   Cu8Ni4C47
_chemical_formula_sum   'Cu8 Ni4 C47'
_cell_volume   794.46411956
_cell_formula_units_Z   1
loop_
 _symmetry_equiv_pos_site_id
 _symmetry_equiv_pos_as_xyz
  1  'x, y, z'
loop_
 _atom_site_type_symbol
 _atom_site_label
 _atom_site_symmetry_multiplicity
 _atom_site_fract_x
 _atom_site_fract_y
 _atom_site_fract_z
 _atom_site_occupancy
  C  C0  1  0.08823000  0.84515000  0.78622600  1
  C  C1  1  0.11475100  0.17232300  0.14257000  1
  Ni  Ni2  1  0.30418900  0.48738100  0.90487200  1
  Ni  Ni3  1  0.33515400  0.80188700  0.49188400  1
  Ni  Ni4  1  0.64614300  0.58343400  0.14186100  1
  Ni  Ni5  1  0.75700600  0.36265800  0.51828900  1
  Cu  Cu6  1  0.98905900  0.23613900  0.52174900  1
  Cu  Cu7  1  0.88119400  0.60027100  0.31590400  1
  Cu  Cu8  1  0.59502300  0.10325100  0.34870500  1
  Cu  Cu9  1  0.56096000  0.32667900  0.13801300  1
  Cu  Cu10  1  0.62180900  0.59573400  0.79051900  1
  Cu  Cu11  1  0.51637600  0.86033700  0.64767400  1
  Cu  Cu12  1  0.06991300  0.38489100  0.82199900  1
  Cu  Cu13  1  0.09314600  0.76319800  0.37810600  1
  C  C14  1  0.04250900  0.90534200  0.06357600  1
  C  C15  1  0.14188100  0.53027000  0.18364700  1
  C  C16  1  0.19324600  0.35535100  0.58447300  1
  C  C17  1  0.60815800  0.14170100  0.57275200  1
  C  C18  1  0.75157700  0.62537700  0.85650300  1
  C  C19  1  0.43821700  0.05237800  0.38589700  1
  C  C20  1  0.44956100  0.25012700  0.06694800  1
  C  C21  1  0.67875000  0.89444300  0.13441500  1
  C  C22  1  0.82017100  0.34422500  0.92892700  1
  C  C23  1  0.67856500  0.87821400  0.36741100  1
  C  C24  1  0.70932100  0.01395200  0.68502700  1
  C  C25  1  0.38113700  0.77039800  0.22722100  1
  C  C26  1  0.96027600  0.93540300  0.32091400  1
  C  C27  1  0.89158100  0.13765100  0.78104500  1
  C  C28  1  0.62887800  0.19662300  0.21445200  1
  C  C29  1  0.08596500  0.35380700  0.62621400  1
  C  C30  1  0.07761900  0.59956600  0.26567000  1
  C  C31  1  0.14066300  0.75916700  0.53441300  1
  C  C32  1  0.05035000  0.57516300  0.83331900  1
  C  C33  1  0.48379900  0.53280600  0.90289900  1
  C  C34  1  0.33497700  0.89474300  0.66920900  1
  C  C35  1  0.25058600  0.34953400  0.78942300  1
  C  C36  1  0.06699700  0.91021300  0.29322700  1
  C  C37  1  0.05721100  0.37129800  0.01768100  1
  C  C38  1  0.19965700  0.41711900  0.06753900  1
  C  C39  1  0.29986000  0.78103500  0.31782800  1
  C  C40  1  0.62035400  0.21235400  0.49101800  1
  C  C41  1  0.50107400  0.47444300  0.24099400  1
  C  C42  1  0.06201600  0.98057800  0.99677200  1
  C  C43  1  0.66367300  0.48250700  0.65228300  1
  C  C44  1  0.53294500  0.78429800  0.48381200  1
  C  C45  1  0.60907100  0.01820500  0.65974700  1
  C  C46  1  0.53564700  0.73974500  0.12384400  1
  C  C47  1  0.61926900  0.86579700  0.06326200  1
  C  C48  1  0.00074200  0.06637100  0.58967100  1
  C  C49  1  0.81747200  0.44348400  0.36161300  1
  C  C50  1  0.71629300  0.96602700  0.31711200  1
  C  C51  1  0.69964000  0.40596800  0.03395100  1
  C  C52  1  0.80447700  0.65393900  0.19547200  1
  C  C53  1  0.09845300  0.21951800  0.37034300  1
  C  C54  1  0.90716700  0.30185500  0.84401900  1
  C  C55  1  0.90255400  0.72946800  0.43779200  1
  C  C56  1  0.56939700  0.75792000  0.75313800  1
  C  C57  1  0.18884000  0.64059600  0.87513700  1
  C  C58  1  0.89105700  0.03888900  0.72181800  1
