# generated using pymatgen
data_Cu11NiC4
_symmetry_space_group_name_H-M   'P 1'
_cell_length_a   9.84576700
_cell_length_b   9.92774700
_cell_length_c   12.03809921
_cell_angle_alpha   58.42606665
_cell_angle_beta   90.00000000
_cell_angle_gamma   90.00000000
_symmetry_Int_Tables_number   1
_chemical_formula_structural   Cu11NiC4
_chemical_formula_sum   'Cu44 Ni4 C16'
_cell_volume   1002.48999197
_cell_formula_units_Z   4
loop_
 _symmetry_equiv_pos_site_id
 _symmetry_equiv_pos_as_xyz
  1  'x, y, z'
loop_
 _atom_site_type_symbol
 _atom_site_label
 _atom_site_symmetry_multiplicity
 _atom_site_fract_x
 _atom_site_fract_y
 _atom_site_fract_z
 _atom_site_occupancy
  C  C0  1  0.72656800  0.72959600  0.58644700  1
  C  C1  1  0.77343200  0.72959600  0.08644700  1
  C  C2  1  0.27343200  0.27040400  0.41355300  1
  C  C3  1  0.22656800  0.27040400  0.91355300  1
  C  C4  1  0.47926700  0.02085000  0.36677300  1
  C  C5  1  0.02073300  0.02085000  0.86677300  1
  C  C6  1  0.52073300  0.97915000  0.63322700  1
  C  C7  1  0.97926700  0.97915000  0.13322700  1
  C  C8  1  0.54122600  0.39890200  0.23558200  1
  C  C9  1  0.95877400  0.39890200  0.73558200  1
  C  C10  1  0.45877400  0.60109800  0.76441800  1
  C  C11  1  0.04122600  0.60109800  0.26441800  1
  C  C12  1  0.69755700  0.84668300  0.28336900  1
  C  C13  1  0.80244300  0.84668300  0.78336900  1
  C  C14  1  0.30244300  0.15331700  0.71663100  1
  C  C15  1  0.19755700  0.15331700  0.21663100  1
  Ni  Ni16  1  0.74841500  0.35998500  0.97221700  1
  Ni  Ni17  1  0.75158500  0.35998500  0.47221700  1
  Ni  Ni18  1  0.25158500  0.64001500  0.02778300  1
  Ni  Ni19  1  0.24841500  0.64001500  0.52778300  1
  Cu  Cu20  1  0.81797000  0.74650300  0.71937000  1
  Cu  Cu21  1  0.68203000  0.74650300  0.21937000  1
  Cu  Cu22  1  0.18203000  0.25349700  0.28063000  1
  Cu  Cu23  1  0.31797000  0.25349700  0.78063000  1
  Cu  Cu24  1  0.74482200  0.73292800  0.42676200  1
  Cu  Cu25  1  0.75517800  0.73292800  0.92676200  1
  Cu  Cu26  1  0.25517800  0.26707200  0.57323800  1
  Cu  Cu27  1  0.24482200  0.26707200  0.07323800  1
  Cu  Cu28  1  0.86322800  0.52712500  0.65171600  1
  Cu  Cu29  1  0.63677200  0.52712500  0.15171600  1
  Cu  Cu30  1  0.13677200  0.47287500  0.34828400  1
  Cu  Cu31  1  0.36322800  0.47287500  0.84828400  1
  Cu  Cu32  1  0.58027400  0.56935600  0.70566300  1
  Cu  Cu33  1  0.91972600  0.56935600  0.20566300  1
  Cu  Cu34  1  0.41972600  0.43064400  0.29433700  1
  Cu  Cu35  1  0.08027400  0.43064400  0.79433700  1
  Cu  Cu36  1  0.30382400  0.02150000  0.29300400  1
  Cu  Cu37  1  0.19617600  0.02150000  0.79300400  1
  Cu  Cu38  1  0.69617600  0.97850000  0.70699600  1
  Cu  Cu39  1  0.80382400  0.97850000  0.20699600  1
  Cu  Cu40  1  0.55487400  0.24377300  0.24304000  1
  Cu  Cu41  1  0.94512600  0.24377300  0.74304000  1
  Cu  Cu42  1  0.44512600  0.75622700  0.75696000  1
  Cu  Cu43  1  0.05487400  0.75622700  0.25696000  1
  Cu  Cu44  1  0.55962000  0.92004600  0.28225100  1
  Cu  Cu45  1  0.94038000  0.92004600  0.78225100  1
  Cu  Cu46  1  0.44038000  0.07995400  0.71774900  1
  Cu  Cu47  1  0.05962000  0.07995400  0.21774900  1
  Cu  Cu48  1  0.33719500  0.70079900  0.54901300  1
  Cu  Cu49  1  0.16280500  0.70079900  0.04901300  1
  Cu  Cu50  1  0.66280500  0.29920100  0.45098700  1
  Cu  Cu51  1  0.83719500  0.29920100  0.95098700  1
  Cu  Cu52  1  0.60027700  0.90469100  0.52120700  1
  Cu  Cu53  1  0.89972300  0.90469100  0.02120700  1
  Cu  Cu54  1  0.39972300  0.09530900  0.47879300  1
  Cu  Cu55  1  0.10027700  0.09530900  0.97879300  1
  Cu  Cu56  1  0.92133300  0.95074200  0.45842500  1
  Cu  Cu57  1  0.57866700  0.95074200  0.95842500  1
  Cu  Cu58  1  0.07866700  0.04925800  0.54157500  1
  Cu  Cu59  1  0.42133300  0.04925800  0.04157500  1
  Cu  Cu60  1  0.09149100  0.91718500  0.55709900  1
  Cu  Cu61  1  0.40850900  0.91718500  0.05709900  1
  Cu  Cu62  1  0.90850900  0.08281500  0.44290100  1
  Cu  Cu63  1  0.59149100  0.08281500  0.94290100  1
