# generated using pymatgen
data_Cu14NiC17
_symmetry_space_group_name_H-M   'P 1'
_cell_length_a   8.64652174
_cell_length_b   8.64158022
_cell_length_c   4.28864758
_cell_angle_alpha   90.00000000
_cell_angle_beta   90.00000000
_cell_angle_gamma   90.00000000
_symmetry_Int_Tables_number   1
_chemical_formula_structural   Cu14NiC17
_chemical_formula_sum   'Cu14 Ni1 C17'
_cell_volume   320.44607992
_cell_formula_units_Z   1
loop_
 _symmetry_equiv_pos_site_id
 _symmetry_equiv_pos_as_xyz
  1  'x, y, z'
loop_
 _atom_site_type_symbol
 _atom_site_label
 _atom_site_symmetry_multiplicity
 _atom_site_fract_x
 _atom_site_fract_y
 _atom_site_fract_z
 _atom_site_occupancy
  Ni  Ni0  1  0.00000000  0.50000000  0.00000000  1
  Cu  Cu1  1  0.50000000  0.00000000  0.00000000  1
  Cu  Cu2  1  0.50000000  0.50000000  0.00000000  1
  Cu  Cu3  1  0.00000000  0.23313475  0.50000000  1
  Cu  Cu4  1  0.00000000  0.76686525  0.50000000  1
  Cu  Cu5  1  0.50000000  0.24711485  0.50000000  1
  Cu  Cu6  1  0.50000000  0.75288515  0.50000000  1
  Cu  Cu7  1  0.24726153  0.00000000  0.50000000  1
  Cu  Cu8  1  0.25776010  0.50000000  0.50000000  1
  Cu  Cu9  1  0.75273847  0.00000000  0.50000000  1
  Cu  Cu10  1  0.74223990  0.50000000  0.50000000  1
  Cu  Cu11  1  0.25424365  0.24019340  0.00000000  1
  Cu  Cu12  1  0.25424365  0.75980660  0.00000000  1
  Cu  Cu13  1  0.74575635  0.24019340  0.00000000  1
  Cu  Cu14  1  0.74575635  0.75980660  0.00000000  1
  C  C15  1  0.00000000  0.00000000  0.00000000  1
  C  C16  1  0.26392623  0.00000000  0.00000000  1
  C  C17  1  0.25434372  0.50000000  0.00000000  1
  C  C18  1  0.73607377  0.00000000  0.00000000  1
  C  C19  1  0.74565628  0.50000000  0.00000000  1
  C  C20  1  0.24811314  0.25107996  0.50000000  1
  C  C21  1  0.24811314  0.74892004  0.50000000  1
  C  C22  1  0.75188686  0.25107996  0.50000000  1
  C  C23  1  0.75188686  0.74892004  0.50000000  1
  C  C24  1  0.00000000  0.00000000  0.50000000  1
  C  C25  1  0.00000000  0.50000000  0.50000000  1
  C  C26  1  0.50000000  0.00000000  0.50000000  1
  C  C27  1  0.50000000  0.50000000  0.50000000  1
  C  C28  1  0.00000000  0.26226113  0.00000000  1
  C  C29  1  0.00000000  0.73773887  0.00000000  1
  C  C30  1  0.50000000  0.25296576  0.00000000  1
  C  C31  1  0.50000000  0.74703424  0.00000000  1
