# generated using pymatgen
data_Cu2NiC11
_symmetry_space_group_name_H-M   'P 1'
_cell_length_a   8.42003700
_cell_length_b   9.56881000
_cell_length_c   9.70193854
_cell_angle_alpha   77.75940749
_cell_angle_beta   90.00000000
_cell_angle_gamma   90.00000000
_symmetry_Int_Tables_number   1
_chemical_formula_structural   Cu2NiC11
_chemical_formula_sum   'Cu8 Ni4 C44'
_cell_volume   763.91178347
_cell_formula_units_Z   4
loop_
 _symmetry_equiv_pos_site_id
 _symmetry_equiv_pos_as_xyz
  1  'x, y, z'
loop_
 _atom_site_type_symbol
 _atom_site_label
 _atom_site_symmetry_multiplicity
 _atom_site_fract_x
 _atom_site_fract_y
 _atom_site_fract_z
 _atom_site_occupancy
  C  C0  1  0.35097100  0.78697400  0.93379900  1
  C  C1  1  0.64902900  0.21302600  0.06620100  1
  C  C2  1  0.85097100  0.21302600  0.56620100  1
  C  C3  1  0.14902900  0.78697400  0.43379900  1
  Ni  Ni4  1  0.94223700  0.66363600  0.69423500  1
  Ni  Ni5  1  0.05776300  0.33636400  0.30576500  1
  Ni  Ni6  1  0.44223700  0.33636400  0.80576500  1
  Ni  Ni7  1  0.55776300  0.66363600  0.19423500  1
  Cu  Cu8  1  0.25755500  0.57615300  0.71809700  1
  Cu  Cu9  1  0.74244500  0.42384700  0.28190300  1
  Cu  Cu10  1  0.75755500  0.42384700  0.78190300  1
  Cu  Cu11  1  0.24244500  0.57615300  0.21809700  1
  Cu  Cu12  1  0.06428200  0.92477100  0.70524200  1
  Cu  Cu13  1  0.93571800  0.07522900  0.29475800  1
  Cu  Cu14  1  0.56428200  0.07522900  0.79475800  1
  Cu  Cu15  1  0.43571800  0.92477100  0.20524200  1
  C  C16  1  0.89734300  0.80820600  0.05585300  1
  C  C17  1  0.10265700  0.19179400  0.94414700  1
  C  C18  1  0.39734300  0.19179400  0.44414700  1
  C  C19  1  0.60265700  0.80820600  0.55585300  1
  C  C20  1  0.29665300  0.41349700  0.75438600  1
  C  C21  1  0.70334700  0.58650300  0.24561400  1
  C  C22  1  0.79665300  0.58650300  0.74561400  1
  C  C23  1  0.20334700  0.41349700  0.25438600  1
  C  C24  1  0.49177900  0.92653400  0.81043100  1
  C  C25  1  0.50822100  0.07346600  0.18956900  1
  C  C26  1  0.99177900  0.07346600  0.68956900  1
  C  C27  1  0.00822100  0.92653400  0.31043100  1
  C  C28  1  0.16571400  0.90854400  0.57839900  1
  C  C29  1  0.83428600  0.09145600  0.42160100  1
  C  C30  1  0.66571400  0.09145600  0.92160100  1
  C  C31  1  0.33428600  0.90854400  0.07839900  1
  C  C32  1  0.36607000  0.65743400  0.80068000  1
  C  C33  1  0.63393000  0.34256600  0.19932000  1
  C  C34  1  0.86607000  0.34256600  0.69932000  1
  C  C35  1  0.13393000  0.65743400  0.30068000  1
  C  C36  1  0.95384300  0.69399900  0.54117800  1
  C  C37  1  0.04615700  0.30600100  0.45882200  1
  C  C38  1  0.45384300  0.30600100  0.95882200  1
  C  C39  1  0.54615700  0.69399900  0.04117800  1
  C  C40  1  0.15905700  0.89079800  0.84396700  1
  C  C41  1  0.84094300  0.10920200  0.15603300  1
  C  C42  1  0.65905700  0.10920200  0.65603300  1
  C  C43  1  0.34094300  0.89079800  0.34396700  1
  C  C44  1  0.27778400  0.63386400  0.55871000  1
  C  C45  1  0.72221600  0.36613600  0.44129000  1
  C  C46  1  0.77778400  0.36613600  0.94129000  1
  C  C47  1  0.22221600  0.63386400  0.05871000  1
  C  C48  1  0.92199300  0.81093200  0.72047100  1
  C  C49  1  0.07800700  0.18906800  0.27952900  1
  C  C50  1  0.42199300  0.18906800  0.77952900  1
  C  C51  1  0.57800700  0.81093200  0.22047100  1
  C  C52  1  0.08053800  0.58658600  0.76395100  1
  C  C53  1  0.91946200  0.41341400  0.23604900  1
  C  C54  1  0.58053800  0.41341400  0.73604900  1
  C  C55  1  0.41946200  0.58658600  0.26395100  1
