# generated using pymatgen
data_Cu4NiC3
_symmetry_space_group_name_H-M   'P 1'
_cell_length_a   9.01982800
_cell_length_b   8.54095400
_cell_length_c   9.22496142
_cell_angle_alpha   67.48799209
_cell_angle_beta   90.00000000
_cell_angle_gamma   90.00000000
_symmetry_Int_Tables_number   1
_chemical_formula_structural   Cu4NiC3
_chemical_formula_sum   'Cu16 Ni4 C12'
_cell_volume   656.51829239
_cell_formula_units_Z   4
loop_
 _symmetry_equiv_pos_site_id
 _symmetry_equiv_pos_as_xyz
  1  'x, y, z'
loop_
 _atom_site_type_symbol
 _atom_site_label
 _atom_site_symmetry_multiplicity
 _atom_site_fract_x
 _atom_site_fract_y
 _atom_site_fract_z
 _atom_site_occupancy
  C  C0  1  0.30489800  0.45910600  0.14850600  1
  C  C1  1  0.80489800  0.04089400  0.85149400  1
  C  C2  1  0.69510200  0.54089400  0.85149400  1
  C  C3  1  0.19510200  0.95910600  0.14850600  1
  C  C4  1  0.32887000  0.95144300  0.75268700  1
  C  C5  1  0.82887000  0.54855700  0.24731300  1
  C  C6  1  0.67113000  0.04855700  0.24731300  1
  C  C7  1  0.17113000  0.45144300  0.75268700  1
  C  C8  1  0.05345100  0.74269200  0.95552200  1
  C  C9  1  0.55345100  0.75730800  0.04447800  1
  C  C10  1  0.94654900  0.25730800  0.04447800  1
  C  C11  1  0.44654900  0.24269200  0.95552200  1
  Ni  Ni12  1  0.90383400  0.74362700  0.50666400  1
  Ni  Ni13  1  0.40383400  0.75637300  0.49333600  1
  Ni  Ni14  1  0.09616600  0.25637300  0.49333600  1
  Ni  Ni15  1  0.59616600  0.24362700  0.50666400  1
  Cu  Cu16  1  0.08289700  0.66202500  0.13712900  1
  Cu  Cu17  1  0.58289700  0.83797500  0.86287100  1
  Cu  Cu18  1  0.91710300  0.33797500  0.86287100  1
  Cu  Cu19  1  0.41710300  0.16202500  0.13712900  1
  Cu  Cu20  1  0.11181200  0.28593100  0.07215000  1
  Cu  Cu21  1  0.61181200  0.21406900  0.92785000  1
  Cu  Cu22  1  0.88818800  0.71406900  0.92785000  1
  Cu  Cu23  1  0.38818800  0.78593100  0.07215000  1
  Cu  Cu24  1  0.66501900  0.83092300  0.12962000  1
  Cu  Cu25  1  0.16501900  0.66907700  0.87038000  1
  Cu  Cu26  1  0.33498100  0.16907700  0.87038000  1
  Cu  Cu27  1  0.83498100  0.33092300  0.12962000  1
  Cu  Cu28  1  0.41710500  0.43722800  0.89592900  1
  Cu  Cu29  1  0.91710500  0.06277200  0.10407100  1
  Cu  Cu30  1  0.58289500  0.56277200  0.10407100  1
  Cu  Cu31  1  0.08289500  0.93722800  0.89592900  1
