# generated using pymatgen
data_Cu4Ni8C27
_symmetry_space_group_name_H-M   'P 1'
_cell_length_a   10.74870624
_cell_length_b   11.38389463
_cell_length_c   13.33065879
_cell_angle_alpha   98.34283810
_cell_angle_beta   93.83110011
_cell_angle_gamma   117.70286862
_symmetry_Int_Tables_number   1
_chemical_formula_structural   Cu4Ni8C27
_chemical_formula_sum   'Cu8 Ni16 C54'
_cell_volume   1412.02027747
_cell_formula_units_Z   2
loop_
 _symmetry_equiv_pos_site_id
 _symmetry_equiv_pos_as_xyz
  1  'x, y, z'
loop_
 _atom_site_type_symbol
 _atom_site_label
 _atom_site_symmetry_multiplicity
 _atom_site_fract_x
 _atom_site_fract_y
 _atom_site_fract_z
 _atom_site_occupancy
  C  C0  1  0.17432889  0.77524073  0.33485090  1
  C  C1  1  0.82567111  0.22475927  0.66514910  1
  C  C2  1  0.16545961  0.57079022  0.71689303  1
  C  C3  1  0.83454039  0.42920978  0.28310697  1
  C  C4  1  0.46389242  0.63415555  0.01493398  1
  C  C5  1  0.53610758  0.36584445  0.98506602  1
  C  C6  1  0.32393220  0.41131685  0.50530438  1
  C  C7  1  0.67606780  0.58868315  0.49469562  1
  Ni  Ni8  1  0.55697250  0.87907038  0.92316803  1
  Ni  Ni9  1  0.44302750  0.12092962  0.07683197  1
  Ni  Ni10  1  0.43542555  0.76324594  0.84146879  1
  Ni  Ni11  1  0.56457445  0.23675406  0.15853121  1
  Ni  Ni12  1  0.40823960  0.74337848  0.21472129  1
  Ni  Ni13  1  0.59176040  0.25662152  0.78527871  1
  Ni  Ni14  1  0.13883983  0.25526907  0.64285976  1
  Ni  Ni15  1  0.86116017  0.74473093  0.35714024  1
  Ni  Ni16  1  0.17918007  0.15477276  0.58098094  1
  Ni  Ni17  1  0.82081993  0.84522724  0.41901906  1
  Ni  Ni18  1  0.06299918  0.35601222  0.37272258  1
  Ni  Ni19  1  0.93700082  0.64398778  0.62727742  1
  Ni  Ni20  1  0.26982421  0.68809688  0.13663517  1
  Ni  Ni21  1  0.73017579  0.31190312  0.86336483  1
  Ni  Ni22  1  0.12556365  0.50607648  0.42680619  1
  Ni  Ni23  1  0.87443635  0.49392352  0.57319381  1
  Cu  Cu24  1  0.52233472  0.62860533  0.62061971  1
  Cu  Cu25  1  0.47766528  0.37139467  0.37938029  1
  Cu  Cu26  1  0.63686115  0.58570303  0.90823046  1
  Cu  Cu27  1  0.36313885  0.41429697  0.09176954  1
  Cu  Cu28  1  0.69281489  0.62176218  0.06326691  1
  Cu  Cu29  1  0.30718511  0.37823782  0.93673309  1
  Cu  Cu30  1  0.54620330  0.46238155  0.63297839  1
  Cu  Cu31  1  0.45379670  0.53761845  0.36702161  1
  C  C32  1  0.06117546  0.81323018  0.96401871  1
  C  C33  1  0.93882454  0.18676982  0.03598129  1
  C  C34  1  0.62031466  0.95684713  0.55788108  1
  C  C35  1  0.37968534  0.04315287  0.44211892  1
  C  C36  1  0.09626835  0.04553239  0.23812186  1
  C  C37  1  0.90373165  0.95446761  0.76187814  1
  C  C38  1  0.22599270  0.97265633  0.81575149  1
  C  C39  1  0.77400730  0.02734367  0.18424851  1
  C  C40  1  0.39214288  0.78115104  0.76079919  1
  C  C41  1  0.60785712  0.21884896  0.23920081  1
  C  C42  1  0.16244578  0.68641579  0.16483969  1
  C  C43  1  0.83755422  0.31358421  0.83516031  1
  C  C44  1  0.50671831  0.72587956  0.17392836  1
  C  C45  1  0.49328169  0.27412044  0.82607164  1
  C  C46  1  0.04176429  0.53190581  0.87391855  1
  C  C47  1  0.95823571  0.46809419  0.12608145  1
  C  C48  1  0.26984867  0.21407401  0.51815801  1
  C  C49  1  0.73015133  0.78592599  0.48184199  1
  C  C50  1  0.61964653  0.99586681  0.91435263  1
  C  C51  1  0.38035347  0.00413319  0.08564737  1
  C  C52  1  0.04400016  0.22316449  0.69542874  1
  C  C53  1  0.95599984  0.77683551  0.30457126  1
  C  C54  1  0.12927867  0.03751060  0.58940547  1
  C  C55  1  0.87072133  0.96248940  0.41059453  1
  C  C56  1  0.07093456  0.57473130  0.40118566  1
  C  C57  1  0.92906544  0.42526870  0.59881434  1
  C  C58  1  0.23448060  0.54754596  0.49655899  1
  C  C59  1  0.76551940  0.45245404  0.50344101  1
  C  C60  1  0.28007675  0.63922827  0.04400147  1
  C  C61  1  0.71992325  0.36077173  0.95599853  1
  C  C62  1  0.62801609  0.95340915  0.64842181  1
  C  C63  1  0.37198391  0.04659085  0.35157819  1
  C  C64  1  0.38396265  0.64420355  0.86816251  1
  C  C65  1  0.61603735  0.35579645  0.13183749  1
  C  C66  1  0.14413155  0.30321787  0.39809885  1
  C  C67  1  0.85586845  0.69678213  0.60190115  1
  C  C68  1  0.58022014  0.83043423  0.00512523  1
  C  C69  1  0.41977986  0.16956577  0.99487477  1
  C  C70  1  0.31501311  0.95525663  0.48933126  1
  C  C71  1  0.68498689  0.04474337  0.51066874  1
  C  C72  1  0.41203770  0.78837272  0.30546161  1
  C  C73  1  0.58796230  0.21162728  0.69453839  1
  C  C74  1  0.95024333  0.29745748  0.31398783  1
  C  C75  1  0.04975667  0.70254252  0.68601217  1
  C  C76  1  0.21554941  0.38278091  0.62886106  1
  C  C77  1  0.78445059  0.61721909  0.37113894  1
