# generated using pymatgen
data_Cu2NiC16
_symmetry_space_group_name_H-M   'P 1'
_cell_length_a   5.78068311
_cell_length_b   5.76872108
_cell_length_c   9.38160883
_cell_angle_alpha   71.91379799
_cell_angle_beta   71.92117984
_cell_angle_gamma   89.52877746
_symmetry_Int_Tables_number   1
_chemical_formula_structural   Cu2NiC16
_chemical_formula_sum   'Cu2 Ni1 C16'
_cell_volume   281.36282931
_cell_formula_units_Z   1
loop_
 _symmetry_equiv_pos_site_id
 _symmetry_equiv_pos_as_xyz
  1  'x, y, z'
loop_
 _atom_site_type_symbol
 _atom_site_label
 _atom_site_symmetry_multiplicity
 _atom_site_fract_x
 _atom_site_fract_y
 _atom_site_fract_z
 _atom_site_occupancy
  C  C0  1  0.08499100  0.61654500  0.81678100  1
  C  C1  1  0.90143300  0.37477900  0.21121000  1
  C  C2  1  0.59741400  0.06716100  0.81692300  1
  C  C3  1  0.38710300  0.91369200  0.21124400  1
  Ni  Ni4  1  0.96939800  0.46893800  0.56150200  1
  Cu  Cu5  1  0.48940200  0.48438400  0.02552400  1
  Cu  Cu6  1  0.98465000  0.99005800  0.02547100  1
  C  C7  1  0.62351300  0.73046700  0.49452900  1
  C  C8  1  0.38191200  0.27414600  0.49459700  1
  C  C9  1  0.24980100  0.25015500  0.99980500  1
  C  C10  1  0.24612500  0.74632500  0.00742000  1
  C  C11  1  0.75252900  0.25276400  0.99427400  1
  C  C12  1  0.74222200  0.74233200  0.01517000  1
  C  C13  1  0.72488600  0.66294000  0.67323600  1
  C  C14  1  0.36198600  0.31152700  0.29623400  1
  C  C15  1  0.10213000  0.16299000  0.67343500  1
  C  C16  1  0.84138900  0.89204800  0.29613800  1
  C  C17  1  0.30188400  0.64405400  0.50041400  1
  C  C18  1  0.69770800  0.35517200  0.50038000  1
