# generated using pymatgen
data_CuNi3C
_symmetry_space_group_name_H-M   'P 1'
_cell_length_a   10.67156358
_cell_length_b   10.67156358
_cell_length_c   3.92452600
_cell_angle_alpha   90.00000000
_cell_angle_beta   90.00000000
_cell_angle_gamma   158.82224762
_symmetry_Int_Tables_number   1
_chemical_formula_structural   CuNi3C
_chemical_formula_sum   'Cu2 Ni6 C2'
_cell_volume   161.46047982
_cell_formula_units_Z   2
loop_
 _symmetry_equiv_pos_site_id
 _symmetry_equiv_pos_as_xyz
  1  'x, y, z'
loop_
 _atom_site_type_symbol
 _atom_site_label
 _atom_site_symmetry_multiplicity
 _atom_site_fract_x
 _atom_site_fract_y
 _atom_site_fract_z
 _atom_site_occupancy
  C  C0  1  0.66884600  0.33115400  0.50000000  1
  C  C1  1  0.33115400  0.66884600  0.50000000  1
  Ni  Ni2  1  0.55619800  0.44380200  0.00000000  1
  Ni  Ni3  1  0.44380200  0.55619800  0.00000000  1
  Ni  Ni4  1  0.78193400  0.21806600  0.00000000  1
  Ni  Ni5  1  0.21806600  0.78193400  0.00000000  1
  Ni  Ni6  1  0.05613300  0.94386700  0.50000000  1
  Ni  Ni7  1  0.94386700  0.05613300  0.50000000  1
  Cu  Cu8  1  0.88918300  0.11081700  0.00000000  1
  Cu  Cu9  1  0.11081700  0.88918300  0.00000000  1
