# generated using pymatgen
data_Cu2Ni2C15
_symmetry_space_group_name_H-M   'P 1'
_cell_length_a   10.38258900
_cell_length_b   10.38258900
_cell_length_c   10.38258900
_cell_angle_alpha   90.00000000
_cell_angle_beta   90.00000000
_cell_angle_gamma   90.00000000
_symmetry_Int_Tables_number   1
_chemical_formula_structural   Cu2Ni2C15
_chemical_formula_sum   'Cu8 Ni8 C60'
_cell_volume   1119.22393150
_cell_formula_units_Z   4
loop_
 _symmetry_equiv_pos_site_id
 _symmetry_equiv_pos_as_xyz
  1  'x, y, z'
loop_
 _atom_site_type_symbol
 _atom_site_label
 _atom_site_symmetry_multiplicity
 _atom_site_fract_x
 _atom_site_fract_y
 _atom_site_fract_z
 _atom_site_occupancy
  Ni  Ni0  1  0.33494500  0.33494500  0.33494500  1
  Ni  Ni1  1  0.16505500  0.66505500  0.83494500  1
  Ni  Ni2  1  0.66505500  0.83494500  0.16505500  1
  Ni  Ni3  1  0.83494500  0.16505500  0.66505500  1
  Ni  Ni4  1  0.59832700  0.59832700  0.59832700  1
  Ni  Ni5  1  0.90167300  0.40167300  0.09832700  1
  Ni  Ni6  1  0.40167300  0.09832700  0.90167300  1
  Ni  Ni7  1  0.09832700  0.90167300  0.40167300  1
  Cu  Cu8  1  0.04827600  0.04827600  0.04827600  1
  Cu  Cu9  1  0.45172400  0.95172400  0.54827600  1
  Cu  Cu10  1  0.95172400  0.54827600  0.45172400  1
  Cu  Cu11  1  0.54827600  0.45172400  0.95172400  1
  Cu  Cu12  1  0.81703500  0.81703500  0.81703500  1
  Cu  Cu13  1  0.68296500  0.18296500  0.31703500  1
  Cu  Cu14  1  0.18296500  0.31703500  0.68296500  1
  Cu  Cu15  1  0.31703500  0.68296500  0.18296500  1
  C  C16  1  0.01789800  0.21629900  0.37588200  1
  C  C17  1  0.48210200  0.78370100  0.87588200  1
  C  C18  1  0.98210200  0.71629900  0.12411800  1
  C  C19  1  0.37588200  0.01789800  0.21629900  1
  C  C20  1  0.51789800  0.28370100  0.62411800  1
  C  C21  1  0.87588200  0.48210200  0.78370100  1
  C  C22  1  0.12411800  0.98210200  0.71629900  1
  C  C23  1  0.62411800  0.51789800  0.28370100  1
  C  C24  1  0.21629900  0.37588200  0.01789800  1
  C  C25  1  0.71629900  0.12411800  0.98210200  1
  C  C26  1  0.28370100  0.62411800  0.51789800  1
  C  C27  1  0.78370100  0.87588200  0.48210200  1
  C  C28  1  0.00889800  0.08003000  0.32991800  1
  C  C29  1  0.49110200  0.91997000  0.82991800  1
  C  C30  1  0.99110200  0.58003000  0.17008200  1
  C  C31  1  0.32991800  0.00889800  0.08003000  1
  C  C32  1  0.50889800  0.41997000  0.67008200  1
  C  C33  1  0.82991800  0.49110200  0.91997000  1
  C  C34  1  0.17008200  0.99110200  0.58003000  1
  C  C35  1  0.67008200  0.50889800  0.41997000  1
  C  C36  1  0.08003000  0.32991800  0.00889800  1
  C  C37  1  0.58003000  0.17008200  0.99110200  1
  C  C38  1  0.41997000  0.67008200  0.50889800  1
  C  C39  1  0.91997000  0.82991800  0.49110200  1
  C  C40  1  0.26585000  0.50284100  0.44294400  1
  C  C41  1  0.23415000  0.49715900  0.94294400  1
  C  C42  1  0.73415000  0.00284100  0.05705600  1
  C  C43  1  0.44294400  0.26585000  0.50284100  1
  C  C44  1  0.76585000  0.99715900  0.55705600  1
  C  C45  1  0.94294400  0.23415000  0.49715900  1
  C  C46  1  0.05705600  0.73415000  0.00284100  1
  C  C47  1  0.55705600  0.76585000  0.99715900  1
  C  C48  1  0.50284100  0.44294400  0.26585000  1
  C  C49  1  0.00284100  0.05705600  0.73415000  1
  C  C50  1  0.99715900  0.55705600  0.76585000  1
  C  C51  1  0.49715900  0.94294400  0.23415000  1
  C  C52  1  0.03998300  0.80177400  0.22353600  1
  C  C53  1  0.46001700  0.19822600  0.72353600  1
  C  C54  1  0.96001700  0.30177400  0.27646400  1
  C  C55  1  0.22353600  0.03998300  0.80177400  1
  C  C56  1  0.53998300  0.69822600  0.77646400  1
  C  C57  1  0.72353600  0.46001700  0.19822600  1
  C  C58  1  0.27646400  0.96001700  0.30177400  1
  C  C59  1  0.77646400  0.53998300  0.69822600  1
  C  C60  1  0.80177400  0.22353600  0.03998300  1
  C  C61  1  0.30177400  0.27646400  0.96001700  1
  C  C62  1  0.69822600  0.77646400  0.53998300  1
  C  C63  1  0.19822600  0.72353600  0.46001700  1
  C  C64  1  0.15406000  0.25175200  0.40171300  1
  C  C65  1  0.34594000  0.74824800  0.90171300  1
  C  C66  1  0.84594000  0.75175200  0.09828700  1
  C  C67  1  0.40171300  0.15406000  0.25175200  1
  C  C68  1  0.65406000  0.24824800  0.59828700  1
  C  C69  1  0.90171300  0.34594000  0.74824800  1
  C  C70  1  0.09828700  0.84594000  0.75175200  1
  C  C71  1  0.59828700  0.65406000  0.24824800  1
  C  C72  1  0.25175200  0.40171300  0.15406000  1
  C  C73  1  0.75175200  0.09828700  0.84594000  1
  C  C74  1  0.24824800  0.59828700  0.65406000  1
  C  C75  1  0.74824800  0.90171300  0.34594000  1
