# generated using pymatgen
data_CuNiC8
_symmetry_space_group_name_H-M   'P 1'
_cell_length_a   8.52850370
_cell_length_b   8.52301542
_cell_length_c   8.52918103
_cell_angle_alpha   90.00000000
_cell_angle_beta   90.00000000
_cell_angle_gamma   90.00000000
_symmetry_Int_Tables_number   1
_chemical_formula_structural   CuNiC8
_chemical_formula_sum   'Cu4 Ni4 C32'
_cell_volume   619.97395993
_cell_formula_units_Z   4
loop_
 _symmetry_equiv_pos_site_id
 _symmetry_equiv_pos_as_xyz
  1  'x, y, z'
loop_
 _atom_site_type_symbol
 _atom_site_label
 _atom_site_symmetry_multiplicity
 _atom_site_fract_x
 _atom_site_fract_y
 _atom_site_fract_z
 _atom_site_occupancy
  C  C0  1  0.00000000  0.50000000  0.50000000  1
  C  C1  1  0.50000000  0.00000000  0.50000000  1
  C  C2  1  0.50000000  0.00000000  0.00000000  1
  C  C3  1  -0.00000000  0.50000000  0.00000000  1
  Ni  Ni4  1  0.75000000  0.75000000  0.75000000  1
  Ni  Ni5  1  0.25000000  0.25000000  0.75000000  1
  Ni  Ni6  1  0.25000000  0.75000000  0.25000000  1
  Ni  Ni7  1  0.75000000  0.25000000  0.25000000  1
  Cu  Cu8  1  0.50000000  0.50000000  0.00000000  1
  Cu  Cu9  1  0.00000000  0.00000000  0.50000000  1
  Cu  Cu10  1  -0.00000000  0.00000000  0.00000000  1
  Cu  Cu11  1  0.50000000  0.50000000  0.50000000  1
  C  C12  1  0.25000000  0.25000000  0.25000000  1
  C  C13  1  0.75000000  0.75000000  0.25000000  1
  C  C14  1  0.75000000  0.25000000  0.75000000  1
  C  C15  1  0.25000000  0.75000000  0.75000000  1
  C  C16  1  0.02056262  0.20329536  0.28752944  1
  C  C17  1  0.97943738  0.79670464  0.28752944  1
  C  C18  1  0.97943738  0.20329536  0.71247056  1
  C  C19  1  0.02056262  0.79670464  0.71247056  1
  C  C20  1  0.28666546  0.02019338  0.20488633  1
  C  C21  1  0.28666546  0.97980662  0.79511367  1
  C  C22  1  0.71333454  0.97980662  0.20488633  1
  C  C23  1  0.71333454  0.02019338  0.79511367  1
  C  C24  1  0.20477252  0.28628393  0.02024147  1
  C  C25  1  0.79522748  0.28628393  0.97975853  1
  C  C26  1  0.20477252  0.71371607  0.97975853  1
  C  C27  1  0.79522748  0.71371607  0.02024147  1
  C  C28  1  0.47943738  0.29670464  0.21247056  1
  C  C29  1  0.52056262  0.70329536  0.21247056  1
  C  C30  1  0.52056262  0.29670464  0.78752944  1
  C  C31  1  0.47943738  0.70329536  0.78752944  1
  C  C32  1  0.21333454  0.47980662  0.29511367  1
  C  C33  1  0.21333454  0.52019338  0.70488633  1
  C  C34  1  0.78666546  0.52019338  0.29511367  1
  C  C35  1  0.78666546  0.47980662  0.70488633  1
  C  C36  1  0.29522748  0.21371607  0.47975853  1
  C  C37  1  0.70477252  0.21371607  0.52024147  1
  C  C38  1  0.29522748  0.78628393  0.52024147  1
  C  C39  1  0.70477252  0.78628393  0.47975853  1
