# generated using pymatgen
data_Cu3NiC
_symmetry_space_group_name_H-M   'P 1'
_cell_length_a   19.95751509
_cell_length_b   19.95751509
_cell_length_c   18.68372545
_cell_angle_alpha   64.10242937
_cell_angle_beta   64.10242937
_cell_angle_gamma   60.40825683
_symmetry_Int_Tables_number   1
_chemical_formula_structural   Cu3NiC
_chemical_formula_sum   'Cu6 Ni2 C2'
_cell_volume   5583.92663582
_cell_formula_units_Z   2
loop_
 _symmetry_equiv_pos_site_id
 _symmetry_equiv_pos_as_xyz
  1  'x, y, z'
loop_
 _atom_site_type_symbol
 _atom_site_label
 _atom_site_symmetry_multiplicity
 _atom_site_fract_x
 _atom_site_fract_y
 _atom_site_fract_z
 _atom_site_occupancy
  C  C0  1  0.73547800  0.76462300  0.24585200  1
  C  C1  1  0.23537700  0.26452200  0.75414800  1
  Ni  Ni2  1  0.50000200  0.49999800  0.00000000  1
  Ni  Ni3  1  0.99999700  0.00000300  0.50000000  1
  Cu  Cu4  1  0.03455600  0.98277900  0.94278800  1
  Cu  Cu5  1  0.01722100  0.96544400  0.05721200  1
  Cu  Cu6  1  0.48276500  0.53472900  0.54118400  1
  Cu  Cu7  1  0.46527100  0.51723500  0.45881600  1
  Cu  Cu8  1  0.25608500  0.24395400  0.31595000  1
  Cu  Cu9  1  0.75604600  0.74391500  0.68405000  1
