# generated using pymatgen
data_Cu5Ni2C25
_symmetry_space_group_name_H-M   'P 1'
_cell_length_a   5.11595800
_cell_length_b   7.72323835
_cell_length_c   7.73466347
_cell_angle_alpha   82.86493617
_cell_angle_beta   83.47508104
_cell_angle_gamma   71.54790445
_symmetry_Int_Tables_number   1
_chemical_formula_structural   Cu5Ni2C25
_chemical_formula_sum   'Cu5 Ni2 C25'
_cell_volume   286.75526093
_cell_formula_units_Z   1
loop_
 _symmetry_equiv_pos_site_id
 _symmetry_equiv_pos_as_xyz
  1  'x, y, z'
loop_
 _atom_site_type_symbol
 _atom_site_label
 _atom_site_symmetry_multiplicity
 _atom_site_fract_x
 _atom_site_fract_y
 _atom_site_fract_z
 _atom_site_occupancy
  C  C0  1  0.51132500  0.80448500  0.06149200  1
  C  C1  1  0.50062100  0.44438200  0.18402300  1
  C  C2  1  0.50772900  0.67970000  0.44739500  1
  C  C3  1  0.49227100  0.32030000  0.55260500  1
  C  C4  1  0.49937900  0.55561800  0.81597700  1
  C  C5  1  0.48867500  0.19551500  0.93850800  1
  C  C6  1  0.48731200  0.06917400  0.31145000  1
  C  C7  1  0.51268800  0.93082600  0.68855000  1
  C  C8  1  0.00000000  0.50000000  0.00000000  1
  Ni  Ni9  1  0.01345200  0.86795100  0.87640600  1
  Ni  Ni10  1  0.98654800  0.13204900  0.12359400  1
  Cu  Cu11  1  0.99842200  0.74073600  0.24676900  1
  Cu  Cu12  1  0.99527000  0.37713100  0.37104200  1
  Cu  Cu13  1  0.00000000  0.00000000  0.50000000  1
  Cu  Cu14  1  0.00473000  0.62286900  0.62895800  1
  Cu  Cu15  1  0.00157800  0.25926400  0.75323100  1
  C  C16  1  0.22180400  0.03351200  0.91756500  1
  C  C17  1  0.23631700  0.67515800  0.02526900  1
  C  C18  1  0.20433500  0.92331500  0.28097800  1
  C  C19  1  0.23298000  0.53892700  0.40763300  1
  C  C20  1  0.24529600  0.77999900  0.67336200  1
  C  C21  1  0.23681100  0.39642000  0.77065700  1
  C  C22  1  0.21373400  0.27630400  0.16135600  1
  C  C23  1  0.21502700  0.15689600  0.52447000  1
  C  C24  1  0.76318900  0.60358000  0.22934300  1
  C  C25  1  0.75470400  0.22000100  0.32663800  1
  C  C26  1  0.76702000  0.46107300  0.59236700  1
  C  C27  1  0.79566500  0.07668500  0.71902200  1
  C  C28  1  0.76368300  0.32484200  0.97473100  1
  C  C29  1  0.77819600  0.96648800  0.08243500  1
  C  C30  1  0.78497300  0.84310400  0.47553000  1
  C  C31  1  0.78626600  0.72369600  0.83864400  1
