# generated using pymatgen
data_Cu2NiC22
_symmetry_space_group_name_H-M   'P 1'
_cell_length_a   5.07535730
_cell_length_b   7.20948783
_cell_length_c   7.20948537
_cell_angle_alpha   106.70947057
_cell_angle_beta   89.24516964
_cell_angle_gamma   89.24516911
_symmetry_Int_Tables_number   1
_chemical_formula_structural   Cu2NiC22
_chemical_formula_sum   'Cu2 Ni1 C22'
_cell_volume   252.59978379
_cell_formula_units_Z   1
loop_
 _symmetry_equiv_pos_site_id
 _symmetry_equiv_pos_as_xyz
  1  'x, y, z'
loop_
 _atom_site_type_symbol
 _atom_site_label
 _atom_site_symmetry_multiplicity
 _atom_site_fract_x
 _atom_site_fract_y
 _atom_site_fract_z
 _atom_site_occupancy
  Ni  Ni0  1  0.50000000  0.05156681  0.94843319  1
  Cu  Cu1  1  0.74698970  0.70541227  0.69941169  1
  Cu  Cu2  1  0.25301030  0.30058831  0.29458773  1
  C  C3  1  0.76251483  0.41467224  0.20613665  1
  C  C4  1  0.23748517  0.79386335  0.58532776  1
  C  C5  1  1.00000000  0.72978208  0.27021792  1
  C  C6  1  0.00000000  0.27550162  0.72449838  1
  C  C7  1  0.50000000  0.28430041  0.71569959  1
  C  C8  1  0.76219733  0.20359883  0.40678090  1
  C  C9  1  0.23780267  0.59321909  0.79640117  1
  C  C10  1  0.50000000  0.72789950  0.27210050  1
  C  C11  1  0.22210394  0.78731757  0.78296351  1
  C  C12  1  0.77789606  0.21703649  0.21268243  1
  C  C13  1  0.74201293  0.22354455  0.79685368  1
  C  C14  1  0.25798707  0.20314632  0.77645545  1
  C  C15  1  0.52177460  0.22505712  0.49631018  1
  C  C16  1  0.47822540  0.50368981  0.77494288  1
  C  C17  1  0.99156633  0.21572377  0.50378065  1
  C  C18  1  0.74758834  0.79991115  0.21929281  1
  C  C19  1  0.52251217  0.50092862  0.21982540  1
  C  C20  1  0.47748783  0.78017460  0.49907138  1
  C  C21  1  0.99406657  0.50556419  0.21525825  1
  C  C22  1  0.25241166  0.78070719  0.20008885  1
  C  C23  1  0.00843367  0.49621935  0.78427623  1
  C  C24  1  0.00593343  0.78474175  0.49443581  1
