# generated using pymatgen
data_Cu17Ni5C3
_symmetry_space_group_name_H-M   'P 1'
_cell_length_a   12.40014030
_cell_length_b   12.15731267
_cell_length_c   8.39183571
_cell_angle_alpha   71.58423260
_cell_angle_beta   68.46746513
_cell_angle_gamma   39.94830226
_symmetry_Int_Tables_number   1
_chemical_formula_structural   Cu17Ni5C3
_chemical_formula_sum   'Cu34 Ni10 C6'
_cell_volume   754.35307541
_cell_formula_units_Z   2
loop_
 _symmetry_equiv_pos_site_id
 _symmetry_equiv_pos_as_xyz
  1  'x, y, z'
loop_
 _atom_site_type_symbol
 _atom_site_label
 _atom_site_symmetry_multiplicity
 _atom_site_fract_x
 _atom_site_fract_y
 _atom_site_fract_z
 _atom_site_occupancy
  C  C0  1  0.57277500  0.71975700  0.89382100  1
  C  C1  1  0.89382100  0.81364700  0.57277500  1
  C  C2  1  0.43635300  0.35617900  0.53024300  1
  C  C3  1  0.53024300  0.67722500  0.43635300  1
  C  C4  1  0.25087800  0.24912200  0.25087800  1
  C  C5  1  0.00087800  0.99912200  0.00087800  1
  Ni  Ni6  1  0.04294400  0.43944300  0.58928400  1
  Ni  Ni7  1  0.58928400  0.92832900  0.04294400  1
  Ni  Ni8  1  0.32167100  0.66071600  0.81055700  1
  Ni  Ni9  1  0.81055700  0.20705600  0.32167100  1
  Ni  Ni10  1  0.90988500  0.43733100  0.17469300  1
  Ni  Ni11  1  0.17469300  0.47809000  0.90988500  1
  Ni  Ni12  1  0.77191000  0.07530700  0.81266900  1
  Ni  Ni13  1  0.81266900  0.34011500  0.77191000  1
  Ni  Ni14  1  0.50906100  0.99093900  0.50906100  1
  Ni  Ni15  1  0.25906100  0.74093900  0.25906100  1
  Cu  Cu16  1  0.11006600  0.29239300  0.58621400  1
  Cu  Cu17  1  0.58621400  0.01132800  0.11006600  1
  Cu  Cu18  1  0.23867200  0.66378600  0.95760700  1
  Cu  Cu19  1  0.95760700  0.13993400  0.23867200  1
  Cu  Cu20  1  0.08922800  0.49285200  0.45283300  1
  Cu  Cu21  1  0.45283300  0.96508700  0.08922800  1
  Cu  Cu22  1  0.28491300  0.79716700  0.75714800  1
  Cu  Cu23  1  0.75714800  0.16077200  0.28491300  1
  Cu  Cu24  1  0.93776700  0.52931800  0.71468200  1
  Cu  Cu25  1  0.71468200  0.81823400  0.93776700  1
  Cu  Cu26  1  0.43176600  0.53531800  0.72068200  1
  Cu  Cu27  1  0.72068200  0.31223300  0.43176600  1
  Cu  Cu28  1  0.90669100  0.47352000  0.30473300  1
  Cu  Cu29  1  0.30473300  0.31505600  0.90669100  1
  Cu  Cu30  1  0.93494400  0.94526700  0.77648000  1
  Cu  Cu31  1  0.77648000  0.34330900  0.93494400  1
  Cu  Cu32  1  0.05710200  0.31541000  0.08634200  1
  Cu  Cu33  1  0.08634200  0.54114600  0.05710200  1
  Cu  Cu34  1  0.70885400  0.16365800  0.93459000  1
  Cu  Cu35  1  0.93459000  0.19289800  0.70885400  1
  Cu  Cu36  1  0.77448300  0.51824600  0.13659700  1
  Cu  Cu37  1  0.13659700  0.57067400  0.77448300  1
  Cu  Cu38  1  0.67932600  0.11340300  0.73175400  1
  Cu  Cu39  1  0.73175400  0.47551700  0.67932600  1
  Cu  Cu40  1  0.46351300  0.12956000  0.44829200  1
  Cu  Cu41  1  0.44829200  0.95863400  0.46351300  1
  Cu  Cu42  1  0.29136600  0.80170800  0.12044000  1
  Cu  Cu43  1  0.12044000  0.78648700  0.29136600  1
  Cu  Cu44  1  0.61001900  0.88998100  0.61001900  1
  Cu  Cu45  1  0.36001900  0.63998100  0.36001900  1
  Cu  Cu46  1  0.17066600  0.08221700  0.38773100  1
  Cu  Cu47  1  0.38773100  0.35938700  0.17066600  1
  Cu  Cu48  1  0.89061300  0.86226900  0.16778300  1
  Cu  Cu49  1  0.16778300  0.07933400  0.89061300  1
