# generated using pymatgen
data_Cu2NiC12
_symmetry_space_group_name_H-M   'P 1'
_cell_length_a   5.83758156
_cell_length_b   5.83758156
_cell_length_c   8.86256520
_cell_angle_alpha   65.02819117
_cell_angle_beta   65.02819117
_cell_angle_gamma   65.11011798
_symmetry_Int_Tables_number   1
_chemical_formula_structural   Cu2NiC12
_chemical_formula_sum   'Cu2 Ni1 C12'
_cell_volume   237.11942818
_cell_formula_units_Z   1
loop_
 _symmetry_equiv_pos_site_id
 _symmetry_equiv_pos_as_xyz
  1  'x, y, z'
loop_
 _atom_site_type_symbol
 _atom_site_label
 _atom_site_symmetry_multiplicity
 _atom_site_fract_x
 _atom_site_fract_y
 _atom_site_fract_z
 _atom_site_occupancy
  Ni  Ni0  1  0.50000000  0.50000000  0.50000000  1
  Cu  Cu1  1  0.00000000  0.50000000  0.00000000  1
  Cu  Cu2  1  0.50000000  0.00000000  0.00000000  1
  C  C3  1  0.06258000  0.06258000  0.73140400  1
  C  C4  1  0.93742000  0.93742000  0.26859600  1
  C  C5  1  0.17032400  0.17032400  0.82757300  1
  C  C6  1  0.82967600  0.82967600  0.17242700  1
  C  C7  1  0.16802100  0.16802100  0.51785800  1
  C  C8  1  0.83197900  0.83197900  0.48214200  1
  C  C9  1  0.72032900  0.17045900  0.78974400  1
  C  C10  1  0.17045900  0.72032900  0.78974400  1
  C  C11  1  0.27967100  0.82954100  0.21025600  1
  C  C12  1  0.82954100  0.27967100  0.21025600  1
  C  C13  1  0.68630400  0.68630400  0.95660400  1
  C  C14  1  0.31369600  0.31369600  0.04339600  1
