# generated using pymatgen
data_Cu14NiC17
_symmetry_space_group_name_H-M   'P 1'
_cell_length_a   4.29650800
_cell_length_b   8.63041800
_cell_length_c   8.64905000
_cell_angle_alpha   90.00000000
_cell_angle_beta   90.00000000
_cell_angle_gamma   90.00000000
_symmetry_Int_Tables_number   1
_chemical_formula_structural   Cu14NiC17
_chemical_formula_sum   'Cu14 Ni1 C17'
_cell_volume   320.71248220
_cell_formula_units_Z   1
loop_
 _symmetry_equiv_pos_site_id
 _symmetry_equiv_pos_as_xyz
  1  'x, y, z'
loop_
 _atom_site_type_symbol
 _atom_site_label
 _atom_site_symmetry_multiplicity
 _atom_site_fract_x
 _atom_site_fract_y
 _atom_site_fract_z
 _atom_site_occupancy
  Ni  Ni0  1  0.00000000  0.50000000  0.00000000  1
  Cu  Cu1  1  0.00000000  0.00000000  0.50000000  1
  Cu  Cu2  1  0.00000000  0.50000000  0.50000000  1
  Cu  Cu3  1  0.50000000  0.75506700  0.00000000  1
  Cu  Cu4  1  0.50000000  0.24493300  0.00000000  1
  Cu  Cu5  1  0.50000000  0.75025300  0.50000000  1
  Cu  Cu6  1  0.50000000  0.24974700  0.50000000  1
  Cu  Cu7  1  0.50000000  0.00000000  0.74788300  1
  Cu  Cu8  1  0.50000000  0.50000000  0.74259900  1
  Cu  Cu9  1  0.50000000  0.00000000  0.25211700  1
  Cu  Cu10  1  0.50000000  0.50000000  0.25740100  1
  Cu  Cu11  1  0.00000000  0.75004200  0.74694800  1
  Cu  Cu12  1  0.00000000  0.24995800  0.74694800  1
  Cu  Cu13  1  0.00000000  0.75004200  0.25305200  1
  Cu  Cu14  1  0.00000000  0.24995800  0.25305200  1
  C  C15  1  0.00000000  0.00000000  0.00000000  1
  C  C16  1  0.00000000  0.00000000  0.76231400  1
  C  C17  1  0.00000000  0.50000000  0.73559400  1
  C  C18  1  0.00000000  0.00000000  0.23768600  1
  C  C19  1  0.00000000  0.50000000  0.26440600  1
  C  C20  1  0.50000000  0.75108500  0.74917100  1
  C  C21  1  0.50000000  0.24891500  0.74917100  1
  C  C22  1  0.50000000  0.75108500  0.25082900  1
  C  C23  1  0.50000000  0.24891500  0.25082900  1
  C  C24  1  0.50000000  0.00000000  0.00000000  1
  C  C25  1  0.50000000  0.50000000  0.00000000  1
  C  C26  1  0.50000000  0.00000000  0.50000000  1
  C  C27  1  0.50000000  0.50000000  0.50000000  1
  C  C28  1  0.00000000  0.78199500  0.00000000  1
  C  C29  1  0.00000000  0.21800500  0.00000000  1
  C  C30  1  0.00000000  0.75470300  0.50000000  1
  C  C31  1  0.00000000  0.24529700  0.50000000  1
