# generated using pymatgen
data_Cu3NiC19
_symmetry_space_group_name_H-M   'P 1'
_cell_length_a   25.54870900
_cell_length_b   5.26602900
_cell_length_c   14.80734309
_cell_angle_alpha   89.91554608
_cell_angle_beta   90.00000000
_cell_angle_gamma   90.00000000
_symmetry_Int_Tables_number   1
_chemical_formula_structural   Cu3NiC19
_chemical_formula_sum   'Cu18 Ni6 C114'
_cell_volume   1992.18136545
_cell_formula_units_Z   6
loop_
 _symmetry_equiv_pos_site_id
 _symmetry_equiv_pos_as_xyz
  1  'x, y, z'
loop_
 _atom_site_type_symbol
 _atom_site_label
 _atom_site_symmetry_multiplicity
 _atom_site_fract_x
 _atom_site_fract_y
 _atom_site_fract_z
 _atom_site_occupancy
  C  C0  1  0.42694100  0.50000000  0.00000000  1
  C  C1  1  0.92205600  0.50000000  0.50000000  1
  C  C2  1  0.08702600  0.50000000  0.00000000  1
  C  C3  1  0.58851300  0.50000000  0.50000000  1
  C  C4  1  0.75070300  0.50000000  0.00000000  1
  C  C5  1  0.25090200  0.50000000  0.50000000  1
  C  C6  1  0.96077600  0.49766900  0.12471000  1
  C  C7  1  0.96077600  0.50233100  0.87529000  1
  C  C8  1  0.46049000  0.50984500  0.62209000  1
  C  C9  1  0.46049000  0.49015500  0.37791000  1
  C  C10  1  0.29990900  0.50156300  0.12525900  1
  C  C11  1  0.29990900  0.49843700  0.87474100  1
  C  C12  1  0.79844000  0.49899400  0.62511400  1
  C  C13  1  0.79844000  0.50100600  0.37488600  1
  C  C14  1  0.62715500  0.49172900  0.12915600  1
  C  C15  1  0.62715500  0.50827100  0.87084400  1
  C  C16  1  0.12821200  0.49159400  0.62888500  1
  C  C17  1  0.12821200  0.50840600  0.37111500  1
  Ni  Ni18  1  0.34468000  0.00000000  0.00000000  1
  Ni  Ni19  1  0.84056700  0.00000000  0.50000000  1
  Ni  Ni20  1  0.00277000  0.00000000  0.00000000  1
  Ni  Ni21  1  0.50700500  0.00000000  0.50000000  1
  Ni  Ni22  1  0.66535400  0.00000000  0.00000000  1
  Ni  Ni23  1  0.16762000  0.00000000  0.50000000  1
  C  C24  1  0.83590900  0.54582500  0.16532600  1
  C  C25  1  0.83590900  0.45417500  0.83467400  1
  C  C26  1  0.33581300  0.45431500  0.33570300  1
  C  C27  1  0.33581300  0.54568500  0.66429700  1
  C  C28  1  0.17266000  0.54455300  0.16352500  1
  C  C29  1  0.17266000  0.45544700  0.83647500  1
  C  C30  1  0.67405200  0.45406300  0.33373000  1
  C  C31  1  0.67405200  0.54593700  0.66627000  1
  C  C32  1  0.50393300  0.49992900  0.17303400  1
  C  C33  1  0.50393300  0.50007100  0.82696600  1
  C  C34  1  0.00323600  0.45275500  0.33010900  1
  C  C35  1  0.00323600  0.54724500  0.66989100  1
  Cu  Cu36  1  0.52738000  0.00000000  0.00000000  1
  Cu  Cu37  1  0.03371200  0.00000000  0.50000000  1
  Cu  Cu38  1  0.20848400  0.00000000  0.00000000  1
  Cu  Cu39  1  0.70648700  0.00000000  0.50000000  1
  Cu  Cu40  1  0.86731000  0.00000000  0.00000000  1
  Cu  Cu41  1  0.37104100  0.00000000  0.50000000  1
  Cu  Cu42  1  0.90522800  0.99922700  0.29509300  1
  Cu  Cu43  1  0.90522800  0.00077300  0.70490700  1
  Cu  Cu44  1  0.40545500  0.99713100  0.78892600  1
  Cu  Cu45  1  0.40545500  0.00286900  0.21107400  1
  Cu  Cu46  1  0.23611600  0.00711500  0.29922400  1
  Cu  Cu47  1  0.23611600  0.99288500  0.70077600  1
  Cu  Cu48  1  0.73672900  0.00147900  0.80063100  1
  Cu  Cu49  1  0.73672900  0.99852100  0.19936900  1
  Cu  Cu50  1  0.57842800  0.01229400  0.29838800  1
  Cu  Cu51  1  0.57842800  0.98770600  0.70161200  1
  Cu  Cu52  1  0.07092300  0.00521200  0.80016900  1
  Cu  Cu53  1  0.07092300  0.99478800  0.19983100  1
  C  C54  1  0.28728800  0.20644000  0.04789000  1
  C  C55  1  0.28728800  0.79356000  0.95211000  1
  C  C56  1  0.35017300  0.22141800  0.89348800  1
  C  C57  1  0.35017300  0.77858200  0.10651200  1
  C  C58  1  0.39637900  0.20756700  0.06271500  1
  C  C59  1  0.39637900  0.79243300  0.93728500  1
  C  C60  1  0.78372100  0.21009100  0.54649500  1
  C  C61  1  0.78372100  0.78990900  0.45350500  1
  C  C62  1  0.84561900  0.21444200  0.39267600  1
  C  C63  1  0.84561900  0.78555800  0.60732400  1
  C  C64  1  0.89182900  0.20913400  0.56298500  1
  C  C65  1  0.89182900  0.79086600  0.43701500  1
  C  C66  1  0.94573500  0.20565000  0.04806300  1
  C  C67  1  0.94573500  0.79435000  0.95193700  1
  C  C68  1  0.05435600  0.21090500  0.06228900  1
  C  C69  1  0.05435600  0.78909500  0.93771100  1
  C  C70  1  0.00897000  0.21853300  0.89377700  1
  C  C71  1  0.00897000  0.78146700  0.10622300  1
  C  C72  1  0.44964300  0.20449700  0.54947200  1
  C  C73  1  0.44964300  0.79550300  0.45052800  1
  C  C74  1  0.51214300  0.22116000  0.39456300  1
  C  C75  1  0.51214300  0.77884000  0.60543700  1
  C  C76  1  0.55857500  0.20771900  0.56390600  1
  C  C77  1  0.55857500  0.79228100  0.43609400  1
  C  C78  1  0.60929500  0.21880700  0.04455800  1
  C  C79  1  0.60929500  0.78119300  0.95544200  1
  C  C80  1  0.67024500  0.20476200  0.88967900  1
  C  C81  1  0.67024500  0.79523800  0.11032100  1
  C  C82  1  0.71798800  0.21111600  0.06011200  1
  C  C83  1  0.71798800  0.78888400  0.93988800  1
  C  C84  1  0.11087500  0.20712800  0.54900100  1
  C  C85  1  0.11087500  0.79287200  0.45099900  1
  C  C86  1  0.17324500  0.21445900  0.39264300  1
  C  C87  1  0.17324500  0.78554100  0.60735700  1
  C  C88  1  0.21889200  0.21080000  0.56230500  1
  C  C89  1  0.21889200  0.78920000  0.43769500  1
  C  C90  1  0.83614000  0.25398400  0.16612900  1
  C  C91  1  0.83614000  0.74601600  0.83387100  1
  C  C92  1  0.88970300  0.66024000  0.13376500  1
  C  C93  1  0.88970300  0.33976000  0.86623500  1
  C  C94  1  0.79328400  0.65766900  0.10005100  1
  C  C95  1  0.79328400  0.34233100  0.89994900  1
  C  C96  1  0.82488300  0.66208000  0.26092700  1
  C  C97  1  0.82488300  0.33792000  0.73907300  1
  C  C98  1  0.33735200  0.74606100  0.33335900  1
  C  C99  1  0.33735200  0.25393900  0.66664100  1
  C  C100  1  0.29035900  0.34789800  0.39597800  1
  C  C101  1  0.29035900  0.65210200  0.60402200  1
  C  C102  1  0.32751200  0.33678100  0.23930500  1
  C  C103  1  0.32751200  0.66321900  0.76069500  1
  C  C104  1  0.38767500  0.33688100  0.37465200  1
  C  C105  1  0.38767500  0.66311900  0.62534800  1
  C  C106  1  0.17185400  0.25250400  0.16441400  1
  C  C107  1  0.17185400  0.74749600  0.83558600  1
  C  C108  1  0.13062700  0.66083400  0.09814700  1
  C  C109  1  0.13062700  0.33916600  0.90185300  1
  C  C110  1  0.16104300  0.65958000  0.25951600  1
  C  C111  1  0.16104300  0.34042000  0.74048400  1
  C  C112  1  0.22716500  0.65370700  0.13302000  1
  C  C113  1  0.22716500  0.34629300  0.86698000  1
  C  C114  1  0.67383600  0.74616600  0.33105000  1
  C  C115  1  0.67383600  0.25383400  0.66895000  1
  C  C116  1  0.63113700  0.34373900  0.39861900  1
  C  C117  1  0.63113700  0.65626100  0.60138100  1
  C  C118  1  0.66393800  0.33385700  0.23818300  1
  C  C119  1  0.66393800  0.66614300  0.76181700  1
  C  C120  1  0.72741200  0.34129100  0.36683400  1
  C  C121  1  0.72741200  0.65870900  0.63316600  1
  C  C122  1  0.50419000  0.20654700  0.16644100  1
  C  C123  1  0.50419000  0.79345300  0.83355900  1
  C  C124  1  0.48368000  0.62774600  0.08439500  1
  C  C125  1  0.48368000  0.37225400  0.91560500  1
  C  C126  1  0.46622900  0.59345900  0.24919300  1
  C  C127  1  0.46622900  0.40654100  0.75080700  1
  C  C128  1  0.56049800  0.60055900  0.19290500  1
  C  C129  1  0.56049800  0.39944100  0.80709500  1
  C  C130  1  0.00223000  0.74472600  0.32680900  1
  C  C131  1  0.00223000  0.25527400  0.67319100  1
  C  C132  1  0.96166700  0.33989000  0.39696700  1
  C  C133  1  0.96166700  0.66011000  0.60303300  1
  C  C134  1  0.99119900  0.33119000  0.23546400  1
  C  C135  1  0.99119900  0.66881000  0.76453600  1
  C  C136  1  0.05747700  0.34406400  0.36076500  1
  C  C137  1  0.05747700  0.65593600  0.63923500  1
