# generated using pymatgen
data_CuNi13
_symmetry_space_group_name_H-M   'P 1'
_cell_length_a   6.61718850
_cell_length_b   6.61718850
_cell_length_c   5.06607678
_cell_angle_alpha   81.22330498
_cell_angle_beta   81.22330498
_cell_angle_gamma   70.62850275
_symmetry_Int_Tables_number   1
_chemical_formula_structural   CuNi13
_chemical_formula_sum   'Cu1 Ni13'
_cell_volume   205.57977129
_cell_formula_units_Z   1
loop_
 _symmetry_equiv_pos_site_id
 _symmetry_equiv_pos_as_xyz
  1  'x, y, z'
loop_
 _atom_site_type_symbol
 _atom_site_label
 _atom_site_symmetry_multiplicity
 _atom_site_fract_x
 _atom_site_fract_y
 _atom_site_fract_z
 _atom_site_occupancy
  Ni  Ni0  1  0.00000000  0.00000000  0.00000000  1
  Ni  Ni1  1  0.38542500  0.38542500  0.93786500  1
  Ni  Ni2  1  0.61457500  0.61457500  0.06213500  1
  Ni  Ni3  1  0.77725300  0.77725300  0.37554600  1
  Ni  Ni4  1  0.22274700  0.22274700  0.62445400  1
  Ni  Ni5  1  0.21351500  0.63493300  0.31399800  1
  Ni  Ni6  1  0.36506700  0.78648500  0.68600200  1
  Ni  Ni7  1  0.78648500  0.36506700  0.68600200  1
  Ni  Ni8  1  0.63493300  0.21351500  0.31399800  1
  Ni  Ni9  1  0.00476100  0.64399700  0.79963000  1
  Ni  Ni10  1  0.35600300  0.99523900  0.20037000  1
  Ni  Ni11  1  0.99523900  0.35600300  0.20037000  1
  Ni  Ni12  1  0.64399700  0.00476100  0.79963000  1
  Cu  Cu13  1  0.00000000  0.00000000  0.50000000  1
