# generated using pymatgen
data_CuNiC
_symmetry_space_group_name_H-M   'P 1'
_cell_length_a   3.94922700
_cell_length_b   5.81343200
_cell_length_c   11.51293300
_cell_angle_alpha   90.00000000
_cell_angle_beta   90.00000000
_cell_angle_gamma   90.00000000
_symmetry_Int_Tables_number   1
_chemical_formula_structural   CuNiC
_chemical_formula_sum   'Cu4 Ni4 C4'
_cell_volume   264.32039319
_cell_formula_units_Z   4
loop_
 _symmetry_equiv_pos_site_id
 _symmetry_equiv_pos_as_xyz
  1  'x, y, z'
loop_
 _atom_site_type_symbol
 _atom_site_label
 _atom_site_symmetry_multiplicity
 _atom_site_fract_x
 _atom_site_fract_y
 _atom_site_fract_z
 _atom_site_occupancy
  C  C0  1  0.77744400  0.75000000  0.16852600  1
  C  C1  1  0.72255600  0.75000000  0.66852600  1
  C  C2  1  0.22255600  0.25000000  0.83147400  1
  C  C3  1  0.27744400  0.25000000  0.33147400  1
  Ni  Ni4  1  0.88609600  0.75000000  0.06821700  1
  Ni  Ni5  1  0.61390400  0.75000000  0.56821700  1
  Ni  Ni6  1  0.11390400  0.25000000  0.93178300  1
  Ni  Ni7  1  0.38609600  0.25000000  0.43178300  1
  Cu  Cu8  1  0.66942100  0.75000000  0.26534100  1
  Cu  Cu9  1  0.83057900  0.75000000  0.76534100  1
  Cu  Cu10  1  0.33057900  0.25000000  0.73465900  1
  Cu  Cu11  1  0.16942100  0.25000000  0.23465900  1
