# generated using pymatgen
data_CuNiC18
_symmetry_space_group_name_H-M   'P 1'
_cell_length_a   5.77032032
_cell_length_b   5.77001666
_cell_length_c   10.06267342
_cell_angle_alpha   73.43403046
_cell_angle_beta   73.44020654
_cell_angle_gamma   60.02717401
_symmetry_Int_Tables_number   1
_chemical_formula_structural   CuNiC18
_chemical_formula_sum   'Cu1 Ni1 C18'
_cell_volume   274.04981798
_cell_formula_units_Z   1
loop_
 _symmetry_equiv_pos_site_id
 _symmetry_equiv_pos_as_xyz
  1  'x, y, z'
loop_
 _atom_site_type_symbol
 _atom_site_label
 _atom_site_symmetry_multiplicity
 _atom_site_fract_x
 _atom_site_fract_y
 _atom_site_fract_z
 _atom_site_occupancy
  C  C0  1  0.87716400  0.87714800  0.36842900  1
  C  C1  1  0.12284600  0.12284500  0.63159400  1
  C  C2  1  0.37281800  0.37286200  0.88176200  1
  C  C3  1  0.62717100  0.62714100  0.11821600  1
  C  C4  1  0.25115200  0.25110300  0.24678300  1
  C  C5  1  0.74889500  0.74888800  0.75324800  1
  Ni  Ni6  1  0.99995400  0.00000800  0.99996700  1
  Cu  Cu7  1  0.49993900  0.50001200  0.49997100  1
  C  C8  1  0.62183400  0.62183100  0.61878200  1
  C  C9  1  0.37819600  0.37817600  0.38124700  1
  C  C10  1  0.37826200  0.86207900  0.38137700  1
  C  C11  1  0.62175100  0.13788900  0.61864000  1
  C  C12  1  0.86209600  0.37823800  0.38139500  1
  C  C13  1  0.13793300  0.62176600  0.61861000  1
  C  C14  1  0.87641000  0.87643200  0.86936100  1
  C  C15  1  0.12358300  0.12355300  0.13061200  1
  C  C16  1  0.87651500  0.37857200  0.86889700  1
  C  C17  1  0.12348200  0.62145500  0.13109900  1
  C  C18  1  0.37852400  0.87655900  0.86889600  1
  C  C19  1  0.62147500  0.12344200  0.13111400  1
