# generated using pymatgen
data_Cu4Ni
_symmetry_space_group_name_H-M   'P 1'
_cell_length_a   11.02864301
_cell_length_b   11.02864301
_cell_length_c   16.88946544
_cell_angle_alpha   67.43941386
_cell_angle_beta   67.43941386
_cell_angle_gamma   62.67354905
_symmetry_Int_Tables_number   1
_chemical_formula_structural   Cu4Ni
_chemical_formula_sum   'Cu32 Ni8'
_cell_volume   1630.55731150
_cell_formula_units_Z   8
loop_
 _symmetry_equiv_pos_site_id
 _symmetry_equiv_pos_as_xyz
  1  'x, y, z'
loop_
 _atom_site_type_symbol
 _atom_site_label
 _atom_site_symmetry_multiplicity
 _atom_site_fract_x
 _atom_site_fract_y
 _atom_site_fract_z
 _atom_site_occupancy
  Ni  Ni0  1  0.76044000  0.23543500  0.38739900  1
  Ni  Ni1  1  0.23956000  0.76456500  0.61260100  1
  Ni  Ni2  1  0.76456500  0.23956000  0.11260100  1
  Ni  Ni3  1  0.23543500  0.76044000  0.88739900  1
  Ni  Ni4  1  0.61422700  0.66020500  0.18358600  1
  Ni  Ni5  1  0.38577300  0.33979500  0.81641400  1
  Ni  Ni6  1  0.33979500  0.38577300  0.31641400  1
  Ni  Ni7  1  0.66020500  0.61422700  0.68358600  1
  Cu  Cu8  1  0.63826200  0.12894700  0.54273900  1
  Cu  Cu9  1  0.36173800  0.87105300  0.45726100  1
  Cu  Cu10  1  0.87105300  0.36173800  0.95726100  1
  Cu  Cu11  1  0.12894700  0.63826200  0.04273900  1
  Cu  Cu12  1  0.98332300  0.01494500  0.37272800  1
  Cu  Cu13  1  0.01667700  0.98505500  0.62727200  1
  Cu  Cu14  1  0.98505500  0.01667700  0.12727200  1
  Cu  Cu15  1  0.01494500  0.98332300  0.87272800  1
  Cu  Cu16  1  0.38159100  0.87234300  0.19277400  1
  Cu  Cu17  1  0.61840900  0.12765700  0.80722600  1
  Cu  Cu18  1  0.12765700  0.61840900  0.30722600  1
  Cu  Cu19  1  0.87234300  0.38159100  0.69277400  1
  Cu  Cu20  1  0.49604800  0.50653900  0.12935900  1
  Cu  Cu21  1  0.50395200  0.49346100  0.87064100  1
  Cu  Cu22  1  0.49346100  0.50395200  0.37064100  1
  Cu  Cu23  1  0.50653900  0.49604800  0.62935900  1
  Cu  Cu24  1  0.64627900  0.13916100  0.06416300  1
  Cu  Cu25  1  0.35372100  0.86083900  0.93583700  1
  Cu  Cu26  1  0.86083900  0.35372100  0.43583700  1
  Cu  Cu27  1  0.13916100  0.64627900  0.56416300  1
  Cu  Cu28  1  0.72015300  0.75905500  0.02078000  1
  Cu  Cu29  1  0.27984700  0.24094500  0.97922000  1
  Cu  Cu30  1  0.24094500  0.27984700  0.47922000  1
  Cu  Cu31  1  0.75905500  0.72015300  0.52078000  1
  Cu  Cu32  1  0.62041400  0.13320700  0.31042900  1
  Cu  Cu33  1  0.37958600  0.86679300  0.68957100  1
  Cu  Cu34  1  0.86679300  0.37958600  0.18957100  1
  Cu  Cu35  1  0.13320700  0.62041400  0.81042900  1
  Cu  Cu36  1  0.72992800  0.74600900  0.24527200  1
  Cu  Cu37  1  0.27007200  0.25399100  0.75472800  1
  Cu  Cu38  1  0.25399100  0.27007200  0.25472800  1
  Cu  Cu39  1  0.74600900  0.72992800  0.74527200  1
