# generated using pymatgen
data_Cu4NiC9
_symmetry_space_group_name_H-M   'P 1'
_cell_length_a   6.08264708
_cell_length_b   6.08264708
_cell_length_c   6.08264708
_cell_angle_alpha   90.00000000
_cell_angle_beta   60.00000000
_cell_angle_gamma   120.00000000
_symmetry_Int_Tables_number   1
_chemical_formula_structural   Cu4NiC9
_chemical_formula_sum   'Cu4 Ni1 C9'
_cell_volume   159.13395629
_cell_formula_units_Z   1
loop_
 _symmetry_equiv_pos_site_id
 _symmetry_equiv_pos_as_xyz
  1  'x, y, z'
loop_
 _atom_site_type_symbol
 _atom_site_label
 _atom_site_symmetry_multiplicity
 _atom_site_fract_x
 _atom_site_fract_y
 _atom_site_fract_z
 _atom_site_occupancy
  Ni  Ni0  1  0.25000000  0.12500000  0.12500000  1
  Cu  Cu1  1  0.50023600  0.00035400  0.49988200  1
  Cu  Cu2  1  0.50023600  0.49988200  0.49988200  1
  Cu  Cu3  1  0.99976400  0.49988200  0.00035400  1
  Cu  Cu4  1  0.99976400  0.49988200  0.49988200  1
  C  C5  1  0.75000000  0.87500000  0.87500000  1
  C  C6  1  0.97335700  0.71003600  0.26332100  1
  C  C7  1  0.97335700  0.26332100  0.26332100  1
  C  C8  1  0.52664300  0.26332100  0.71003600  1
  C  C9  1  0.52664300  0.26332100  0.26332100  1
  C  C10  1  0.02111100  0.28166600  0.73944500  1
  C  C11  1  0.02111100  0.73944500  0.73944500  1
  C  C12  1  0.47888900  0.73944500  0.28166600  1
  C  C13  1  0.47888900  0.73944500  0.73944500  1
