# generated using pymatgen
data_CuNi10C7
_symmetry_space_group_name_H-M   'P 1'
_cell_length_a   7.21979366
_cell_length_b   8.83713853
_cell_length_c   9.54921012
_cell_angle_alpha   82.93945656
_cell_angle_beta   88.95829077
_cell_angle_gamma   77.17912022
_symmetry_Int_Tables_number   1
_chemical_formula_structural   CuNi10C7
_chemical_formula_sum   'Cu1 Ni10 C7'
_cell_volume   589.54095186
_cell_formula_units_Z   1
loop_
 _symmetry_equiv_pos_site_id
 _symmetry_equiv_pos_as_xyz
  1  'x, y, z'
loop_
 _atom_site_type_symbol
 _atom_site_label
 _atom_site_symmetry_multiplicity
 _atom_site_fract_x
 _atom_site_fract_y
 _atom_site_fract_z
 _atom_site_occupancy
  C  C0  1  0.43696200  0.69665800  0.33252900  1
  C  C1  1  0.53089200  0.62383100  0.64460400  1
  C  C2  1  0.48590200  0.34299500  0.37010800  1
  C  C3  1  0.11287100  0.94525200  0.16961000  1
  C  C4  1  0.07148100  0.20369300  0.97184000  1
  C  C5  1  0.88127900  0.81888100  0.01056700  1
  C  C6  1  0.81427100  0.09020200  0.82749600  1
  Ni  Ni7  1  0.44178400  0.19056200  0.18634900  1
  Ni  Ni8  1  0.38622900  0.48353100  0.82077400  1
  Ni  Ni9  1  0.78552900  0.18799700  0.42904000  1
  Ni  Ni10  1  0.18973800  0.53572000  0.29529700  1
  Ni  Ni11  1  0.63356300  0.51119000  0.19755900  1
  Ni  Ni12  1  0.32214300  0.20765700  0.53464700  1
  Ni  Ni13  1  0.84315500  0.47882500  0.71590500  1
  Ni  Ni14  1  0.67646900  0.77869800  0.46125900  1
  Ni  Ni15  1  0.23268900  0.78737100  0.55919700  1
  Ni  Ni16  1  0.55080300  0.81988900  0.80392700  1
  Cu  Cu17  1  0.51164700  0.48990400  0.50500600  1
