# generated using pymatgen
data_Cu4NiC14
_symmetry_space_group_name_H-M   'P 1'
_cell_length_a   8.89829394
_cell_length_b   8.89829394
_cell_length_c   14.06365678
_cell_angle_alpha   56.49816146
_cell_angle_beta   56.49816146
_cell_angle_gamma   31.73138562
_symmetry_Int_Tables_number   1
_chemical_formula_structural   Cu4NiC14
_chemical_formula_sum   'Cu8 Ni2 C28'
_cell_volume   479.64374220
_cell_formula_units_Z   2
loop_
 _symmetry_equiv_pos_site_id
 _symmetry_equiv_pos_as_xyz
  1  'x, y, z'
loop_
 _atom_site_type_symbol
 _atom_site_label
 _atom_site_symmetry_multiplicity
 _atom_site_fract_x
 _atom_site_fract_y
 _atom_site_fract_z
 _atom_site_occupancy
  C  C0  1  0.12427500  0.50327700  0.13621800  1
  C  C1  1  0.49672300  0.87572500  0.36378200  1
  C  C2  1  0.87572500  0.49672300  0.86378200  1
  C  C3  1  0.50327700  0.12427500  0.63621800  1
  Ni  Ni4  1  0.00000000  0.50000000  0.00000000  1
  Ni  Ni5  1  0.50000000  0.00000000  0.50000000  1
  Cu  Cu6  1  0.03632300  0.65810000  0.31949800  1
  Cu  Cu7  1  0.34190000  0.96367700  0.18050200  1
  Cu  Cu8  1  0.96367700  0.34190000  0.68050200  1
  Cu  Cu9  1  0.65810000  0.03632300  0.81949800  1
  Cu  Cu10  1  0.08334000  0.66604400  0.47881800  1
  Cu  Cu11  1  0.33395600  0.91666000  0.02118200  1
  Cu  Cu12  1  0.91666000  0.33395600  0.52118200  1
  Cu  Cu13  1  0.66604400  0.08334000  0.97881800  1
  C  C14  1  0.64741800  0.28882100  0.13858200  1
  C  C15  1  0.71117900  0.35258200  0.36141800  1
  C  C16  1  0.35258200  0.71117900  0.86141800  1
  C  C17  1  0.28882100  0.64741800  0.63858200  1
  C  C18  1  0.18032200  0.56402600  0.21772300  1
  C  C19  1  0.43597400  0.81967800  0.28227700  1
  C  C20  1  0.81967800  0.43597400  0.78227700  1
  C  C21  1  0.56402600  0.18032200  0.71772300  1
  C  C22  1  0.15364300  0.25449700  0.14423200  1
  C  C23  1  0.74550300  0.84635700  0.35576800  1
  C  C24  1  0.84635700  0.74550300  0.85576800  1
  C  C25  1  0.25449700  0.15364300  0.64423200  1
  C  C26  1  0.86765900  0.79862800  0.02904600  1
  C  C27  1  0.20137200  0.13234100  0.47095400  1
  C  C28  1  0.13234100  0.20137200  0.97095400  1
  C  C29  1  0.79862800  0.86765900  0.52904600  1
  C  C30  1  0.19529000  0.56760300  0.38027400  1
  C  C31  1  0.43239700  0.80471000  0.11972600  1
  C  C32  1  0.80471000  0.43239700  0.61972600  1
  C  C33  1  0.56760300  0.19529000  0.88027400  1
  C  C34  1  0.54387300  0.29421900  0.01503900  1
  C  C35  1  0.70578100  0.45612700  0.48496100  1
  C  C36  1  0.45612700  0.70578100  0.98496100  1
  C  C37  1  0.29421900  0.54387300  0.51503900  1
