# generated using pymatgen
data_Cu(NiC2)2
_symmetry_space_group_name_H-M   'P 1'
_cell_length_a   6.12726970
_cell_length_b   6.12726970
_cell_length_c   14.85471554
_cell_angle_alpha   89.55762370
_cell_angle_beta   89.55762370
_cell_angle_gamma   58.30873687
_symmetry_Int_Tables_number   1
_chemical_formula_structural   Cu(NiC2)2
_chemical_formula_sum   'Cu6 Ni12 C24'
_cell_volume   474.52096685
_cell_formula_units_Z   6
loop_
 _symmetry_equiv_pos_site_id
 _symmetry_equiv_pos_as_xyz
  1  'x, y, z'
loop_
 _atom_site_type_symbol
 _atom_site_label
 _atom_site_symmetry_multiplicity
 _atom_site_fract_x
 _atom_site_fract_y
 _atom_site_fract_z
 _atom_site_occupancy
  Ni  Ni0  1  0.81048800  0.34452800  0.83699800  1
  Ni  Ni1  1  0.50235500  0.50235500  0.62036800  1
  Ni  Ni2  1  0.49497000  0.49497000  0.00816800  1
  Ni  Ni3  1  0.34452800  0.81048800  0.83699800  1
  Ni  Ni4  1  0.51459900  0.98705600  0.50004000  1
  Ni  Ni5  1  0.16817000  0.16817000  0.28854800  1
  Ni  Ni6  1  0.98705600  0.51459900  0.50004000  1
  Ni  Ni7  1  0.19281000  0.64832400  0.15963400  1
  Ni  Ni8  1  0.83089800  0.83089800  0.71560400  1
  Ni  Ni9  1  0.64832400  0.19281000  0.15963400  1
  Ni  Ni10  1  0.49620800  0.49620800  0.37660800  1
  Ni  Ni11  1  0.15994600  0.15994600  0.03582700  1
  Cu  Cu12  1  0.83142600  0.83142600  0.96088500  1
  Cu  Cu13  1  0.16686300  0.16686300  0.66828800  1
  Cu  Cu14  1  0.33064400  0.33064400  0.83672100  1
  Cu  Cu15  1  0.83967500  0.83967500  0.32905100  1
  Cu  Cu16  1  0.00195800  0.00195800  0.49944400  1
  Cu  Cu17  1  0.67591800  0.67591800  0.16584700  1
  C  C18  1  0.65946100  0.19207500  0.91585900  1
  C  C19  1  0.50540800  0.50540800  0.74876000  1
  C  C20  1  0.19207500  0.65946100  0.91585900  1
  C  C21  1  0.65634700  0.65634700  0.91759600  1
  C  C22  1  0.33012100  0.84881900  0.57965900  1
  C  C23  1  0.00094400  0.00094400  0.75533800  1
  C  C24  1  0.17267600  0.17267600  0.41646200  1
  C  C25  1  0.48589700  0.99857900  0.75497100  1
  C  C26  1  0.84881900  0.33012100  0.57965900  1
  C  C27  1  0.16063000  0.16063000  0.90950300  1
  C  C28  1  0.33215600  0.33215600  0.57846700  1
  C  C29  1  0.99857900  0.48589700  0.75497100  1
  C  C30  1  0.00672500  0.50905200  0.24753900  1
  C  C31  1  0.66348600  0.66348600  0.41928000  1
  C  C32  1  0.15269300  0.66904900  0.41978000  1
  C  C33  1  0.50905200  0.00672500  0.24753900  1
  C  C34  1  0.84248200  0.84248200  0.09475000  1
  C  C35  1  0.82899400  0.82899400  0.58679500  1
  C  C36  1  0.00250600  0.00250600  0.24505500  1
  C  C37  1  0.66904900  0.15269300  0.41978000  1
  C  C38  1  0.32458300  0.32458300  0.07834600  1
  C  C39  1  0.82412300  0.33869700  0.08406100  1
  C  C40  1  0.49998200  0.49998200  0.24735900  1
  C  C41  1  0.33869700  0.82412300  0.08406100  1
