# generated using pymatgen
data_CuNi3C10
_symmetry_space_group_name_H-M   'P 1'
_cell_length_a   6.20753028
_cell_length_b   6.20753028
_cell_length_c   8.06452700
_cell_angle_alpha   90.00000000
_cell_angle_beta   90.00000000
_cell_angle_gamma   120.00000300
_symmetry_Int_Tables_number   1
_chemical_formula_structural   CuNi3C10
_chemical_formula_sum   'Cu1 Ni3 C10'
_cell_volume   269.12076736
_cell_formula_units_Z   1
loop_
 _symmetry_equiv_pos_site_id
 _symmetry_equiv_pos_as_xyz
  1  'x, y, z'
loop_
 _atom_site_type_symbol
 _atom_site_label
 _atom_site_symmetry_multiplicity
 _atom_site_fract_x
 _atom_site_fract_y
 _atom_site_fract_z
 _atom_site_occupancy
  Ni  Ni0  1  0.66666700  0.33333300  0.34091600  1
  Ni  Ni1  1  0.00000000  0.00000000  0.00000000  1
  Ni  Ni2  1  0.33333300  0.66666700  0.65908400  1
  Cu  Cu3  1  0.00000000  0.00000000  0.50000000  1
  C  C4  1  0.66666700  0.33333300  0.77882200  1
  C  C5  1  0.33333300  0.66666700  0.22117800  1
  C  C6  1  0.17799000  0.35598000  0.30752600  1
  C  C7  1  0.64402000  0.82201000  0.30752600  1
  C  C8  1  0.17799000  0.82201000  0.30752600  1
  C  C9  1  0.82201000  0.64402000  0.69247400  1
  C  C10  1  0.82201000  0.17799000  0.69247400  1
  C  C11  1  0.35598000  0.17799000  0.69247400  1
  C  C12  1  0.66666700  0.33333300  0.99846400  1
  C  C13  1  0.33333300  0.66666700  0.00153600  1
