# generated using pymatgen
data_Cu(Ni2C9)2
_symmetry_space_group_name_H-M   'P 1'
_cell_length_a   8.38258852
_cell_length_b   8.38258852
_cell_length_c   8.05211923
_cell_angle_alpha   97.55856323
_cell_angle_beta   97.55856323
_cell_angle_gamma   59.04844314
_symmetry_Int_Tables_number   1
_chemical_formula_structural   Cu(Ni2C9)2
_chemical_formula_sum   'Cu1 Ni4 C18'
_cell_volume   479.65906257
_cell_formula_units_Z   1
loop_
 _symmetry_equiv_pos_site_id
 _symmetry_equiv_pos_as_xyz
  1  'x, y, z'
loop_
 _atom_site_type_symbol
 _atom_site_label
 _atom_site_symmetry_multiplicity
 _atom_site_fract_x
 _atom_site_fract_y
 _atom_site_fract_z
 _atom_site_occupancy
  Ni  Ni0  1  0.20682800  0.53493400  0.40007900  1
  Ni  Ni1  1  0.46506600  0.79317200  0.09992100  1
  Ni  Ni2  1  0.78158600  0.54865500  0.55928800  1
  Ni  Ni3  1  0.45134500  0.21841400  0.94071200  1
  Cu  Cu4  1  0.91264600  0.08735400  0.75000000  1
  C  C5  1  0.70615400  0.10721800  0.39376800  1
  C  C6  1  0.89278200  0.29384600  0.10623200  1
  C  C7  1  0.31243300  0.89745300  0.61806300  1
  C  C8  1  0.10254700  0.68756700  0.88193700  1
  C  C9  1  0.64622000  0.27039300  0.56096700  1
  C  C10  1  0.72960600  0.35378000  0.93903300  1
  C  C11  1  0.38320100  0.77463500  0.43368900  1
  C  C12  1  0.22536400  0.61679900  0.06631100  1
  C  C13  1  0.51478000  0.11223300  0.29399400  1
  C  C14  1  0.88776700  0.48522000  0.20600600  1
  C  C15  1  0.49213900  0.90240200  0.73274300  1
  C  C16  1  0.09759800  0.50786100  0.76725700  1
  C  C17  1  0.85624800  0.90580500  0.48570600  1
  C  C18  1  0.09419500  0.14375200  0.01429400  1
  C  C19  1  0.12415800  0.11346600  0.59705600  1
  C  C20  1  0.88653400  0.87584200  0.90294400  1
  C  C21  1  0.81813500  0.18186500  0.25000000  1
  C  C22  1  0.21266700  0.78733300  0.75000000  1
