# generated using pymatgen
data_Cu4(Ni3C)3
_symmetry_space_group_name_H-M   'P 1'
_cell_length_a   8.55737240
_cell_length_b   8.55737240
_cell_length_c   8.67775600
_cell_angle_alpha   90.00000000
_cell_angle_beta   90.00000000
_cell_angle_gamma   120.00000307
_symmetry_Int_Tables_number   1
_chemical_formula_structural   Cu4(Ni3C)3
_chemical_formula_sum   'Cu8 Ni18 C6'
_cell_volume   550.32458729
_cell_formula_units_Z   2
loop_
 _symmetry_equiv_pos_site_id
 _symmetry_equiv_pos_as_xyz
  1  'x, y, z'
loop_
 _atom_site_type_symbol
 _atom_site_label
 _atom_site_symmetry_multiplicity
 _atom_site_fract_x
 _atom_site_fract_y
 _atom_site_fract_z
 _atom_site_occupancy
  Ni  Ni0  1  0.45297200  0.90594400  0.25000000  1
  Ni  Ni1  1  0.54702800  0.09405600  0.75000000  1
  Ni  Ni2  1  0.09405600  0.54702800  0.25000000  1
  Ni  Ni3  1  0.90594400  0.45297200  0.75000000  1
  Ni  Ni4  1  0.45297200  0.54702800  0.25000000  1
  Ni  Ni5  1  0.54702800  0.45297200  0.75000000  1
  Ni  Ni6  1  0.20201900  0.40403700  0.56159900  1
  Ni  Ni7  1  0.79798100  0.59596300  0.43840100  1
  Ni  Ni8  1  0.59596300  0.79798100  0.56159900  1
  Ni  Ni9  1  0.79798100  0.59596300  0.06159900  1
  Ni  Ni10  1  0.40403700  0.20201900  0.43840100  1
  Ni  Ni11  1  0.20201900  0.40403700  0.93840100  1
  Ni  Ni12  1  0.20201900  0.79798100  0.56159900  1
  Ni  Ni13  1  0.40403700  0.20201900  0.06159900  1
  Ni  Ni14  1  0.79798100  0.20201900  0.43840100  1
  Ni  Ni15  1  0.59596300  0.79798100  0.93840100  1
  Ni  Ni16  1  0.79798100  0.20201900  0.06159900  1
  Ni  Ni17  1  0.20201900  0.79798100  0.93840100  1
  Cu  Cu18  1  0.10770200  0.21540300  0.25000000  1
  Cu  Cu19  1  0.89229800  0.78459700  0.75000000  1
  Cu  Cu20  1  0.78459700  0.89229800  0.25000000  1
  Cu  Cu21  1  0.21540300  0.10770200  0.75000000  1
  Cu  Cu22  1  0.10770200  0.89229800  0.25000000  1
  Cu  Cu23  1  0.89229800  0.10770200  0.75000000  1
  Cu  Cu24  1  0.00000000  0.00000000  0.00000000  1
  Cu  Cu25  1  0.00000000  0.00000000  0.50000000  1
  C  C26  1  0.50000000  0.00000000  0.00000000  1
  C  C27  1  0.00000000  0.50000000  0.00000000  1
  C  C28  1  0.50000000  0.00000000  0.50000000  1
  C  C29  1  0.50000000  0.50000000  0.00000000  1
  C  C30  1  0.00000000  0.50000000  0.50000000  1
  C  C31  1  0.50000000  0.50000000  0.50000000  1
