# generated using pymatgen
data_Cu4Ni4C13
_symmetry_space_group_name_H-M   'P 1'
_cell_length_a   7.29680610
_cell_length_b   7.35931282
_cell_length_c   7.35529541
_cell_angle_alpha   59.98193680
_cell_angle_beta   90.02553528
_cell_angle_gamma   120.28377823
_symmetry_Int_Tables_number   1
_chemical_formula_structural   Cu4Ni4C13
_chemical_formula_sum   'Cu4 Ni4 C13'
_cell_volume   278.07233632
_cell_formula_units_Z   1
loop_
 _symmetry_equiv_pos_site_id
 _symmetry_equiv_pos_as_xyz
  1  'x, y, z'
loop_
 _atom_site_type_symbol
 _atom_site_label
 _atom_site_symmetry_multiplicity
 _atom_site_fract_x
 _atom_site_fract_y
 _atom_site_fract_z
 _atom_site_occupancy
  C  C0  1  0.16130400  0.94135400  0.77859500  1
  Ni  Ni1  1  0.43237900  0.45516300  0.02205200  1
  Ni  Ni2  1  0.02181900  0.05859600  0.03578800  1
  Ni  Ni3  1  0.02181900  0.42743600  0.03578800  1
  Ni  Ni4  1  0.01978300  0.05724200  0.40530000  1
  Cu  Cu5  1  0.51091600  0.00355900  0.00379800  1
  Cu  Cu6  1  0.51102400  0.00363400  0.49211700  1
  Cu  Cu7  1  0.51102400  0.51527400  0.49211700  1
  Cu  Cu8  1  0.00395100  0.50279400  0.49836400  1
  C  C9  1  0.82558100  0.25541000  0.43007800  1
  C  C10  1  0.56699700  0.13137700  0.18402000  1
  C  C11  1  0.56699700  0.75160100  0.18402000  1
  C  C12  1  0.82597300  0.25569800  0.81457700  1
  C  C13  1  0.82558100  0.64009300  0.43007800  1
  C  C14  1  0.43179600  0.25085100  0.43009400  1
  C  C15  1  0.56757600  0.75111600  0.56534400  1
  C  C16  1  0.17875200  0.75588600  0.16698000  1
  C  C17  1  0.17919700  0.34686500  0.57642300  1
  C  C18  1  0.43101800  0.24998900  0.81865300  1
  C  C19  1  0.43101800  0.86237600  0.81865300  1
  C  C20  1  0.17919700  0.75590800  0.57642300  1
