# generated using pymatgen
data_Cu3NiC
_symmetry_space_group_name_H-M   'P 1'
_cell_length_a   3.99446600
_cell_length_b   8.59626600
_cell_length_c   14.77112300
_cell_angle_alpha   90.00000000
_cell_angle_beta   90.00000000
_cell_angle_gamma   90.00000000
_symmetry_Int_Tables_number   1
_chemical_formula_structural   Cu3NiC
_chemical_formula_sum   'Cu12 Ni4 C4'
_cell_volume   507.20332174
_cell_formula_units_Z   4
loop_
 _symmetry_equiv_pos_site_id
 _symmetry_equiv_pos_as_xyz
  1  'x, y, z'
loop_
 _atom_site_type_symbol
 _atom_site_label
 _atom_site_symmetry_multiplicity
 _atom_site_fract_x
 _atom_site_fract_y
 _atom_site_fract_z
 _atom_site_occupancy
  C  C0  1  0.75000000  0.57725900  0.67416100  1
  C  C1  1  0.25000000  0.92274100  0.17416100  1
  C  C2  1  0.25000000  0.42274100  0.32583900  1
  C  C3  1  0.75000000  0.07725900  0.82583900  1
  Ni  Ni4  1  0.25000000  0.66865900  0.94259800  1
  Ni  Ni5  1  0.75000000  0.33134100  0.05740200  1
  Ni  Ni6  1  0.25000000  0.16865900  0.55740200  1
  Ni  Ni7  1  0.75000000  0.83134100  0.44259800  1
  Cu  Cu8  1  0.25000000  0.65932900  0.50183800  1
  Cu  Cu9  1  0.75000000  0.84067100  0.00183800  1
  Cu  Cu10  1  0.25000000  0.02818600  0.39952500  1
  Cu  Cu11  1  0.75000000  0.47181400  0.89952500  1
  Cu  Cu12  1  0.25000000  0.52818600  0.10047500  1
  Cu  Cu13  1  0.25000000  0.28954100  0.70955700  1
  Cu  Cu14  1  0.75000000  0.21045900  0.20955700  1
  Cu  Cu15  1  0.25000000  0.78954100  0.79044300  1
  Cu  Cu16  1  0.75000000  0.71045900  0.29044300  1
  Cu  Cu17  1  0.75000000  0.34067100  0.49816200  1
  Cu  Cu18  1  0.25000000  0.15932900  0.99816200  1
  Cu  Cu19  1  0.75000000  0.97181400  0.60047500  1
