# generated using pymatgen
data_Cu(NiC4)2
_symmetry_space_group_name_H-M   'P 1'
_cell_length_a   5.89307887
_cell_length_b   5.77862441
_cell_length_c   5.77944493
_cell_angle_alpha   89.13925575
_cell_angle_beta   119.80751115
_cell_angle_gamma   119.81557534
_symmetry_Int_Tables_number   1
_chemical_formula_structural   Cu(NiC4)2
_chemical_formula_sum   'Cu1 Ni2 C8'
_cell_volume   140.94944414
_cell_formula_units_Z   1
loop_
 _symmetry_equiv_pos_site_id
 _symmetry_equiv_pos_as_xyz
  1  'x, y, z'
loop_
 _atom_site_type_symbol
 _atom_site_label
 _atom_site_symmetry_multiplicity
 _atom_site_fract_x
 _atom_site_fract_y
 _atom_site_fract_z
 _atom_site_occupancy
  Ni  Ni0  1  0.40806600  0.19878600  0.69891300  1
  Ni  Ni1  1  0.59193400  0.80121600  0.30108900  1
  Cu  Cu2  1  0.00000000  0.50000000  0.99999900  1
  C  C3  1  0.00000000  0.99999900  0.99999800  1
  C  C4  1  0.99999900  0.50000300  0.50000100  1
  C  C5  1  0.99996700  0.24910400  0.25087000  1
  C  C6  1  0.00003300  0.75089600  0.74912900  1
  C  C7  1  0.03710900  0.27407700  0.77417800  1
  C  C8  1  0.50016800  0.77100100  0.72915600  1
  C  C9  1  0.96289000  0.72592000  0.22582300  1
  C  C10  1  0.49983200  0.22900000  0.27084200  1
