# generated using pymatgen
data_Cu2NiC5
_symmetry_space_group_name_H-M   'P 1'
_cell_length_a   5.04471000
_cell_length_b   7.84447279
_cell_length_c   7.84447279
_cell_angle_alpha   84.06549726
_cell_angle_beta   71.24358348
_cell_angle_gamma   71.24358348
_symmetry_Int_Tables_number   1
_chemical_formula_structural   Cu2NiC5
_chemical_formula_sum   'Cu4 Ni2 C10'
_cell_volume   278.33419950
_cell_formula_units_Z   2
loop_
 _symmetry_equiv_pos_site_id
 _symmetry_equiv_pos_as_xyz
  1  'x, y, z'
loop_
 _atom_site_type_symbol
 _atom_site_label
 _atom_site_symmetry_multiplicity
 _atom_site_fract_x
 _atom_site_fract_y
 _atom_site_fract_z
 _atom_site_occupancy
  C  C0  1  0.25000000  0.50000000  0.50000000  1
  C  C1  1  0.75000000  0.50000000  0.50000000  1
  C  C2  1  0.07040700  0.13004100  0.72914500  1
  C  C3  1  0.92959300  0.86995900  0.27085500  1
  C  C4  1  0.79955200  0.27085500  0.13004100  1
  C  C5  1  0.42959300  0.27085500  0.86995900  1
  C  C6  1  0.20044800  0.72914500  0.86995900  1
  C  C7  1  0.57040700  0.72914500  0.13004100  1
  C  C8  1  0.70044800  0.86995900  0.72914500  1
  C  C9  1  0.29955200  0.13004100  0.27085500  1
  Ni  Ni10  1  0.25000000  0.00000000  0.00000000  1
  Ni  Ni11  1  0.75000000  0.00000000  0.00000000  1
  Cu  Cu12  1  0.16459800  0.50000000  0.17080400  1
  Cu  Cu13  1  0.83540200  0.50000000  0.82919600  1
  Cu  Cu14  1  0.33540200  0.82919600  0.50000000  1
  Cu  Cu15  1  0.66459800  0.17080400  0.50000000  1
