# generated using pymatgen
data_Cu3(NiC6)2
_symmetry_space_group_name_H-M   'P 1'
_cell_length_a   6.43496192
_cell_length_b   8.16988019
_cell_length_c   8.16775422
_cell_angle_alpha   102.96311166
_cell_angle_beta   89.26995136
_cell_angle_gamma   111.57145445
_symmetry_Int_Tables_number   1
_chemical_formula_structural   Cu3(NiC6)2
_chemical_formula_sum   'Cu6 Ni4 C24'
_cell_volume   387.99611464
_cell_formula_units_Z   2
loop_
 _symmetry_equiv_pos_site_id
 _symmetry_equiv_pos_as_xyz
  1  'x, y, z'
loop_
 _atom_site_type_symbol
 _atom_site_label
 _atom_site_symmetry_multiplicity
 _atom_site_fract_x
 _atom_site_fract_y
 _atom_site_fract_z
 _atom_site_occupancy
  C  C0  1  0.31470500  0.39469900  0.87052400  1
  C  C1  1  0.81567200  0.39548800  0.36253300  1
  C  C2  1  0.18428400  0.60437800  0.63744200  1
  C  C3  1  0.68538500  0.60536600  0.12958100  1
  Ni  Ni4  1  0.77907800  0.68538300  0.78310600  1
  Ni  Ni5  1  0.26699900  0.68617300  0.28221900  1
  Ni  Ni6  1  0.73277400  0.31370900  0.71774800  1
  Ni  Ni7  1  0.22084800  0.31458700  0.21694900  1
  Cu  Cu8  1  0.24541800  0.99614000  0.74909900  1
  Cu  Cu9  1  0.11961500  0.89623100  0.08304200  1
  Cu  Cu10  1  0.38011500  0.11150900  0.42039900  1
  Cu  Cu11  1  0.75464200  0.00385900  0.25083800  1
  Cu  Cu12  1  0.61985400  0.88847800  0.57959900  1
  Cu  Cu13  1  0.88040000  0.10381900  0.91685400  1
  C  C14  1  0.79347900  0.86181900  0.00776500  1
  C  C15  1  0.30315100  0.86134700  0.51211200  1
  C  C16  1  0.69689700  0.13865100  0.48784700  1
  C  C17  1  0.20653700  0.13827800  0.99228200  1
  C  C18  1  0.34607600  0.51485100  0.11755600  1
  C  C19  1  0.83977000  0.50922800  0.61213300  1
  C  C20  1  0.16023500  0.49076000  0.38792600  1
  C  C21  1  0.65397600  0.48518300  0.88248000  1
  C  C22  1  0.42026100  0.93828600  0.21306300  1
  C  C23  1  0.91131300  0.93561600  0.69725700  1
  C  C24  1  0.08870900  0.06449100  0.30280700  1
  C  C25  1  0.57966300  0.06159700  0.78687500  1
  C  C26  1  0.35596100  0.21021800  0.63827300  1
  C  C27  1  0.87384000  0.21878400  0.15523100  1
  C  C28  1  0.12611800  0.78130600  0.84480900  1
  C  C29  1  0.64420200  0.78987800  0.36176400  1
  C  C30  1  0.52148000  0.68914700  0.68024400  1
  C  C31  1  0.01496300  0.68222700  0.18387500  1
  C  C32  1  0.98504300  0.31780100  0.81616100  1
  C  C33  1  0.47853400  0.31071500  0.31960800  1
