# generated using pymatgen
data_Cu2NiC6
_symmetry_space_group_name_H-M   'P 1'
_cell_length_a   5.93164051
_cell_length_b   5.93164051
_cell_length_c   13.61170017
_cell_angle_alpha   89.90341582
_cell_angle_beta   89.90341582
_cell_angle_gamma   119.91800939
_symmetry_Int_Tables_number   1
_chemical_formula_structural   Cu2NiC6
_chemical_formula_sum   'Cu8 Ni4 C24'
_cell_volume   415.09586458
_cell_formula_units_Z   4
loop_
 _symmetry_equiv_pos_site_id
 _symmetry_equiv_pos_as_xyz
  1  'x, y, z'
loop_
 _atom_site_type_symbol
 _atom_site_label
 _atom_site_symmetry_multiplicity
 _atom_site_fract_x
 _atom_site_fract_y
 _atom_site_fract_z
 _atom_site_occupancy
  C  C0  1  0.66687200  0.33312800  0.75000000  1
  C  C1  1  0.33312800  0.66687200  0.25000000  1
  Ni  Ni2  1  0.50000000  0.50000000  0.00000000  1
  Ni  Ni3  1  0.00000000  0.50000000  0.00000000  1
  Ni  Ni4  1  0.50000000  0.50000000  0.50000000  1
  Ni  Ni5  1  0.50000000  0.00000000  0.50000000  1
  Cu  Cu6  1  0.66646800  0.33353200  0.25000000  1
  Cu  Cu7  1  0.33353200  0.66646800  0.75000000  1
  Cu  Cu8  1  0.00167100  0.00332200  0.85397700  1
  Cu  Cu9  1  0.99832900  0.99667800  0.14602300  1
  Cu  Cu10  1  0.00332200  0.00167100  0.35397700  1
  Cu  Cu11  1  0.99667800  0.99832900  0.64602300  1
  Cu  Cu12  1  0.50000000  0.00000000  0.00000000  1
  Cu  Cu13  1  0.00000000  0.50000000  0.50000000  1
  C  C14  1  0.65645700  0.32809600  0.41920400  1
  C  C15  1  0.34354300  0.67190400  0.58079600  1
  C  C16  1  0.32809600  0.65645700  0.91920400  1
  C  C17  1  0.67190400  0.34354300  0.08079600  1
  C  C18  1  0.15005900  0.84994100  0.75000000  1
  C  C19  1  0.70041500  0.85003200  0.75148300  1
  C  C20  1  0.14996800  0.29958500  0.74851700  1
  C  C21  1  0.84994100  0.15005900  0.25000000  1
  C  C22  1  0.29958500  0.14996800  0.24851700  1
  C  C23  1  0.85003200  0.70041500  0.25148300  1
  C  C24  1  0.83330300  0.18259900  0.92221500  1
  C  C25  1  0.34920200  0.18244500  0.92220300  1
  C  C26  1  0.82546300  0.65081700  0.92241000  1
  C  C27  1  0.16669700  0.81740100  0.07778500  1
  C  C28  1  0.65079800  0.81755500  0.07779700  1
  C  C29  1  0.17453700  0.34918300  0.07759000  1
  C  C30  1  0.18259900  0.83330300  0.42221500  1
  C  C31  1  0.65081700  0.82546300  0.42241000  1
  C  C32  1  0.18244500  0.34920200  0.42220300  1
  C  C33  1  0.81740100  0.16669700  0.57778500  1
  C  C34  1  0.34918300  0.17453700  0.57759000  1
  C  C35  1  0.81755500  0.65079800  0.57779700  1
