# generated using pymatgen
data_CuNi2C7
_symmetry_space_group_name_H-M   'P 1'
_cell_length_a   6.08111969
_cell_length_b   6.08111969
_cell_length_c   6.08111904
_cell_angle_alpha   60.64916403
_cell_angle_beta   60.64916403
_cell_angle_gamma   60.64915948
_symmetry_Int_Tables_number   1
_chemical_formula_structural   CuNi2C7
_chemical_formula_sum   'Cu1 Ni2 C7'
_cell_volume   161.34470289
_cell_formula_units_Z   1
loop_
 _symmetry_equiv_pos_site_id
 _symmetry_equiv_pos_as_xyz
  1  'x, y, z'
loop_
 _atom_site_type_symbol
 _atom_site_label
 _atom_site_symmetry_multiplicity
 _atom_site_fract_x
 _atom_site_fract_y
 _atom_site_fract_z
 _atom_site_occupancy
  Ni  Ni0  1  0.25202900  0.25202900  0.25202900  1
  Ni  Ni1  1  0.74797100  0.74797100  0.74797100  1
  Cu  Cu2  1  0.00000000  0.00000000  0.00000000  1
  C  C3  1  0.50000000  0.50000000  0.50000000  1
  C  C4  1  0.72489900  0.22803300  0.31552900  1
  C  C5  1  0.22803300  0.31552900  0.72489900  1
  C  C6  1  0.31552900  0.72489900  0.22803300  1
  C  C7  1  0.27510100  0.77196700  0.68447100  1
  C  C8  1  0.68447100  0.27510100  0.77196700  1
  C  C9  1  0.77196700  0.68447100  0.27510100  1
