# generated using pymatgen
data_Cu5Ni4C21
_symmetry_space_group_name_H-M   'P 1'
_cell_length_a   8.74277516
_cell_length_b   8.74277516
_cell_length_c   10.48117106
_cell_angle_alpha   85.16837886
_cell_angle_beta   85.16837886
_cell_angle_gamma   63.33647171
_symmetry_Int_Tables_number   1
_chemical_formula_structural   Cu5Ni4C21
_chemical_formula_sum   'Cu10 Ni8 C42'
_cell_volume   712.43006461
_cell_formula_units_Z   2
loop_
 _symmetry_equiv_pos_site_id
 _symmetry_equiv_pos_as_xyz
  1  'x, y, z'
loop_
 _atom_site_type_symbol
 _atom_site_label
 _atom_site_symmetry_multiplicity
 _atom_site_fract_x
 _atom_site_fract_y
 _atom_site_fract_z
 _atom_site_occupancy
  Ni  Ni0  1  0.93906100  0.65339600  0.43202400  1
  Ni  Ni1  1  0.32272600  0.63245800  0.52920000  1
  Ni  Ni2  1  0.34660400  0.06093900  0.06797600  1
  Ni  Ni3  1  0.36754200  0.67727400  0.97080000  1
  Ni  Ni4  1  0.63245800  0.32272600  0.02920000  1
  Ni  Ni5  1  0.65339600  0.93906100  0.93202400  1
  Ni  Ni6  1  0.06093900  0.34660400  0.56797600  1
  Ni  Ni7  1  0.67727400  0.36754200  0.47080000  1
  Cu  Cu8  1  0.00830400  0.68016300  0.76867000  1
  Cu  Cu9  1  0.68016300  0.00830400  0.26867000  1
  Cu  Cu10  1  0.47875000  0.85263700  0.45818600  1
  Cu  Cu11  1  0.85263700  0.47875000  0.95818600  1
  Cu  Cu12  1  0.14736300  0.52125000  0.04181400  1
  Cu  Cu13  1  0.83140700  0.16859300  0.75000000  1
  Cu  Cu14  1  0.16859300  0.83140700  0.25000000  1
  Cu  Cu15  1  0.52125000  0.14736300  0.54181400  1
  Cu  Cu16  1  0.99169600  0.31983700  0.23133000  1
  Cu  Cu17  1  0.31983700  0.99169600  0.73133000  1
  C  C18  1  0.35428400  0.33867900  0.79095600  1
  C  C19  1  0.00000000  0.00000000  0.50000000  1
  C  C20  1  0.00000000  0.00000000  0.00000000  1
  C  C21  1  0.33867900  0.35428400  0.29095600  1
  C  C22  1  0.64571600  0.66132100  0.20904400  1
  C  C23  1  0.66132100  0.64571600  0.70904400  1
  C  C24  1  0.41128700  0.05605000  0.87975300  1
  C  C25  1  0.09067100  0.74634500  0.93502400  1
  C  C26  1  0.24450900  0.59348500  0.18140400  1
  C  C27  1  0.07957100  0.07031800  0.32063500  1
  C  C28  1  0.25365500  0.90932900  0.56497600  1
  C  C29  1  0.92968200  0.92042900  0.17936500  1
  C  C30  1  0.43820700  0.39077700  0.45737400  1
  C  C31  1  0.75736500  0.10118300  0.92319700  1
  C  C32  1  0.24263500  0.89881700  0.07680300  1
  C  C33  1  0.71493200  0.78206100  0.36147300  1
  C  C34  1  0.24887300  0.56720100  0.69772000  1
  C  C35  1  0.28506800  0.21793900  0.63852700  1
  C  C36  1  0.90932900  0.25365500  0.06497600  1
  C  C37  1  0.08117200  0.45725100  0.88155200  1
  C  C38  1  0.43279900  0.75112700  0.80228000  1
  C  C39  1  0.56179300  0.60922300  0.54262600  1
  C  C40  1  0.75112700  0.43279900  0.30228000  1
  C  C41  1  0.54274900  0.91882800  0.61844800  1
  C  C42  1  0.40651500  0.75549100  0.31859600  1
  C  C43  1  0.56720100  0.24887300  0.19772000  1
  C  C44  1  0.05605000  0.41128700  0.37975300  1
  C  C45  1  0.91882800  0.54274900  0.11844800  1
  C  C46  1  0.89881700  0.24263500  0.57680300  1
  C  C47  1  0.39077700  0.43820700  0.95737400  1
  C  C48  1  0.75549100  0.40651500  0.81859600  1
  C  C49  1  0.07031800  0.07957100  0.82063500  1
  C  C50  1  0.78206100  0.71493200  0.86147300  1
  C  C51  1  0.60922300  0.56179300  0.04262600  1
  C  C52  1  0.74634500  0.09067100  0.43502400  1
  C  C53  1  0.45725100  0.08117200  0.38155200  1
  C  C54  1  0.58871300  0.94395000  0.12024700  1
  C  C55  1  0.92042900  0.92968200  0.67936500  1
  C  C56  1  0.10118300  0.75736500  0.42319700  1
  C  C57  1  0.21793900  0.28506800  0.13852700  1
  C  C58  1  0.59348500  0.24450900  0.68140400  1
  C  C59  1  0.94395000  0.58871300  0.62024700  1
