# generated using pymatgen
data_CuNi2C13
_symmetry_space_group_name_H-M   'P 1'
_cell_length_a   10.22595000
_cell_length_b   5.97506800
_cell_length_c   6.50610550
_cell_angle_alpha   72.26061753
_cell_angle_beta   90.00000000
_cell_angle_gamma   90.00000000
_symmetry_Int_Tables_number   1
_chemical_formula_structural   CuNi2C13
_chemical_formula_sum   'Cu2 Ni4 C26'
_cell_volume   378.62635709
_cell_formula_units_Z   2
loop_
 _symmetry_equiv_pos_site_id
 _symmetry_equiv_pos_as_xyz
  1  'x, y, z'
loop_
 _atom_site_type_symbol
 _atom_site_label
 _atom_site_symmetry_multiplicity
 _atom_site_fract_x
 _atom_site_fract_y
 _atom_site_fract_z
 _atom_site_occupancy
  Ni  Ni0  1  0.15521000  0.30289800  0.49088900  1
  Ni  Ni1  1  0.65521000  0.69710200  0.50911100  1
  Ni  Ni2  1  0.50136700  0.25592700  0.50022900  1
  Ni  Ni3  1  0.00136700  0.74407300  0.49977100  1
  C  C4  1  0.99835600  0.24998500  0.99783600  1
  C  C5  1  0.49835600  0.75001500  0.00216400  1
  C  C6  1  0.66773000  0.22872700  0.00219600  1
  C  C7  1  0.16773000  0.77127300  0.99780400  1
  C  C8  1  0.33339600  0.26963400  0.99684200  1
  C  C9  1  0.83339600  0.73036600  0.00315800  1
  Cu  Cu10  1  0.84435000  0.19276600  0.50562000  1
  Cu  Cu11  1  0.34435000  0.80723400  0.49438000  1
  C  C12  1  0.54133700  0.94362900  0.49836100  1
  C  C13  1  0.04133700  0.05637100  0.50163900  1
  C  C14  1  0.46235500  0.55471400  0.50090800  1
  C  C15  1  0.96235500  0.44528600  0.49909200  1
  C  C16  1  0.33314900  0.89062200  0.16667500  1
  C  C17  1  0.83314900  0.10937800  0.83332500  1
  C  C18  1  0.66570100  0.61207900  0.82869300  1
  C  C19  1  0.16570100  0.38792100  0.17130700  1
  C  C20  1  0.81577000  0.85783000  0.50142800  1
  C  C21  1  0.31577000  0.14217000  0.49857200  1
  C  C22  1  0.18049900  0.62703200  0.49722100  1
  C  C23  1  0.68049900  0.37296800  0.50277900  1
  C  C24  1  0.00103800  0.86324800  0.16954700  1
  C  C25  1  0.50103800  0.13675200  0.83045300  1
  C  C26  1  0.00086000  0.63977900  0.83175200  1
  C  C27  1  0.50086000  0.36022100  0.16824800  1
  C  C28  1  0.66593400  0.82994500  0.17217600  1
  C  C29  1  0.16593400  0.17005500  0.82782400  1
  C  C30  1  0.33294900  0.66512300  0.83111900  1
  C  C31  1  0.83294900  0.33487700  0.16888100  1
