# generated using pymatgen
data_CuNi7C31
_symmetry_space_group_name_H-M   'P 1'
_cell_length_a   10.87578797
_cell_length_b   15.25300604
_cell_length_c   10.73649003
_cell_angle_alpha   90.03774917
_cell_angle_beta   90.36913080
_cell_angle_gamma   90.08194562
_symmetry_Int_Tables_number   1
_chemical_formula_structural   CuNi7C31
_chemical_formula_sum   'Cu4 Ni28 C124'
_cell_volume   1781.02061032
_cell_formula_units_Z   4
loop_
 _symmetry_equiv_pos_site_id
 _symmetry_equiv_pos_as_xyz
  1  'x, y, z'
loop_
 _atom_site_type_symbol
 _atom_site_label
 _atom_site_symmetry_multiplicity
 _atom_site_fract_x
 _atom_site_fract_y
 _atom_site_fract_z
 _atom_site_occupancy
  C  C0  1  0.01875401  0.11629828  0.50543163  1
  C  C1  1  0.01574471  0.11839218  0.99245282  1
  C  C2  1  0.02132057  0.62668273  0.49612375  1
  C  C3  1  0.02093437  0.62702215  0.99554853  1
  C  C4  1  0.52581918  0.12908822  0.50562402  1
  C  C5  1  0.53407921  0.12122436  0.97460821  1
  C  C6  1  0.52593792  0.62512780  0.49797471  1
  C  C7  1  0.52267615  0.62523879  0.99453862  1
  C  C8  1  0.49116531  0.38294911  0.99698622  1
  C  C9  1  0.47846614  0.38383672  0.50804820  1
  C  C10  1  0.48306359  0.87097021  0.99543165  1
  C  C11  1  0.48134616  0.86601409  0.51521138  1
  C  C12  1  0.96786047  0.38368608  0.00010223  1
  C  C13  1  0.97683005  0.37962388  0.50604642  1
  C  C14  1  0.97543628  0.87334965  0.00508270  1
  C  C15  1  0.97237803  0.87407442  0.50684567  1
  C  C16  1  0.22791375  0.38874106  0.25404259  1
  C  C17  1  0.22646092  0.37789113  0.73292807  1
  C  C18  1  0.22465850  0.87323513  0.24418182  1
  C  C19  1  0.22869423  0.87384783  0.74905092  1
  C  C20  1  0.73085376  0.38357536  0.24464114  1
  C  C21  1  0.72686086  0.37866708  0.74828858  1
  C  C22  1  0.73217308  0.86683787  0.24663363  1
  C  C23  1  0.72781254  0.87344683  0.74542336  1
  C  C24  1  0.24026637  0.11945924  0.26094114  1
  C  C25  1  0.26966601  0.11629578  0.73447233  1
  C  C26  1  0.27328646  0.62766551  0.25703819  1
  C  C27  1  0.27150982  0.62529442  0.75502793  1
  C  C28  1  0.77737750  0.11709145  0.25437992  1
  C  C29  1  0.77426956  0.12327650  0.75479578  1
  C  C30  1  0.77310631  0.62528576  0.25602169  1
  C  C31  1  0.77255399  0.62630200  0.75379715  1
  Ni  Ni32  1  0.99759866  0.99793626  0.75336361  1
  Ni  Ni33  1  0.99934569  0.50210937  0.25051136  1
  Ni  Ni34  1  0.00074960  0.50062695  0.75019056  1
  Ni  Ni35  1  0.50781423  0.98755046  0.24281544  1
  Ni  Ni36  1  0.50010090  0.99894792  0.74919510  1
  Ni  Ni37  1  0.49911152  0.50365793  0.25113727  1
  Ni  Ni38  1  0.49987338  0.50151022  0.74992498  1
  Ni  Ni39  1  0.24083576  0.99316135  0.50406240  1
  Ni  Ni40  1  0.24920977  0.50397247  0.00430711  1
  Ni  Ni41  1  0.25039227  0.50301367  0.50073492  1
  Ni  Ni42  1  0.75059487  0.99862333  0.99806999  1
  Ni  Ni43  1  0.74637509  0.00026722  0.50164483  1
  Ni  Ni44  1  0.74879990  0.50289633  0.00055308  1
  Ni  Ni45  1  0.75128030  0.50039726  0.50012270  1
  Ni  Ni46  1  0.24957691  0.25085699  0.49286946  1
  Ni  Ni47  1  0.25104378  0.75141427  0.00042627  1
  Ni  Ni48  1  0.25053918  0.74992298  0.50010808  1
  Ni  Ni49  1  0.75172670  0.24880578  0.99883336  1
  Ni  Ni50  1  0.74961293  0.25078379  0.50444201  1
  Ni  Ni51  1  0.74974930  0.74967483  0.99999483  1
  Ni  Ni52  1  0.75063337  0.74927614  0.50008421  1
  Ni  Ni53  1  0.99574544  0.25112188  0.74510400  1
  Ni  Ni54  1  0.00064263  0.74922779  0.25036857  1
  Ni  Ni55  1  0.00087055  0.75031720  0.75001965  1
  Ni  Ni56  1  0.51824806  0.25542937  0.26010638  1
  Ni  Ni57  1  0.50267598  0.25089658  0.74337098  1
  Ni  Ni58  1  0.49931172  0.74854866  0.25171793  1
  Ni  Ni59  1  0.49997201  0.74823102  0.75106837  1
  Cu  Cu60  1  0.99689703  0.99614781  0.24926735  1
  Cu  Cu61  1  0.25001466  0.00011178  0.00293536  1
  Cu  Cu62  1  0.25865046  0.24467902  0.96468446  1
  Cu  Cu63  1  0.98599834  0.25055974  0.26835434  1
  C  C64  1  0.10012207  0.26672990  0.59709977  1
  C  C65  1  0.10573052  0.77150243  0.10358037  1
  C  C66  1  0.10567709  0.77310945  0.60350291  1
  C  C67  1  0.59123928  0.26000604  0.10192305  1
  C  C68  1  0.59900713  0.26949821  0.59498427  1
  C  C69  1  0.60636657  0.77290929  0.10696169  1
  C  C70  1  0.60736155  0.76598722  0.60684086  1
  C  C71  1  0.39736674  0.20965529  0.36114749  1
  C  C72  1  0.40575321  0.23206526  0.89688940  1
  C  C73  1  0.39623294  0.72631900  0.39788549  1
  C  C74  1  0.39585408  0.72931835  0.89787781  1
  C  C75  1  0.89949380  0.22491335  0.40385297  1
  C  C76  1  0.90119791  0.23396081  0.90395215  1
  C  C77  1  0.89572364  0.73023838  0.39517273  1
  C  C78  1  0.89496035  0.72942463  0.89551498  1
  C  C79  1  0.14873131  0.24392374  0.32585621  1
  C  C80  1  0.14900931  0.22606013  0.84319124  1
  C  C81  1  0.14633859  0.73053978  0.35292453  1
  C  C82  1  0.14680440  0.72996397  0.85407179  1
  C  C83  1  0.65698859  0.22396939  0.35133335  1
  C  C84  1  0.64993333  0.22934131  0.85234337  1
  C  C85  1  0.64618718  0.72812770  0.35419033  1
  C  C86  1  0.64458573  0.72867422  0.85584167  1
  C  C87  1  0.35357664  0.26620918  0.64073044  1
  C  C88  1  0.35572167  0.77273878  0.14734250  1
  C  C89  1  0.35440049  0.77014649  0.64713204  1
  C  C90  1  0.86681119  0.27395406  0.14660063  1
  C  C91  1  0.84989982  0.27350943  0.64973189  1
  C  C92  1  0.85683156  0.76986979  0.14466303  1
  C  C93  1  0.85638127  0.77130642  0.64564104  1
  C  C94  1  0.35612899  0.48270131  0.14606338  1
  C  C95  1  0.35550336  0.48137959  0.64548891  1
  C  C96  1  0.35335818  0.99796175  0.16648915  1
  C  C97  1  0.35521567  0.98042976  0.64156080  1
  C  C98  1  0.85585148  0.48120747  0.14522161  1
  C  C99  1  0.85689625  0.47841496  0.64626306  1
  C  C100  1  0.84894655  0.97952209  0.14988725  1
  C  C101  1  0.85092790  0.97839604  0.64683449  1
  C  C102  1  0.14074743  0.01118816  0.35706812  1
  C  C103  1  0.14302157  0.02469167  0.85718947  1
  C  C104  1  0.14751562  0.52092787  0.35235567  1
  C  C105  1  0.15017780  0.51509225  0.85404360  1
  C  C106  1  0.62628473  0.02988020  0.35636964  1
  C  C107  1  0.64839007  0.01963252  0.84998111  1
  C  C108  1  0.64622286  0.51907693  0.35368832  1
  C  C109  1  0.64492690  0.52130429  0.85535108  1
  C  C110  1  0.39606529  0.02178233  0.89501730  1
  C  C111  1  0.39567269  0.52281570  0.39707875  1
  C  C112  1  0.39526516  0.51421328  0.90042433  1
  C  C113  1  0.88959281  0.02096444  0.39317858  1
  C  C114  1  0.89455612  0.01755488  0.89928152  1
  C  C115  1  0.89720648  0.52005595  0.39602485  1
  C  C116  1  0.89659290  0.51845463  0.89755725  1
  C  C117  1  0.10411175  0.47956097  0.10462844  1
  C  C118  1  0.10658335  0.47922009  0.60461594  1
  C  C119  1  0.10153412  0.98096460  0.10896544  1
  C  C120  1  0.09723421  0.98079531  0.61169178  1
  C  C121  1  0.60704859  0.48111186  0.10742988  1
  C  C122  1  0.60726977  0.48174654  0.60584111  1
  C  C123  1  0.60173325  0.98628305  0.09431604  1
  C  C124  1  0.59851296  0.98158371  0.59877575  1
  C  C125  1  0.01180827  0.37719991  0.28595115  1
  C  C126  1  0.01473867  0.37463233  0.78890025  1
  C  C127  1  0.00675081  0.87351063  0.29002346  1
  C  C128  1  0.01140340  0.87449231  0.79290513  1
  C  C129  1  0.49765263  0.37719231  0.28478756  1
  C  C130  1  0.50826288  0.37528759  0.78320695  1
  C  C131  1  0.50914586  0.87187685  0.29992062  1
  C  C132  1  0.51007437  0.87423946  0.78431214  1
  C  C133  1  0.49021213  0.12494909  0.71500020  1
  C  C134  1  0.49004079  0.62706114  0.20851021  1
  C  C135  1  0.48804449  0.62470339  0.71326888  1
  C  C136  1  0.99677483  0.12611056  0.21342102  1
  C  C137  1  0.98576483  0.12547666  0.71373754  1
  C  C138  1  0.99019143  0.62552873  0.20973852  1
  C  C139  1  0.99138353  0.62498747  0.71173320  1
  C  C140  1  0.23652623  0.14624653  0.05455611  1
  C  C141  1  0.24620305  0.12112957  0.51529247  1
  C  C142  1  0.23778252  0.62552280  0.04126000  1
  C  C143  1  0.23694115  0.62621482  0.54092048  1
  C  C144  1  0.74408226  0.12478881  0.04001483  1
  C  C145  1  0.74067719  0.12538394  0.54242799  1
  C  C146  1  0.73985158  0.62592423  0.04069794  1
  C  C147  1  0.74443197  0.62474721  0.53823273  1
  C  C148  1  0.26532098  0.37590966  0.46308489  1
  C  C149  1  0.25576922  0.35767670  0.00727748  1
  C  C150  1  0.26954493  0.87474860  0.45631019  1
  C  C151  1  0.26593878  0.87538441  0.96459970  1
  C  C152  1  0.75974966  0.37434857  0.45900534  1
  C  C153  1  0.75063587  0.37551762  0.96575011  1
  C  C154  1  0.75505630  0.87567811  0.46058467  1
  C  C155  1  0.75780585  0.87431777  0.96088265  1
