# generated using pymatgen
data_Cu4Ni6C43
_symmetry_space_group_name_H-M   'P 1'
_cell_length_a   11.12197981
_cell_length_b   11.12197981
_cell_length_c   17.96687800
_cell_angle_alpha   90.00000000
_cell_angle_beta   90.00000000
_cell_angle_gamma   119.99999886
_symmetry_Int_Tables_number   1
_chemical_formula_structural   Cu4Ni6C43
_chemical_formula_sum   'Cu8 Ni12 C86'
_cell_volume   1924.71956126
_cell_formula_units_Z   2
loop_
 _symmetry_equiv_pos_site_id
 _symmetry_equiv_pos_as_xyz
  1  'x, y, z'
loop_
 _atom_site_type_symbol
 _atom_site_label
 _atom_site_symmetry_multiplicity
 _atom_site_fract_x
 _atom_site_fract_y
 _atom_site_fract_z
 _atom_site_occupancy
  Ni  Ni0  1  0.47195600  0.47195600  0.90462300  1
  Ni  Ni1  1  0.52804400  0.00000000  0.90462300  1
  Ni  Ni2  1  0.00000000  0.52804400  0.90462300  1
  Ni  Ni3  1  0.52804400  0.52804400  0.09537700  1
  Ni  Ni4  1  0.47195600  0.00000000  0.09537700  1
  Ni  Ni5  1  0.00000000  0.47195600  0.09537700  1
  Ni  Ni6  1  0.52804400  0.52804400  0.40462300  1
  Ni  Ni7  1  0.47195600  0.00000000  0.40462300  1
  Ni  Ni8  1  0.00000000  0.47195600  0.40462300  1
  Ni  Ni9  1  0.47195600  0.47195600  0.59537700  1
  Ni  Ni10  1  0.52804400  0.00000000  0.59537700  1
  Ni  Ni11  1  0.00000000  0.52804400  0.59537700  1
  C  C12  1  0.84071300  0.23363500  0.83433500  1
  C  C13  1  0.76636500  0.60707700  0.83433500  1
  C  C14  1  0.39292300  0.15928700  0.83433500  1
  C  C15  1  0.23363500  0.84071300  0.83433500  1
  C  C16  1  0.60707700  0.76636500  0.83433500  1
  C  C17  1  0.15928700  0.39292300  0.83433500  1
  C  C18  1  0.15928700  0.76636500  0.16566500  1
  C  C19  1  0.23363500  0.39292300  0.16566500  1
  C  C20  1  0.60707700  0.84071300  0.16566500  1
  C  C21  1  0.76636500  0.15928700  0.16566500  1
  C  C22  1  0.39292300  0.23363500  0.16566500  1
  C  C23  1  0.84071300  0.60707700  0.16566500  1
  C  C24  1  0.15928700  0.76636500  0.33433500  1
  C  C25  1  0.23363500  0.39292300  0.33433500  1
  C  C26  1  0.60707700  0.84071300  0.33433500  1
  C  C27  1  0.76636500  0.15928700  0.33433500  1
  C  C28  1  0.39292300  0.23363500  0.33433500  1
  C  C29  1  0.84071300  0.60707700  0.33433500  1
  C  C30  1  0.84071300  0.23363500  0.66566500  1
  C  C31  1  0.76636500  0.60707700  0.66566500  1
  C  C32  1  0.39292300  0.15928700  0.66566500  1
  C  C33  1  0.23363500  0.84071300  0.66566500  1
  C  C34  1  0.60707700  0.76636500  0.66566500  1
  C  C35  1  0.15928700  0.39292300  0.66566500  1
  C  C36  1  0.84174200  0.84174200  0.38512800  1
  C  C37  1  0.15825800  0.00000000  0.38512800  1
  C  C38  1  0.00000000  0.15825800  0.38512800  1
  C  C39  1  0.15825800  0.15825800  0.61487200  1
  C  C40  1  0.84174200  0.00000000  0.61487200  1
  C  C41  1  0.00000000  0.84174200  0.61487200  1
  C  C42  1  0.15825800  0.15825800  0.88512800  1
  C  C43  1  0.84174200  0.00000000  0.88512800  1
  C  C44  1  0.00000000  0.84174200  0.88512800  1
  C  C45  1  0.84174200  0.84174200  0.11487200  1
  C  C46  1  0.15825800  0.00000000  0.11487200  1
  C  C47  1  0.00000000  0.15825800  0.11487200  1
  C  C48  1  0.74878500  0.74878500  0.96890200  1
  C  C49  1  0.25121500  0.00000000  0.96890200  1
  C  C50  1  0.00000000  0.25121500  0.96890200  1
  C  C51  1  0.25121500  0.25121500  0.03109800  1
  C  C52  1  0.74878500  0.00000000  0.03109800  1
  C  C53  1  0.00000000  0.74878500  0.03109800  1
  C  C54  1  0.25121500  0.25121500  0.46890200  1
  C  C55  1  0.74878500  0.00000000  0.46890200  1
  C  C56  1  0.00000000  0.74878500  0.46890200  1
  C  C57  1  0.74878500  0.74878500  0.53109800  1
  C  C58  1  0.25121500  0.00000000  0.53109800  1
  C  C59  1  0.00000000  0.25121500  0.53109800  1
  C  C60  1  0.85173300  0.44713800  0.75000000  1
  C  C61  1  0.55286200  0.40459500  0.75000000  1
  C  C62  1  0.59540500  0.14826700  0.75000000  1
  C  C63  1  0.44713800  0.85173300  0.75000000  1
  C  C64  1  0.40459500  0.55286200  0.75000000  1
  C  C65  1  0.14826700  0.59540500  0.75000000  1
  C  C66  1  0.14826700  0.55286200  0.25000000  1
  C  C67  1  0.44713800  0.59540500  0.25000000  1
  C  C68  1  0.40459500  0.85173300  0.25000000  1
  C  C69  1  0.55286200  0.14826700  0.25000000  1
  C  C70  1  0.59540500  0.44713800  0.25000000  1
  C  C71  1  0.85173300  0.40459500  0.25000000  1
  C  C72  1  0.75322600  0.24677400  0.00000000  1
  C  C73  1  0.75322600  0.50645300  0.00000000  1
  C  C74  1  0.49354700  0.24677400  0.00000000  1
  C  C75  1  0.24677400  0.75322600  0.00000000  1
  C  C76  1  0.50645300  0.75322600  0.00000000  1
  C  C77  1  0.24677400  0.49354700  0.00000000  1
  C  C78  1  0.24677400  0.75322600  0.50000000  1
  C  C79  1  0.24677400  0.49354700  0.50000000  1
  C  C80  1  0.50645300  0.75322600  0.50000000  1
  C  C81  1  0.75322600  0.24677400  0.50000000  1
  C  C82  1  0.49354700  0.24677400  0.50000000  1
  C  C83  1  0.75322600  0.50645300  0.50000000  1
  C  C84  1  0.66666700  0.33333300  0.87213000  1
  C  C85  1  0.33333300  0.66666700  0.87213000  1
  C  C86  1  0.33333300  0.66666700  0.12787000  1
  C  C87  1  0.66666700  0.33333300  0.12787000  1
  C  C88  1  0.33333300  0.66666700  0.37213000  1
  C  C89  1  0.66666700  0.33333300  0.37213000  1
  C  C90  1  0.66666700  0.33333300  0.62787000  1
  C  C91  1  0.33333300  0.66666700  0.62787000  1
  C  C92  1  0.85353900  0.85353900  0.75000000  1
  C  C93  1  0.14646100  0.00000000  0.75000000  1
  C  C94  1  0.00000000  0.14646100  0.75000000  1
  C  C95  1  0.14646100  0.14646100  0.25000000  1
  C  C96  1  0.85353900  0.00000000  0.25000000  1
  C  C97  1  0.00000000  0.85353900  0.25000000  1
  Cu  Cu98  1  0.26853300  0.26853300  0.75000000  1
  Cu  Cu99  1  0.73146700  0.00000000  0.75000000  1
  Cu  Cu100  1  0.00000000  0.73146700  0.75000000  1
  Cu  Cu101  1  0.73146700  0.73146700  0.25000000  1
  Cu  Cu102  1  0.26853300  0.00000000  0.25000000  1
  Cu  Cu103  1  0.00000000  0.26853300  0.25000000  1
  Cu  Cu104  1  0.00000000  0.00000000  0.00000000  1
  Cu  Cu105  1  0.00000000  0.00000000  0.50000000  1
