# generated using pymatgen
data_Cu3NiC6
_symmetry_space_group_name_H-M   'P 1'
_cell_length_a   6.47942200
_cell_length_b   10.53937335
_cell_length_c   7.13760962
_cell_angle_alpha   90.00003459
_cell_angle_beta   90.00000000
_cell_angle_gamma   72.09791561
_symmetry_Int_Tables_number   1
_chemical_formula_structural   Cu3NiC6
_chemical_formula_sum   'Cu12 Ni4 C24'
_cell_volume   463.82122964
_cell_formula_units_Z   4
loop_
 _symmetry_equiv_pos_site_id
 _symmetry_equiv_pos_as_xyz
  1  'x, y, z'
loop_
 _atom_site_type_symbol
 _atom_site_label
 _atom_site_symmetry_multiplicity
 _atom_site_fract_x
 _atom_site_fract_y
 _atom_site_fract_z
 _atom_site_occupancy
  Ni  Ni0  1  0.50000000  0.00000000  0.50000000  1
  Ni  Ni1  1  0.25000000  0.50000000  0.00000000  1
  Ni  Ni2  1  0.75000000  0.50000000  0.00000000  1
  Ni  Ni3  1  0.00000000  0.00000000  0.50000000  1
  Cu  Cu4  1  0.75000000  0.50000000  0.50000000  1
  Cu  Cu5  1  0.50000000  0.00000000  0.00000000  1
  Cu  Cu6  1  0.25000000  0.50000000  0.50000000  1
  Cu  Cu7  1  0.00000000  0.00000000  0.00000000  1
  Cu  Cu8  1  0.37500000  0.75000000  0.75000000  1
  Cu  Cu9  1  0.12500000  0.25000000  0.25000000  1
  Cu  Cu10  1  0.87500000  0.75000000  0.75000000  1
  Cu  Cu11  1  0.62500000  0.25000000  0.25000000  1
  Cu  Cu12  1  0.62500000  0.25000000  0.75000000  1
  Cu  Cu13  1  0.37500000  0.75000000  0.25000000  1
  Cu  Cu14  1  0.12500000  0.25000000  0.75000000  1
  Cu  Cu15  1  0.87500000  0.75000000  0.25000000  1
  C  C16  1  0.42686400  0.64627100  0.00000000  1
  C  C17  1  0.17686400  0.14627100  0.50000000  1
  C  C18  1  0.92686400  0.64627100  0.00000000  1
  C  C19  1  0.67686400  0.14627100  0.50000000  1
  C  C20  1  0.57313600  0.35372900  0.00000000  1
  C  C21  1  0.32313600  0.85372900  0.50000000  1
  C  C22  1  0.07313600  0.35372900  0.00000000  1
  C  C23  1  0.82313600  0.85372900  0.50000000  1
  C  C24  1  0.68654300  0.62691400  0.71421900  1
  C  C25  1  0.43654300  0.12691400  0.21421900  1
  C  C26  1  0.18654300  0.62691400  0.71421900  1
  C  C27  1  0.93654300  0.12691400  0.21421900  1
  C  C28  1  0.81345700  0.37308600  0.28578100  1
  C  C29  1  0.56345700  0.87308600  0.78578100  1
  C  C30  1  0.31345700  0.37308600  0.28578100  1
  C  C31  1  0.06345700  0.87308600  0.78578100  1
  C  C32  1  0.81345700  0.37308600  0.71422000  1
  C  C33  1  0.56345700  0.87308600  0.21422000  1
  C  C34  1  0.31345700  0.37308600  0.71422000  1
  C  C35  1  0.06345700  0.87308600  0.21422000  1
  C  C36  1  0.68654300  0.62691400  0.28578000  1
  C  C37  1  0.43654300  0.12691400  0.78578000  1
  C  C38  1  0.18654300  0.62691400  0.28578000  1
  C  C39  1  0.93654300  0.12691400  0.78578000  1
