# generated using pymatgen
data_CuNi2C5
_symmetry_space_group_name_H-M   'P 1'
_cell_length_a   6.77666300
_cell_length_b   7.55803300
_cell_length_c   11.10499900
_cell_angle_alpha   90.00000000
_cell_angle_beta   90.00000000
_cell_angle_gamma   90.00000000
_symmetry_Int_Tables_number   1
_chemical_formula_structural   CuNi2C5
_chemical_formula_sum   'Cu4 Ni8 C20'
_cell_volume   568.77853268
_cell_formula_units_Z   4
loop_
 _symmetry_equiv_pos_site_id
 _symmetry_equiv_pos_as_xyz
  1  'x, y, z'
loop_
 _atom_site_type_symbol
 _atom_site_label
 _atom_site_symmetry_multiplicity
 _atom_site_fract_x
 _atom_site_fract_y
 _atom_site_fract_z
 _atom_site_occupancy
  Ni  Ni0  1  0.52538900  0.49677900  0.82747900  1
  Ni  Ni1  1  0.47461100  0.50322100  0.17252100  1
  Ni  Ni2  1  0.02538900  0.50322100  0.67252100  1
  Ni  Ni3  1  0.47461100  0.99677900  0.17252100  1
  Ni  Ni4  1  0.97461100  0.49677900  0.32747900  1
  Ni  Ni5  1  0.52538900  0.00322100  0.82747900  1
  Ni  Ni6  1  0.97461100  0.00322100  0.32747900  1
  Ni  Ni7  1  0.02538900  0.99677900  0.67252100  1
  Cu  Cu8  1  0.56741700  0.75000000  0.50238900  1
  Cu  Cu9  1  0.43258300  0.25000000  0.49761100  1
  Cu  Cu10  1  0.06741700  0.25000000  0.99761100  1
  Cu  Cu11  1  0.93258300  0.75000000  0.00238900  1
  C  C12  1  0.82814800  0.75000000  0.80276000  1
  C  C13  1  0.17185200  0.25000000  0.19724000  1
  C  C14  1  0.32814800  0.25000000  0.69724000  1
  C  C15  1  0.67185200  0.75000000  0.30276000  1
  C  C16  1  0.36062300  0.75000000  0.66677500  1
  C  C17  1  0.63937700  0.25000000  0.33322500  1
  C  C18  1  0.86062300  0.25000000  0.83322500  1
  C  C19  1  0.13937700  0.75000000  0.16677500  1
  C  C20  1  0.90547700  0.75000000  0.51105500  1
  C  C21  1  0.09452300  0.25000000  0.48894500  1
  C  C22  1  0.40547700  0.25000000  0.98894500  1
  C  C23  1  0.59452300  0.75000000  0.01105500  1
  C  C24  1  0.64523500  0.03237000  0.58262700  1
  C  C25  1  0.35476500  0.96763000  0.41737300  1
  C  C26  1  0.14523500  0.96763000  0.91737300  1
  C  C27  1  0.35476500  0.53237000  0.41737300  1
  C  C28  1  0.85476500  0.03237000  0.08262700  1
  C  C29  1  0.64523500  0.46763000  0.58262700  1
  C  C30  1  0.85476500  0.46763000  0.08262700  1
  C  C31  1  0.14523500  0.53237000  0.91737300  1
