# generated using pymatgen
data_Cu5Ni2C25
_symmetry_space_group_name_H-M   'P 1'
_cell_length_a   2.88159700
_cell_length_b   5.22985300
_cell_length_c   19.56328917
_cell_angle_alpha   82.33000644
_cell_angle_beta   90.00000000
_cell_angle_gamma   90.00000000
_symmetry_Int_Tables_number   1
_chemical_formula_structural   Cu5Ni2C25
_chemical_formula_sum   'Cu5 Ni2 C25'
_cell_volume   292.18746649
_cell_formula_units_Z   1
loop_
 _symmetry_equiv_pos_site_id
 _symmetry_equiv_pos_as_xyz
  1  'x, y, z'
loop_
 _atom_site_type_symbol
 _atom_site_label
 _atom_site_symmetry_multiplicity
 _atom_site_fract_x
 _atom_site_fract_y
 _atom_site_fract_z
 _atom_site_occupancy
  C  C0  1  0.50000000  0.50394900  0.99516200  1
  C  C1  1  0.00000000  0.75542900  0.87237900  1
  C  C2  1  0.50000000  0.00353400  0.74622600  1
  C  C3  1  0.00000000  0.24772900  0.62300800  1
  C  C4  1  0.50000000  0.51928300  0.49946900  1
  C  C5  1  0.00000000  0.25613900  0.13023300  1
  C  C6  1  0.50000000  0.96843300  0.25955200  1
  C  C7  1  0.00000000  0.74696200  0.37373100  1
  C  C8  1  0.50000000  0.25269600  0.37568300  1
  Ni  Ni9  1  0.00000000  0.99910300  0.99814700  1
  Ni  Ni10  1  0.50000000  0.74415200  0.12726400  1
  Cu  Cu11  1  0.50000000  0.25809400  0.87236100  1
  Cu  Cu12  1  0.00000000  0.50587100  0.74819100  1
  Cu  Cu13  1  0.50000000  0.74927000  0.62229700  1
  Cu  Cu14  1  0.00000000  0.04058700  0.49263200  1
  Cu  Cu15  1  0.00000000  0.45574900  0.26209400  1
  C  C16  1  0.50000000  0.08464400  0.06039900  1
  C  C17  1  0.00000000  0.37381900  0.93279100  1
  C  C18  1  0.50000000  0.59653100  0.80704200  1
  C  C19  1  0.00000000  0.87157100  0.68347600  1
  C  C20  1  0.50000000  0.09371100  0.55753600  1
  C  C21  1  0.00000000  0.87852400  0.17744000  1
  C  C22  1  0.50000000  0.61705400  0.30963100  1
  C  C23  1  0.00000000  0.35706000  0.44375800  1
  C  C24  1  0.50000000  0.88925500  0.94049000  1
  C  C25  1  0.00000000  0.13156100  0.81738200  1
  C  C26  1  0.50000000  0.40156300  0.69256300  1
  C  C27  1  0.00000000  0.61948600  0.56958200  1
  C  C28  1  0.50000000  0.89214500  0.44595700  1
  C  C29  1  0.00000000  0.62363400  0.07065400  1
  C  C30  1  0.50000000  0.42563700  0.18588400  1
  C  C31  1  0.00000000  0.13682300  0.30698400  1
