# generated using pymatgen
data_Cu2Ni2C31
_symmetry_space_group_name_H-M   'P 1'
_cell_length_a   12.47889598
_cell_length_b   13.33338368
_cell_length_c   13.37125659
_cell_angle_alpha   103.72311648
_cell_angle_beta   90.00000000
_cell_angle_gamma   90.00000000
_symmetry_Int_Tables_number   1
_chemical_formula_structural   Cu2Ni2C31
_chemical_formula_sum   'Cu8 Ni8 C124'
_cell_volume   2161.27870938
_cell_formula_units_Z   4
loop_
 _symmetry_equiv_pos_site_id
 _symmetry_equiv_pos_as_xyz
  1  'x, y, z'
loop_
 _atom_site_type_symbol
 _atom_site_label
 _atom_site_symmetry_multiplicity
 _atom_site_fract_x
 _atom_site_fract_y
 _atom_site_fract_z
 _atom_site_occupancy
  Ni  Ni0  1  0.45968770  0.97657582  0.31860892  1
  Ni  Ni1  1  0.53869445  0.31787971  0.97707506  1
  Ni  Ni2  1  0.96130555  0.81787971  0.47707506  1
  Ni  Ni3  1  0.04031230  0.47657582  0.81860892  1
  Ni  Ni4  1  0.54031230  0.02342418  0.68139108  1
  Ni  Ni5  1  0.46130555  0.68212029  0.02292494  1
  Ni  Ni6  1  0.03869445  0.18212029  0.52292494  1
  Ni  Ni7  1  0.95968770  0.52342418  0.18139108  1
  Cu  Cu8  1  0.75057550  0.54522025  0.95371967  1
  Cu  Cu9  1  0.25057550  0.95477975  0.54628033  1
  Cu  Cu10  1  0.24942450  0.45477975  0.04628033  1
  Cu  Cu11  1  0.74942450  0.04522025  0.45371967  1
  Cu  Cu12  1  0.39828079  0.38049958  0.44951779  1
  Cu  Cu13  1  0.10171921  0.88049958  0.94951779  1
  Cu  Cu14  1  0.60171921  0.61950042  0.55048221  1
  Cu  Cu15  1  0.89828079  0.11950042  0.05048221  1
  C  C16  1  0.73566167  0.79270812  0.20944941  1
  C  C17  1  0.26433833  0.20729188  0.79055059  1
  C  C18  1  0.23566167  0.70729188  0.29055059  1
  C  C19  1  0.76433833  0.29270812  0.70944941  1
  C  C20  1  0.24575111  0.20820146  0.28618309  1
  C  C21  1  0.74575111  0.29179854  0.21381691  1
  C  C22  1  0.75424889  0.79179854  0.71381691  1
  C  C23  1  0.25424889  0.70820146  0.78618309  1
  C  C24  1  0.52203626  0.69057433  0.30898960  1
  C  C25  1  0.47796374  0.30942567  0.69101040  1
  C  C26  1  0.02203626  0.80942567  0.19101040  1
  C  C27  1  0.97796374  0.19057433  0.80898960  1
  C  C28  1  0.49806882  0.17491130  0.17457393  1
  C  C29  1  0.00193118  0.67491130  0.67457393  1
  C  C30  1  0.50193118  0.82508870  0.82542607  1
  C  C31  1  0.99806882  0.32508870  0.32542607  1
  C  C32  1  0.68961070  0.02807077  0.15991081  1
  C  C33  1  0.30814713  0.15545728  0.02396552  1
  C  C34  1  0.19185287  0.65545728  0.52396552  1
  C  C35  1  0.81038930  0.52807077  0.65991081  1
  C  C36  1  0.31038930  0.97192923  0.84008919  1
  C  C37  1  0.69185287  0.84454272  0.97603448  1
  C  C38  1  0.80814713  0.34454272  0.47603448  1
  C  C39  1  0.18961070  0.47192923  0.34008919  1
  C  C40  1  0.33251369  0.18140904  0.53652980  1
  C  C41  1  0.66740103  0.53764898  0.17980064  1
  C  C42  1  0.83259897  0.03764898  0.67980064  1
  C  C43  1  0.16748631  0.68140904  0.03652980  1
  C  C44  1  0.66748631  0.81859096  0.46347020  1
  C  C45  1  0.33259897  0.46235102  0.82019936  1
  C  C46  1  0.16740103  0.96235102  0.32019936  1
  C  C47  1  0.83251369  0.31859096  0.96347020  1
  C  C48  1  0.42867195  0.26998713  0.57331325  1
  C  C49  1  0.56888679  0.57336491  0.26395204  1
  C  C50  1  0.93111321  0.07336491  0.76395204  1
  C  C51  1  0.07132805  0.76998713  0.07331325  1
  C  C52  1  0.57132805  0.73001287  0.42668675  1
  C  C53  1  0.43111321  0.42663509  0.73604796  1
  C  C54  1  0.06888679  0.92663509  0.23604796  1
  C  C55  1  0.92867195  0.23001287  0.92668675  1
  C  C56  1  0.39316469  0.87940647  0.12028858  1
  C  C57  1  0.60683531  0.12059353  0.87971142  1
  C  C58  1  0.89316469  0.62059353  0.37971142  1
  C  C59  1  0.10683531  0.37940647  0.62028858  1
  C  C60  1  0.41273459  0.18732890  0.26728103  1
  C  C61  1  0.58415570  0.26635001  0.18025209  1
  C  C62  1  0.91584430  0.76635001  0.68025209  1
  C  C63  1  0.08726541  0.68732890  0.76728103  1
  C  C64  1  0.58726541  0.81267110  0.73271897  1
  C  C65  1  0.41584430  0.73364999  0.81974791  1
  C  C66  1  0.08415570  0.23364999  0.31974791  1
  C  C67  1  0.91273459  0.31267110  0.23271897  1
  C  C68  1  0.22787378  0.18379841  0.12344721  1
  C  C69  1  0.76816981  0.12784011  0.18441675  1
  C  C70  1  0.73183019  0.62784011  0.68441675  1
  C  C71  1  0.27212622  0.68379841  0.62344721  1
  C  C72  1  0.77212622  0.81620159  0.87655279  1
  C  C73  1  0.23183019  0.87215989  0.81558325  1
  C  C74  1  0.26816981  0.37215989  0.31558325  1
  C  C75  1  0.72787378  0.31620159  0.37655279  1
  C  C76  1  0.71577203  0.96323164  0.04097502  1
  C  C77  1  0.28422797  0.03676836  0.95902498  1
  C  C78  1  0.21577203  0.53676836  0.45902498  1
  C  C79  1  0.78422797  0.46323164  0.54097502  1
  C  C80  1  0.89659731  0.64180677  0.91581145  1
  C  C81  1  0.10211451  0.91626942  0.63974906  1
  C  C82  1  0.39788549  0.41626942  0.13974906  1
  C  C83  1  0.60340269  0.14180677  0.41581145  1
  C  C84  1  0.10340269  0.35819323  0.08418855  1
  C  C85  1  0.89788549  0.08373058  0.36025094  1
  C  C86  1  0.60211451  0.58373058  0.86025094  1
  C  C87  1  0.39659731  0.85819323  0.58418855  1
  C  C88  1  0.56466276  0.76631952  0.23746725  1
  C  C89  1  0.43533724  0.23368048  0.76253275  1
  C  C90  1  0.06466276  0.73368048  0.26253275  1
  C  C91  1  0.93533724  0.26631952  0.73746725  1
  C  C92  1  0.69480819  0.95062235  0.23736168  1
  C  C93  1  0.30545902  0.23426981  0.94794325  1
  C  C94  1  0.19454098  0.73426981  0.44794325  1
  C  C95  1  0.80519181  0.45062235  0.73736168  1
  C  C96  1  0.30519181  0.04937765  0.76263832  1
  C  C97  1  0.69454098  0.76573019  0.05205675  1
  C  C98  1  0.80545902  0.26573019  0.55205675  1
  C  C99  1  0.19480819  0.54937765  0.26263832  1
  C  C100  1  0.23328386  0.05354348  0.28540004  1
  C  C101  1  0.77265655  0.27924185  0.05550672  1
  C  C102  1  0.72734345  0.77924185  0.55550672  1
  C  C103  1  0.26671614  0.55354348  0.78540004  1
  C  C104  1  0.76671614  0.94645652  0.71459996  1
  C  C105  1  0.22734345  0.72075815  0.94449328  1
  C  C106  1  0.27265655  0.22075815  0.44449328  1
  C  C107  1  0.73328386  0.44645652  0.21459996  1
  C  C108  1  0.38673831  0.06712666  0.50751605  1
  C  C109  1  0.61469012  0.50668755  0.06460251  1
  C  C110  1  0.88530988  0.00668755  0.56460251  1
  C  C111  1  0.11326169  0.56712666  0.00751605  1
  C  C112  1  0.61326169  0.93287334  0.49248395  1
  C  C113  1  0.38530988  0.49331245  0.93539749  1
  C  C114  1  0.11469012  0.99331245  0.43539749  1
  C  C115  1  0.88673831  0.43287334  0.99248395  1
  C  C116  1  0.56172810  0.06487720  0.16775247  1
  C  C117  1  0.43447367  0.16377785  0.06411138  1
  C  C118  1  0.06552633  0.66377785  0.56411138  1
  C  C119  1  0.93827190  0.56487720  0.66775247  1
  C  C120  1  0.43827190  0.93512280  0.83224753  1
  C  C121  1  0.56552633  0.83622215  0.93588862  1
  C  C122  1  0.93447367  0.33622215  0.43588862  1
  C  C123  1  0.06172810  0.43512280  0.33224753  1
  C  C124  1  0.89342134  0.81163526  0.18688200  1
  C  C125  1  0.10657866  0.18836474  0.81311800  1
  C  C126  1  0.39342134  0.68836474  0.31311800  1
  C  C127  1  0.60657866  0.31163526  0.68688200  1
  C  C128  1  0.24330550  0.18546839  0.62832279  1
  C  C129  1  0.75521743  0.63087612  0.18494014  1
  C  C130  1  0.74478257  0.13087612  0.68494014  1
  C  C131  1  0.25669450  0.68546839  0.12832279  1
  C  C132  1  0.75669450  0.81453161  0.37167721  1
  C  C133  1  0.24478257  0.36912388  0.81505986  1
  C  C134  1  0.25521743  0.86912388  0.31505986  1
  C  C135  1  0.74330550  0.31453161  0.87167721  1
  C  C136  1  0.58617339  0.45069005  0.40814912  1
  C  C137  1  0.91382661  0.95069005  0.90814912  1
  C  C138  1  0.41382661  0.54930995  0.59185088  1
  C  C139  1  0.08617339  0.04930995  0.09185088  1
