# generated using pymatgen
data_CuNi2C7
_symmetry_space_group_name_H-M   'P 1'
_cell_length_a   5.20991076
_cell_length_b   8.95087369
_cell_length_c   5.54244474
_cell_angle_alpha   73.82799384
_cell_angle_beta   62.15731715
_cell_angle_gamma   89.40980475
_symmetry_Int_Tables_number   1
_chemical_formula_structural   CuNi2C7
_chemical_formula_sum   'Cu2 Ni4 C14'
_cell_volume   217.30323726
_cell_formula_units_Z   2
loop_
 _symmetry_equiv_pos_site_id
 _symmetry_equiv_pos_as_xyz
  1  'x, y, z'
loop_
 _atom_site_type_symbol
 _atom_site_label
 _atom_site_symmetry_multiplicity
 _atom_site_fract_x
 _atom_site_fract_y
 _atom_site_fract_z
 _atom_site_occupancy
  Ni  Ni0  1  0.41330300  0.14284500  0.14695100  1
  Ni  Ni1  1  0.91369200  0.64301800  0.14621800  1
  Ni  Ni2  1  0.16791500  0.39632600  0.64490200  1
  Ni  Ni3  1  0.66782900  0.89649200  0.64486500  1
  Cu  Cu4  1  0.22972800  0.74833100  0.52497500  1
  Cu  Cu5  1  0.72977900  0.24857700  0.52502500  1
  C  C6  1  0.97919300  0.99805100  0.02605300  1
  C  C7  1  0.47921600  0.49804300  0.02602500  1
  C  C8  1  0.89793400  0.18447800  0.80699500  1
  C  C9  1  0.39780100  0.68441700  0.80664000  1
  C  C10  1  0.41929800  0.05424200  0.81292400  1
  C  C11  1  0.91937200  0.55391000  0.81285800  1
  C  C12  1  0.45240000  0.35796100  0.80836900  1
  C  C13  1  0.95229500  0.85766500  0.80839700  1
  C  C14  1  0.50687000  0.30698000  0.30312700  1
  C  C15  1  0.00717100  0.80700200  0.30263500  1
  C  C16  1  0.97336000  0.10576900  0.30992000  1
  C  C17  1  0.47364300  0.60551100  0.30974600  1
  C  C18  1  0.03505000  0.43978500  0.31279000  1
  C  C19  1  0.53510100  0.93951200  0.31287500  1
