# generated using pymatgen
data_Cu2Ni7C
_symmetry_space_group_name_H-M   'P 1'
_cell_length_a   7.62696800
_cell_length_b   10.44950200
_cell_length_c   17.23606400
_cell_angle_alpha   90.00000000
_cell_angle_beta   90.00000000
_cell_angle_gamma   90.00000000
_symmetry_Int_Tables_number   1
_chemical_formula_structural   Cu2Ni7C
_chemical_formula_sum   'Cu8 Ni28 C4'
_cell_volume   1373.68012806
_cell_formula_units_Z   4
loop_
 _symmetry_equiv_pos_site_id
 _symmetry_equiv_pos_as_xyz
  1  'x, y, z'
loop_
 _atom_site_type_symbol
 _atom_site_label
 _atom_site_symmetry_multiplicity
 _atom_site_fract_x
 _atom_site_fract_y
 _atom_site_fract_z
 _atom_site_occupancy
  C  C0  1  0.75000000  0.35939500  0.57138500  1
  C  C1  1  0.25000000  0.14060500  0.07138500  1
  C  C2  1  0.25000000  0.64060500  0.42861500  1
  C  C3  1  0.75000000  0.85939500  0.92861500  1
  Ni  Ni4  1  0.88623900  0.56384900  0.19109000  1
  Ni  Ni5  1  0.88623900  0.06384900  0.30891000  1
  Ni  Ni6  1  0.48875300  0.80446500  0.47214700  1
  Ni  Ni7  1  0.75000000  0.19582000  0.24166100  1
  Ni  Ni8  1  0.59999100  0.75706800  0.57015000  1
  Ni  Ni9  1  0.38623900  0.43615100  0.80891000  1
  Ni  Ni10  1  0.98875300  0.19553500  0.52785300  1
  Ni  Ni11  1  0.59999100  0.25706800  0.92985000  1
  Ni  Ni12  1  0.25000000  0.30418000  0.74166100  1
  Ni  Ni13  1  0.90000900  0.75706800  0.57015000  1
  Ni  Ni14  1  0.09999100  0.74293200  0.07015000  1
  Ni  Ni15  1  0.40000900  0.74293200  0.07015000  1
  Ni  Ni16  1  0.09999100  0.24293200  0.42985000  1
  Ni  Ni17  1  0.90000900  0.25706800  0.92985000  1
  Ni  Ni18  1  0.01124700  0.30446500  0.02785300  1
  Ni  Ni19  1  0.11376100  0.43615100  0.80891000  1
  Ni  Ni20  1  0.38623900  0.93615100  0.69109000  1
  Ni  Ni21  1  0.61376100  0.06384900  0.30891000  1
  Ni  Ni22  1  0.25000000  0.80418000  0.75833900  1
  Ni  Ni23  1  0.61376100  0.56384900  0.19109000  1
  Ni  Ni24  1  0.11376100  0.93615100  0.69109000  1
  Ni  Ni25  1  0.51124700  0.19553500  0.52785300  1
  Ni  Ni26  1  0.75000000  0.69582000  0.25833900  1
  Ni  Ni27  1  0.48875300  0.30446500  0.02785300  1
  Ni  Ni28  1  0.40000900  0.24293200  0.42985000  1
  Ni  Ni29  1  0.01124700  0.80446500  0.47214700  1
  Ni  Ni30  1  0.98875300  0.69553500  0.97214700  1
  Ni  Ni31  1  0.51124700  0.69553500  0.97214700  1
  Cu  Cu32  1  0.25000000  0.80156700  0.31740700  1
  Cu  Cu33  1  0.75000000  0.95256000  0.05895400  1
  Cu  Cu34  1  0.25000000  0.04744000  0.94104600  1
  Cu  Cu35  1  0.75000000  0.19843300  0.68259300  1
  Cu  Cu36  1  0.75000000  0.45256000  0.44104600  1
  Cu  Cu37  1  0.25000000  0.54744000  0.55895400  1
  Cu  Cu38  1  0.75000000  0.69843300  0.81740700  1
  Cu  Cu39  1  0.25000000  0.30156700  0.18259300  1
