# generated using pymatgen
data_Cu2NiC5
_symmetry_space_group_name_H-M   'P 1'
_cell_length_a   4.55249400
_cell_length_b   6.20628226
_cell_length_c   14.54505903
_cell_angle_alpha   91.76495440
_cell_angle_beta   90.00000000
_cell_angle_gamma   90.00000000
_symmetry_Int_Tables_number   1
_chemical_formula_structural   Cu2NiC5
_chemical_formula_sum   'Cu8 Ni4 C20'
_cell_volume   410.76204680
_cell_formula_units_Z   4
loop_
 _symmetry_equiv_pos_site_id
 _symmetry_equiv_pos_as_xyz
  1  'x, y, z'
loop_
 _atom_site_type_symbol
 _atom_site_label
 _atom_site_symmetry_multiplicity
 _atom_site_fract_x
 _atom_site_fract_y
 _atom_site_fract_z
 _atom_site_occupancy
  C  C0  1  0.99909400  0.23515900  0.86649200  1
  C  C1  1  0.47167600  0.75903200  0.63234600  1
  C  C2  1  0.02832400  0.75903200  0.13234600  1
  C  C3  1  0.50090600  0.23515900  0.36649200  1
  Ni  Ni4  1  0.95252600  0.26580200  0.62788600  1
  Ni  Ni5  1  0.45691500  0.75062300  0.87289700  1
  Ni  Ni6  1  0.04308500  0.75062300  0.37289700  1
  Ni  Ni7  1  0.54747400  0.26580200  0.12788600  1
  Cu  Cu8  1  0.48359200  0.25852800  0.68777800  1
  Cu  Cu9  1  0.98669900  0.74793200  0.81312100  1
  Cu  Cu10  1  0.51330100  0.74793200  0.31312100  1
  Cu  Cu11  1  0.01640800  0.25852800  0.18777800  1
  Cu  Cu12  1  0.96015100  0.01656200  0.50972300  1
  Cu  Cu13  1  0.53984900  0.01656200  0.00972300  1
  Cu  Cu14  1  0.51890500  0.51087500  0.98677800  1
  Cu  Cu15  1  0.98109500  0.51087500  0.48677800  1
  C  C16  1  0.69103000  0.33410300  0.69415500  1
  C  C17  1  0.19415400  0.66899900  0.80946800  1
  C  C18  1  0.30584600  0.66899900  0.30946800  1
  C  C19  1  0.80897000  0.33410300  0.19415500  1
  C  C20  1  0.81221400  0.09560100  0.55648200  1
  C  C21  1  0.34004300  0.91015900  0.94656700  1
  C  C22  1  0.15995700  0.91015900  0.44656700  1
  C  C23  1  0.68778600  0.09560100  0.05648200  1
  C  C24  1  0.05827200  0.46643100  0.57851300  1
  C  C25  1  0.58274100  0.53950900  0.91795800  1
  C  C26  1  0.91725900  0.53950900  0.41795800  1
  C  C27  1  0.44172800  0.46643100  0.07851300  1
  C  C28  1  0.19469800  0.16159400  0.68446200  1
  C  C29  1  0.69938900  0.84099000  0.81217200  1
  C  C30  1  0.80061100  0.84099000  0.31217200  1
  C  C31  1  0.30530200  0.16159400  0.18446200  1
