# generated using pymatgen
data_CuNiC8
_symmetry_space_group_name_H-M   'P 1'
_cell_length_a   5.61864700
_cell_length_b   5.68186256
_cell_length_c   18.79492136
_cell_angle_alpha   97.92251447
_cell_angle_beta   89.96095822
_cell_angle_gamma   119.60197390
_symmetry_Int_Tables_number   1
_chemical_formula_structural   CuNiC8
_chemical_formula_sum   'Cu4 Ni4 C32'
_cell_volume   515.13620255
_cell_formula_units_Z   4
loop_
 _symmetry_equiv_pos_site_id
 _symmetry_equiv_pos_as_xyz
  1  'x, y, z'
loop_
 _atom_site_type_symbol
 _atom_site_label
 _atom_site_symmetry_multiplicity
 _atom_site_fract_x
 _atom_site_fract_y
 _atom_site_fract_z
 _atom_site_occupancy
  C  C0  1  0.06352400  0.93638100  0.19163300  1
  C  C1  1  0.81380800  0.18591900  0.43679600  1
  C  C2  1  0.56593300  0.44233400  0.69103500  1
  C  C3  1  0.30932300  0.68692100  0.92993300  1
  C  C4  1  0.43234900  0.56213400  0.31185900  1
  C  C5  1  0.69361800  0.31509400  0.06650100  1
  C  C6  1  0.18757700  0.81157400  0.56135500  1
  C  C7  1  0.93985100  0.06440600  0.80969300  1
  Ni  Ni8  1  0.75478900  0.25164800  0.25054300  1
  Ni  Ni9  1  0.49621900  0.49996000  0.50045500  1
  Ni  Ni10  1  0.24979900  0.74784200  0.75215300  1
  Ni  Ni11  1  0.62565500  0.37848600  0.87072900  1
  Cu  Cu12  1  0.00238600  0.00340500  0.99633000  1
  Cu  Cu13  1  0.37646300  0.62668600  0.12555000  1
  Cu  Cu14  1  0.12399000  0.87369300  0.37623100  1
  Cu  Cu15  1  0.87545300  0.12449200  0.62512000  1
  C  C16  1  0.18665200  0.32031500  0.05879200  1
  C  C17  1  0.92763500  0.55999900  0.31390100  1
  C  C18  1  0.69320100  0.80892300  0.56398200  1
  C  C19  1  0.44533100  0.06196000  0.81231900  1
  C  C20  1  0.60740400  0.46239600  0.17721400  1
  C  C21  1  0.36592100  0.71696300  0.42849700  1
  C  C22  1  0.10927600  0.97760200  0.67654200  1
  C  C23  1  0.87207700  0.21549100  0.91934700  1
  C  C24  1  0.67180900  0.85607300  0.04693500  1
  C  C25  1  0.39781800  0.08038100  0.30673000  1
  C  C26  1  0.15761600  0.34120200  0.55246100  1
  C  C27  1  0.90635200  0.62710800  0.80161400  1
  C  C28  1  0.55676400  0.93676900  0.18726400  1
  C  C29  1  0.32071400  0.18605000  0.43958600  1
  C  C30  1  0.05338100  0.43080900  0.69074800  1
  C  C31  1  0.81303000  0.69320700  0.93422000  1
  C  C32  1  0.08835900  0.39816400  0.20019600  1
  C  C33  1  0.85369800  0.66316600  0.44767600  1
  C  C34  1  0.60392600  0.90878800  0.70233600  1
  C  C35  1  0.33980600  0.15244900  0.94963100  1
  C  C36  1  0.13387300  0.78531500  0.07232500  1
  C  C37  1  0.88266000  0.02799200  0.32397000  1
  C  C38  1  0.64779100  0.27725900  0.57533900  1
  C  C39  1  0.35417000  0.50064500  0.82245800  1
