# generated using pymatgen
data_CuNiC2
_symmetry_space_group_name_H-M   'P 1'
_cell_length_a   2.88758500
_cell_length_b   8.29825042
_cell_length_c   8.49398060
_cell_angle_alpha   82.15842714
_cell_angle_beta   80.32153871
_cell_angle_gamma   80.16256787
_symmetry_Int_Tables_number   1
_chemical_formula_structural   CuNiC2
_chemical_formula_sum   'Cu4 Ni4 C8'
_cell_volume   196.46565050
_cell_formula_units_Z   4
loop_
 _symmetry_equiv_pos_site_id
 _symmetry_equiv_pos_as_xyz
  1  'x, y, z'
loop_
 _atom_site_type_symbol
 _atom_site_label
 _atom_site_symmetry_multiplicity
 _atom_site_fract_x
 _atom_site_fract_y
 _atom_site_fract_z
 _atom_site_occupancy
  Ni  Ni0  1  0.84313500  0.23183800  0.57142200  1
  Ni  Ni1  1  0.15686500  0.76816200  0.42857800  1
  Ni  Ni2  1  0.57852300  0.12770600  0.21348900  1
  Ni  Ni3  1  0.42147700  0.87229400  0.78651100  1
  Cu  Cu4  1  0.12951800  0.55317100  0.69156800  1
  Cu  Cu5  1  0.71078400  0.19176900  0.88294200  1
  Cu  Cu6  1  0.28921600  0.80823100  0.11705800  1
  Cu  Cu7  1  0.87048200  0.44682900  0.30843200  1
  C  C8  1  0.31875100  0.59428800  0.26752400  1
  C  C9  1  0.86805000  0.81659800  0.94819000  1
  C  C10  1  0.13195000  0.18340200  0.05181000  1
  C  C11  1  0.68124900  0.40571200  0.73247600  1
  C  C12  1  0.58627000  0.71761000  0.61672500  1
  C  C13  1  0.33185300  0.10947700  0.71662500  1
  C  C14  1  0.41373000  0.28239000  0.38327500  1
  C  C15  1  0.66814700  0.89052300  0.28337500  1
