# generated using pymatgen
data_Cu4NiC6
_symmetry_space_group_name_H-M   'P 1'
_cell_length_a   5.27662472
_cell_length_b   5.27662472
_cell_length_c   15.34268800
_cell_angle_alpha   90.00000000
_cell_angle_beta   90.00000000
_cell_angle_gamma   147.31149618
_symmetry_Int_Tables_number   1
_chemical_formula_structural   Cu4NiC6
_chemical_formula_sum   'Cu8 Ni2 C12'
_cell_volume   230.70929874
_cell_formula_units_Z   2
loop_
 _symmetry_equiv_pos_site_id
 _symmetry_equiv_pos_as_xyz
  1  'x, y, z'
loop_
 _atom_site_type_symbol
 _atom_site_label
 _atom_site_symmetry_multiplicity
 _atom_site_fract_x
 _atom_site_fract_y
 _atom_site_fract_z
 _atom_site_occupancy
  Ni  Ni0  1  0.34821000  0.65179000  0.75000000  1
  Ni  Ni1  1  0.65179000  0.34821000  0.25000000  1
  Cu  Cu2  1  0.13455000  0.86545000  0.04634600  1
  Cu  Cu3  1  0.60034300  0.39965700  0.63768600  1
  Cu  Cu4  1  0.86545000  0.13455000  0.95365400  1
  Cu  Cu5  1  0.39965700  0.60034300  0.36231400  1
  Cu  Cu6  1  0.13455000  0.86545000  0.45365400  1
  Cu  Cu7  1  0.86545000  0.13455000  0.54634600  1
  Cu  Cu8  1  0.39965700  0.60034300  0.13768600  1
  Cu  Cu9  1  0.60034300  0.39965700  0.86231400  1
  C  C10  1  0.50000000  0.50000000  0.50000000  1
  C  C11  1  0.50000000  0.50000000  0.00000000  1
  C  C12  1  0.96361200  0.03638800  0.83562600  1
  C  C13  1  0.03638800  0.96361200  0.16437400  1
  C  C14  1  0.03638800  0.96361200  0.33562600  1
  C  C15  1  0.96361200  0.03638800  0.66437400  1
  C  C16  1  0.21335900  0.78664100  0.91597000  1
  C  C17  1  0.78664100  0.21335900  0.08403000  1
  C  C18  1  0.78664100  0.21335900  0.41597000  1
  C  C19  1  0.21335900  0.78664100  0.58403000  1
  C  C20  1  0.70183800  0.29816200  0.75000000  1
  C  C21  1  0.29816200  0.70183800  0.25000000  1
