# generated using pymatgen
data_CuNi6C
_symmetry_space_group_name_H-M   'P 1'
_cell_length_a   5.02629800
_cell_length_b   6.26739900
_cell_length_c   10.93954900
_cell_angle_alpha   90.00000000
_cell_angle_beta   90.00000000
_cell_angle_gamma   90.00000000
_symmetry_Int_Tables_number   1
_chemical_formula_structural   CuNi6C
_chemical_formula_sum   'Cu2 Ni12 C2'
_cell_volume   344.61564943
_cell_formula_units_Z   2
loop_
 _symmetry_equiv_pos_site_id
 _symmetry_equiv_pos_as_xyz
  1  'x, y, z'
loop_
 _atom_site_type_symbol
 _atom_site_label
 _atom_site_symmetry_multiplicity
 _atom_site_fract_x
 _atom_site_fract_y
 _atom_site_fract_z
 _atom_site_occupancy
  C  C0  1  0.50000000  0.50000000  0.16923200  1
  C  C1  1  0.50000000  0.00000000  0.66923200  1
  Ni  Ni2  1  0.00000000  0.74387600  0.08343500  1
  Ni  Ni3  1  0.00000000  0.25612400  0.08343500  1
  Ni  Ni4  1  0.00000000  0.00000000  0.33530400  1
  Ni  Ni5  1  0.50000000  0.25825700  0.41353800  1
  Ni  Ni6  1  0.50000000  0.74174300  0.41353800  1
  Ni  Ni7  1  0.50000000  0.00000000  0.16720000  1
  Ni  Ni8  1  0.00000000  0.24387600  0.58343500  1
  Ni  Ni9  1  0.00000000  0.75612400  0.58343500  1
  Ni  Ni10  1  0.00000000  0.50000000  0.83530400  1
  Ni  Ni11  1  0.50000000  0.75825700  0.91353800  1
  Ni  Ni12  1  0.50000000  0.24174300  0.91353800  1
  Ni  Ni13  1  0.50000000  0.50000000  0.66720000  1
  Cu  Cu14  1  0.00000000  0.50000000  0.33431800  1
  Cu  Cu15  1  0.00000000  0.00000000  0.83431800  1
