# generated using pymatgen
data_Cu3NiC12
_symmetry_space_group_name_H-M   'P 1'
_cell_length_a   5.87395872
_cell_length_b   5.87395872
_cell_length_c   5.15483696
_cell_angle_alpha   72.86972869
_cell_angle_beta   72.86972869
_cell_angle_gamma   59.90119326
_symmetry_Int_Tables_number   1
_chemical_formula_structural   Cu3NiC12
_chemical_formula_sum   'Cu3 Ni1 C12'
_cell_volume   144.71316899
_cell_formula_units_Z   1
loop_
 _symmetry_equiv_pos_site_id
 _symmetry_equiv_pos_as_xyz
  1  'x, y, z'
loop_
 _atom_site_type_symbol
 _atom_site_label
 _atom_site_symmetry_multiplicity
 _atom_site_fract_x
 _atom_site_fract_y
 _atom_site_fract_z
 _atom_site_occupancy
  C  C0  1  0.24914600  0.24914600  0.49826500  1
  C  C1  1  0.24955000  0.75045000  0.50000000  1
  C  C2  1  0.75045000  0.24955000  0.50000000  1
  C  C3  1  0.75085400  0.75085400  0.50173500  1
  Ni  Ni4  1  0.50000000  0.50000000  0.00000000  1
  Cu  Cu5  1  0.00000000  0.00000000  0.00000000  1
  Cu  Cu6  1  0.00000000  0.50000000  0.00000000  1
  Cu  Cu7  1  0.50000000  0.00000000  0.00000000  1
  C  C8  1  0.37974000  0.37974000  0.77455300  1
  C  C9  1  0.38539900  0.85417400  0.77025600  1
  C  C10  1  0.85417400  0.38539900  0.77025600  1
  C  C11  1  0.86456300  0.86456300  0.77067000  1
  C  C12  1  0.13543700  0.13543700  0.22933000  1
  C  C13  1  0.14582600  0.61460100  0.22974400  1
  C  C14  1  0.61460100  0.14582600  0.22974400  1
  C  C15  1  0.62026000  0.62026000  0.22544700  1
