# generated using pymatgen
data_Cu2NiC6
_symmetry_space_group_name_H-M   'P 1'
_cell_length_a   6.52783200
_cell_length_b   7.14864300
_cell_length_c   9.48738500
_cell_angle_alpha   90.00000000
_cell_angle_beta   90.00000000
_cell_angle_gamma   90.00000000
_symmetry_Int_Tables_number   1
_chemical_formula_structural   Cu2NiC6
_chemical_formula_sum   'Cu8 Ni4 C24'
_cell_volume   442.73015431
_cell_formula_units_Z   4
loop_
 _symmetry_equiv_pos_site_id
 _symmetry_equiv_pos_as_xyz
  1  'x, y, z'
loop_
 _atom_site_type_symbol
 _atom_site_label
 _atom_site_symmetry_multiplicity
 _atom_site_fract_x
 _atom_site_fract_y
 _atom_site_fract_z
 _atom_site_occupancy
  Ni  Ni0  1  0.58032200  0.97979600  0.67473500  1
  Ni  Ni1  1  0.41967800  0.47979600  0.32526500  1
  Ni  Ni2  1  0.08032200  0.47979600  0.82526500  1
  Ni  Ni3  1  0.91967800  0.97979600  0.17473500  1
  Cu  Cu4  1  0.09158700  0.74689200  0.52184500  1
  Cu  Cu5  1  0.40841300  0.74689200  0.02184500  1
  Cu  Cu6  1  0.90841300  0.24689200  0.47815500  1
  Cu  Cu7  1  0.59158700  0.24689200  0.97815500  1
  Cu  Cu8  1  0.92231600  0.52505000  0.17429100  1
  Cu  Cu9  1  0.07768400  0.02505000  0.82570900  1
  Cu  Cu10  1  0.42231600  0.02505000  0.32570900  1
  Cu  Cu11  1  0.57768400  0.52505000  0.67429100  1
  C  C12  1  0.69218400  0.74940700  0.39631100  1
  C  C13  1  0.80781600  0.74940700  0.89631100  1
  C  C14  1  0.30781600  0.24940700  0.60368900  1
  C  C15  1  0.19218400  0.24940700  0.10368900  1
  C  C16  1  0.02096700  0.74995200  0.98744500  1
  C  C17  1  0.47903300  0.74995200  0.48744500  1
  C  C18  1  0.97903300  0.24995200  0.01255500  1
  C  C19  1  0.52096700  0.24995200  0.51255500  1
  C  C20  1  0.63754700  0.74981900  0.22315700  1
  C  C21  1  0.86245300  0.74981900  0.72315700  1
  C  C22  1  0.36245300  0.24981900  0.77684300  1
  C  C23  1  0.13754700  0.24981900  0.27684300  1
  C  C24  1  0.16439400  0.74947200  0.27633800  1
  C  C25  1  0.33560600  0.74947200  0.77633800  1
  C  C26  1  0.83560600  0.24947200  0.72366200  1
  C  C27  1  0.66439400  0.24947200  0.22366200  1
  C  C28  1  0.31313100  0.05777500  0.07111900  1
  C  C29  1  0.18913800  0.44183800  0.57220900  1
  C  C30  1  0.68686900  0.55777500  0.92888100  1
  C  C31  1  0.81086200  0.94183800  0.42779100  1
  C  C32  1  0.68913800  0.94183800  0.92779100  1
  C  C33  1  0.81313100  0.55777500  0.42888100  1
  C  C34  1  0.31086200  0.44183800  0.07220900  1
  C  C35  1  0.18686900  0.05777500  0.57111900  1
