# generated using pymatgen
data_CuNiC12
_symmetry_space_group_name_H-M   'P 1'
_cell_length_a   5.47474150
_cell_length_b   5.47474150
_cell_length_c   11.93068600
_cell_angle_alpha   90.00000000
_cell_angle_beta   90.00000000
_cell_angle_gamma   90.04808656
_symmetry_Int_Tables_number   1
_chemical_formula_structural   CuNiC12
_chemical_formula_sum   'Cu2 Ni2 C24'
_cell_volume   357.59587386
_cell_formula_units_Z   2
loop_
 _symmetry_equiv_pos_site_id
 _symmetry_equiv_pos_as_xyz
  1  'x, y, z'
loop_
 _atom_site_type_symbol
 _atom_site_label
 _atom_site_symmetry_multiplicity
 _atom_site_fract_x
 _atom_site_fract_y
 _atom_site_fract_z
 _atom_site_occupancy
  C  C0  1  0.48649200  0.51350800  0.86376800  1
  C  C1  1  0.01350800  0.98649200  0.86376800  1
  C  C2  1  0.51350800  0.48649200  0.13623200  1
  C  C3  1  0.98649200  0.01350800  0.13623200  1
  C  C4  1  0.98431600  0.48431600  0.64535700  1
  C  C5  1  0.51568400  0.01568400  0.64535700  1
  C  C6  1  0.01568400  0.51568400  0.35464300  1
  C  C7  1  0.48431600  0.98431600  0.35464300  1
  Ni  Ni8  1  0.00000000  0.50000000  0.00000000  1
  Ni  Ni9  1  0.50000000  0.00000000  0.00000000  1
  Cu  Cu10  1  0.50000000  0.50000000  0.50000000  1
  Cu  Cu11  1  0.00000000  0.00000000  0.50000000  1
  C  C12  1  0.54535500  0.45464500  0.67767100  1
  C  C13  1  0.95464500  0.04535500  0.67767100  1
  C  C14  1  0.03662000  0.53662000  0.83555000  1
  C  C15  1  0.46338000  0.96338000  0.83555000  1
  C  C16  1  0.45464500  0.54535500  0.32232900  1
  C  C17  1  0.04535500  0.95464500  0.32232900  1
  C  C18  1  0.96338000  0.46338000  0.16445000  1
  C  C19  1  0.53662000  0.03662000  0.16445000  1
  C  C20  1  0.75000000  0.25000000  0.47352400  1
  C  C21  1  0.25000000  0.75000000  0.02249300  1
  C  C22  1  0.25000000  0.75000000  0.52647600  1
  C  C23  1  0.75000000  0.25000000  0.97750700  1
  C  C24  1  0.75000000  0.75000000  0.50000000  1
  C  C25  1  0.25000000  0.25000000  0.00000000  1
  C  C26  1  0.25000000  0.25000000  0.50000000  1
  C  C27  1  0.75000000  0.75000000  0.00000000  1
