# generated using pymatgen
data_Cu(NiC2)2
_symmetry_space_group_name_H-M   'P 1'
_cell_length_a   3.39658261
_cell_length_b   3.39658261
_cell_length_c   14.56629800
_cell_angle_alpha   90.00000000
_cell_angle_beta   90.00000000
_cell_angle_gamma   120.00001184
_symmetry_Int_Tables_number   1
_chemical_formula_structural   Cu(NiC2)2
_chemical_formula_sum   'Cu1 Ni2 C4'
_cell_volume   145.53388852
_cell_formula_units_Z   1
loop_
 _symmetry_equiv_pos_site_id
 _symmetry_equiv_pos_as_xyz
  1  'x, y, z'
loop_
 _atom_site_type_symbol
 _atom_site_label
 _atom_site_symmetry_multiplicity
 _atom_site_fract_x
 _atom_site_fract_y
 _atom_site_fract_z
 _atom_site_occupancy
  Ni  Ni0  1  0.00000000  0.00000000  0.75788100  1
  Ni  Ni1  1  0.66666700  0.33333300  0.24648500  1
  Cu  Cu2  1  0.00000000  0.00000000  0.52152100  1
  C  C3  1  0.00000000  0.00000000  0.35405700  1
  C  C4  1  0.66666700  0.33333300  0.64963700  1
  C  C5  1  0.66666700  0.33333300  0.86172100  1
  C  C6  1  0.00000000  0.00000000  0.14269800  1
