# generated using pymatgen
data_Cu7Ni2C3
_symmetry_space_group_name_H-M   'P 1'
_cell_length_a   3.97477600
_cell_length_b   4.02672100
_cell_length_c   12.35176983
_cell_angle_alpha   90.00000000
_cell_angle_beta   99.25908399
_cell_angle_gamma   90.00000000
_symmetry_Int_Tables_number   1
_chemical_formula_structural   Cu7Ni2C3
_chemical_formula_sum   'Cu7 Ni2 C3'
_cell_volume   195.11817398
_cell_formula_units_Z   1
loop_
 _symmetry_equiv_pos_site_id
 _symmetry_equiv_pos_as_xyz
  1  'x, y, z'
loop_
 _atom_site_type_symbol
 _atom_site_label
 _atom_site_symmetry_multiplicity
 _atom_site_fract_x
 _atom_site_fract_y
 _atom_site_fract_z
 _atom_site_occupancy
  C  C0  1  0.31412000  0.00000000  0.62824100  1
  C  C1  1  0.68588000  0.00000000  0.37175900  1
  C  C2  1  0.00000000  0.50000000  0.00000000  1
  Ni  Ni3  1  0.12871100  0.50000000  0.25742200  1
  Ni  Ni4  1  0.87128900  0.50000000  0.74257800  1
  Cu  Cu5  1  0.50000000  0.00000000  0.00000000  1
  Cu  Cu6  1  0.41313300  0.50000000  0.82626600  1
  Cu  Cu7  1  0.58686700  0.50000000  0.17373400  1
  Cu  Cu8  1  0.08751700  0.00000000  0.17503400  1
  Cu  Cu9  1  0.91248300  0.00000000  0.82496600  1
  Cu  Cu10  1  0.22223500  0.50000000  0.44447000  1
  Cu  Cu11  1  0.77776500  0.50000000  0.55553000  1
