# generated using pymatgen
data_Cu4(NiC)3
_symmetry_space_group_name_H-M   'P 1'
_cell_length_a   4.05562500
_cell_length_b   4.05562500
_cell_length_c   10.40069400
_cell_angle_alpha   90.00000000
_cell_angle_beta   90.00000000
_cell_angle_gamma   90.00000000
_symmetry_Int_Tables_number   1
_chemical_formula_structural   Cu4(NiC)3
_chemical_formula_sum   'Cu4 Ni3 C3'
_cell_volume   171.07159404
_cell_formula_units_Z   1
loop_
 _symmetry_equiv_pos_site_id
 _symmetry_equiv_pos_as_xyz
  1  'x, y, z'
loop_
 _atom_site_type_symbol
 _atom_site_label
 _atom_site_symmetry_multiplicity
 _atom_site_fract_x
 _atom_site_fract_y
 _atom_site_fract_z
 _atom_site_occupancy
  C  C0  1  0.00000000  0.00000000  0.99450300  1
  C  C1  1  0.50000000  0.50000000  0.50549700  1
  C  C2  1  0.00000000  0.50000000  0.25000000  1
  Ni  Ni3  1  0.50000000  0.00000000  0.75000000  1
  Ni  Ni4  1  0.50000000  0.00000000  0.25000000  1
  Ni  Ni5  1  0.00000000  0.50000000  0.75000000  1
  Cu  Cu6  1  0.50000000  0.50000000  0.12383300  1
  Cu  Cu7  1  0.00000000  0.00000000  0.63664400  1
  Cu  Cu8  1  0.00000000  0.00000000  0.37616700  1
  Cu  Cu9  1  0.50000000  0.50000000  0.86335600  1
