# generated using pymatgen
data_Cu7NiC28
_symmetry_space_group_name_H-M   'P 1'
_cell_length_a   11.04541261
_cell_length_b   11.74924441
_cell_length_c   17.85238612
_cell_angle_alpha   109.27226438
_cell_angle_beta   108.06059684
_cell_angle_gamma   89.88921015
_symmetry_Int_Tables_number   1
_chemical_formula_structural   Cu7NiC28
_chemical_formula_sum   'Cu28 Ni4 C112'
_cell_volume   2066.16291361
_cell_formula_units_Z   4
loop_
 _symmetry_equiv_pos_site_id
 _symmetry_equiv_pos_as_xyz
  1  'x, y, z'
loop_
 _atom_site_type_symbol
 _atom_site_label
 _atom_site_symmetry_multiplicity
 _atom_site_fract_x
 _atom_site_fract_y
 _atom_site_fract_z
 _atom_site_occupancy
  C  C0  1  0.30065209  0.06532757  0.11418417  1
  C  C1  1  0.30500846  0.06357534  0.61067875  1
  C  C2  1  0.30490503  0.56326282  0.61082133  1
  C  C3  1  0.80503075  0.06419893  0.61109357  1
  C  C4  1  0.80297980  0.56697138  0.11313261  1
  C  C5  1  0.80499887  0.56345684  0.61098833  1
  C  C6  1  0.19369271  0.43500972  0.38824170  1
  C  C7  1  0.19177075  0.43473288  0.88929156  1
  C  C8  1  0.19299123  0.93608479  0.38726311  1
  C  C9  1  0.18930967  0.93566964  0.88717291  1
  C  C10  1  0.69357903  0.43663923  0.38829891  1
  C  C11  1  0.69410432  0.93570002  0.38908993  1
  C  C12  1  0.68929718  0.93360242  0.88522014  1
  C  C13  1  0.05512189  0.29855848  0.11226015  1
  C  C14  1  0.05527830  0.29779121  0.61167068  1
  C  C15  1  0.05450961  0.79721905  0.61071677  1
  C  C16  1  0.55626403  0.29611391  0.11202811  1
  C  C17  1  0.55482987  0.29868965  0.61245302  1
  C  C18  1  0.54832553  0.79919401  0.11256536  1
  C  C19  1  0.55470166  0.79725943  0.61019727  1
  C  C20  1  0.44434567  0.20271950  0.38875768  1
  C  C21  1  0.44491688  0.20368475  0.88999616  1
  C  C22  1  0.44232563  0.70130785  0.38644542  1
  C  C23  1  0.43926759  0.70038354  0.88692312  1
  C  C24  1  0.94341225  0.20139099  0.38769838  1
  C  C25  1  0.94096050  0.20459920  0.88816409  1
  C  C26  1  0.94342775  0.70166110  0.38797218  1
  C  C27  1  0.94416092  0.70148506  0.88741800  1
  C  C28  1  0.29969156  0.56594958  0.10974542  1
  C  C29  1  0.80009110  0.06603320  0.11065986  1
  C  C30  1  0.68891712  0.43595485  0.89146075  1
  C  C31  1  0.05612457  0.79477566  0.11258451  1
  Ni  Ni32  1  0.00096150  0.99874882  0.00194114  1
  Ni  Ni33  1  -0.00004285  0.50211753  0.00063489  1
  Ni  Ni34  1  0.50192895  0.99923584  0.00034118  1
  Ni  Ni35  1  0.75316719  0.75212627  0.00114460  1
  Cu  Cu36  1  0.00535438  0.99946209  0.49975063  1
  Cu  Cu37  1  0.00526816  0.49948085  0.49992847  1
  Cu  Cu38  1  0.50489553  0.00023444  0.49963333  1
  Cu  Cu39  1  0.50440121  0.50057884  0.00065903  1
  Cu  Cu40  1  0.50486766  0.50020858  0.49947274  1
  Cu  Cu41  1  0.25468690  0.25093395  0.00164127  1
  Cu  Cu42  1  0.25496090  0.24961519  0.49984763  1
  Cu  Cu43  1  0.25348837  0.75049555  0.00072905  1
  Cu  Cu44  1  0.25526024  0.74983475  0.49958532  1
  Cu  Cu45  1  0.75490727  0.24907161  0.00025999  1
  Cu  Cu46  1  0.75502516  0.25006513  0.49993769  1
  Cu  Cu47  1  0.75461485  0.74968685  0.49936382  1
  Cu  Cu48  1  0.10902869  0.10150172  0.24996847  1
  Cu  Cu49  1  0.11250761  0.10397802  0.75062252  1
  Cu  Cu50  1  0.11415928  0.60484259  0.25066642  1
  Cu  Cu51  1  0.11222856  0.60137399  0.74982941  1
  Cu  Cu52  1  0.61573858  0.10278523  0.25165679  1
  Cu  Cu53  1  0.61184406  0.10613098  0.75030048  1
  Cu  Cu54  1  0.60856578  0.60253891  0.24834664  1
  Cu  Cu55  1  0.61237904  0.60086606  0.74972543  1
  Cu  Cu56  1  0.36121723  0.39878329  0.24871170  1
  Cu  Cu57  1  0.36472410  0.39625375  0.75064478  1
  Cu  Cu58  1  0.35952392  0.89487577  0.24901648  1
  Cu  Cu59  1  0.36164596  0.89671250  0.74790194  1
  Cu  Cu60  1  0.86211317  0.39475205  0.24924135  1
  Cu  Cu61  1  0.85848189  0.39639775  0.74932037  1
  Cu  Cu62  1  0.86378162  0.89894467  0.24938288  1
  Cu  Cu63  1  0.86141038  0.89671125  0.74812401  1
  C  C64  1  0.11518537  0.11561178  0.47714551  1
  C  C65  1  0.11331796  0.11699816  0.97910865  1
  C  C66  1  0.11502094  0.61580928  0.47738805  1
  C  C67  1  0.11619412  0.61774742  0.98291110  1
  C  C68  1  0.61510405  0.11656407  0.47700541  1
  C  C69  1  0.61510323  0.11507681  0.97997360  1
  C  C70  1  0.61455904  0.61725042  0.47668783  1
  C  C71  1  0.61505995  0.61908820  0.97590332  1
  C  C72  1  0.13712457  0.38890433  0.02366782  1
  C  C73  1  0.13811158  0.38218102  0.52271902  1
  C  C74  1  0.13514657  0.88339106  0.02456953  1
  C  C75  1  0.13814930  0.88286093  0.52245112  1
  C  C76  1  0.63432950  0.38115421  0.01857372  1
  C  C77  1  0.63707184  0.38343797  0.52207427  1
  C  C78  1  0.64015470  0.88666900  0.02629167  1
  C  C79  1  0.63802695  0.88397165  0.52183119  1
  C  C80  1  0.36553911  0.11158996  0.47771399  1
  C  C81  1  0.36518092  0.10876983  0.97852436  1
  C  C82  1  0.36516230  0.61076147  0.47637649  1
  C  C83  1  0.36537827  0.61080481  0.98053727  1
  C  C84  1  0.86583883  0.11058176  0.47783772  1
  C  C85  1  0.86380386  0.10793125  0.98070415  1
  C  C86  1  0.86518600  0.61033985  0.47711053  1
  C  C87  1  0.85982432  0.60840565  0.97470466  1
  C  C88  1  0.38578808  0.39111231  0.02519250  1
  C  C89  1  0.38760090  0.38947636  0.52201378  1
  C  C90  1  0.38575425  0.88992839  0.02108458  1
  C  C91  1  0.38845161  0.88961151  0.52231430  1
  C  C92  1  0.88200732  0.39130902  0.01836047  1
  C  C93  1  0.88839086  0.38911745  0.52250669  1
  C  C94  1  0.89029642  0.89205324  0.03003307  1
  C  C95  1  0.88745645  0.88813232  0.52134423  1
  C  C96  1  0.10496973  0.12546598  0.14659845  1
  C  C97  1  0.09056934  0.11431039  0.63975197  1
  C  C98  1  0.11185431  0.62332617  0.14612454  1
  C  C99  1  0.09091902  0.61425775  0.63993256  1
  C  C100  1  0.61200003  0.12109113  0.14672083  1
  C  C101  1  0.59069049  0.11528987  0.63926502  1
  C  C102  1  0.59514139  0.61573463  0.13914747  1
  C  C103  1  0.59026236  0.61279920  0.63925986  1
  C  C104  1  0.45020311  0.38593510  0.35890835  1
  C  C105  1  0.46046806  0.38758761  0.86118504  1
  C  C106  1  0.44858834  0.88543293  0.35997817  1
  C  C107  1  0.45743474  0.87644678  0.85380188  1
  C  C108  1  0.95157188  0.38468184  0.36015995  1
  C  C109  1  0.95939353  0.37917670  0.85485203  1
  C  C110  1  0.95018664  0.88574902  0.36015665  1
  C  C111  1  0.95935835  0.87899844  0.85435926  1
  C  C112  1  0.34323480  0.27404088  0.13953678  1
  C  C113  1  0.34141812  0.27526436  0.63965074  1
  C  C114  1  0.34254140  0.77441940  0.13859463  1
  C  C115  1  0.34062036  0.77472002  0.63788776  1
  C  C116  1  0.84107029  0.27440112  0.13799438  1
  C  C117  1  0.83714451  0.27568483  0.63838621  1
  C  C118  1  0.86655637  0.77168702  0.14633634  1
  C  C119  1  0.83935545  0.77461279  0.63793807  1
  C  C120  1  0.20016400  0.22237532  0.36084104  1
  C  C121  1  0.20463560  0.22366618  0.86187675  1
  C  C122  1  0.20083657  0.72646531  0.36167814  1
  C  C123  1  0.20182526  0.72221058  0.86157752  1
  C  C124  1  0.70211909  0.22562450  0.36185803  1
  C  C125  1  0.70168386  0.22686578  0.86163839  1
  C  C126  1  0.69854575  0.72314499  0.35928981  1
  C  C127  1  0.71066148  0.72740868  0.85497738  1
  C  C128  1  0.42228080  0.06734230  0.25073577  1
  C  C129  1  0.41917437  0.07183528  0.75093843  1
  C  C130  1  0.41398359  0.57038057  0.24456767  1
  C  C131  1  0.41848775  0.56855672  0.74949441  1
  C  C132  1  0.91320209  0.07076843  0.24497878  1
  C  C133  1  0.91893066  0.07111533  0.75054098  1
  C  C134  1  0.92069968  0.56739246  0.24974079  1
  C  C135  1  0.91917918  0.56765460  0.74890940  1
  C  C136  1  0.16891659  0.43121234  0.25050350  1
  C  C137  1  0.17197429  0.42984255  0.75096762  1
  C  C138  1  0.16537007  0.92718887  0.24606375  1
  C  C139  1  0.16995447  0.93089890  0.74944895  1
  C  C140  1  0.66928662  0.43139186  0.24967018  1
  C  C141  1  0.66718669  0.42891957  0.75613738  1
  C  C142  1  0.67022853  0.92853755  0.25036127  1
  C  C143  1  0.66971356  0.93309843  0.74849218  1
