# generated using pymatgen
data_CuNi14C17
_symmetry_space_group_name_H-M   'P 1'
_cell_length_a   8.70865111
_cell_length_b   8.64579951
_cell_length_c   4.46952187
_cell_angle_alpha   90.00000000
_cell_angle_beta   90.00000000
_cell_angle_gamma   90.00000000
_symmetry_Int_Tables_number   1
_chemical_formula_structural   CuNi14C17
_chemical_formula_sum   'Cu1 Ni14 C17'
_cell_volume   336.52483424
_cell_formula_units_Z   1
loop_
 _symmetry_equiv_pos_site_id
 _symmetry_equiv_pos_as_xyz
  1  'x, y, z'
loop_
 _atom_site_type_symbol
 _atom_site_label
 _atom_site_symmetry_multiplicity
 _atom_site_fract_x
 _atom_site_fract_y
 _atom_site_fract_z
 _atom_site_occupancy
  C  C0  1  -0.00000000  0.50000000  0.00000000  1
  Ni  Ni1  1  0.50000000  0.00000000  0.00000000  1
  Ni  Ni2  1  0.50000000  0.50000000  0.00000000  1
  Ni  Ni3  1  -0.00000000  0.25298108  0.50000000  1
  Ni  Ni4  1  -0.00000000  0.74701892  0.50000000  1
  Ni  Ni5  1  0.50000000  0.25079217  0.50000000  1
  Ni  Ni6  1  0.50000000  0.74920783  0.50000000  1
  Ni  Ni7  1  0.25224287  0.00000000  0.50000000  1
  Ni  Ni8  1  0.25482162  0.50000000  0.50000000  1
  Ni  Ni9  1  0.74775713  0.00000000  0.50000000  1
  Ni  Ni10  1  0.74517838  0.50000000  0.50000000  1
  Ni  Ni11  1  0.25898990  0.25153962  -0.00000000  1
  Ni  Ni12  1  0.25898990  0.74846038  -0.00000000  1
  Ni  Ni13  1  0.74101010  0.25153962  0.00000000  1
  Ni  Ni14  1  0.74101010  0.74846038  0.00000000  1
  Cu  Cu15  1  -0.00000000  0.00000000  0.00000000  1
  C  C16  1  0.25232931  0.00000000  0.00000000  1
  C  C17  1  0.28059140  0.50000000  0.00000000  1
  C  C18  1  0.74767069  0.00000000  0.00000000  1
  C  C19  1  0.71940860  0.50000000  0.00000000  1
  C  C20  1  0.24881904  0.24898835  0.50000000  1
  C  C21  1  0.24881904  0.75101165  0.50000000  1
  C  C22  1  0.75118096  0.24898835  0.50000000  1
  C  C23  1  0.75118096  0.75101165  0.50000000  1
  C  C24  1  -0.00000000  0.00000000  0.50000000  1
  C  C25  1  -0.00000000  0.50000000  0.50000000  1
  C  C26  1  0.50000000  0.00000000  0.50000000  1
  C  C27  1  0.50000000  0.50000000  0.50000000  1
  C  C28  1  -0.00000000  0.21804732  -0.00000000  1
  C  C29  1  -0.00000000  0.78195268  0.00000000  1
  C  C30  1  0.50000000  0.24157666  0.00000000  1
  C  C31  1  0.50000000  0.75842334  0.00000000  1
