# generated using pymatgen
data_CuNi14C17
_symmetry_space_group_name_H-M   'P 1'
_cell_length_a   8.69497341
_cell_length_b   8.61288869
_cell_length_c   4.40321688
_cell_angle_alpha   90.00000000
_cell_angle_beta   90.00000000
_cell_angle_gamma   90.00000000
_symmetry_Int_Tables_number   1
_chemical_formula_structural   CuNi14C17
_chemical_formula_sum   'Cu1 Ni14 C17'
_cell_volume   329.75179623
_cell_formula_units_Z   1
loop_
 _symmetry_equiv_pos_site_id
 _symmetry_equiv_pos_as_xyz
  1  'x, y, z'
loop_
 _atom_site_type_symbol
 _atom_site_label
 _atom_site_symmetry_multiplicity
 _atom_site_fract_x
 _atom_site_fract_y
 _atom_site_fract_z
 _atom_site_occupancy
  C  C0  1  -0.00000000  0.50000000  -0.00000000  1
  Ni  Ni1  1  0.50000000  0.00000000  -0.00000000  1
  Ni  Ni2  1  0.50000000  0.50000000  -0.00000000  1
  Ni  Ni3  1  -0.00000000  0.24010165  0.50000000  1
  Ni  Ni4  1  -0.00000000  0.75989835  0.50000000  1
  Ni  Ni5  1  0.50000000  0.24850234  0.50000000  1
  Ni  Ni6  1  0.50000000  0.75149766  0.50000000  1
  Ni  Ni7  1  0.25088911  -0.00000000  0.50000000  1
  Ni  Ni8  1  0.25943013  0.50000000  0.50000000  1
  Ni  Ni9  1  0.74911089  0.00000000  0.50000000  1
  Ni  Ni10  1  0.74056987  0.50000000  0.50000000  1
  Ni  Ni11  1  0.25658329  0.24387342  -0.00000000  1
  Ni  Ni12  1  0.25658329  0.75612658  0.00000000  1
  Ni  Ni13  1  0.74341671  0.24387342  -0.00000000  1
  Ni  Ni14  1  0.74341671  0.75612658  0.00000000  1
  Cu  Cu15  1  -0.00000000  0.00000000  -0.00000000  1
  C  C16  1  0.26091726  0.00000000  -0.00000000  1
  C  C17  1  0.27119172  0.50000000  -0.00000000  1
  C  C18  1  0.73908274  0.00000000  0.00000000  1
  C  C19  1  0.72880828  0.50000000  -0.00000000  1
  C  C20  1  0.24962978  0.24957282  0.50000000  1
  C  C21  1  0.24962978  0.75042718  0.50000000  1
  C  C22  1  0.75037022  0.24957282  0.50000000  1
  C  C23  1  0.75037022  0.75042718  0.50000000  1
  C  C24  1  -0.00000000  0.00000000  0.50000000  1
  C  C25  1  -0.00000000  0.50000000  0.50000000  1
  C  C26  1  0.50000000  0.00000000  0.50000000  1
  C  C27  1  0.50000000  0.50000000  0.50000000  1
  C  C28  1  -0.00000000  0.22915411  -0.00000000  1
  C  C29  1  -0.00000000  0.77084589  0.00000000  1
  C  C30  1  0.50000000  0.24660152  -0.00000000  1
  C  C31  1  0.50000000  0.75339848  0.00000000  1
