# generated using pymatgen
data_Cu2Ni4C25
_symmetry_space_group_name_H-M   'P 1'
_cell_length_a   8.91576207
_cell_length_b   8.91576207
_cell_length_c   13.10300839
_cell_angle_alpha   99.91631074
_cell_angle_beta   99.91631074
_cell_angle_gamma   119.59237341
_symmetry_Int_Tables_number   1
_chemical_formula_structural   Cu2Ni4C25
_chemical_formula_sum   'Cu4 Ni8 C50'
_cell_volume   850.99012021
_cell_formula_units_Z   2
loop_
 _symmetry_equiv_pos_site_id
 _symmetry_equiv_pos_as_xyz
  1  'x, y, z'
loop_
 _atom_site_type_symbol
 _atom_site_label
 _atom_site_symmetry_multiplicity
 _atom_site_fract_x
 _atom_site_fract_y
 _atom_site_fract_z
 _atom_site_occupancy
  C  C0  1  0.06500300  0.13182200  0.82281800  1
  C  C1  1  0.30900400  0.24218500  0.17718200  1
  C  C2  1  0.38182200  0.81500300  0.32281800  1
  C  C3  1  0.49218500  0.05900400  0.67718200  1
  C  C4  1  0.14019300  0.50342700  0.61191300  1
  C  C5  1  0.89151400  0.52828000  0.38808700  1
  C  C6  1  0.75342700  0.89019300  0.11191300  1
  C  C7  1  0.77828000  0.64151400  0.88808700  1
  C  C8  1  0.13298900  0.06898400  0.59533500  1
  C  C9  1  0.47364900  0.53765300  0.40466500  1
  C  C10  1  0.31898400  0.88298800  0.09533500  1
  C  C11  1  0.78765300  0.22364900  0.90466500  1
  C  C12  1  0.07195500  0.87671700  0.60559200  1
  C  C13  1  0.27112600  0.46636300  0.39440800  1
  C  C14  1  0.12671700  0.82195500  0.10559200  1
  C  C15  1  0.71636300  0.02112600  0.89440800  1
  C  C16  1  0.05455700  0.29781500  0.06160200  1
  C  C17  1  0.23621300  0.99295500  0.93839800  1
  C  C18  1  0.54781500  0.80455700  0.56160200  1
  C  C19  1  0.24295500  0.98621300  0.43839800  1
  C  C20  1  0.13128500  0.46260200  0.01948900  1
  C  C21  1  0.44311300  0.11179600  0.98051100  1
  C  C22  1  0.71260200  0.88128500  0.51948900  1
  C  C23  1  0.36179600  0.19311300  0.48051100  1
  Ni  Ni24  1  0.51871600  0.65066300  0.72602200  1
  Ni  Ni25  1  0.92464100  0.79269400  0.27397800  1
  Ni  Ni26  1  0.90066300  0.26871600  0.22602200  1
  Ni  Ni27  1  0.04269400  0.67464100  0.77397800  1
  Ni  Ni28  1  0.40947800  0.50721200  0.77885100  1
  Ni  Ni29  1  0.72836100  0.63062700  0.22114900  1
  Ni  Ni30  1  0.75721200  0.15947800  0.27885100  1
  Ni  Ni31  1  0.88062700  0.47836100  0.72114900  1
  Cu  Cu32  1  0.10392700  0.24307200  0.49734300  1
  Cu  Cu33  1  0.74572900  0.60658400  0.50265700  1
  Cu  Cu34  1  0.49307200  0.85392700  0.99734300  1
  Cu  Cu35  1  0.85658400  0.49572900  0.00265700  1
  C  C36  1  0.09127700  0.59127700  0.50000000  1
  C  C37  1  0.84127700  0.84127700  0.00000000  1
  C  C38  1  0.23911600  0.42852100  0.74584400  1
  C  C39  1  0.68267700  0.49327300  0.25415600  1
  C  C40  1  0.67852100  0.98911600  0.24584400  1
  C  C41  1  0.74327300  0.43267700  0.75415600  1
  C  C42  1  0.42754200  0.67203500  0.64989300  1
  C  C43  1  0.02214200  0.77764900  0.35010700  1
  C  C44  1  0.92203500  0.17754200  0.14989300  1
  C  C45  1  0.02764900  0.77214200  0.85010700  1
  C  C46  1  0.68823900  0.73405800  0.76172100  1
  C  C47  1  0.97233700  0.92651800  0.23827900  1
  C  C48  1  0.98405800  0.43823900  0.26172100  1
  C  C49  1  0.17651800  0.72233700  0.73827900  1
  C  C50  1  0.49845000  0.47736500  0.84960100  1
  C  C51  1  0.62776400  0.64884900  0.15039900  1
  C  C52  1  0.72736500  0.24845000  0.34960100  1
  C  C53  1  0.89884900  0.37776400  0.65039900  1
  C  C54  1  0.14891100  0.00544900  0.64655200  1
  C  C55  1  0.35889700  0.50236000  0.35344800  1
  C  C56  1  0.25544900  0.89891100  0.14655200  1
  C  C57  1  0.75236000  0.10889700  0.85344800  1
  C  C58  1  0.14650500  0.36337300  0.02696200  1
  C  C59  1  0.33641100  0.11954200  0.97303800  1
  C  C60  1  0.61337300  0.89650500  0.52696200  1
  C  C61  1  0.36954200  0.08641100  0.47303800  1
