# generated using pymatgen
data_CuNiC8
_symmetry_space_group_name_H-M   'P 1'
_cell_length_a   7.40660952
_cell_length_b   7.40660952
_cell_length_c   7.40660952
_cell_angle_alpha   119.70559441
_cell_angle_beta   118.91904537
_cell_angle_gamma   91.19660364
_symmetry_Int_Tables_number   1
_chemical_formula_structural   CuNiC8
_chemical_formula_sum   'Cu2 Ni2 C16'
_cell_volume   290.20627091
_cell_formula_units_Z   2
loop_
 _symmetry_equiv_pos_site_id
 _symmetry_equiv_pos_as_xyz
  1  'x, y, z'
loop_
 _atom_site_type_symbol
 _atom_site_label
 _atom_site_symmetry_multiplicity
 _atom_site_fract_x
 _atom_site_fract_y
 _atom_site_fract_z
 _atom_site_occupancy
  C  C0  1  0.00000000  0.50000000  0.00000000  1
  C  C1  1  0.00000000  0.00000000  0.50000000  1
  Ni  Ni2  1  0.00000000  0.00000000  0.00000000  1
  Ni  Ni3  1  0.50000000  0.00000000  0.50000000  1
  Cu  Cu4  1  0.50000000  0.00000000  0.00000000  1
  Cu  Cu5  1  0.50000000  0.50000000  0.50000000  1
  C  C6  1  0.95416700  0.70416700  0.25000000  1
  C  C7  1  0.04583300  0.29583300  0.75000000  1
  C  C8  1  0.55851200  0.94063000  0.24615200  1
  C  C9  1  0.19447800  0.94063000  0.88211800  1
  C  C10  1  0.55788200  0.30788200  0.25000000  1
  C  C11  1  0.19447800  0.31236000  0.25384800  1
  C  C12  1  0.55851200  0.31236000  0.61788200  1
  C  C13  1  0.17691800  0.92691800  0.25000000  1
  C  C14  1  0.44148800  0.05937000  0.75384800  1
  C  C15  1  0.80552200  0.05937000  0.11788200  1
  C  C16  1  0.44211800  0.69211800  0.75000000  1
  C  C17  1  0.80552200  0.68764000  0.74615200  1
  C  C18  1  0.44148800  0.68764000  0.38211800  1
  C  C19  1  0.82308200  0.07308200  0.75000000  1
