# generated using pymatgen
data_Cu4Ni7C8
_symmetry_space_group_name_H-M   'P 1'
_cell_length_a   4.85879400
_cell_length_b   12.82305000
_cell_length_c   15.35925600
_cell_angle_alpha   90.00000000
_cell_angle_beta   90.00000000
_cell_angle_gamma   90.00000000
_symmetry_Int_Tables_number   1
_chemical_formula_structural   Cu4Ni7C8
_chemical_formula_sum   'Cu16 Ni28 C32'
_cell_volume   956.95166246
_cell_formula_units_Z   4
loop_
 _symmetry_equiv_pos_site_id
 _symmetry_equiv_pos_as_xyz
  1  'x, y, z'
loop_
 _atom_site_type_symbol
 _atom_site_label
 _atom_site_symmetry_multiplicity
 _atom_site_fract_x
 _atom_site_fract_y
 _atom_site_fract_z
 _atom_site_occupancy
  Ni  Ni0  1  0.75000000  0.18992200  0.25089600  1
  Ni  Ni1  1  0.75000000  0.68992200  0.24910400  1
  Ni  Ni2  1  0.25000000  0.81007800  0.74910400  1
  Ni  Ni3  1  0.25000000  0.31007800  0.75089600  1
  Ni  Ni4  1  0.01022900  0.13638100  0.82253000  1
  Ni  Ni5  1  0.48977100  0.63638100  0.67747000  1
  Ni  Ni6  1  0.51022900  0.86361900  0.17747000  1
  Ni  Ni7  1  0.98977100  0.36361900  0.32253000  1
  Ni  Ni8  1  0.98977100  0.86361900  0.17747000  1
  Ni  Ni9  1  0.51022900  0.36361900  0.32253000  1
  Ni  Ni10  1  0.48977100  0.13638100  0.82253000  1
  Ni  Ni11  1  0.01022900  0.63638100  0.67747000  1
  Ni  Ni12  1  0.75000000  0.36534700  0.15469100  1
  Ni  Ni13  1  0.75000000  0.86534700  0.34530900  1
  Ni  Ni14  1  0.25000000  0.63465300  0.84530900  1
  Ni  Ni15  1  0.25000000  0.13465300  0.65469100  1
  Ni  Ni16  1  0.99562800  0.43949700  0.87947000  1
  Ni  Ni17  1  0.50437200  0.93949700  0.62053000  1
  Ni  Ni18  1  0.49562800  0.56050300  0.12053000  1
  Ni  Ni19  1  0.00437200  0.06050300  0.37947000  1
  Ni  Ni20  1  0.00437200  0.56050300  0.12053000  1
  Ni  Ni21  1  0.49562800  0.06050300  0.37947000  1
  Ni  Ni22  1  0.50437200  0.43949700  0.87947000  1
  Ni  Ni23  1  0.99562800  0.93949700  0.62053000  1
  Ni  Ni24  1  0.75000000  0.37313200  0.49722400  1
  Ni  Ni25  1  0.75000000  0.87313200  0.00277600  1
  Ni  Ni26  1  0.25000000  0.62686800  0.50277600  1
  Ni  Ni27  1  0.25000000  0.12686800  0.99722400  1
  C  C28  1  0.75000000  0.44801200  0.01819500  1
  C  C29  1  0.75000000  0.94801200  0.48180500  1
  C  C30  1  0.25000000  0.55198800  0.98180500  1
  C  C31  1  0.25000000  0.05198800  0.51819500  1
  C  C32  1  0.75000000  0.08816700  0.69779700  1
  C  C33  1  0.75000000  0.58816700  0.80220300  1
  C  C34  1  0.25000000  0.91183300  0.30220300  1
  C  C35  1  0.25000000  0.41183300  0.19779700  1
  C  C36  1  0.75000000  0.22577100  0.39768900  1
  C  C37  1  0.75000000  0.72577100  0.10231100  1
  C  C38  1  0.25000000  0.77422900  0.60231100  1
  C  C39  1  0.25000000  0.27422900  0.89768900  1
  C  C40  1  0.75000000  0.05506300  0.93443900  1
  C  C41  1  0.75000000  0.55506300  0.56556100  1
  C  C42  1  0.25000000  0.94493700  0.06556100  1
  C  C43  1  0.25000000  0.44493700  0.43443900  1
  C  C44  1  0.75000000  0.00444400  0.25164900  1
  C  C45  1  0.75000000  0.50444400  0.24835100  1
  C  C46  1  0.25000000  0.99555600  0.74835100  1
  C  C47  1  0.25000000  0.49555600  0.75164900  1
  C  C48  1  0.99751200  0.28268200  0.62085800  1
  C  C49  1  0.50248800  0.78268200  0.87914200  1
  C  C50  1  0.49751200  0.71731800  0.37914200  1
  C  C51  1  0.00248800  0.21731800  0.12085800  1
  C  C52  1  0.00248800  0.71731800  0.37914200  1
  C  C53  1  0.49751200  0.21731800  0.12085800  1
  C  C54  1  0.50248800  0.28268200  0.62085800  1
  C  C55  1  0.99751200  0.78268200  0.87914200  1
  C  C56  1  0.75000000  0.29181200  0.80556100  1
  C  C57  1  0.75000000  0.79181200  0.69443900  1
  C  C58  1  0.25000000  0.70818800  0.19443900  1
  C  C59  1  0.25000000  0.20818800  0.30556100  1
  Cu  Cu60  1  0.75000000  0.43261200  0.69629000  1
  Cu  Cu61  1  0.75000000  0.93261200  0.80371000  1
  Cu  Cu62  1  0.25000000  0.56738800  0.30371000  1
  Cu  Cu63  1  0.25000000  0.06738800  0.19629000  1
  Cu  Cu64  1  0.75000000  0.13358800  0.54189700  1
  Cu  Cu65  1  0.75000000  0.63358800  0.95810300  1
  Cu  Cu66  1  0.25000000  0.86641200  0.45810300  1
  Cu  Cu67  1  0.25000000  0.36641200  0.04189700  1
  Cu  Cu68  1  0.75000000  0.25391800  0.97360900  1
  Cu  Cu69  1  0.75000000  0.75391800  0.52639100  1
  Cu  Cu70  1  0.25000000  0.74608200  0.02639100  1
  Cu  Cu71  1  0.25000000  0.24608200  0.47360900  1
  Cu  Cu72  1  0.75000000  0.04370700  0.09280400  1
  Cu  Cu73  1  0.75000000  0.54370700  0.40719600  1
  Cu  Cu74  1  0.25000000  0.95629300  0.90719600  1
  Cu  Cu75  1  0.25000000  0.45629300  0.59280400  1
