# generated using pymatgen
data_Cu2NiC11
_symmetry_space_group_name_H-M   'P 1'
_cell_length_a   8.48912156
_cell_length_b   8.48912156
_cell_length_c   8.48912156
_cell_angle_alpha   124.57479142
_cell_angle_beta   106.48500999
_cell_angle_gamma   98.55472500
_symmetry_Int_Tables_number   1
_chemical_formula_structural   Cu2NiC11
_chemical_formula_sum   'Cu4 Ni2 C22'
_cell_volume   444.28439072
_cell_formula_units_Z   2
loop_
 _symmetry_equiv_pos_site_id
 _symmetry_equiv_pos_as_xyz
  1  'x, y, z'
loop_
 _atom_site_type_symbol
 _atom_site_label
 _atom_site_symmetry_multiplicity
 _atom_site_fract_x
 _atom_site_fract_y
 _atom_site_fract_z
 _atom_site_occupancy
  Ni  Ni0  1  0.25000000  0.75000000  0.50000000  1
  Ni  Ni1  1  0.75000000  0.25000000  0.50000000  1
  Cu  Cu2  1  0.18115500  0.13482600  0.31598100  1
  Cu  Cu3  1  0.81884500  0.86517400  0.68401900  1
  Cu  Cu4  1  0.68115500  0.36517400  0.04632900  1
  Cu  Cu5  1  0.31884500  0.63482600  0.95367100  1
  C  C6  1  0.20641100  0.39578500  0.34162500  1
  C  C7  1  0.79358900  0.60421500  0.65837500  1
  C  C8  1  0.05416000  0.86478600  0.65837500  1
  C  C9  1  0.44584000  0.10421500  0.81062600  1
  C  C10  1  0.94584000  0.13521400  0.34162500  1
  C  C11  1  0.55416000  0.89578500  0.18937400  1
  C  C12  1  0.29358900  0.63521400  0.18937400  1
  C  C13  1  0.70641100  0.36478600  0.81062600  1
  C  C14  1  0.00000000  0.00000000  0.00000000  1
  C  C15  1  0.50000000  0.50000000  0.00000000  1
  C  C16  1  0.28048000  0.37037800  0.65085800  1
  C  C17  1  0.71952000  0.62962200  0.34914200  1
  C  C18  1  0.78048000  0.12962200  0.91010300  1
  C  C19  1  0.21952000  0.87037800  0.08989700  1
  C  C20  1  0.45317800  0.23822500  0.41764500  1
  C  C21  1  0.54682200  0.76177500  0.58235500  1
  C  C22  1  0.82058000  0.03553300  0.58235500  1
  C  C23  1  0.67942000  0.26177500  0.21495300  1
  C  C24  1  0.17942000  0.96446700  0.41764500  1
  C  C25  1  0.32058000  0.73822500  0.78504700  1
  C  C26  1  0.04682200  0.46446700  0.78504700  1
  C  C27  1  0.95317800  0.53553300  0.21495300  1
