# generated using pymatgen
data_Cu3Ni2C9
_symmetry_space_group_name_H-M   'P 1'
_cell_length_a   8.55695000
_cell_length_b   9.28184800
_cell_length_c   15.16066300
_cell_angle_alpha   90.00000000
_cell_angle_beta   90.00000000
_cell_angle_gamma   90.00000000
_symmetry_Int_Tables_number   1
_chemical_formula_structural   Cu3Ni2C9
_chemical_formula_sum   'Cu24 Ni16 C72'
_cell_volume   1204.12518645
_cell_formula_units_Z   8
loop_
 _symmetry_equiv_pos_site_id
 _symmetry_equiv_pos_as_xyz
  1  'x, y, z'
loop_
 _atom_site_type_symbol
 _atom_site_label
 _atom_site_symmetry_multiplicity
 _atom_site_fract_x
 _atom_site_fract_y
 _atom_site_fract_z
 _atom_site_occupancy
  Ni  Ni0  1  0.33476000  0.30022900  0.78050100  1
  Ni  Ni1  1  0.33519600  0.30312500  0.10780000  1
  Ni  Ni2  1  0.66480400  0.80312500  0.89220000  1
  Ni  Ni3  1  0.66524000  0.80022900  0.21949900  1
  Ni  Ni4  1  0.83476000  0.80022900  0.71949900  1
  Ni  Ni5  1  0.83519600  0.80312500  0.39220000  1
  Ni  Ni6  1  0.16524000  0.30022900  0.28050100  1
  Ni  Ni7  1  0.16480400  0.30312500  0.60780000  1
  Ni  Ni8  1  0.33889700  0.99490200  0.89088900  1
  Ni  Ni9  1  0.34271100  0.99790900  0.56392700  1
  Ni  Ni10  1  0.66110300  0.49490200  0.10911100  1
  Ni  Ni11  1  0.65728900  0.49790900  0.43607300  1
  Ni  Ni12  1  0.84271100  0.49790900  0.93607300  1
  Ni  Ni13  1  0.83889700  0.49490200  0.60911100  1
  Ni  Ni14  1  0.15728900  0.99790900  0.06392700  1
  Ni  Ni15  1  0.16110300  0.99490200  0.39088900  1
  Cu  Cu16  1  0.48970600  0.80056200  0.72042300  1
  Cu  Cu17  1  0.48578800  0.80393300  0.05469800  1
  Cu  Cu18  1  0.48070600  0.80320200  0.39200300  1
  Cu  Cu19  1  0.51421200  0.30393300  0.94530200  1
  Cu  Cu20  1  0.51029400  0.30056200  0.27957700  1
  Cu  Cu21  1  0.51929400  0.30320200  0.60799700  1
  Cu  Cu22  1  0.98970600  0.30056200  0.77957700  1
  Cu  Cu23  1  0.98070600  0.30320200  0.10799700  1
  Cu  Cu24  1  0.98578800  0.30393300  0.44530200  1
  Cu  Cu25  1  0.01929400  0.80320200  0.89200300  1
  Cu  Cu26  1  0.01029400  0.80056200  0.22042300  1
  Cu  Cu27  1  0.01421200  0.80393300  0.55469800  1
  Cu  Cu28  1  0.34730800  0.56952900  0.89500300  1
  Cu  Cu29  1  0.34808000  0.58589800  0.22622400  1
  Cu  Cu30  1  0.34649200  0.57213100  0.55946900  1
  Cu  Cu31  1  0.65192000  0.08589800  0.77377600  1
  Cu  Cu32  1  0.65269200  0.06952900  0.10499700  1
  Cu  Cu33  1  0.65350800  0.07213100  0.44053100  1
  Cu  Cu34  1  0.84649200  0.07213100  0.94053100  1
  Cu  Cu35  1  0.84808000  0.08589800  0.27377600  1
  Cu  Cu36  1  0.84730800  0.06952900  0.60499700  1
  Cu  Cu37  1  0.15192000  0.58589800  0.72622400  1
  Cu  Cu38  1  0.15350800  0.57213100  0.05946900  1
  Cu  Cu39  1  0.15269200  0.56952900  0.39500300  1
  C  C40  1  0.32657600  0.94265600  0.00422300  1
  C  C41  1  0.33539500  0.92477100  0.34234100  1
  C  C42  1  0.35333800  0.92404000  0.67082900  1
  C  C43  1  0.66460500  0.42477100  0.65765900  1
  C  C44  1  0.67342400  0.44265600  0.99577700  1
  C  C45  1  0.64666200  0.42404000  0.32917100  1
  C  C46  1  0.85333800  0.42404000  0.82917100  1
  C  C47  1  0.83539500  0.42477100  0.15765900  1
  C  C48  1  0.82657600  0.44265600  0.49577700  1
  C  C49  1  0.16460500  0.92477100  0.84234100  1
  C  C50  1  0.14666200  0.92404000  0.17082900  1
  C  C51  1  0.17342400  0.94265600  0.50422300  1
  C  C52  1  0.33607100  0.67515000  0.78282300  1
  C  C53  1  0.32439800  0.67836800  0.11072600  1
  C  C54  1  0.32984700  0.66930800  0.44734000  1
  C  C55  1  0.67560200  0.17836800  0.88927400  1
  C  C56  1  0.66392900  0.17515000  0.21717700  1
  C  C57  1  0.67015300  0.16930800  0.55266000  1
  C  C58  1  0.83607100  0.17515000  0.71717700  1
  C  C59  1  0.82984700  0.16930800  0.05266000  1
  C  C60  1  0.82439800  0.17836800  0.38927400  1
  C  C61  1  0.17015300  0.66930800  0.94734000  1
  C  C62  1  0.16392900  0.67515000  0.28282300  1
  C  C63  1  0.17560200  0.67836800  0.61072600  1
  C  C64  1  0.35172900  0.18393500  0.87842500  1
  C  C65  1  0.33478900  0.21427900  0.22135700  1
  C  C66  1  0.33654800  0.19035700  0.56942500  1
  C  C67  1  0.66521100  0.71427900  0.77864300  1
  C  C68  1  0.64827100  0.68393500  0.12157500  1
  C  C69  1  0.66345200  0.69035700  0.43057500  1
  C  C70  1  0.83654800  0.69035700  0.93057500  1
  C  C71  1  0.83478900  0.71427900  0.27864300  1
  C  C72  1  0.85172900  0.68393500  0.62157500  1
  C  C73  1  0.16521100  0.21427900  0.72135700  1
  C  C74  1  0.16345200  0.19035700  0.06942500  1
  C  C75  1  0.14827100  0.18393500  0.37842500  1
  C  C76  1  0.49409000  0.20643900  0.72100000  1
  C  C77  1  0.49492700  0.20187000  0.05450500  1
  C  C78  1  0.50181100  0.18616500  0.38153500  1
  C  C79  1  0.50507300  0.70187000  0.94549500  1
  C  C80  1  0.50591000  0.70643900  0.27900000  1
  C  C81  1  0.49818900  0.68616500  0.61846500  1
  C  C82  1  0.99409000  0.70643900  0.77900000  1
  C  C83  1  0.00181100  0.68616500  0.11846500  1
  C  C84  1  0.99492700  0.70187000  0.44549500  1
  C  C85  1  0.99818900  0.18616500  0.88153500  1
  C  C86  1  0.00591000  0.20643900  0.22100000  1
  C  C87  1  0.00507300  0.20187000  0.55450500  1
  C  C88  1  0.34046900  0.43329900  0.00232600  1
  C  C89  1  0.31835500  0.43502100  0.31819300  1
  C  C90  1  0.32075900  0.42813500  0.65596200  1
  C  C91  1  0.68164500  0.93502100  0.68180700  1
  C  C92  1  0.65953100  0.93329900  0.99767400  1
  C  C93  1  0.67924100  0.92813500  0.34403800  1
  C  C94  1  0.82075900  0.92813500  0.84403800  1
  C  C95  1  0.81835500  0.93502100  0.18180700  1
  C  C96  1  0.84046900  0.93329900  0.49767400  1
  C  C97  1  0.18164500  0.43502100  0.81819300  1
  C  C98  1  0.17924100  0.42813500  0.15596200  1
  C  C99  1  0.15953100  0.43329900  0.50232600  1
  C  C100  1  0.99857800  0.44324200  0.01011700  1
  C  C101  1  0.02242400  0.42422600  0.34307100  1
  C  C102  1  0.00884400  0.42868400  0.66757100  1
  C  C103  1  0.50884400  0.92868400  0.83242900  1
  C  C104  1  0.52242400  0.92422600  0.15692900  1
  C  C105  1  0.49857800  0.94324200  0.48988300  1
  C  C106  1  0.97757600  0.92422600  0.65692900  1
  C  C107  1  0.00142200  0.94324200  0.98988300  1
  C  C108  1  0.99115600  0.92868400  0.33242900  1
  C  C109  1  0.47757600  0.42422600  0.84307100  1
  C  C110  1  0.49115600  0.42868400  0.16757100  1
  C  C111  1  0.50142200  0.44324200  0.51011700  1
