# generated using pymatgen
data_Cu2NiC5
_symmetry_space_group_name_H-M   'P 1'
_cell_length_a   9.67001500
_cell_length_b   5.36937900
_cell_length_c   12.80867636
_cell_angle_alpha   66.16618893
_cell_angle_beta   90.00000000
_cell_angle_gamma   90.00000000
_symmetry_Int_Tables_number   1
_chemical_formula_structural   Cu2NiC5
_chemical_formula_sum   'Cu8 Ni4 C20'
_cell_volume   608.33707575
_cell_formula_units_Z   4
loop_
 _symmetry_equiv_pos_site_id
 _symmetry_equiv_pos_as_xyz
  1  'x, y, z'
loop_
 _atom_site_type_symbol
 _atom_site_label
 _atom_site_symmetry_multiplicity
 _atom_site_fract_x
 _atom_site_fract_y
 _atom_site_fract_z
 _atom_site_occupancy
  C  C0  1  0.37349700  0.60966000  0.45815700  1
  C  C1  1  0.12650300  0.60966000  0.95815700  1
  C  C2  1  0.62650300  0.39034000  0.54184300  1
  C  C3  1  0.87349700  0.39034000  0.04184300  1
  C  C4  1  0.39041800  0.90695700  0.29244700  1
  C  C5  1  0.10958200  0.90695700  0.79244700  1
  C  C6  1  0.60958200  0.09304300  0.70755300  1
  C  C7  1  0.89041800  0.09304300  0.20755300  1
  Ni  Ni8  1  0.16135700  0.44549800  0.43133900  1
  Ni  Ni9  1  0.33864300  0.44549800  0.93133900  1
  Ni  Ni10  1  0.83864300  0.55450200  0.56866100  1
  Ni  Ni11  1  0.66135700  0.55450200  0.06866100  1
  Cu  Cu12  1  0.26394400  0.66386700  0.55341800  1
  Cu  Cu13  1  0.23605600  0.66386700  0.05341800  1
  Cu  Cu14  1  0.73605600  0.33613300  0.44658200  1
  Cu  Cu15  1  0.76394400  0.33613300  0.94658200  1
  Cu  Cu16  1  0.54101100  0.70813000  0.50838100  1
  Cu  Cu17  1  0.95898900  0.70813000  0.00838100  1
  Cu  Cu18  1  0.45898900  0.29187000  0.49161900  1
  Cu  Cu19  1  0.04101100  0.29187000  0.99161900  1
  C  C20  1  0.44666900  0.12789100  0.30008600  1
  C  C21  1  0.05333100  0.12789100  0.80008600  1
  C  C22  1  0.55333100  0.87210900  0.69991400  1
  C  C23  1  0.94666900  0.87210900  0.19991400  1
  C  C24  1  0.47335600  0.81530500  0.23106100  1
  C  C25  1  0.02664400  0.81530500  0.73106100  1
  C  C26  1  0.52664400  0.18469500  0.76893900  1
  C  C27  1  0.97335600  0.18469500  0.26893900  1
  C  C28  1  0.26584000  0.97002900  0.24265100  1
  C  C29  1  0.23416000  0.97002900  0.74265100  1
  C  C30  1  0.73416000  0.02997100  0.75734900  1
  C  C31  1  0.76584000  0.02997100  0.25734900  1
