# generated using pymatgen
data_CuNiC11
_symmetry_space_group_name_H-M   'P 1'
_cell_length_a   6.59350800
_cell_length_b   8.45175800
_cell_length_c   9.97812751
_cell_angle_alpha   84.70989285
_cell_angle_beta   90.00000000
_cell_angle_gamma   90.00000000
_symmetry_Int_Tables_number   1
_chemical_formula_structural   CuNiC11
_chemical_formula_sum   'Cu4 Ni4 C44'
_cell_volume   553.68004282
_cell_formula_units_Z   4
loop_
 _symmetry_equiv_pos_site_id
 _symmetry_equiv_pos_as_xyz
  1  'x, y, z'
loop_
 _atom_site_type_symbol
 _atom_site_label
 _atom_site_symmetry_multiplicity
 _atom_site_fract_x
 _atom_site_fract_y
 _atom_site_fract_z
 _atom_site_occupancy
  C  C0  1  0.00000000  0.90309500  0.61704700  1
  C  C1  1  0.00000000  0.90174000  0.11671800  1
  C  C2  1  0.22320900  0.72065600  0.87544400  1
  C  C3  1  0.77679100  0.72065600  0.87544400  1
  C  C4  1  0.22300100  0.72170300  0.37529500  1
  C  C5  1  0.77699900  0.72170300  0.37529500  1
  C  C6  1  0.72519100  0.27809000  0.62214500  1
  C  C7  1  0.27480900  0.27809000  0.62214500  1
  C  C8  1  0.72357600  0.27885600  0.12549900  1
  C  C9  1  0.27642400  0.27885600  0.12549900  1
  C  C10  1  0.50000000  0.09633700  0.88346300  1
  C  C11  1  0.50000000  0.09539500  0.38300000  1
  C  C12  1  0.50000000  0.67131100  0.60337600  1
  C  C13  1  0.50000000  0.67132100  0.10404800  1
  C  C14  1  0.00000000  0.32728600  0.89594900  1
  C  C15  1  0.00000000  0.33134600  0.39710200  1
  Ni  Ni16  1  0.00000000  0.58806000  0.63666400  1
  Ni  Ni17  1  0.00000000  0.58732700  0.14124700  1
  Ni  Ni18  1  0.50000000  0.40975900  0.86008900  1
  Ni  Ni19  1  0.50000000  0.41049600  0.35991000  1
  Cu  Cu20  1  0.50000000  0.96618200  0.65185000  1
  Cu  Cu21  1  0.50000000  0.96593600  0.15214300  1
  Cu  Cu22  1  0.00000000  0.03277600  0.84866800  1
  Cu  Cu23  1  0.00000000  0.04021400  0.35057700  1
  C  C24  1  0.50000000  0.92681300  0.52908300  1
  C  C25  1  0.00000000  0.88620900  0.82155600  1
  C  C26  1  0.50000000  0.92667800  0.02914000  1
  C  C27  1  0.50000000  0.85216500  0.74894600  1
  C  C28  1  0.00000000  0.89446500  0.32006300  1
  C  C29  1  0.50000000  0.85209400  0.24917400  1
  C  C30  1  0.18265400  0.69242600  0.58424600  1
  C  C31  1  0.81734600  0.69242600  0.58424600  1
  C  C32  1  0.18238100  0.69239700  0.08910600  1
  C  C33  1  0.81761900  0.69239700  0.08910600  1
  C  C34  1  0.50000000  0.57755600  0.90982900  1
  C  C35  1  0.00000000  0.56737000  0.79391000  1
  C  C36  1  0.50000000  0.57807300  0.40944900  1
  C  C37  1  0.00000000  0.56354400  0.29897900  1
  C  C38  1  0.50000000  0.42941900  0.70287200  1
  C  C39  1  0.00000000  0.42033500  0.58537800  1
  C  C40  1  0.50000000  0.42943600  0.20271400  1
  C  C41  1  0.00000000  0.42166300  0.08831600  1
  C  C42  1  0.31723700  0.30610900  0.91397000  1
  C  C43  1  0.68276300  0.30610900  0.91397000  1
  C  C44  1  0.68571600  0.30793300  0.41297800  1
  C  C45  1  0.31428400  0.30793300  0.41297800  1
  C  C46  1  0.00000000  0.14713300  0.75180000  1
  C  C47  1  0.50000000  0.11318300  0.67863400  1
  C  C48  1  0.00000000  0.15788400  0.25599600  1
  C  C49  1  0.00000000  0.07201100  0.97175500  1
  C  C50  1  0.50000000  0.11286700  0.17894100  1
  C  C51  1  0.00000000  0.07618000  0.47424800  1
