# generated using pymatgen
data_Cu5(Ni3C)2
_symmetry_space_group_name_H-M   'P 1'
_cell_length_a   8.53988000
_cell_length_b   9.32597800
_cell_length_c   19.25296500
_cell_angle_alpha   90.00000000
_cell_angle_beta   90.00000000
_cell_angle_gamma   90.00000000
_symmetry_Int_Tables_number   1
_chemical_formula_structural   Cu5(Ni3C)2
_chemical_formula_sum   'Cu20 Ni24 C8'
_cell_volume   1533.35875100
_cell_formula_units_Z   4
loop_
 _symmetry_equiv_pos_site_id
 _symmetry_equiv_pos_as_xyz
  1  'x, y, z'
loop_
 _atom_site_type_symbol
 _atom_site_label
 _atom_site_symmetry_multiplicity
 _atom_site_fract_x
 _atom_site_fract_y
 _atom_site_fract_z
 _atom_site_occupancy
  C  C0  1  0.17142900  0.75000000  0.35155200  1
  C  C1  1  0.32857100  0.75000000  0.85155200  1
  C  C2  1  0.82857100  0.25000000  0.64844800  1
  C  C3  1  0.67142900  0.25000000  0.14844800  1
  C  C4  1  0.85213600  0.75000000  0.17892700  1
  C  C5  1  0.64786400  0.75000000  0.67892700  1
  C  C6  1  0.14786400  0.25000000  0.82107300  1
  C  C7  1  0.35213600  0.25000000  0.32107300  1
  Ni  Ni8  1  0.11962800  0.75000000  0.26704700  1
  Ni  Ni9  1  0.38037200  0.75000000  0.76704700  1
  Ni  Ni10  1  0.88037200  0.25000000  0.73295300  1
  Ni  Ni11  1  0.61962800  0.25000000  0.23295300  1
  Ni  Ni12  1  0.76893300  0.58227100  0.39567500  1
  Ni  Ni13  1  0.73106700  0.91772900  0.89567500  1
  Ni  Ni14  1  0.23106700  0.08227100  0.60432500  1
  Ni  Ni15  1  0.26893300  0.41772900  0.10432500  1
  Ni  Ni16  1  0.23106700  0.41772900  0.60432500  1
  Ni  Ni17  1  0.26893300  0.08227100  0.10432500  1
  Ni  Ni18  1  0.76893300  0.91772900  0.39567500  1
  Ni  Ni19  1  0.73106700  0.58227100  0.89567500  1
  Ni  Ni20  1  0.68156900  0.56212900  0.35383200  1
  Ni  Ni21  1  0.81843100  0.93787100  0.85383200  1
  Ni  Ni22  1  0.31843100  0.06212900  0.64616800  1
  Ni  Ni23  1  0.18156900  0.43787100  0.14616800  1
  Ni  Ni24  1  0.31843100  0.43787100  0.64616800  1
  Ni  Ni25  1  0.18156900  0.06212900  0.14616800  1
  Ni  Ni26  1  0.68156900  0.93787100  0.35383200  1
  Ni  Ni27  1  0.81843100  0.56212900  0.85383200  1
  Ni  Ni28  1  0.18859800  0.75000000  0.44619500  1
  Ni  Ni29  1  0.31140200  0.75000000  0.94619500  1
  Ni  Ni30  1  0.81140200  0.25000000  0.55380500  1
  Ni  Ni31  1  0.68859800  0.25000000  0.05380500  1
  Cu  Cu32  1  0.13099400  0.75000000  0.98571200  1
  Cu  Cu33  1  0.36900600  0.75000000  0.48571200  1
  Cu  Cu34  1  0.86900600  0.25000000  0.01428800  1
  Cu  Cu35  1  0.63099400  0.25000000  0.51428800  1
  Cu  Cu36  1  0.76796500  0.47593600  0.15411100  1
  Cu  Cu37  1  0.73203500  0.02406400  0.65411100  1
  Cu  Cu38  1  0.23203500  0.97593600  0.84588900  1
  Cu  Cu39  1  0.26796500  0.52406400  0.34588900  1
  Cu  Cu40  1  0.23203500  0.52406400  0.84588900  1
  Cu  Cu41  1  0.26796500  0.97593600  0.34588900  1
  Cu  Cu42  1  0.76796500  0.02406400  0.15411100  1
  Cu  Cu43  1  0.73203500  0.47593600  0.65411100  1
  Cu  Cu44  1  0.45797400  0.75000000  0.00560000  1
  Cu  Cu45  1  0.04202600  0.75000000  0.50560000  1
  Cu  Cu46  1  0.54202600  0.25000000  0.99440000  1
  Cu  Cu47  1  0.95797400  0.25000000  0.49440000  1
  Cu  Cu48  1  0.25521900  0.75000000  0.20401800  1
  Cu  Cu49  1  0.24478100  0.75000000  0.70401800  1
  Cu  Cu50  1  0.74478100  0.25000000  0.79598200  1
  Cu  Cu51  1  0.75521900  0.25000000  0.29598200  1
