# generated using pymatgen
data_Cu12Ni2C5
_symmetry_space_group_name_H-M   'P 1'
_cell_length_a   5.98143600
_cell_length_b   10.77975500
_cell_length_c   20.11668300
_cell_angle_alpha   90.00000000
_cell_angle_beta   90.00000000
_cell_angle_gamma   90.00000000
_symmetry_Int_Tables_number   1
_chemical_formula_structural   Cu12Ni2C5
_chemical_formula_sum   'Cu48 Ni8 C20'
_cell_volume   1297.09182742
_cell_formula_units_Z   4
loop_
 _symmetry_equiv_pos_site_id
 _symmetry_equiv_pos_as_xyz
  1  'x, y, z'
loop_
 _atom_site_type_symbol
 _atom_site_label
 _atom_site_symmetry_multiplicity
 _atom_site_fract_x
 _atom_site_fract_y
 _atom_site_fract_z
 _atom_site_occupancy
  C  C0  1  0.25000000  0.41237300  0.54791700  1
  C  C1  1  0.25000000  0.08762700  0.04791700  1
  C  C2  1  0.75000000  0.58762700  0.45208300  1
  C  C3  1  0.75000000  0.91237300  0.95208300  1
  C  C4  1  0.25000000  0.11758900  0.64176800  1
  C  C5  1  0.25000000  0.38241100  0.14176800  1
  C  C6  1  0.75000000  0.88241100  0.35823200  1
  C  C7  1  0.75000000  0.61758900  0.85823200  1
  C  C8  1  0.25000000  0.76193600  0.69793500  1
  C  C9  1  0.25000000  0.73806400  0.19793500  1
  C  C10  1  0.75000000  0.23806400  0.30206500  1
  C  C11  1  0.75000000  0.26193600  0.80206500  1
  C  C12  1  0.25000000  0.02161600  0.84186400  1
  C  C13  1  0.25000000  0.47838400  0.34186400  1
  C  C14  1  0.75000000  0.97838400  0.15813600  1
  C  C15  1  0.75000000  0.52161600  0.65813600  1
  C  C16  1  0.25000000  0.40643400  0.92939000  1
  C  C17  1  0.25000000  0.09356600  0.42939000  1
  C  C18  1  0.75000000  0.59356600  0.07061000  1
  C  C19  1  0.75000000  0.90643400  0.57061000  1
  Ni  Ni20  1  0.25000000  0.75063900  0.51134200  1
  Ni  Ni21  1  0.25000000  0.74936100  0.01134200  1
  Ni  Ni22  1  0.75000000  0.24936100  0.48865800  1
  Ni  Ni23  1  0.75000000  0.25063900  0.98865800  1
  Ni  Ni24  1  0.25000000  0.39696300  0.74018300  1
  Ni  Ni25  1  0.25000000  0.10303700  0.24018300  1
  Ni  Ni26  1  0.75000000  0.60303700  0.25981700  1
  Ni  Ni27  1  0.75000000  0.89696300  0.75981700  1
  Cu  Cu28  1  0.52149000  0.16968700  0.53958900  1
  Cu  Cu29  1  0.97851000  0.33031300  0.03958900  1
  Cu  Cu30  1  0.02149000  0.83031300  0.46041100  1
  Cu  Cu31  1  0.47851000  0.66968700  0.96041100  1
  Cu  Cu32  1  0.47851000  0.83031300  0.46041100  1
  Cu  Cu33  1  0.02149000  0.66968700  0.96041100  1
  Cu  Cu34  1  0.97851000  0.16968700  0.53958900  1
  Cu  Cu35  1  0.52149000  0.33031300  0.03958900  1
  Cu  Cu36  1  0.02277400  0.31596700  0.68968100  1
  Cu  Cu37  1  0.47722600  0.18403300  0.18968100  1
  Cu  Cu38  1  0.52277400  0.68403300  0.31031900  1
  Cu  Cu39  1  0.97722600  0.81596700  0.81031900  1
  Cu  Cu40  1  0.97722600  0.68403300  0.31031900  1
  Cu  Cu41  1  0.52277400  0.81596700  0.81031900  1
  Cu  Cu42  1  0.47722600  0.31596700  0.68968100  1
  Cu  Cu43  1  0.02277400  0.18403300  0.18968100  1
  Cu  Cu44  1  0.02287500  0.47840200  0.79026100  1
  Cu  Cu45  1  0.47712500  0.02159800  0.29026100  1
  Cu  Cu46  1  0.52287500  0.52159800  0.20973900  1
  Cu  Cu47  1  0.97712500  0.97840200  0.70973900  1
  Cu  Cu48  1  0.97712500  0.52159800  0.20973900  1
  Cu  Cu49  1  0.52287500  0.97840200  0.70973900  1
  Cu  Cu50  1  0.47712500  0.47840200  0.79026100  1
  Cu  Cu51  1  0.02287500  0.02159800  0.29026100  1
  Cu  Cu52  1  0.51799500  0.17261000  0.93747500  1
  Cu  Cu53  1  0.98200500  0.32739000  0.43747500  1
  Cu  Cu54  1  0.01799500  0.82739000  0.06252500  1
  Cu  Cu55  1  0.48200500  0.67261000  0.56252500  1
  Cu  Cu56  1  0.48200500  0.82739000  0.06252500  1
  Cu  Cu57  1  0.01799500  0.67261000  0.56252500  1
  Cu  Cu58  1  0.98200500  0.17261000  0.93747500  1
  Cu  Cu59  1  0.51799500  0.32739000  0.43747500  1
  Cu  Cu60  1  0.25000000  0.88888300  0.57231700  1
  Cu  Cu61  1  0.25000000  0.61111700  0.07231700  1
  Cu  Cu62  1  0.75000000  0.11111700  0.42768300  1
  Cu  Cu63  1  0.75000000  0.38888300  0.92768300  1
  Cu  Cu64  1  0.25000000  0.26343900  0.80361200  1
  Cu  Cu65  1  0.25000000  0.23656100  0.30361200  1
  Cu  Cu66  1  0.75000000  0.73656100  0.19638800  1
  Cu  Cu67  1  0.75000000  0.76343900  0.69638800  1
  Cu  Cu68  1  0.25000000  0.89572900  0.95532100  1
  Cu  Cu69  1  0.25000000  0.60427100  0.45532100  1
  Cu  Cu70  1  0.75000000  0.10427100  0.04467900  1
  Cu  Cu71  1  0.75000000  0.39572900  0.54467900  1
  Cu  Cu72  1  0.25000000  0.97541800  0.17479900  1
  Cu  Cu73  1  0.25000000  0.52458200  0.67479900  1
  Cu  Cu74  1  0.75000000  0.02458200  0.82520100  1
  Cu  Cu75  1  0.75000000  0.47541800  0.32520100  1
