# generated using pymatgen
data_Cu14Ni6C5
_symmetry_space_group_name_H-M   'P 1'
_cell_length_a   7.34538800
_cell_length_b   9.77794200
_cell_length_c   12.11477094
_cell_angle_alpha   79.02164750
_cell_angle_beta   90.00000000
_cell_angle_gamma   90.00000000
_symmetry_Int_Tables_number   1
_chemical_formula_structural   Cu14Ni6C5
_chemical_formula_sum   'Cu28 Ni12 C10'
_cell_volume   854.19267794
_cell_formula_units_Z   2
loop_
 _symmetry_equiv_pos_site_id
 _symmetry_equiv_pos_as_xyz
  1  'x, y, z'
loop_
 _atom_site_type_symbol
 _atom_site_label
 _atom_site_symmetry_multiplicity
 _atom_site_fract_x
 _atom_site_fract_y
 _atom_site_fract_z
 _atom_site_occupancy
  C  C0  1  0.50000000  0.00000000  0.50000000  1
  C  C1  1  0.00000000  0.00000000  0.00000000  1
  C  C2  1  0.44779000  0.36096800  0.76604400  1
  C  C3  1  0.55221000  0.63903200  0.23395600  1
  C  C4  1  0.94779000  0.63903200  0.73395600  1
  C  C5  1  0.05221000  0.36096800  0.26604400  1
  C  C6  1  0.43187800  0.75619800  0.87897300  1
  C  C7  1  0.56812200  0.24380200  0.12102700  1
  C  C8  1  0.93187800  0.24380200  0.62102700  1
  C  C9  1  0.06812200  0.75619800  0.37897300  1
  Ni  Ni10  1  0.29800700  0.33617100  0.83160500  1
  Ni  Ni11  1  0.70199300  0.66382900  0.16839500  1
  Ni  Ni12  1  0.79800700  0.66382900  0.66839500  1
  Ni  Ni13  1  0.20199300  0.33617100  0.33160500  1
  Ni  Ni14  1  0.11042300  0.62142200  0.68633500  1
  Ni  Ni15  1  0.88957700  0.37857800  0.31366500  1
  Ni  Ni16  1  0.61042300  0.37857800  0.81366500  1
  Ni  Ni17  1  0.38957700  0.62142200  0.18633500  1
  Ni  Ni18  1  0.43530600  0.36982300  0.65290900  1
  Ni  Ni19  1  0.56469400  0.63017700  0.34709100  1
  Ni  Ni20  1  0.93530600  0.63017700  0.84709100  1
  Ni  Ni21  1  0.06469400  0.36982300  0.15290900  1
  Cu  Cu22  1  0.37043800  0.91124500  0.84531200  1
  Cu  Cu23  1  0.62956200  0.08875500  0.15468800  1
  Cu  Cu24  1  0.87043800  0.08875500  0.65468800  1
  Cu  Cu25  1  0.12956200  0.91124500  0.34531200  1
  Cu  Cu26  1  0.28703400  0.67344900  0.95113400  1
  Cu  Cu27  1  0.71296600  0.32655100  0.04886600  1
  Cu  Cu28  1  0.78703400  0.32655100  0.54886600  1
  Cu  Cu29  1  0.21296600  0.67344900  0.45113400  1
  Cu  Cu30  1  0.08679100  0.93904000  0.85290100  1
  Cu  Cu31  1  0.91320900  0.06096000  0.14709900  1
  Cu  Cu32  1  0.58679100  0.06096000  0.64709900  1
  Cu  Cu33  1  0.41320900  0.93904000  0.35290100  1
  Cu  Cu34  1  0.43747300  0.69854700  0.77488600  1
  Cu  Cu35  1  0.56252700  0.30145300  0.22511400  1
  Cu  Cu36  1  0.93747300  0.30145300  0.72511400  1
  Cu  Cu37  1  0.06252700  0.69854700  0.27488600  1
  Cu  Cu38  1  0.10699700  0.24508800  0.56540800  1
  Cu  Cu39  1  0.89300300  0.75491200  0.43459200  1
  Cu  Cu40  1  0.60699700  0.75491200  0.93459200  1
  Cu  Cu41  1  0.39300300  0.24508800  0.06540800  1
  Cu  Cu42  1  0.72412100  0.02514500  0.00588000  1
  Cu  Cu43  1  0.27587900  0.97485500  0.99412000  1
  Cu  Cu44  1  0.22412100  0.97485500  0.49412000  1
  Cu  Cu45  1  0.77587900  0.02514500  0.50588000  1
  Cu  Cu46  1  0.39942500  0.79126600  0.51382500  1
  Cu  Cu47  1  0.60057500  0.20873400  0.48617500  1
  Cu  Cu48  1  0.89942500  0.20873400  0.98617500  1
  Cu  Cu49  1  0.10057500  0.79126600  0.01382500  1
