# generated using pymatgen
data_Cu3NiC
_symmetry_space_group_name_H-M   'P 1'
_cell_length_a   6.94782100
_cell_length_b   7.30039900
_cell_length_c   8.62092400
_cell_angle_alpha   90.00000000
_cell_angle_beta   90.00000000
_cell_angle_gamma   90.00000000
_symmetry_Int_Tables_number   1
_chemical_formula_structural   Cu3NiC
_chemical_formula_sum   'Cu12 Ni4 C4'
_cell_volume   437.26934745
_cell_formula_units_Z   4
loop_
 _symmetry_equiv_pos_site_id
 _symmetry_equiv_pos_as_xyz
  1  'x, y, z'
loop_
 _atom_site_type_symbol
 _atom_site_label
 _atom_site_symmetry_multiplicity
 _atom_site_fract_x
 _atom_site_fract_y
 _atom_site_fract_z
 _atom_site_occupancy
  C  C0  1  0.50000000  0.00000000  0.00000000  1
  C  C1  1  0.00000000  0.50000000  0.50000000  1
  C  C2  1  0.50000000  0.00000000  0.50000000  1
  C  C3  1  0.00000000  0.50000000  0.00000000  1
  Ni  Ni4  1  0.43404100  0.41676900  0.25000000  1
  Ni  Ni5  1  0.93404100  0.08323100  0.25000000  1
  Ni  Ni6  1  0.56595900  0.58323100  0.75000000  1
  Ni  Ni7  1  0.06595900  0.91676900  0.75000000  1
  Cu  Cu8  1  0.94834100  0.61865100  0.25000000  1
  Cu  Cu9  1  0.44834100  0.88134900  0.25000000  1
  Cu  Cu10  1  0.05165900  0.38134900  0.75000000  1
  Cu  Cu11  1  0.55165900  0.11865100  0.75000000  1
  Cu  Cu12  1  0.17512100  0.82603800  0.91705900  1
  Cu  Cu13  1  0.67512100  0.67396200  0.58294100  1
  Cu  Cu14  1  0.82487900  0.17396200  0.41705900  1
  Cu  Cu15  1  0.32487900  0.32603800  0.08294100  1
  Cu  Cu16  1  0.82487900  0.17396200  0.08294100  1
  Cu  Cu17  1  0.32487900  0.32603800  0.41705900  1
  Cu  Cu18  1  0.17512100  0.82603800  0.58294100  1
  Cu  Cu19  1  0.67512100  0.67396200  0.91705900  1
