# generated using pymatgen
data_Cu11Ni9
_symmetry_space_group_name_H-M   'P 1'
_cell_length_a   4.39904300
_cell_length_b   7.53028800
_cell_length_c   10.40321756
_cell_angle_alpha   89.39468633
_cell_angle_beta   90.00000000
_cell_angle_gamma   90.00000000
_symmetry_Int_Tables_number   1
_chemical_formula_structural   Cu11Ni9
_chemical_formula_sum   'Cu11 Ni9'
_cell_volume   344.59838485
_cell_formula_units_Z   1
loop_
 _symmetry_equiv_pos_site_id
 _symmetry_equiv_pos_as_xyz
  1  'x, y, z'
loop_
 _atom_site_type_symbol
 _atom_site_label
 _atom_site_symmetry_multiplicity
 _atom_site_fract_x
 _atom_site_fract_y
 _atom_site_fract_z
 _atom_site_occupancy
  Ni  Ni0  1  0.00000000  0.69397100  0.85940400  1
  Ni  Ni1  1  0.00000000  0.30602900  0.14059600  1
  Ni  Ni2  1  0.50000000  0.19819600  0.34199300  1
  Ni  Ni3  1  0.50000000  0.80180400  0.65800700  1
  Ni  Ni4  1  0.00000000  0.38506400  0.62331000  1
  Ni  Ni5  1  0.00000000  0.61493600  0.37669000  1
  Ni  Ni6  1  0.50000000  0.85941000  0.11173400  1
  Ni  Ni7  1  0.50000000  0.14059000  0.88826600  1
  Ni  Ni8  1  0.00000000  0.00000000  0.50000000  1
  Cu  Cu9  1  0.00000000  0.00000000  0.00000000  1
  Cu  Cu10  1  0.50000000  0.50000000  0.50000000  1
  Cu  Cu11  1  0.00000000  0.02975700  0.75076900  1
  Cu  Cu12  1  0.00000000  0.97024300  0.24923100  1
  Cu  Cu13  1  0.50000000  0.52684500  0.23701600  1
  Cu  Cu14  1  0.50000000  0.47315500  0.76298400  1
  Cu  Cu15  1  0.00000000  0.34182200  0.88494300  1
  Cu  Cu16  1  0.00000000  0.65817800  0.11505700  1
  Cu  Cu17  1  0.50000000  0.82685300  0.38028000  1
  Cu  Cu18  1  0.50000000  0.17314700  0.61972000  1
  Cu  Cu19  1  0.50000000  0.50000000  0.00000000  1
