# generated using pymatgen
data_CuNiC2
_symmetry_space_group_name_H-M   'P 1'
_cell_length_a   3.46017800
_cell_length_b   5.33246606
_cell_length_c   14.83227064
_cell_angle_alpha   22.00191423
_cell_angle_beta   89.99996914
_cell_angle_gamma   71.06823031
_symmetry_Int_Tables_number   1
_chemical_formula_structural   CuNiC2
_chemical_formula_sum   'Cu1 Ni1 C2'
_cell_volume   51.26634451
_cell_formula_units_Z   1
loop_
 _symmetry_equiv_pos_site_id
 _symmetry_equiv_pos_as_xyz
  1  'x, y, z'
loop_
 _atom_site_type_symbol
 _atom_site_label
 _atom_site_symmetry_multiplicity
 _atom_site_fract_x
 _atom_site_fract_y
 _atom_site_fract_z
 _atom_site_occupancy
  Ni  Ni0  1  0.00000000  0.99996700  0.00000300  1
  Cu  Cu1  1  0.00000000  0.99998100  0.49999800  1
  C  C2  1  0.99999900  0.99997800  0.40954900  1
  C  C3  1  0.00000200  0.99997300  0.59045000  1
