# generated using pymatgen
data_Cu3Ni3C28
_symmetry_space_group_name_H-M   'P 1'
_cell_length_a   5.97827300
_cell_length_b   5.97919802
_cell_length_c   9.86172562
_cell_angle_alpha   90.00563223
_cell_angle_beta   90.22411220
_cell_angle_gamma   119.73624043
_symmetry_Int_Tables_number   1
_chemical_formula_structural   Cu3Ni3C28
_chemical_formula_sum   'Cu3 Ni3 C28'
_cell_volume   306.08768559
_cell_formula_units_Z   1
loop_
 _symmetry_equiv_pos_site_id
 _symmetry_equiv_pos_as_xyz
  1  'x, y, z'
loop_
 _atom_site_type_symbol
 _atom_site_label
 _atom_site_symmetry_multiplicity
 _atom_site_fract_x
 _atom_site_fract_y
 _atom_site_fract_z
 _atom_site_occupancy
  C  C0  1  0.79211900  0.18442600  0.94043000  1
  C  C1  1  0.98730300  0.98320900  0.01544300  1
  C  C2  1  0.98253700  0.98757800  0.51478200  1
  C  C3  1  0.78666100  0.59141500  0.94242200  1
  C  C4  1  0.64912100  0.32416700  0.71546100  1
  C  C5  1  0.38121500  0.18949500  0.94084300  1
  C  C6  1  0.19019300  0.38096200  0.44033800  1
  C  C7  1  0.32396500  0.64882700  0.21573200  1
  C  C8  1  0.59200200  0.78366200  0.44169600  1
  C  C9  1  0.18607100  0.79145900  0.43950600  1
  Ni  Ni10  1  0.82084200  0.15144800  0.21470600  1
  Ni  Ni11  1  0.82059100  0.64704400  0.21483100  1
  Ni  Ni12  1  0.64691500  0.82098800  0.71490600  1
  Cu  Cu13  1  0.32664600  0.15178800  0.21486900  1
  Cu  Cu14  1  0.15204800  0.32668400  0.71479600  1
  Cu  Cu15  1  0.15188900  0.82052800  0.71516200  1
  C  C16  1  0.65553800  0.31877700  0.46992600  1
  C  C17  1  0.31936500  0.65511700  0.97074000  1
  C  C18  1  0.82013700  0.14881000  0.59839000  1
  C  C19  1  0.97098500  0.47431700  0.33303000  1
  C  C20  1  0.65706100  0.31837100  0.09853400  1
  C  C21  1  0.49926100  0.00081400  0.33301100  1
  C  C22  1  0.98705200  0.98192200  0.32550700  1
  C  C23  1  0.98090800  0.98862200  0.82665000  1
  C  C24  1  0.81985100  0.66553800  0.59761100  1
  C  C25  1  0.49822500  0.47654000  0.33247900  1
  C  C26  1  0.66571300  0.82217300  0.09834500  1
  C  C27  1  0.30645400  0.15030700  0.59591900  1
  C  C28  1  0.47702200  0.49859900  0.83321700  1
  C  C29  1  0.47568900  0.97188400  0.83385900  1
  C  C30  1  0.31927900  0.65615600  0.59690400  1
  C  C31  1  0.14890400  0.30634700  0.09710800  1
  C  C32  1  0.00063800  0.49766400  0.83377600  1
  C  C33  1  0.14822600  0.81987100  0.09804300  1
