# generated using pymatgen
data_Cu2Ni10C
_symmetry_space_group_name_H-M   'P 1'
_cell_length_a   8.22148655
_cell_length_b   6.31792408
_cell_length_c   6.24942029
_cell_angle_alpha   81.71522124
_cell_angle_beta   49.50347111
_cell_angle_gamma   48.78130765
_symmetry_Int_Tables_number   1
_chemical_formula_structural   Cu2Ni10C
_chemical_formula_sum   'Cu2 Ni10 C1'
_cell_volume   161.21092151
_cell_formula_units_Z   1
loop_
 _symmetry_equiv_pos_site_id
 _symmetry_equiv_pos_as_xyz
  1  'x, y, z'
loop_
 _atom_site_type_symbol
 _atom_site_label
 _atom_site_symmetry_multiplicity
 _atom_site_fract_x
 _atom_site_fract_y
 _atom_site_fract_z
 _atom_site_occupancy
  C  C0  1  0.00000000  0.00000000  0.00000000  1
  Ni  Ni1  1  0.00311500  0.64163800  0.35836200  1
  Ni  Ni2  1  0.99688500  0.35836200  0.64163800  1
  Ni  Ni3  1  0.64163800  0.00311500  0.99688500  1
  Ni  Ni4  1  0.35836200  0.99688500  0.00311500  1
  Ni  Ni5  1  0.50000000  0.00000000  0.50000000  1
  Ni  Ni6  1  0.00000000  0.50000000  0.00000000  1
  Ni  Ni7  1  0.49894400  0.71933200  0.28066800  1
  Ni  Ni8  1  0.50105600  0.28066800  0.71933200  1
  Ni  Ni9  1  0.71933200  0.49894400  0.50105600  1
  Ni  Ni10  1  0.28066800  0.50105600  0.49894400  1
  Cu  Cu11  1  0.00000000  0.00000000  0.50000000  1
  Cu  Cu12  1  0.50000000  0.50000000  0.00000000  1
