# generated using pymatgen
data_Cu2NiC8
_symmetry_space_group_name_H-M   'P 1'
_cell_length_a   4.57828400
_cell_length_b   8.47498744
_cell_length_c   18.50149200
_cell_angle_alpha   90.00000000
_cell_angle_beta   90.00000000
_cell_angle_gamma   105.67055380
_symmetry_Int_Tables_number   1
_chemical_formula_structural   Cu2NiC8
_chemical_formula_sum   'Cu4 Ni2 C16'
_cell_volume   691.19162845
_cell_formula_units_Z   2
loop_
 _symmetry_equiv_pos_site_id
 _symmetry_equiv_pos_as_xyz
  1  'x, y, z'
loop_
 _atom_site_type_symbol
 _atom_site_label
 _atom_site_symmetry_multiplicity
 _atom_site_fract_x
 _atom_site_fract_y
 _atom_site_fract_z
 _atom_site_occupancy
  Ni  Ni0  1  0.44252000  0.88504000  0.25000000  1
  Ni  Ni1  1  0.55748000  0.11496000  0.75000000  1
  Cu  Cu2  1  0.30891500  0.61783000  0.90542700  1
  Cu  Cu3  1  0.69108500  0.38217000  0.09457300  1
  Cu  Cu4  1  0.30891500  0.61783000  0.59457300  1
  Cu  Cu5  1  0.69108500  0.38217000  0.40542700  1
  C  C6  1  0.16376400  0.32752800  0.25000000  1
  C  C7  1  0.83623600  0.67247200  0.75000000  1
  C  C8  1  0.91577000  0.83154000  0.46808100  1
  C  C9  1  0.08423000  0.16846000  0.53191900  1
  C  C10  1  0.91577000  0.83154000  0.03191900  1
  C  C11  1  0.08423000  0.16846000  0.96808100  1
  C  C12  1  0.93695800  0.87391600  0.87867600  1
  C  C13  1  0.06304200  0.12608400  0.12132400  1
  C  C14  1  0.93695800  0.87391600  0.62132400  1
  C  C15  1  0.06304200  0.12608400  0.37867600  1
  C  C16  1  0.67679500  0.35359000  0.92796500  1
  C  C17  1  0.32320500  0.64641000  0.07203500  1
  C  C18  1  0.67679500  0.35359000  0.57203500  1
  C  C19  1  0.32320500  0.64641000  0.42796500  1
  C  C20  1  0.76070300  0.52140500  0.25000000  1
  C  C21  1  0.23929700  0.47859500  0.75000000  1
