# generated using pymatgen
data_Cu2(Ni2C3)3
_symmetry_space_group_name_H-M   'P 1'
_cell_length_a   8.56332000
_cell_length_b   11.26917500
_cell_length_c   20.36917900
_cell_angle_alpha   90.00000000
_cell_angle_beta   90.00000000
_cell_angle_gamma   90.00000000
_symmetry_Int_Tables_number   1
_chemical_formula_structural   Cu2(Ni2C3)3
_chemical_formula_sum   'Cu8 Ni24 C36'
_cell_volume   1965.65737956
_cell_formula_units_Z   4
loop_
 _symmetry_equiv_pos_site_id
 _symmetry_equiv_pos_as_xyz
  1  'x, y, z'
loop_
 _atom_site_type_symbol
 _atom_site_label
 _atom_site_symmetry_multiplicity
 _atom_site_fract_x
 _atom_site_fract_y
 _atom_site_fract_z
 _atom_site_occupancy
  C  C0  1  0.22403300  0.00000000  0.25000000  1
  C  C1  1  0.27596700  0.50000000  0.75000000  1
  C  C2  1  0.77596700  0.00000000  0.75000000  1
  C  C3  1  0.72403300  0.50000000  0.25000000  1
  C  C4  1  0.26518500  0.68816700  0.27377800  1
  C  C5  1  0.23481500  0.81183300  0.77377800  1
  C  C6  1  0.23481500  0.18816700  0.72622200  1
  C  C7  1  0.26518500  0.31183300  0.22622200  1
  C  C8  1  0.73481500  0.31183300  0.72622200  1
  C  C9  1  0.76518500  0.18816700  0.22622200  1
  C  C10  1  0.76518500  0.81183300  0.27377800  1
  C  C11  1  0.73481500  0.68816700  0.77377800  1
  C  C12  1  0.04047600  0.67097900  0.49755500  1
  C  C13  1  0.45952400  0.82902100  0.99755500  1
  C  C14  1  0.45952400  0.17097900  0.50244500  1
  C  C15  1  0.04047600  0.32902100  0.00244500  1
  C  C16  1  0.95952400  0.32902100  0.50244500  1
  C  C17  1  0.54047600  0.17097900  0.00244500  1
  C  C18  1  0.54047600  0.82902100  0.49755500  1
  C  C19  1  0.95952400  0.67097900  0.99755500  1
  C  C20  1  0.08423600  0.83978800  0.46479000  1
  C  C21  1  0.41576400  0.66021200  0.96479000  1
  C  C22  1  0.41576400  0.33978800  0.53521000  1
  C  C23  1  0.08423600  0.16021200  0.03521000  1
  C  C24  1  0.91576400  0.16021200  0.53521000  1
  C  C25  1  0.58423600  0.33978800  0.03521000  1
  C  C26  1  0.58423600  0.66021200  0.46479000  1
  C  C27  1  0.91576400  0.83978800  0.96479000  1
  C  C28  1  0.14304300  0.95129400  0.42554500  1
  C  C29  1  0.35695700  0.54870600  0.92554500  1
  C  C30  1  0.35695700  0.45129400  0.57445500  1
  C  C31  1  0.14304300  0.04870600  0.07445500  1
  C  C32  1  0.85695700  0.04870600  0.57445500  1
  C  C33  1  0.64304300  0.45129400  0.07445500  1
  C  C34  1  0.64304300  0.54870600  0.42554500  1
  C  C35  1  0.85695700  0.95129400  0.92554500  1
  Ni  Ni36  1  0.12379300  0.51476000  0.38804200  1
  Ni  Ni37  1  0.37620700  0.98524000  0.88804200  1
  Ni  Ni38  1  0.37620700  0.01476000  0.61195800  1
  Ni  Ni39  1  0.12379300  0.48524000  0.11195800  1
  Ni  Ni40  1  0.87620700  0.48524000  0.61195800  1
  Ni  Ni41  1  0.62379300  0.01476000  0.11195800  1
  Ni  Ni42  1  0.62379300  0.98524000  0.38804200  1
  Ni  Ni43  1  0.87620700  0.51476000  0.88804200  1
  Ni  Ni44  1  0.15875400  0.59691800  0.36145000  1
  Ni  Ni45  1  0.34124600  0.90308200  0.86145000  1
  Ni  Ni46  1  0.34124600  0.09691800  0.63855000  1
  Ni  Ni47  1  0.15875400  0.40308200  0.13855000  1
  Ni  Ni48  1  0.84124600  0.40308200  0.63855000  1
  Ni  Ni49  1  0.65875400  0.09691800  0.13855000  1
  Ni  Ni50  1  0.65875400  0.90308200  0.36145000  1
  Ni  Ni51  1  0.84124600  0.59691800  0.86145000  1
  Ni  Ni52  1  0.02964800  0.76039400  0.49739200  1
  Ni  Ni53  1  0.47035200  0.73960600  0.99739200  1
  Ni  Ni54  1  0.47035200  0.26039400  0.50260800  1
  Ni  Ni55  1  0.02964800  0.23960600  0.00260800  1
  Ni  Ni56  1  0.97035200  0.23960600  0.50260800  1
  Ni  Ni57  1  0.52964800  0.26039400  0.00260800  1
  Ni  Ni58  1  0.52964800  0.73960600  0.49739200  1
  Ni  Ni59  1  0.97035200  0.76039400  0.99739200  1
  Cu  Cu60  1  0.84821100  0.19493400  0.27890500  1
  Cu  Cu61  1  0.65178900  0.30506600  0.77890500  1
  Cu  Cu62  1  0.65178900  0.69493400  0.72109500  1
  Cu  Cu63  1  0.84821100  0.80506600  0.22109500  1
  Cu  Cu64  1  0.15178900  0.80506600  0.72109500  1
  Cu  Cu65  1  0.34821100  0.69493400  0.22109500  1
  Cu  Cu66  1  0.34821100  0.30506600  0.27890500  1
  Cu  Cu67  1  0.15178900  0.19493400  0.77890500  1
