# generated using pymatgen
data_Cu3NiC
_symmetry_space_group_name_H-M   'P 1'
_cell_length_a   3.92277100
_cell_length_b   5.82118579
_cell_length_c   5.82118579
_cell_angle_alpha   91.80996881
_cell_angle_beta   90.00000000
_cell_angle_gamma   90.00000000
_symmetry_Int_Tables_number   1
_chemical_formula_structural   Cu3NiC
_chemical_formula_sum   'Cu3 Ni1 C1'
_cell_volume   132.86149795
_cell_formula_units_Z   1
loop_
 _symmetry_equiv_pos_site_id
 _symmetry_equiv_pos_as_xyz
  1  'x, y, z'
loop_
 _atom_site_type_symbol
 _atom_site_label
 _atom_site_symmetry_multiplicity
 _atom_site_fract_x
 _atom_site_fract_y
 _atom_site_fract_z
 _atom_site_occupancy
  C  C0  1  0.00000000  0.29712500  0.70287500  1
  Ni  Ni1  1  0.50000000  0.89057200  0.10942800  1
  Cu  Cu2  1  0.50000000  0.54925800  0.45074200  1
  Cu  Cu3  1  0.50000000  0.91728500  0.67423900  1
  Cu  Cu4  1  0.50000000  0.32576100  0.08271500  1
