# generated using pymatgen
data_CuNiC
_symmetry_space_group_name_H-M   'P 1'
_cell_length_a   9.29818984
_cell_length_b   9.29818984
_cell_length_c   9.29818984
_cell_angle_alpha   155.11857747
_cell_angle_beta   155.11857747
_cell_angle_gamma   35.47577554
_symmetry_Int_Tables_number   1
_chemical_formula_structural   CuNiC
_chemical_formula_sum   'Cu2 Ni2 C2'
_cell_volume   142.13838560
_cell_formula_units_Z   2
loop_
 _symmetry_equiv_pos_site_id
 _symmetry_equiv_pos_as_xyz
  1  'x, y, z'
loop_
 _atom_site_type_symbol
 _atom_site_label
 _atom_site_symmetry_multiplicity
 _atom_site_fract_x
 _atom_site_fract_y
 _atom_site_fract_z
 _atom_site_occupancy
  C  C0  1  0.87089700  0.87089700  0.00000000  1
  C  C1  1  0.12910300  0.12910300  0.00000000  1
  Ni  Ni2  1  0.00000000  0.50000000  0.50000000  1
  Ni  Ni3  1  0.50000000  0.00000000  0.50000000  1
  Cu  Cu4  1  0.68784500  0.68784500  0.00000000  1
  Cu  Cu5  1  0.31215500  0.31215500  0.00000000  1
