# generated using pymatgen
data_Cu4Ni5C4
_symmetry_space_group_name_H-M   'P 1'
_cell_length_a   7.61527235
_cell_length_b   7.61527235
_cell_length_c   7.61527235
_cell_angle_alpha   93.28350677
_cell_angle_beta   93.28350677
_cell_angle_gamma   152.30654485
_symmetry_Int_Tables_number   1
_chemical_formula_structural   Cu4Ni5C4
_chemical_formula_sum   'Cu4 Ni5 C4'
_cell_volume   199.27799857
_cell_formula_units_Z   1
loop_
 _symmetry_equiv_pos_site_id
 _symmetry_equiv_pos_as_xyz
  1  'x, y, z'
loop_
 _atom_site_type_symbol
 _atom_site_label
 _atom_site_symmetry_multiplicity
 _atom_site_fract_x
 _atom_site_fract_y
 _atom_site_fract_z
 _atom_site_occupancy
  Ni  Ni0  1  0.68735200  0.62266600  0.31001800  1
  Ni  Ni1  1  0.31264800  0.37733400  0.68998200  1
  Ni  Ni2  1  0.00000000  0.00000000  0.00000000  1
  Ni  Ni3  1  0.62266600  0.31264800  0.93531400  1
  Ni  Ni4  1  0.37733400  0.68735200  0.06468600  1
  C  C5  1  0.75700000  0.05909400  0.81609400  1
  C  C6  1  0.24300000  0.94090600  0.18390600  1
  C  C7  1  0.94090600  0.75700000  0.69790500  1
  C  C8  1  0.05909400  0.24300000  0.30209500  1
  Cu  Cu9  1  0.88434400  0.40442900  0.28877300  1
  Cu  Cu10  1  0.59557100  0.88434400  0.47991400  1
  Cu  Cu11  1  0.11565600  0.59557100  0.71122700  1
  Cu  Cu12  1  0.40442900  0.11565600  0.52008600  1
