# generated using pymatgen
data_Cu2NiC5
_symmetry_space_group_name_H-M   'P 1'
_cell_length_a   5.10521300
_cell_length_b   7.82009325
_cell_length_c   7.82009325
_cell_angle_alpha   83.88366174
_cell_angle_beta   70.94859607
_cell_angle_gamma   70.94859607
_symmetry_Int_Tables_number   1
_chemical_formula_structural   Cu2NiC5
_chemical_formula_sum   'Cu4 Ni2 C10'
_cell_volume   278.93893983
_cell_formula_units_Z   2
loop_
 _symmetry_equiv_pos_site_id
 _symmetry_equiv_pos_as_xyz
  1  'x, y, z'
loop_
 _atom_site_type_symbol
 _atom_site_label
 _atom_site_symmetry_multiplicity
 _atom_site_fract_x
 _atom_site_fract_y
 _atom_site_fract_z
 _atom_site_occupancy
  C  C0  1  0.25000000  0.50000000  0.50000000  1
  C  C1  1  0.75000000  0.50000000  0.50000000  1
  C  C2  1  0.07250900  0.13587600  0.71910700  1
  C  C3  1  0.92749100  0.86412400  0.28089300  1
  C  C4  1  0.79161600  0.28089300  0.13587600  1
  C  C5  1  0.42749100  0.28089300  0.86412400  1
  C  C6  1  0.20838400  0.71910700  0.86412400  1
  C  C7  1  0.57250900  0.71910700  0.13587600  1
  C  C8  1  0.70838400  0.86412400  0.71910700  1
  C  C9  1  0.29161600  0.13587600  0.28089300  1
  Ni  Ni10  1  0.25000000  0.00000000  0.00000000  1
  Ni  Ni11  1  0.75000000  0.00000000  0.00000000  1
  Cu  Cu12  1  0.16429500  0.50000000  0.17140900  1
  Cu  Cu13  1  0.83570500  0.50000000  0.82859100  1
  Cu  Cu14  1  0.33570500  0.82859100  0.50000000  1
  Cu  Cu15  1  0.66429500  0.17140900  0.50000000  1
