# generated using pymatgen
data_Cu5Ni2C3
_symmetry_space_group_name_H-M   'P 1'
_cell_length_a   8.64673700
_cell_length_b   11.68171400
_cell_length_c   13.87606900
_cell_angle_alpha   90.00000000
_cell_angle_beta   90.00000000
_cell_angle_gamma   90.00000000
_symmetry_Int_Tables_number   1
_chemical_formula_structural   Cu5Ni2C3
_chemical_formula_sum   'Cu40 Ni16 C24'
_cell_volume   1401.60381107
_cell_formula_units_Z   8
loop_
 _symmetry_equiv_pos_site_id
 _symmetry_equiv_pos_as_xyz
  1  'x, y, z'
loop_
 _atom_site_type_symbol
 _atom_site_label
 _atom_site_symmetry_multiplicity
 _atom_site_fract_x
 _atom_site_fract_y
 _atom_site_fract_z
 _atom_site_occupancy
  C  C0  1  0.59701900  0.58549100  0.59762900  1
  C  C1  1  0.40298100  0.91450900  0.09762900  1
  C  C2  1  0.90298100  0.08549100  0.40237100  1
  C  C3  1  0.09701900  0.41450900  0.90237100  1
  C  C4  1  0.40298100  0.41450900  0.40237100  1
  C  C5  1  0.59701900  0.08549100  0.90237100  1
  C  C6  1  0.09701900  0.91450900  0.59762900  1
  C  C7  1  0.90298100  0.58549100  0.09762900  1
  C  C8  1  0.83393600  0.73404800  0.82070800  1
  C  C9  1  0.16606400  0.76595200  0.32070800  1
  C  C10  1  0.66606400  0.23404800  0.17929200  1
  C  C11  1  0.33393600  0.26595200  0.67929200  1
  C  C12  1  0.16606400  0.26595200  0.17929200  1
  C  C13  1  0.83393600  0.23404800  0.67929200  1
  C  C14  1  0.33393600  0.76595200  0.82070800  1
  C  C15  1  0.66606400  0.73404800  0.32070800  1
  C  C16  1  0.59553600  0.95672400  0.63713400  1
  C  C17  1  0.40446400  0.54327600  0.13713400  1
  C  C18  1  0.90446400  0.45672400  0.36286600  1
  C  C19  1  0.09553600  0.04327600  0.86286600  1
  C  C20  1  0.40446400  0.04327600  0.36286600  1
  C  C21  1  0.59553600  0.45672400  0.86286600  1
  C  C22  1  0.09553600  0.54327600  0.63713400  1
  C  C23  1  0.90446400  0.95672400  0.13713400  1
  Ni  Ni24  1  0.52647700  0.94662500  0.48149400  1
  Ni  Ni25  1  0.47352300  0.55337500  0.98149400  1
  Ni  Ni26  1  0.97352300  0.44662500  0.51850600  1
  Ni  Ni27  1  0.02647700  0.05337500  0.01850600  1
  Ni  Ni28  1  0.47352300  0.05337500  0.51850600  1
  Ni  Ni29  1  0.52647700  0.44662500  0.01850600  1
  Ni  Ni30  1  0.02647700  0.55337500  0.48149400  1
  Ni  Ni31  1  0.97352300  0.94662500  0.98149400  1
  Ni  Ni32  1  0.88700600  0.79032300  0.46413700  1
  Ni  Ni33  1  0.11299400  0.70967700  0.96413700  1
  Ni  Ni34  1  0.61299400  0.29032300  0.53586300  1
  Ni  Ni35  1  0.38700600  0.20967700  0.03586300  1
  Ni  Ni36  1  0.11299400  0.20967700  0.53586300  1
  Ni  Ni37  1  0.88700600  0.29032300  0.03586300  1
  Ni  Ni38  1  0.38700600  0.70967700  0.46413700  1
  Ni  Ni39  1  0.61299400  0.79032300  0.96413700  1
  Cu  Cu40  1  0.68208500  0.80155100  0.60815800  1
  Cu  Cu41  1  0.31791500  0.69844900  0.10815800  1
  Cu  Cu42  1  0.81791500  0.30155100  0.39184200  1
  Cu  Cu43  1  0.18208500  0.19844900  0.89184200  1
  Cu  Cu44  1  0.31791500  0.19844900  0.39184200  1
  Cu  Cu45  1  0.68208500  0.30155100  0.89184200  1
  Cu  Cu46  1  0.18208500  0.69844900  0.60815800  1
  Cu  Cu47  1  0.81791500  0.80155100  0.10815800  1
  Cu  Cu48  1  0.06063800  0.39006300  0.70579000  1
  Cu  Cu49  1  0.93936200  0.10993700  0.20579000  1
  Cu  Cu50  1  0.43936200  0.89006300  0.29421000  1
  Cu  Cu51  1  0.56063800  0.60993700  0.79421000  1
  Cu  Cu52  1  0.93936200  0.60993700  0.29421000  1
  Cu  Cu53  1  0.06063800  0.89006300  0.79421000  1
  Cu  Cu54  1  0.56063800  0.10993700  0.70579000  1
  Cu  Cu55  1  0.43936200  0.39006300  0.20579000  1
  Cu  Cu56  1  0.65155200  0.40987300  0.72763300  1
  Cu  Cu57  1  0.34844800  0.09012700  0.22763300  1
  Cu  Cu58  1  0.84844800  0.90987300  0.27236700  1
  Cu  Cu59  1  0.15155200  0.59012700  0.77236700  1
  Cu  Cu60  1  0.34844800  0.59012700  0.27236700  1
  Cu  Cu61  1  0.65155200  0.90987300  0.77236700  1
  Cu  Cu62  1  0.15155200  0.09012700  0.72763300  1
  Cu  Cu63  1  0.84844800  0.40987300  0.22763300  1
  Cu  Cu64  1  0.29910900  0.47625100  0.59153400  1
  Cu  Cu65  1  0.70089100  0.02374900  0.09153400  1
  Cu  Cu66  1  0.20089100  0.97625100  0.40846600  1
  Cu  Cu67  1  0.79910900  0.52374900  0.90846600  1
  Cu  Cu68  1  0.70089100  0.52374900  0.40846600  1
  Cu  Cu69  1  0.29910900  0.97625100  0.90846600  1
  Cu  Cu70  1  0.79910900  0.02374900  0.59153400  1
  Cu  Cu71  1  0.20089100  0.47625100  0.09153400  1
  Cu  Cu72  1  0.88407700  0.59987600  0.66458400  1
  Cu  Cu73  1  0.11592300  0.90012400  0.16458400  1
  Cu  Cu74  1  0.61592300  0.09987600  0.33541600  1
  Cu  Cu75  1  0.38407700  0.40012400  0.83541600  1
  Cu  Cu76  1  0.11592300  0.40012400  0.33541600  1
  Cu  Cu77  1  0.88407700  0.09987600  0.83541600  1
  Cu  Cu78  1  0.38407700  0.90012400  0.66458400  1
  Cu  Cu79  1  0.61592300  0.59987600  0.16458400  1
