# generated using pymatgen
data_CuNiC15
_symmetry_space_group_name_H-M   'P 1'
_cell_length_a   8.88316544
_cell_length_b   8.88316541
_cell_length_c   8.88316581
_cell_angle_alpha   58.75043929
_cell_angle_beta   58.75044412
_cell_angle_gamma   58.75045219
_symmetry_Int_Tables_number   1
_chemical_formula_structural   CuNiC15
_chemical_formula_sum   'Cu2 Ni2 C30'
_cell_volume   481.51671407
_cell_formula_units_Z   2
loop_
 _symmetry_equiv_pos_site_id
 _symmetry_equiv_pos_as_xyz
  1  'x, y, z'
loop_
 _atom_site_type_symbol
 _atom_site_label
 _atom_site_symmetry_multiplicity
 _atom_site_fract_x
 _atom_site_fract_y
 _atom_site_fract_z
 _atom_site_occupancy
  Ni  Ni0  1  0.36073200  0.36073200  0.36073200  1
  Ni  Ni1  1  0.86073200  0.86073200  0.86073200  1
  Cu  Cu2  1  0.13981000  0.13981000  0.13981000  1
  Cu  Cu3  1  0.63981000  0.63981000  0.63981000  1
  C  C4  1  0.02953800  0.46522700  0.75327400  1
  C  C5  1  0.46522700  0.75327400  0.02953800  1
  C  C6  1  0.75327400  0.02953800  0.46522700  1
  C  C7  1  0.25327400  0.96522700  0.52953800  1
  C  C8  1  0.52953800  0.25327400  0.96522700  1
  C  C9  1  0.96522700  0.52953800  0.25327400  1
  C  C10  1  0.13688600  0.50212700  0.28217100  1
  C  C11  1  0.28217100  0.13688600  0.50212700  1
  C  C12  1  0.06153400  0.28757300  0.92233100  1
  C  C13  1  0.50212700  0.28217100  0.13688600  1
  C  C14  1  0.00212700  0.63688700  0.78217100  1
  C  C15  1  0.21127800  0.44186400  0.57910600  1
  C  C16  1  0.28757300  0.92233100  0.06153400  1
  C  C17  1  0.44186400  0.57910600  0.21127800  1
  C  C18  1  0.21505800  0.99907000  0.36416200  1
  C  C19  1  0.57910600  0.21127800  0.44186400  1
  C  C20  1  0.07910600  0.94186400  0.71127800  1
  C  C21  1  0.36416200  0.21505800  0.99907000  1
  C  C22  1  0.63688700  0.78217100  0.00212700  1
  C  C23  1  0.92233100  0.06153400  0.28757300  1
  C  C24  1  0.42233100  0.78757300  0.56153400  1
  C  C25  1  0.78217100  0.00212700  0.63688700  1
  C  C26  1  0.56153400  0.42233100  0.78757300  1
  C  C27  1  0.71127800  0.07910600  0.94186400  1
  C  C28  1  0.78757300  0.56153400  0.42233100  1
  C  C29  1  0.99907000  0.36416200  0.21505800  1
  C  C30  1  0.49907000  0.71505800  0.86416200  1
  C  C31  1  0.94186400  0.71127800  0.07910600  1
  C  C32  1  0.71505800  0.86416200  0.49907000  1
  C  C33  1  0.86416200  0.49907000  0.71505800  1
