# generated using pymatgen
data_Cu6Ni4C
_symmetry_space_group_name_H-M   'P 1'
_cell_length_a   3.81592000
_cell_length_b   7.29731820
_cell_length_c   7.29731820
_cell_angle_alpha   120.00000183
_cell_angle_beta   90.00000000
_cell_angle_gamma   90.00000000
_symmetry_Int_Tables_number   1
_chemical_formula_structural   Cu6Ni4C
_chemical_formula_sum   'Cu6 Ni4 C1'
_cell_volume   175.97722026
_cell_formula_units_Z   1
loop_
 _symmetry_equiv_pos_site_id
 _symmetry_equiv_pos_as_xyz
  1  'x, y, z'
loop_
 _atom_site_type_symbol
 _atom_site_label
 _atom_site_symmetry_multiplicity
 _atom_site_fract_x
 _atom_site_fract_y
 _atom_site_fract_z
 _atom_site_occupancy
  C  C0  1  0.00000000  0.00000000  0.00000000  1
  Ni  Ni1  1  0.50000000  0.81113400  0.18886600  1
  Ni  Ni2  1  0.50000000  0.81113400  0.62226800  1
  Ni  Ni3  1  0.00000000  0.33333300  0.66666700  1
  Ni  Ni4  1  0.50000000  0.37773200  0.18886600  1
  Cu  Cu5  1  0.50000000  0.19967100  0.80032900  1
  Cu  Cu6  1  0.50000000  0.60065800  0.80032900  1
  Cu  Cu7  1  0.00000000  0.93035900  0.46518000  1
  Cu  Cu8  1  0.00000000  0.53482000  0.06964100  1
  Cu  Cu9  1  0.00000000  0.53482000  0.46518000  1
  Cu  Cu10  1  0.50000000  0.19967100  0.39934200  1
