# generated using pymatgen
data_Cu6Ni3C14
_symmetry_space_group_name_H-M   'P 1'
_cell_length_a   8.66010600
_cell_length_b   9.02618600
_cell_length_c   12.01350300
_cell_angle_alpha   90.00000000
_cell_angle_beta   90.00000000
_cell_angle_gamma   90.00000000
_symmetry_Int_Tables_number   1
_chemical_formula_structural   Cu6Ni3C14
_chemical_formula_sum   'Cu24 Ni12 C56'
_cell_volume   939.06822925
_cell_formula_units_Z   4
loop_
 _symmetry_equiv_pos_site_id
 _symmetry_equiv_pos_as_xyz
  1  'x, y, z'
loop_
 _atom_site_type_symbol
 _atom_site_label
 _atom_site_symmetry_multiplicity
 _atom_site_fract_x
 _atom_site_fract_y
 _atom_site_fract_z
 _atom_site_occupancy
  C  C0  1  0.25008800  0.25000000  0.75000000  1
  C  C1  1  0.24991200  0.25000000  0.25000000  1
  C  C2  1  0.74991200  0.75000000  0.25000000  1
  C  C3  1  0.75008800  0.75000000  0.75000000  1
  C  C4  1  0.25000000  0.31847800  0.00000000  1
  C  C5  1  0.25000000  0.18152200  0.50000000  1
  C  C6  1  0.75000000  0.68152200  0.00000000  1
  C  C7  1  0.75000000  0.81847800  0.50000000  1
  C  C8  1  0.90935700  0.07338300  0.78421000  1
  C  C9  1  0.59064300  0.07338300  0.21579000  1
  C  C10  1  0.90935700  0.42661700  0.71579000  1
  C  C11  1  0.59064300  0.42661700  0.28421000  1
  C  C12  1  0.09064300  0.92661700  0.21579000  1
  C  C13  1  0.40935700  0.92661700  0.78421000  1
  C  C14  1  0.09064300  0.57338300  0.28421000  1
  C  C15  1  0.40935700  0.57338300  0.71579000  1
  C  C16  1  0.17253700  0.92709100  0.92083400  1
  C  C17  1  0.32746300  0.92709100  0.07916600  1
  C  C18  1  0.17253700  0.57290900  0.57916600  1
  C  C19  1  0.32746300  0.57290900  0.42083400  1
  C  C20  1  0.82746300  0.07290900  0.07916600  1
  C  C21  1  0.67253700  0.07290900  0.92083400  1
  C  C22  1  0.82746300  0.42709100  0.42083400  1
  C  C23  1  0.67253700  0.42709100  0.57916600  1
  C  C24  1  0.08691500  0.75666200  0.87732200  1
  C  C25  1  0.41308500  0.75666200  0.12267800  1
  C  C26  1  0.08691500  0.74333800  0.62267800  1
  C  C27  1  0.41308500  0.74333800  0.37732200  1
  C  C28  1  0.91308500  0.24333800  0.12267800  1
  C  C29  1  0.58691500  0.24333800  0.87732200  1
  C  C30  1  0.91308500  0.25666200  0.37732200  1
  C  C31  1  0.58691500  0.25666200  0.62267800  1
  C  C32  1  0.30954900  0.53517700  0.06018400  1
  C  C33  1  0.19045100  0.53517700  0.93981600  1
  C  C34  1  0.30954900  0.96482300  0.43981600  1
  C  C35  1  0.19045100  0.96482300  0.56018400  1
  C  C36  1  0.69045100  0.46482300  0.93981600  1
  C  C37  1  0.80954900  0.46482300  0.06018400  1
  C  C38  1  0.69045100  0.03517700  0.56018400  1
  C  C39  1  0.80954900  0.03517700  0.43981600  1
  C  C40  1  0.25000000  0.19642500  0.00000000  1
  C  C41  1  0.25000000  0.30357500  0.50000000  1
  C  C42  1  0.75000000  0.80357500  0.00000000  1
  C  C43  1  0.75000000  0.69642500  0.50000000  1
  C  C44  1  0.98178800  0.01456800  0.72210500  1
  C  C45  1  0.51821200  0.01456800  0.27789500  1
  C  C46  1  0.98178800  0.48543200  0.77789500  1
  C  C47  1  0.51821200  0.48543200  0.22210500  1
  C  C48  1  0.01821200  0.98543200  0.27789500  1
  C  C49  1  0.48178800  0.98543200  0.72210500  1
  C  C50  1  0.01821200  0.51456800  0.22210500  1
  C  C51  1  0.48178800  0.51456800  0.77789500  1
  C  C52  1  0.25000000  0.74014600  0.00000000  1
  C  C53  1  0.25000000  0.75985400  0.50000000  1
  C  C54  1  0.75000000  0.25985400  0.00000000  1
  C  C55  1  0.75000000  0.24014600  0.50000000  1
  Ni  Ni56  1  0.16204100  0.81428700  0.92697700  1
  Ni  Ni57  1  0.33795900  0.81428700  0.07302300  1
  Ni  Ni58  1  0.16204100  0.68571300  0.57302300  1
  Ni  Ni59  1  0.33795900  0.68571300  0.42697700  1
  Ni  Ni60  1  0.83795900  0.18571300  0.07302300  1
  Ni  Ni61  1  0.66204100  0.18571300  0.92697700  1
  Ni  Ni62  1  0.83795900  0.31428700  0.42697700  1
  Ni  Ni63  1  0.66204100  0.31428700  0.57302300  1
  Ni  Ni64  1  0.25000000  0.59216600  0.00000000  1
  Ni  Ni65  1  0.25000000  0.90783400  0.50000000  1
  Ni  Ni66  1  0.75000000  0.40783400  0.00000000  1
  Ni  Ni67  1  0.75000000  0.09216600  0.50000000  1
  Cu  Cu68  1  0.24204000  0.13053600  0.90664300  1
  Cu  Cu69  1  0.25796000  0.13053600  0.09335700  1
  Cu  Cu70  1  0.24204000  0.36946400  0.59335700  1
  Cu  Cu71  1  0.25796000  0.36946400  0.40664300  1
  Cu  Cu72  1  0.75796000  0.86946400  0.09335700  1
  Cu  Cu73  1  0.74204000  0.86946400  0.90664300  1
  Cu  Cu74  1  0.75796000  0.63053600  0.40664300  1
  Cu  Cu75  1  0.74204000  0.63053600  0.59335700  1
  Cu  Cu76  1  0.10042100  0.08037400  0.68426700  1
  Cu  Cu77  1  0.39957900  0.08037400  0.31573300  1
  Cu  Cu78  1  0.10042100  0.41962600  0.81573300  1
  Cu  Cu79  1  0.39957900  0.41962600  0.18426700  1
  Cu  Cu80  1  0.89957900  0.91962600  0.31573300  1
  Cu  Cu81  1  0.60042100  0.91962600  0.68426700  1
  Cu  Cu82  1  0.89957900  0.58037400  0.18426700  1
  Cu  Cu83  1  0.60042100  0.58037400  0.81573300  1
  Cu  Cu84  1  0.94138400  0.88500000  0.69329900  1
  Cu  Cu85  1  0.55861600  0.88500000  0.30670100  1
  Cu  Cu86  1  0.94138400  0.61500000  0.80670100  1
  Cu  Cu87  1  0.55861600  0.61500000  0.19329900  1
  Cu  Cu88  1  0.05861600  0.11500000  0.30670100  1
  Cu  Cu89  1  0.44138400  0.11500000  0.69329900  1
  Cu  Cu90  1  0.05861600  0.38500000  0.19329900  1
  Cu  Cu91  1  0.44138400  0.38500000  0.80670100  1
