# generated using pymatgen
data_CuNiC8
_symmetry_space_group_name_H-M   'P 1'
_cell_length_a   8.44013375
_cell_length_b   8.43283857
_cell_length_c   8.44251081
_cell_angle_alpha   90.00000000
_cell_angle_beta   90.00000000
_cell_angle_gamma   90.00000000
_symmetry_Int_Tables_number   1
_chemical_formula_structural   CuNiC8
_chemical_formula_sum   'Cu4 Ni4 C32'
_cell_volume   600.88967408
_cell_formula_units_Z   4
loop_
 _symmetry_equiv_pos_site_id
 _symmetry_equiv_pos_as_xyz
  1  'x, y, z'
loop_
 _atom_site_type_symbol
 _atom_site_label
 _atom_site_symmetry_multiplicity
 _atom_site_fract_x
 _atom_site_fract_y
 _atom_site_fract_z
 _atom_site_occupancy
  Ni  Ni0  1  0.00000000  0.50000000  0.50000000  1
  Ni  Ni1  1  0.50000000  0.00000000  0.50000000  1
  Ni  Ni2  1  0.50000000  0.50000000  0.00000000  1
  Ni  Ni3  1  0.50000000  0.00000000  0.00000000  1
  Cu  Cu4  1  0.00000000  0.50000000  0.00000000  1
  Cu  Cu5  1  0.00000000  -0.00000000  0.50000000  1
  Cu  Cu6  1  0.00000000  0.00000000  0.00000000  1
  Cu  Cu7  1  0.50000000  0.50000000  0.50000000  1
  C  C8  1  0.75326751  0.75048502  0.74968492  1
  C  C9  1  0.24673249  0.24951498  0.74968492  1
  C  C10  1  0.24673249  0.75048502  0.25031508  1
  C  C11  1  0.75326751  0.24951498  0.25031508  1
  C  C12  1  0.24730335  0.25004564  0.25052590  1
  C  C13  1  0.75269665  0.74995436  0.25052590  1
  C  C14  1  0.75269665  0.25004564  0.74947410  1
  C  C15  1  0.24730335  0.74995436  0.74947410  1
  C  C16  1  0.01839004  0.19446099  0.29664996  1
  C  C17  1  0.98160996  0.80553901  0.29664996  1
  C  C18  1  0.98160996  0.19446099  0.70335004  1
  C  C19  1  0.01839004  0.80553901  0.70335004  1
  C  C20  1  0.28413942  0.01950486  0.20079719  1
  C  C21  1  0.28413942  0.98049514  0.79920281  1
  C  C22  1  0.71586058  0.98049514  0.20079719  1
  C  C23  1  0.71586058  0.01950486  0.79920281  1
  C  C24  1  0.19146831  0.29301808  0.02158762  1
  C  C25  1  0.80853169  0.29301808  0.97841238  1
  C  C26  1  0.19146831  0.70698192  0.97841238  1
  C  C27  1  0.80853169  0.70698192  0.02158762  1
  C  C28  1  0.47985678  0.29404793  0.21426019  1
  C  C29  1  0.52014322  0.70595207  0.21426019  1
  C  C30  1  0.52014322  0.29404793  0.78573981  1
  C  C31  1  0.47985678  0.70595207  0.78573981  1
  C  C32  1  0.21347726  0.48178374  0.29728692  1
  C  C33  1  0.21347726  0.51821626  0.70271308  1
  C  C34  1  0.78652274  0.51821626  0.29728692  1
  C  C35  1  0.78652274  0.48178374  0.70271308  1
  C  C36  1  0.29682658  0.21644443  0.48286531  1
  C  C37  1  0.70317342  0.21644443  0.51713469  1
  C  C38  1  0.29682658  0.78355557  0.51713469  1
  C  C39  1  0.70317342  0.78355557  0.48286531  1
