# generated using pymatgen
data_Cu3Ni2C15
_symmetry_space_group_name_H-M   'P 1'
_cell_length_a   5.04803100
_cell_length_b   5.08654506
_cell_length_c   7.64463575
_cell_angle_alpha   109.19759358
_cell_angle_beta   101.28006835
_cell_angle_gamma   100.81708102
_symmetry_Int_Tables_number   1
_chemical_formula_structural   Cu3Ni2C15
_chemical_formula_sum   'Cu3 Ni2 C15'
_cell_volume   174.93617139
_cell_formula_units_Z   1
loop_
 _symmetry_equiv_pos_site_id
 _symmetry_equiv_pos_as_xyz
  1  'x, y, z'
loop_
 _atom_site_type_symbol
 _atom_site_label
 _atom_site_symmetry_multiplicity
 _atom_site_fract_x
 _atom_site_fract_y
 _atom_site_fract_z
 _atom_site_occupancy
  C  C0  1  0.21503700  0.50270400  0.40239700  1
  C  C1  1  0.39979500  0.50035300  0.79099900  1
  C  C2  1  0.50000000  0.00000000  0.50000000  1
  C  C3  1  0.60020500  0.49964700  0.20900100  1
  C  C4  1  0.78496300  0.49729600  0.59760300  1
  Ni  Ni5  1  0.10049000  0.00409400  0.69551900  1
  Ni  Ni6  1  0.89951000  0.99590600  0.30448100  1
  Cu  Cu7  1  0.00000000  0.50000000  0.00000000  1
  Cu  Cu8  1  0.69568000  0.99580300  0.89731800  1
  Cu  Cu9  1  0.30432000  0.00419700  0.10268200  1
  C  C10  1  0.05054100  0.23082500  0.84488600  1
  C  C11  1  0.32498600  0.75808100  0.93519000  1
  C  C12  1  0.13014900  0.78056000  0.54188300  1
  C  C13  1  0.22013700  0.25410300  0.23496800  1
  C  C14  1  0.43305300  0.22868200  0.65833100  1
  C  C15  1  0.56694700  0.77131800  0.34166900  1
  C  C16  1  0.77986300  0.74589700  0.76503200  1
  C  C17  1  0.86985100  0.21944000  0.45811700  1
  C  C18  1  0.67501400  0.24191900  0.06481000  1
  C  C19  1  0.94945900  0.76917500  0.15511400  1
