# generated using pymatgen
data_CuNiC8
_symmetry_space_group_name_H-M   'P 1'
_cell_length_a   5.44700400
_cell_length_b   9.25249900
_cell_length_c   19.41605200
_cell_angle_alpha   90.00000000
_cell_angle_beta   90.00000000
_cell_angle_gamma   90.00000000
_symmetry_Int_Tables_number   1
_chemical_formula_structural   CuNiC8
_chemical_formula_sum   'Cu8 Ni8 C64'
_cell_volume   978.53793692
_cell_formula_units_Z   8
loop_
 _symmetry_equiv_pos_site_id
 _symmetry_equiv_pos_as_xyz
  1  'x, y, z'
loop_
 _atom_site_type_symbol
 _atom_site_label
 _atom_site_symmetry_multiplicity
 _atom_site_fract_x
 _atom_site_fract_y
 _atom_site_fract_z
 _atom_site_occupancy
  Ni  Ni0  1  0.62036600  0.14839600  0.37452000  1
  Ni  Ni1  1  0.37963400  0.85160400  0.62548000  1
  Ni  Ni2  1  0.62036600  0.64839600  0.12548000  1
  Ni  Ni3  1  0.12036600  0.85160400  0.12548000  1
  Ni  Ni4  1  0.87963400  0.14839600  0.87452000  1
  Ni  Ni5  1  0.37963400  0.35160400  0.87452000  1
  Ni  Ni6  1  0.12036600  0.35160400  0.37452000  1
  Ni  Ni7  1  0.87963400  0.64839600  0.62548000  1
  C  C8  1  0.52359200  0.66009700  0.76518600  1
  C  C9  1  0.69583000  0.83878400  0.48381400  1
  C  C10  1  0.80417000  0.83878400  0.98381400  1
  C  C11  1  0.97640800  0.16009700  0.23481400  1
  C  C12  1  0.02359200  0.33990300  0.73481400  1
  C  C13  1  0.47640800  0.83990300  0.26518600  1
  C  C14  1  0.19583000  0.66121600  0.48381400  1
  C  C15  1  0.69583000  0.33878400  0.01618600  1
  C  C16  1  0.80417000  0.33878400  0.51618600  1
  C  C17  1  0.97640800  0.66009700  0.26518600  1
  C  C18  1  0.47640800  0.33990300  0.23481400  1
  C  C19  1  0.52359200  0.16009700  0.73481400  1
  C  C20  1  0.30417000  0.16121600  0.51618600  1
  C  C21  1  0.02359200  0.83990300  0.76518600  1
  C  C22  1  0.30417000  0.66121600  0.98381400  1
  C  C23  1  0.19583000  0.16121600  0.01618600  1
  Cu  Cu24  1  0.37811400  0.96858800  0.87974100  1
  Cu  Cu25  1  0.62188600  0.03141200  0.12025900  1
  Cu  Cu26  1  0.87811400  0.03141200  0.62025900  1
  Cu  Cu27  1  0.12188600  0.96858800  0.37974100  1
  Cu  Cu28  1  0.37811400  0.46858800  0.62025900  1
  Cu  Cu29  1  0.62188600  0.53141200  0.37974100  1
  Cu  Cu30  1  0.87811400  0.53141200  0.87974100  1
  Cu  Cu31  1  0.12188600  0.46858800  0.12025900  1
  C  C32  1  0.96411800  0.50621200  0.30531100  1
  C  C33  1  0.22993600  0.00674900  0.05356800  1
  C  C34  1  0.03588200  0.49378800  0.69468900  1
  C  C35  1  0.70552700  0.33144200  0.93081300  1
  C  C36  1  0.20552700  0.16855800  0.93081300  1
  C  C37  1  0.93252900  0.23555000  0.04130700  1
  C  C38  1  0.95870600  0.66092600  0.18003400  1
  C  C39  1  0.04129400  0.83907400  0.68003400  1
  C  C40  1  0.70552700  0.83144200  0.56918700  1
  C  C41  1  0.95870600  0.16092600  0.31996600  1
  C  C42  1  0.46411800  0.49378800  0.19468900  1
  C  C43  1  0.79447300  0.33144200  0.43081300  1
  C  C44  1  0.77006400  0.99325100  0.94643200  1
  C  C45  1  0.45870600  0.83907400  0.18003400  1
  C  C46  1  0.53588200  0.00621200  0.69468900  1
  C  C47  1  0.22993600  0.50674900  0.44643200  1
  C  C48  1  0.46411800  0.99378800  0.30531100  1
  C  C49  1  0.23187800  0.74366400  0.28943900  1
  C  C50  1  0.26812200  0.74366400  0.78943900  1
  C  C51  1  0.56747100  0.73555000  0.95869300  1
  C  C52  1  0.79447300  0.83144200  0.06918700  1
  C  C53  1  0.54129400  0.66092600  0.68003400  1
  C  C54  1  0.72993600  0.49325100  0.05356800  1
  C  C55  1  0.23187800  0.24366400  0.21056100  1
  C  C56  1  0.29447300  0.16855800  0.43081300  1
  C  C57  1  0.54129400  0.16092600  0.81996600  1
  C  C58  1  0.77006400  0.49325100  0.55356800  1
  C  C59  1  0.20552700  0.66855800  0.56918700  1
  C  C60  1  0.27006400  0.50674900  0.94643200  1
  C  C61  1  0.73187800  0.75633600  0.28943900  1
  C  C62  1  0.03588200  0.99378800  0.80531100  1
  C  C63  1  0.76812200  0.75633600  0.78943900  1
  C  C64  1  0.76812200  0.25633600  0.71056100  1
  C  C65  1  0.72993600  0.99325100  0.44643200  1
  C  C66  1  0.29447300  0.66855800  0.06918700  1
  C  C67  1  0.27006400  0.00674900  0.55356800  1
  C  C68  1  0.26812200  0.24366400  0.71056100  1
  C  C69  1  0.06747100  0.76445000  0.95869300  1
  C  C70  1  0.43252900  0.76445000  0.45869300  1
  C  C71  1  0.73187800  0.25633600  0.21056100  1
  C  C72  1  0.43252900  0.26445000  0.04130700  1
  C  C73  1  0.56747100  0.23555000  0.54130700  1
  C  C74  1  0.06747100  0.26445000  0.54130700  1
  C  C75  1  0.45870600  0.33907400  0.31996600  1
  C  C76  1  0.53588200  0.50621200  0.80531100  1
  C  C77  1  0.93252900  0.73555000  0.45869300  1
  C  C78  1  0.04129400  0.33907400  0.81996600  1
  C  C79  1  0.96411800  0.00621200  0.19468900  1
