# generated using pymatgen
data_CuNiC6
_symmetry_space_group_name_H-M   'P 1'
_cell_length_a   5.35942000
_cell_length_b   6.20268900
_cell_length_c   11.07701300
_cell_angle_alpha   90.00000000
_cell_angle_beta   90.00000000
_cell_angle_gamma   90.00000000
_symmetry_Int_Tables_number   1
_chemical_formula_structural   CuNiC6
_chemical_formula_sum   'Cu2 Ni2 C12'
_cell_volume   368.23109923
_cell_formula_units_Z   2
loop_
 _symmetry_equiv_pos_site_id
 _symmetry_equiv_pos_as_xyz
  1  'x, y, z'
loop_
 _atom_site_type_symbol
 _atom_site_label
 _atom_site_symmetry_multiplicity
 _atom_site_fract_x
 _atom_site_fract_y
 _atom_site_fract_z
 _atom_site_occupancy
  C  C0  1  0.00000000  0.25328200  0.08873800  1
  C  C1  1  0.00000000  0.74671800  0.08873800  1
  C  C2  1  0.00000000  0.00000000  0.33214500  1
  C  C3  1  0.50000000  0.74761200  0.40949400  1
  C  C4  1  0.50000000  0.25238800  0.40949400  1
  C  C5  1  0.50000000  0.00000000  0.16646000  1
  C  C6  1  0.00000000  0.75328200  0.58873800  1
  C  C7  1  0.00000000  0.24671800  0.58873800  1
  C  C8  1  0.00000000  0.50000000  0.83214500  1
  C  C9  1  0.50000000  0.24761200  0.90949400  1
  C  C10  1  0.50000000  0.75238800  0.90949400  1
  C  C11  1  0.50000000  0.50000000  0.66646000  1
  Ni  Ni12  1  0.00000000  0.50000000  0.35349200  1
  Ni  Ni13  1  0.00000000  0.00000000  0.85349200  1
  Cu  Cu14  1  0.50000000  0.50000000  0.15144000  1
  Cu  Cu15  1  0.50000000  0.00000000  0.65144000  1
