# generated using pymatgen
data_Cu6Ni2C
_symmetry_space_group_name_H-M   'P 1'
_cell_length_a   8.58804900
_cell_length_b   8.58804900
_cell_length_c   8.58804900
_cell_angle_alpha   90.00000000
_cell_angle_beta   90.00000000
_cell_angle_gamma   90.00000000
_symmetry_Int_Tables_number   1
_chemical_formula_structural   Cu6Ni2C
_chemical_formula_sum   'Cu24 Ni8 C4'
_cell_volume   633.40799533
_cell_formula_units_Z   4
loop_
 _symmetry_equiv_pos_site_id
 _symmetry_equiv_pos_as_xyz
  1  'x, y, z'
loop_
 _atom_site_type_symbol
 _atom_site_label
 _atom_site_symmetry_multiplicity
 _atom_site_fract_x
 _atom_site_fract_y
 _atom_site_fract_z
 _atom_site_occupancy
  C  C0  1  0.50000000  0.50000000  0.00000000  1
  C  C1  1  0.50000000  0.00000000  0.50000000  1
  C  C2  1  0.00000000  0.50000000  0.50000000  1
  C  C3  1  0.00000000  0.00000000  0.00000000  1
  Ni  Ni4  1  0.80627400  0.30627400  0.19372600  1
  Ni  Ni5  1  0.19372600  0.80627400  0.30627400  1
  Ni  Ni6  1  0.69372600  0.69372600  0.69372600  1
  Ni  Ni7  1  0.30627400  0.19372600  0.80627400  1
  Ni  Ni8  1  0.19372600  0.69372600  0.80627400  1
  Ni  Ni9  1  0.80627400  0.19372600  0.69372600  1
  Ni  Ni10  1  0.30627400  0.30627400  0.30627400  1
  Ni  Ni11  1  0.69372600  0.80627400  0.19372600  1
  Cu  Cu12  1  0.42109100  0.84373900  0.15709600  1
  Cu  Cu13  1  0.57890900  0.34373900  0.34290400  1
  Cu  Cu14  1  0.07890900  0.15626100  0.65709600  1
  Cu  Cu15  1  0.92109100  0.65626100  0.84290400  1
  Cu  Cu16  1  0.15709600  0.42109100  0.84373900  1
  Cu  Cu17  1  0.34290400  0.57890900  0.34373900  1
  Cu  Cu18  1  0.65709600  0.07890900  0.15626100  1
  Cu  Cu19  1  0.84290400  0.92109100  0.65626100  1
  Cu  Cu20  1  0.84373900  0.15709600  0.42109100  1
  Cu  Cu21  1  0.34373900  0.34290400  0.57890900  1
  Cu  Cu22  1  0.15626100  0.65709600  0.07890900  1
  Cu  Cu23  1  0.65626100  0.84290400  0.92109100  1
  Cu  Cu24  1  0.57890900  0.15626100  0.84290400  1
  Cu  Cu25  1  0.42109100  0.65626100  0.65709600  1
  Cu  Cu26  1  0.92109100  0.84373900  0.34290400  1
  Cu  Cu27  1  0.07890900  0.34373900  0.15709600  1
  Cu  Cu28  1  0.84290400  0.57890900  0.15626100  1
  Cu  Cu29  1  0.65709600  0.42109100  0.65626100  1
  Cu  Cu30  1  0.34290400  0.92109100  0.84373900  1
  Cu  Cu31  1  0.15709600  0.07890900  0.34373900  1
  Cu  Cu32  1  0.15626100  0.84290400  0.57890900  1
  Cu  Cu33  1  0.65626100  0.65709600  0.42109100  1
  Cu  Cu34  1  0.84373900  0.34290400  0.92109100  1
  Cu  Cu35  1  0.34373900  0.15709600  0.07890900  1
