# generated using pymatgen
data_Cu2NiC8
_symmetry_space_group_name_H-M   'P 1'
_cell_length_a   13.14305200
_cell_length_b   7.01884000
_cell_length_c   10.90062757
_cell_angle_alpha   71.05291492
_cell_angle_beta   90.00000000
_cell_angle_gamma   90.00000000
_symmetry_Int_Tables_number   1
_chemical_formula_structural   Cu2NiC8
_chemical_formula_sum   'Cu16 Ni8 C64'
_cell_volume   951.08872725
_cell_formula_units_Z   8
loop_
 _symmetry_equiv_pos_site_id
 _symmetry_equiv_pos_as_xyz
  1  'x, y, z'
loop_
 _atom_site_type_symbol
 _atom_site_label
 _atom_site_symmetry_multiplicity
 _atom_site_fract_x
 _atom_site_fract_y
 _atom_site_fract_z
 _atom_site_occupancy
  Ni  Ni0  1  0.48526900  0.94773600  0.78716100  1
  Ni  Ni1  1  0.85825100  0.69698400  0.92330700  1
  Ni  Ni2  1  0.35825100  0.30301600  0.57669300  1
  Ni  Ni3  1  0.14174900  0.30301600  0.07669300  1
  Ni  Ni4  1  0.64174900  0.69698400  0.42330700  1
  Ni  Ni5  1  0.01473100  0.94773600  0.28716100  1
  Ni  Ni6  1  0.51473100  0.05226400  0.21283900  1
  Ni  Ni7  1  0.98526900  0.05226400  0.71283900  1
  C  C8  1  0.68478400  0.37997700  0.06020700  1
  C  C9  1  0.18478400  0.62002300  0.43979300  1
  C  C10  1  0.31521600  0.62002300  0.93979300  1
  C  C11  1  0.81521600  0.37997700  0.56020700  1
  C  C12  1  0.77737500  0.02731500  0.24602100  1
  C  C13  1  0.27737500  0.97268500  0.25397900  1
  C  C14  1  0.22262500  0.97268500  0.75397900  1
  C  C15  1  0.72262500  0.02731500  0.74602100  1
  Cu  Cu16  1  0.87527200  0.16872200  0.96941800  1
  Cu  Cu17  1  0.00423700  0.59089600  0.67912800  1
  Cu  Cu18  1  0.49576300  0.59089600  0.17912800  1
  Cu  Cu19  1  0.99576300  0.40910400  0.32087200  1
  Cu  Cu20  1  0.72279000  0.52543500  0.76210800  1
  Cu  Cu21  1  0.22279000  0.47456500  0.73789200  1
  Cu  Cu22  1  0.27721000  0.47456500  0.23789200  1
  Cu  Cu23  1  0.77721000  0.52543500  0.26210800  1
  Cu  Cu24  1  0.50423700  0.40910400  0.82087200  1
  Cu  Cu25  1  0.15300800  0.12051300  0.45917200  1
  Cu  Cu26  1  0.65300800  0.87948700  0.04082800  1
  Cu  Cu27  1  0.84699200  0.87948700  0.54082800  1
  Cu  Cu28  1  0.37527200  0.83127800  0.53058200  1
  Cu  Cu29  1  0.62472800  0.16872200  0.46941800  1
  Cu  Cu30  1  0.12472800  0.83127800  0.03058200  1
  Cu  Cu31  1  0.34699200  0.12051300  0.95917200  1
  C  C32  1  0.03082800  0.32620400  0.94067300  1
  C  C33  1  0.53082800  0.67379600  0.55932700  1
  C  C34  1  0.96917200  0.67379600  0.05932700  1
  C  C35  1  0.46917200  0.32620400  0.44067300  1
  C  C36  1  0.84261400  0.00853700  0.86740100  1
  C  C37  1  0.34261400  0.99146300  0.63259900  1
  C  C38  1  0.15738600  0.99146300  0.13259900  1
  C  C39  1  0.65738600  0.00853700  0.36740100  1
  C  C40  1  0.88501400  0.00928800  0.14626100  1
  C  C41  1  0.38501400  0.99071200  0.35373900  1
  C  C42  1  0.11498600  0.99071200  0.85373900  1
  C  C43  1  0.61498600  0.00928800  0.64626100  1
  C  C44  1  0.27266400  0.36404300  0.92422500  1
  C  C45  1  0.77266400  0.63595700  0.57577500  1
  C  C46  1  0.72733600  0.63595700  0.07577500  1
  C  C47  1  0.22733600  0.36404300  0.42422500  1
  C  C48  1  0.37026200  0.98886100  0.13626600  1
  C  C49  1  0.87026200  0.01113900  0.36373400  1
  C  C50  1  0.62973800  0.01113900  0.86373400  1
  C  C51  1  0.12973800  0.98886100  0.63626600  1
  C  C52  1  0.32534400  0.90803300  0.89287200  1
  C  C53  1  0.43166400  0.64482100  0.84505700  1
  C  C54  1  0.82534400  0.09196700  0.60712800  1
  C  C55  1  0.17465600  0.90803300  0.39287200  1
  C  C56  1  0.46206200  0.25272700  0.72282600  1
  C  C57  1  0.96206200  0.74727300  0.77717400  1
  C  C58  1  0.53793800  0.74727300  0.27717400  1
  C  C59  1  0.03793800  0.25272700  0.22282600  1
  C  C60  1  0.47345900  0.20884900  0.96593600  1
  C  C61  1  0.97345900  0.79115100  0.53406400  1
  C  C62  1  0.52654100  0.79115100  0.03406400  1
  C  C63  1  0.02654100  0.20884900  0.46593600  1
  C  C64  1  0.92943500  0.59751000  0.17722700  1
  C  C65  1  0.42943500  0.40249000  0.32277300  1
  C  C66  1  0.07056500  0.40249000  0.82277300  1
  C  C67  1  0.57056500  0.59751000  0.67722700  1
  C  C68  1  0.77217900  0.29872300  0.20049200  1
  C  C69  1  0.27217900  0.70127700  0.29950800  1
  C  C70  1  0.22782100  0.70127700  0.79950800  1
  C  C71  1  0.72782100  0.29872300  0.70049200  1
  C  C72  1  0.69535200  0.41231600  0.44436700  1
  C  C73  1  0.19535200  0.58768400  0.05563300  1
  C  C74  1  0.30464800  0.58768400  0.55563300  1
  C  C75  1  0.80464800  0.41231600  0.94436700  1
  C  C76  1  0.74502600  0.77101100  0.28301900  1
  C  C77  1  0.24502600  0.22898900  0.21698100  1
  C  C78  1  0.25497400  0.22898900  0.71698100  1
  C  C79  1  0.75497400  0.77101100  0.78301900  1
  C  C80  1  0.87499000  0.45693900  0.40600800  1
  C  C81  1  0.37499000  0.54306100  0.09399200  1
  C  C82  1  0.12501000  0.54306100  0.59399200  1
  C  C83  1  0.62501000  0.45693900  0.90600800  1
  C  C84  1  0.06833600  0.64482100  0.34505700  1
  C  C85  1  0.56833600  0.35517900  0.15494300  1
  C  C86  1  0.93166400  0.35517900  0.65494300  1
  C  C87  1  0.67465600  0.09196700  0.10712800  1
