# generated using pymatgen
data_Cu3NiC3
_symmetry_space_group_name_H-M   'P 1'
_cell_length_a   9.98064000
_cell_length_b   9.98064000
_cell_length_c   9.98064000
_cell_angle_alpha   90.00000000
_cell_angle_beta   90.00000000
_cell_angle_gamma   90.00000000
_symmetry_Int_Tables_number   1
_chemical_formula_structural   Cu3NiC3
_chemical_formula_sum   'Cu12 Ni4 C12'
_cell_volume   994.20323703
_cell_formula_units_Z   4
loop_
 _symmetry_equiv_pos_site_id
 _symmetry_equiv_pos_as_xyz
  1  'x, y, z'
loop_
 _atom_site_type_symbol
 _atom_site_label
 _atom_site_symmetry_multiplicity
 _atom_site_fract_x
 _atom_site_fract_y
 _atom_site_fract_z
 _atom_site_occupancy
  C  C0  1  0.81737600  0.18262400  0.68262400  1
  C  C1  1  0.18785900  0.31214100  0.68785900  1
  C  C2  1  0.31214100  0.68785900  0.18785900  1
  C  C3  1  0.68785900  0.18785900  0.31214100  1
  C  C4  1  0.81214100  0.81214100  0.81214100  1
  C  C5  1  0.42165500  0.07834500  0.92165500  1
  C  C6  1  0.07834500  0.92165500  0.42165500  1
  C  C7  1  0.92165500  0.42165500  0.07834500  1
  C  C8  1  0.57834500  0.57834500  0.57834500  1
  C  C9  1  0.68262400  0.81737600  0.18262400  1
  C  C10  1  0.18262400  0.68262400  0.81737600  1
  C  C11  1  0.31737600  0.31737600  0.31737600  1
  Ni  Ni12  1  0.02770900  0.02770900  0.02770900  1
  Ni  Ni13  1  0.47229100  0.97229100  0.52770900  1
  Ni  Ni14  1  0.52770900  0.47229100  0.97229100  1
  Ni  Ni15  1  0.97229100  0.52770900  0.47229100  1
  Cu  Cu16  1  0.22084000  0.60239200  0.49737500  1
  Cu  Cu17  1  0.77916000  0.10239200  0.00262500  1
  Cu  Cu18  1  0.99737500  0.27916000  0.39760800  1
  Cu  Cu19  1  0.72084000  0.89760800  0.50262500  1
  Cu  Cu20  1  0.10239200  0.00262500  0.77916000  1
  Cu  Cu21  1  0.50262500  0.72084000  0.89760800  1
  Cu  Cu22  1  0.00262500  0.77916000  0.10239200  1
  Cu  Cu23  1  0.39760800  0.99737500  0.27916000  1
  Cu  Cu24  1  0.49737500  0.22084000  0.60239200  1
  Cu  Cu25  1  0.89760800  0.50262500  0.72084000  1
  Cu  Cu26  1  0.60239200  0.49737500  0.22084000  1
  Cu  Cu27  1  0.27916000  0.39760800  0.99737500  1
