# generated using pymatgen
data_CuNiC11
_symmetry_space_group_name_H-M   'P 1'
_cell_length_a   6.36294164
_cell_length_b   6.36294164
_cell_length_c   11.10094300
_cell_angle_alpha   90.00000000
_cell_angle_beta   90.00000000
_cell_angle_gamma   119.99999626
_symmetry_Int_Tables_number   1
_chemical_formula_structural   CuNiC11
_chemical_formula_sum   'Cu2 Ni2 C22'
_cell_volume   389.23008472
_cell_formula_units_Z   2
loop_
 _symmetry_equiv_pos_site_id
 _symmetry_equiv_pos_as_xyz
  1  'x, y, z'
loop_
 _atom_site_type_symbol
 _atom_site_label
 _atom_site_symmetry_multiplicity
 _atom_site_fract_x
 _atom_site_fract_y
 _atom_site_fract_z
 _atom_site_occupancy
  Ni  Ni0  1  0.66666700  0.33333300  0.47215300  1
  Ni  Ni1  1  0.33333300  0.66666700  0.97215300  1
  Cu  Cu2  1  0.66666700  0.33333300  0.87962500  1
  Cu  Cu3  1  0.33333300  0.66666700  0.37962500  1
  C  C4  1  0.82316900  0.17683100  0.18288400  1
  C  C5  1  0.64633700  0.82316900  0.68288400  1
  C  C6  1  0.17683100  0.35366300  0.68288400  1
  C  C7  1  0.82316900  0.64633700  0.18288400  1
  C  C8  1  0.35366300  0.17683100  0.18288400  1
  C  C9  1  0.17683100  0.82316900  0.68288400  1
  C  C10  1  0.00000000  0.00000000  0.43286200  1
  C  C11  1  0.00000000  0.00000000  0.93286200  1
  C  C12  1  0.83928600  0.16071400  0.00492100  1
  C  C13  1  0.67857200  0.83928600  0.50492100  1
  C  C14  1  0.16071400  0.32142800  0.50492100  1
  C  C15  1  0.83928600  0.67857200  0.00492100  1
  C  C16  1  0.32142800  0.16071400  0.00492100  1
  C  C17  1  0.16071400  0.83928600  0.50492100  1
  C  C18  1  0.00000000  0.00000000  0.73791400  1
  C  C19  1  0.00000000  0.00000000  0.23791400  1
  C  C20  1  0.51152100  0.48847900  0.28267700  1
  C  C21  1  0.02304100  0.51152100  0.78267700  1
  C  C22  1  0.48847900  0.97695900  0.78267700  1
  C  C23  1  0.51152100  0.02304100  0.28267700  1
  C  C24  1  0.48847900  0.51152100  0.78267700  1
  C  C25  1  0.97695900  0.48847900  0.28267700  1
