# generated using pymatgen
data_Cu2(NiC5)3
_symmetry_space_group_name_H-M   'P 1'
_cell_length_a   10.80590992
_cell_length_b   10.80590992
_cell_length_c   10.80590992
_cell_angle_alpha   109.47122063
_cell_angle_beta   109.47122063
_cell_angle_gamma   109.47122063
_symmetry_Int_Tables_number   1
_chemical_formula_structural   Cu2(NiC5)3
_chemical_formula_sum   'Cu8 Ni12 C60'
_cell_volume   971.31956702
_cell_formula_units_Z   4
loop_
 _symmetry_equiv_pos_site_id
 _symmetry_equiv_pos_as_xyz
  1  'x, y, z'
loop_
 _atom_site_type_symbol
 _atom_site_label
 _atom_site_symmetry_multiplicity
 _atom_site_fract_x
 _atom_site_fract_y
 _atom_site_fract_z
 _atom_site_occupancy
  C  C0  1  0.25000000  0.37500000  0.12500000  1
  C  C1  1  0.75000000  0.62500000  0.87500000  1
  C  C2  1  0.75000000  0.12500000  0.37500000  1
  C  C3  1  0.12500000  0.25000000  0.37500000  1
  C  C4  1  0.37500000  0.75000000  0.12500000  1
  C  C5  1  0.25000000  0.87500000  0.62500000  1
  C  C6  1  0.87500000  0.75000000  0.62500000  1
  C  C7  1  0.62500000  0.25000000  0.87500000  1
  C  C8  1  0.37500000  0.12500000  0.25000000  1
  C  C9  1  0.62500000  0.87500000  0.75000000  1
  C  C10  1  0.12500000  0.37500000  0.75000000  1
  C  C11  1  0.87500000  0.62500000  0.25000000  1
  Ni  Ni12  1  0.25000000  0.62500000  0.37500000  1
  Ni  Ni13  1  0.75000000  0.37500000  0.62500000  1
  Ni  Ni14  1  0.75000000  0.87500000  0.12500000  1
  Ni  Ni15  1  0.37500000  0.25000000  0.62500000  1
  Ni  Ni16  1  0.62500000  0.75000000  0.37500000  1
  Ni  Ni17  1  0.25000000  0.12500000  0.87500000  1
  Ni  Ni18  1  0.12500000  0.75000000  0.87500000  1
  Ni  Ni19  1  0.87500000  0.25000000  0.12500000  1
  Ni  Ni20  1  0.62500000  0.37500000  0.25000000  1
  Ni  Ni21  1  0.37500000  0.62500000  0.75000000  1
  Ni  Ni22  1  0.87500000  0.12500000  0.75000000  1
  Ni  Ni23  1  0.12500000  0.87500000  0.25000000  1
  Cu  Cu24  1  0.00000000  0.00000000  0.00000000  1
  Cu  Cu25  1  0.50000000  0.00000000  0.50000000  1
  Cu  Cu26  1  0.00000000  0.50000000  0.50000000  1
  Cu  Cu27  1  0.50000000  0.00000000  0.00000000  1
  Cu  Cu28  1  0.50000000  0.50000000  0.00000000  1
  Cu  Cu29  1  0.50000000  0.50000000  0.50000000  1
  Cu  Cu30  1  0.00000000  0.00000000  0.50000000  1
  Cu  Cu31  1  0.00000000  0.50000000  0.00000000  1
  C  C32  1  0.47099600  0.37626900  0.29197700  1
  C  C33  1  0.52900400  0.62373100  0.70802300  1
  C  C34  1  0.58429200  0.17901900  0.20802300  1
  C  C35  1  0.91570800  0.12373100  0.59472700  1
  C  C36  1  0.29197700  0.47099600  0.37626900  1
  C  C37  1  0.32098100  0.91570800  0.29197700  1
  C  C38  1  0.41570800  0.82098100  0.79197700  1
  C  C39  1  0.08429200  0.87626900  0.40527300  1
  C  C40  1  0.70802300  0.52900400  0.62373100  1
  C  C41  1  0.67901900  0.08429200  0.70802300  1
  C  C42  1  0.02900400  0.32098100  0.90527300  1
  C  C43  1  0.20802300  0.58429200  0.17901900  1
  C  C44  1  0.12373100  0.02900400  0.20802300  1
  C  C45  1  0.97099600  0.67901900  0.09472700  1
  C  C46  1  0.79197700  0.41570800  0.82098100  1
  C  C47  1  0.87626900  0.97099600  0.79197700  1
  C  C48  1  0.59472700  0.91570800  0.12373100  1
  C  C49  1  0.17901900  0.47099600  0.59472700  1
  C  C50  1  0.40527300  0.08429200  0.87626900  1
  C  C51  1  0.82098100  0.52900400  0.40527300  1
  C  C52  1  0.90527300  0.02900400  0.32098100  1
  C  C53  1  0.37626900  0.58429200  0.90527300  1
  C  C54  1  0.09472700  0.97099600  0.67901900  1
  C  C55  1  0.62373100  0.41570800  0.09472700  1
  C  C56  1  0.37626900  0.29197700  0.47099600  1
  C  C57  1  0.58429200  0.90527300  0.37626900  1
  C  C58  1  0.62373100  0.70802300  0.52900400  1
  C  C59  1  0.41570800  0.09472700  0.62373100  1
  C  C60  1  0.12373100  0.59472700  0.91570800  1
  C  C61  1  0.02900400  0.20802300  0.12373100  1
  C  C62  1  0.87626900  0.40527300  0.08429200  1
  C  C63  1  0.97099600  0.79197700  0.87626900  1
  C  C64  1  0.32098100  0.90527300  0.02900400  1
  C  C65  1  0.91570800  0.29197700  0.32098100  1
  C  C66  1  0.67901900  0.09472700  0.97099600  1
  C  C67  1  0.08429200  0.70802300  0.67901900  1
  C  C68  1  0.17901900  0.20802300  0.58429200  1
  C  C69  1  0.47099600  0.59472700  0.17901900  1
  C  C70  1  0.82098100  0.79197700  0.41570800  1
  C  C71  1  0.52900400  0.40527300  0.82098100  1
  C  C72  1  0.29197700  0.32098100  0.91570800  1
  C  C73  1  0.70802300  0.67901900  0.08429200  1
  C  C74  1  0.20802300  0.12373100  0.02900400  1
  C  C75  1  0.79197700  0.87626900  0.97099600  1
  C  C76  1  0.90527300  0.37626900  0.58429200  1
  C  C77  1  0.09472700  0.62373100  0.41570800  1
  C  C78  1  0.59472700  0.17901900  0.47099600  1
  C  C79  1  0.40527300  0.82098100  0.52900400  1
