# generated using pymatgen
data_Cu2(NiC4)3
_symmetry_space_group_name_H-M   'P 1'
_cell_length_a   5.07971200
_cell_length_b   10.66958000
_cell_length_c   18.53549000
_cell_angle_alpha   90.00000000
_cell_angle_beta   90.00000000
_cell_angle_gamma   90.00000000
_symmetry_Int_Tables_number   1
_chemical_formula_structural   Cu2(NiC4)3
_chemical_formula_sum   'Cu8 Ni12 C48'
_cell_volume   1004.59378187
_cell_formula_units_Z   4
loop_
 _symmetry_equiv_pos_site_id
 _symmetry_equiv_pos_as_xyz
  1  'x, y, z'
loop_
 _atom_site_type_symbol
 _atom_site_label
 _atom_site_symmetry_multiplicity
 _atom_site_fract_x
 _atom_site_fract_y
 _atom_site_fract_z
 _atom_site_occupancy
  Ni  Ni0  1  0.38550700  0.76762000  0.25000000  1
  Ni  Ni1  1  0.11449300  0.26762000  0.25000000  1
  Ni  Ni2  1  0.61449300  0.23238000  0.75000000  1
  Ni  Ni3  1  0.88550700  0.73238000  0.75000000  1
  Ni  Ni4  1  0.29103900  0.64445700  0.49841000  1
  Ni  Ni5  1  0.20896100  0.14445700  0.00159000  1
  Ni  Ni6  1  0.70896100  0.35554300  0.99841000  1
  Ni  Ni7  1  0.79103900  0.85554300  0.50159000  1
  Ni  Ni8  1  0.70896100  0.35554300  0.50159000  1
  Ni  Ni9  1  0.79103900  0.85554300  0.99841000  1
  Ni  Ni10  1  0.29103900  0.64445700  0.00159000  1
  Ni  Ni11  1  0.20896100  0.14445700  0.49841000  1
  Cu  Cu12  1  0.27550700  0.89953400  0.40716400  1
  Cu  Cu13  1  0.22449300  0.39953400  0.09283600  1
  Cu  Cu14  1  0.72449300  0.10046600  0.90716400  1
  Cu  Cu15  1  0.77550700  0.60046600  0.59283600  1
  Cu  Cu16  1  0.72449300  0.10046600  0.59283600  1
  Cu  Cu17  1  0.77550700  0.60046600  0.90716400  1
  Cu  Cu18  1  0.27550700  0.89953400  0.09283600  1
  Cu  Cu19  1  0.22449300  0.39953400  0.40716400  1
  C  C20  1  0.24246700  0.63768700  0.75000000  1
  C  C21  1  0.25753300  0.13768700  0.75000000  1
  C  C22  1  0.75753300  0.36231300  0.25000000  1
  C  C23  1  0.74246700  0.86231300  0.25000000  1
  C  C24  1  0.13142500  0.62219800  0.25000000  1
  C  C25  1  0.36857500  0.12219800  0.25000000  1
  C  C26  1  0.86857500  0.37780200  0.75000000  1
  C  C27  1  0.63142500  0.87780200  0.75000000  1
  C  C28  1  0.19676500  0.82508400  0.69558800  1
  C  C29  1  0.30323500  0.32508400  0.80441200  1
  C  C30  1  0.80323500  0.17491600  0.19558800  1
  C  C31  1  0.69676500  0.67491600  0.30441200  1
  C  C32  1  0.80323500  0.17491600  0.30441200  1
  C  C33  1  0.69676500  0.67491600  0.19558800  1
  C  C34  1  0.19676500  0.82508400  0.80441200  1
  C  C35  1  0.30323500  0.32508400  0.69558800  1
  C  C36  1  0.21379600  0.86043000  0.32884100  1
  C  C37  1  0.28620400  0.36043000  0.17115900  1
  C  C38  1  0.78620400  0.13957000  0.82884100  1
  C  C39  1  0.71379600  0.63957000  0.67115900  1
  C  C40  1  0.78620400  0.13957000  0.67115900  1
  C  C41  1  0.71379600  0.63957000  0.82884100  1
  C  C42  1  0.21379600  0.86043000  0.17115900  1
  C  C43  1  0.28620400  0.36043000  0.32884100  1
  C  C44  1  0.07276200  0.60133300  0.57951000  1
  C  C45  1  0.42723800  0.10133300  0.92049000  1
  C  C46  1  0.92723800  0.39866700  0.07951000  1
  C  C47  1  0.57276200  0.89866700  0.42049000  1
  C  C48  1  0.92723800  0.39866700  0.42049000  1
  C  C49  1  0.57276200  0.89866700  0.07951000  1
  C  C50  1  0.07276200  0.60133300  0.92049000  1
  C  C51  1  0.42723800  0.10133300  0.57951000  1
  C  C52  1  0.35183300  0.52871300  0.42052400  1
  C  C53  1  0.14816700  0.02871300  0.07947600  1
  C  C54  1  0.64816700  0.47128700  0.92052400  1
  C  C55  1  0.85183300  0.97128700  0.57947600  1
  C  C56  1  0.64816700  0.47128700  0.57947600  1
  C  C57  1  0.85183300  0.97128700  0.92052400  1
  C  C58  1  0.35183300  0.52871300  0.07947600  1
  C  C59  1  0.14816700  0.02871300  0.42052400  1
  C  C60  1  0.13973400  0.80465700  0.46114000  1
  C  C61  1  0.36026600  0.30465700  0.03886000  1
  C  C62  1  0.86026600  0.19534300  0.96114000  1
  C  C63  1  0.63973400  0.69534300  0.53886000  1
  C  C64  1  0.86026600  0.19534300  0.53886000  1
  C  C65  1  0.63973400  0.69534300  0.96114000  1
  C  C66  1  0.13973400  0.80465700  0.03886000  1
  C  C67  1  0.36026600  0.30465700  0.46114000  1
