# generated using pymatgen
data_Cu(NiC2)3
_symmetry_space_group_name_H-M   'P 1'
_cell_length_a   7.31396105
_cell_length_b   7.31396105
_cell_length_c   7.31396110
_cell_angle_alpha   47.93670747
_cell_angle_beta   47.93670747
_cell_angle_gamma   47.93670688
_symmetry_Int_Tables_number   1
_chemical_formula_structural   Cu(NiC2)3
_chemical_formula_sum   'Cu1 Ni3 C6'
_cell_volume   197.53090218
_cell_formula_units_Z   1
loop_
 _symmetry_equiv_pos_site_id
 _symmetry_equiv_pos_as_xyz
  1  'x, y, z'
loop_
 _atom_site_type_symbol
 _atom_site_label
 _atom_site_symmetry_multiplicity
 _atom_site_fract_x
 _atom_site_fract_y
 _atom_site_fract_z
 _atom_site_occupancy
  Ni  Ni0  1  0.50000000  0.50000000  0.50000000  1
  Ni  Ni1  1  0.16726400  0.16726400  0.16726400  1
  Ni  Ni2  1  0.83273600  0.83273600  0.83273600  1
  Cu  Cu3  1  0.00000000  0.00000000  0.00000000  1
  C  C4  1  0.57005700  0.24536400  0.90752000  1
  C  C5  1  0.90752000  0.57005700  0.24536400  1
  C  C6  1  0.24536400  0.90752000  0.57005700  1
  C  C7  1  0.75463600  0.09248000  0.42994300  1
  C  C8  1  0.09248000  0.42994300  0.75463600  1
  C  C9  1  0.42994300  0.75463600  0.09248000  1
