# generated using pymatgen
data_Cu5Ni7C6
_symmetry_space_group_name_H-M   'P 1'
_cell_length_a   5.63095889
_cell_length_b   5.63095889
_cell_length_c   7.62117655
_cell_angle_alpha   69.81972754
_cell_angle_beta   69.81972754
_cell_angle_gamma   69.55097136
_symmetry_Int_Tables_number   1
_chemical_formula_structural   Cu5Ni7C6
_chemical_formula_sum   'Cu5 Ni7 C6'
_cell_volume   205.48471562
_cell_formula_units_Z   1
loop_
 _symmetry_equiv_pos_site_id
 _symmetry_equiv_pos_as_xyz
  1  'x, y, z'
loop_
 _atom_site_type_symbol
 _atom_site_label
 _atom_site_symmetry_multiplicity
 _atom_site_fract_x
 _atom_site_fract_y
 _atom_site_fract_z
 _atom_site_occupancy
  C  C0  1  0.66587600  0.66587600  0.82982700  1
  C  C1  1  0.33381700  0.33381700  0.66153900  1
  C  C2  1  0.66026200  0.66026200  0.32737600  1
  C  C3  1  0.34604900  0.34604900  0.19244700  1
  C  C4  1  0.99863900  0.99863900  0.50032200  1
  C  C5  1  0.99948000  0.99948000  0.00249800  1
  Ni  Ni6  1  0.63314200  0.03246100  0.66600700  1
  Ni  Ni7  1  0.97592800  0.36731400  0.32947900  1
  Ni  Ni8  1  0.43424000  0.43424000  0.36573800  1
  Ni  Ni9  1  0.69305700  0.29974100  0.00170300  1
  Ni  Ni10  1  0.03246100  0.63314200  0.66600700  1
  Ni  Ni11  1  0.36731400  0.97592800  0.32947900  1
  Ni  Ni12  1  0.29974100  0.69305700  0.00170300  1
  Cu  Cu13  1  0.23059100  0.23059100  0.96495200  1
  Cu  Cu14  1  0.56638200  0.56638200  0.62616500  1
  Cu  Cu15  1  0.89598100  0.89598100  0.29697700  1
  Cu  Cu16  1  0.09858000  0.09858000  0.70550300  1
  Cu  Cu17  1  0.76846000  0.76846000  0.03227600  1
