# generated using pymatgen
data_CuNi3
_symmetry_space_group_name_H-M   'P 1'
_cell_length_a   7.80859400
_cell_length_b   7.80859400
_cell_length_c   7.80859400
_cell_angle_alpha   90.00000000
_cell_angle_beta   90.00000000
_cell_angle_gamma   90.00000000
_symmetry_Int_Tables_number   1
_chemical_formula_structural   CuNi3
_chemical_formula_sum   'Cu8 Ni24'
_cell_volume   476.12230576
_cell_formula_units_Z   8
loop_
 _symmetry_equiv_pos_site_id
 _symmetry_equiv_pos_as_xyz
  1  'x, y, z'
loop_
 _atom_site_type_symbol
 _atom_site_label
 _atom_site_symmetry_multiplicity
 _atom_site_fract_x
 _atom_site_fract_y
 _atom_site_fract_z
 _atom_site_occupancy
  Ni  Ni0  1  0.79958200  0.33657600  0.50000000  1
  Ni  Ni1  1  0.66342400  0.50000000  0.79958200  1
  Ni  Ni2  1  0.50000000  0.20041800  0.66342400  1
  Ni  Ni3  1  0.20041800  0.66342400  0.50000000  1
  Ni  Ni4  1  0.33657600  0.50000000  0.20041800  1
  Ni  Ni5  1  0.50000000  0.79958200  0.33657600  1
  Ni  Ni6  1  0.79958200  0.66342400  0.50000000  1
  Ni  Ni7  1  0.66342400  0.50000000  0.20041800  1
  Ni  Ni8  1  0.20041800  0.33657600  0.50000000  1
  Ni  Ni9  1  0.33657600  0.50000000  0.79958200  1
  Ni  Ni10  1  0.50000000  0.79958200  0.66342400  1
  Ni  Ni11  1  0.50000000  0.20041800  0.33657600  1
  Ni  Ni12  1  0.29958200  0.00000000  0.83657600  1
  Ni  Ni13  1  0.16342400  0.29958200  0.00000000  1
  Ni  Ni14  1  0.00000000  0.16342400  0.70041800  1
  Ni  Ni15  1  0.70041800  0.00000000  0.16342400  1
  Ni  Ni16  1  0.83657600  0.70041800  0.00000000  1
  Ni  Ni17  1  0.00000000  0.83657600  0.29958200  1
  Ni  Ni18  1  0.29958200  0.00000000  0.16342400  1
  Ni  Ni19  1  0.16342400  0.70041800  0.00000000  1
  Ni  Ni20  1  0.70041800  0.00000000  0.83657600  1
  Ni  Ni21  1  0.83657600  0.29958200  0.00000000  1
  Ni  Ni22  1  0.00000000  0.16342400  0.29958200  1
  Ni  Ni23  1  0.00000000  0.83657600  0.70041800  1
  Cu  Cu24  1  0.50000000  0.50000000  0.50000000  1
  Cu  Cu25  1  0.00000000  0.00000000  0.00000000  1
  Cu  Cu26  1  0.00000000  0.50000000  0.75000000  1
  Cu  Cu27  1  0.50000000  0.25000000  0.00000000  1
  Cu  Cu28  1  0.75000000  0.00000000  0.50000000  1
  Cu  Cu29  1  0.00000000  0.50000000  0.25000000  1
  Cu  Cu30  1  0.50000000  0.75000000  0.00000000  1
  Cu  Cu31  1  0.25000000  0.00000000  0.50000000  1
