# generated using pymatgen
data_CuNi2C11
_symmetry_space_group_name_H-M   'P 1'
_cell_length_a   11.12895000
_cell_length_b   5.45406800
_cell_length_c   5.63247124
_cell_angle_alpha   89.94893452
_cell_angle_beta   90.00000000
_cell_angle_gamma   90.00000000
_symmetry_Int_Tables_number   1
_chemical_formula_structural   CuNi2C11
_chemical_formula_sum   'Cu2 Ni4 C22'
_cell_volume   341.87988537
_cell_formula_units_Z   2
loop_
 _symmetry_equiv_pos_site_id
 _symmetry_equiv_pos_as_xyz
  1  'x, y, z'
loop_
 _atom_site_type_symbol
 _atom_site_label
 _atom_site_symmetry_multiplicity
 _atom_site_fract_x
 _atom_site_fract_y
 _atom_site_fract_z
 _atom_site_occupancy
  C  C0  1  0.50000000  0.49284600  0.75412900  1
  C  C1  1  0.80868100  0.97548900  0.22082600  1
  C  C2  1  0.19131900  0.97548900  0.22082600  1
  C  C3  1  0.18942600  0.47338000  0.78088600  1
  C  C4  1  0.81057400  0.47338000  0.78088600  1
  C  C5  1  0.50000000  0.00248200  0.23680500  1
  Ni  Ni6  1  0.67195900  0.48873300  0.25681500  1
  Ni  Ni7  1  0.32804100  0.48873300  0.25681500  1
  Ni  Ni8  1  0.32815700  0.98774900  0.74274500  1
  Ni  Ni9  1  0.67184300  0.98774900  0.74274500  1
  Cu  Cu10  1  0.00000000  0.42840100  0.32513800  1
  Cu  Cu11  1  0.00000000  0.92788600  0.67397300  1
  C  C12  1  0.00000000  0.07874700  0.36967200  1
  C  C13  1  0.00000000  0.57807000  0.62997800  1
  C  C14  1  0.65577600  0.23757400  0.00097500  1
  C  C15  1  0.34422400  0.23757400  0.00097500  1
  C  C16  1  0.34714800  0.74706300  0.00843300  1
  C  C17  1  0.65285200  0.74706300  0.00843300  1
  C  C18  1  0.85700400  0.51011800  0.17861800  1
  C  C19  1  0.14299600  0.51011800  0.17861800  1
  C  C20  1  0.14306500  0.00824100  0.82132300  1
  C  C21  1  0.85693500  0.00824100  0.82132300  1
  C  C22  1  0.50000000  0.47763300  0.31129100  1
  C  C23  1  0.50000000  0.98975200  0.66781000  1
  C  C24  1  0.70177900  0.23415900  0.49495300  1
  C  C25  1  0.29822100  0.23415900  0.49495300  1
  C  C26  1  0.29875700  0.73128500  0.51002700  1
  C  C27  1  0.70124300  0.73128500  0.51002700  1
