# generated using pymatgen
data_CuNi14C
_symmetry_space_group_name_H-M   'P 1'
_cell_length_a   6.31885998
_cell_length_b   6.05275022
_cell_length_c   10.04397398
_cell_angle_alpha   90.00000000
_cell_angle_beta   90.00000000
_cell_angle_gamma   118.61640956
_symmetry_Int_Tables_number   1
_chemical_formula_structural   CuNi14C
_chemical_formula_sum   'Cu1 Ni14 C1'
_cell_volume   337.22154902
_cell_formula_units_Z   1
loop_
 _symmetry_equiv_pos_site_id
 _symmetry_equiv_pos_as_xyz
  1  'x, y, z'
loop_
 _atom_site_type_symbol
 _atom_site_label
 _atom_site_symmetry_multiplicity
 _atom_site_fract_x
 _atom_site_fract_y
 _atom_site_fract_z
 _atom_site_occupancy
  Ni  Ni0  1  0.16724255  0.33362077  0.62500000  1
  Ni  Ni1  1  0.16425272  0.83212586  0.62500000  1
  Ni  Ni2  1  0.66018001  0.32805429  0.12500000  1
  Ni  Ni3  1  0.66311479  0.33262680  0.62500000  1
  Ni  Ni4  1  0.66018001  0.83212473  0.12500000  1
  Ni  Ni5  1  0.66311479  0.83048699  0.62500000  1
  Ni  Ni6  1  0.32954706  0.16073449  0.36289459  1
  Ni  Ni7  1  0.32954706  0.16073449  0.88710541  1
  Ni  Ni8  1  0.32954706  0.66881357  0.36289459  1
  Ni  Ni9  1  0.32954706  0.66881357  0.88710541  1
  Ni  Ni10  1  0.84550159  0.17275130  0.37256958  1
  Ni  Ni11  1  0.84550159  0.17275130  0.87743042  1
  Ni  Ni12  1  0.84911941  0.67456021  0.36414353  1
  Ni  Ni13  1  0.84911941  0.67456021  0.88585647  1
  Cu  Cu14  1  0.15908175  0.32954038  0.12500000  1
  C  C15  1  0.15540315  0.82770107  0.12500000  1
