# generated using pymatgen
data_Cu2(NiC)3
_symmetry_space_group_name_H-M   'P 1'
_cell_length_a   10.95227676
_cell_length_b   10.95227676
_cell_length_c   10.95227676
_cell_angle_alpha   159.94805508
_cell_angle_beta   159.94805508
_cell_angle_gamma   28.50633954
_symmetry_Int_Tables_number   1
_chemical_formula_structural   Cu2(NiC)3
_chemical_formula_sum   'Cu2 Ni3 C3'
_cell_volume   154.37069680
_cell_formula_units_Z   1
loop_
 _symmetry_equiv_pos_site_id
 _symmetry_equiv_pos_as_xyz
  1  'x, y, z'
loop_
 _atom_site_type_symbol
 _atom_site_label
 _atom_site_symmetry_multiplicity
 _atom_site_fract_x
 _atom_site_fract_y
 _atom_site_fract_z
 _atom_site_occupancy
  C  C0  1  0.00000000  0.00000000  0.00000000  1
  C  C1  1  0.31305000  0.31305000  0.00000000  1
  C  C2  1  0.68695000  0.68695000  0.00000000  1
  Ni  Ni3  1  0.12883000  0.12883000  0.00000000  1
  Ni  Ni4  1  0.87117000  0.87117000  0.00000000  1
  Ni  Ni5  1  0.50000000  0.50000000  0.00000000  1
  Cu  Cu6  1  0.75000000  0.25000000  0.50000000  1
  Cu  Cu7  1  0.25000000  0.75000000  0.50000000  1
