# generated using pymatgen
data_Cu3NiC12
_symmetry_space_group_name_H-M   'P 1'
_cell_length_a   13.25832473
_cell_length_b   13.25832473
_cell_length_c   13.25832445
_cell_angle_alpha   17.34970015
_cell_angle_beta   17.34970015
_cell_angle_gamma   17.34969914
_symmetry_Int_Tables_number   1
_chemical_formula_structural   Cu3NiC12
_chemical_formula_sum   'Cu3 Ni1 C12'
_cell_volume   180.85303831
_cell_formula_units_Z   1
loop_
 _symmetry_equiv_pos_site_id
 _symmetry_equiv_pos_as_xyz
  1  'x, y, z'
loop_
 _atom_site_type_symbol
 _atom_site_label
 _atom_site_symmetry_multiplicity
 _atom_site_fract_x
 _atom_site_fract_y
 _atom_site_fract_z
 _atom_site_occupancy
  Ni  Ni0  1  0.00000000  0.00000000  0.00000000  1
  C  C1  1  0.87466300  0.87466300  0.87466300  1
  C  C2  1  0.12533700  0.12533700  0.12533700  1
  C  C3  1  0.37498600  0.37498600  0.37498600  1
  C  C4  1  0.62501400  0.62501400  0.62501400  1
  C  C5  1  0.18750300  0.18750300  0.18750300  1
  C  C6  1  0.43773500  0.43773500  0.43773500  1
  C  C7  1  0.68913200  0.68913200  0.68913200  1
  C  C8  1  0.93583000  0.93583000  0.93583000  1
  C  C9  1  0.81249700  0.81249700  0.81249700  1
  C  C10  1  0.06417000  0.06417000  0.06417000  1
  C  C11  1  0.31086800  0.31086800  0.31086800  1
  C  C12  1  0.56226500  0.56226500  0.56226500  1
  Cu  Cu13  1  0.24977900  0.24977900  0.24977900  1
  Cu  Cu14  1  0.50000000  0.50000000  0.50000000  1
  Cu  Cu15  1  0.75022100  0.75022100  0.75022100  1
