# generated using pymatgen
data_Cu2Ni2C3
_symmetry_space_group_name_H-M   'P 1'
_cell_length_a   9.71964716
_cell_length_b   9.71964716
_cell_length_c   7.49351100
_cell_angle_alpha   90.00000000
_cell_angle_beta   90.00000000
_cell_angle_gamma   134.64671277
_symmetry_Int_Tables_number   1
_chemical_formula_structural   Cu2Ni2C3
_chemical_formula_sum   'Cu4 Ni4 C6'
_cell_volume   503.65456737
_cell_formula_units_Z   2
loop_
 _symmetry_equiv_pos_site_id
 _symmetry_equiv_pos_as_xyz
  1  'x, y, z'
loop_
 _atom_site_type_symbol
 _atom_site_label
 _atom_site_symmetry_multiplicity
 _atom_site_fract_x
 _atom_site_fract_y
 _atom_site_fract_z
 _atom_site_occupancy
  C  C0  1  0.12638800  0.87361200  0.50000000  1
  C  C1  1  0.87361200  0.12638800  0.50000000  1
  C  C2  1  0.37361200  0.62638800  0.00000000  1
  C  C3  1  0.62638800  0.37361200  0.00000000  1
  C  C4  1  0.50000000  0.50000000  0.50000000  1
  C  C5  1  0.00000000  0.00000000  0.00000000  1
  Ni  Ni6  1  0.34418000  0.65582000  0.50000000  1
  Ni  Ni7  1  0.65582000  0.34418000  0.50000000  1
  Ni  Ni8  1  0.15582000  0.84418000  0.00000000  1
  Ni  Ni9  1  0.84418000  0.15582000  0.00000000  1
  Cu  Cu10  1  0.72897300  0.72897300  0.72851600  1
  Cu  Cu11  1  0.27102700  0.27102700  0.27148400  1
  Cu  Cu12  1  0.77102700  0.77102700  0.22851600  1
  Cu  Cu13  1  0.22897300  0.22897300  0.77148400  1
