# generated using pymatgen
data_Cu3Ni2C15
_symmetry_space_group_name_H-M   'P 1'
_cell_length_a   9.46267225
_cell_length_b   9.46267225
_cell_length_c   7.02488179
_cell_angle_alpha   75.86218761
_cell_angle_beta   75.86218761
_cell_angle_gamma   98.70005818
_symmetry_Int_Tables_number   1
_chemical_formula_structural   Cu3Ni2C15
_chemical_formula_sum   'Cu6 Ni4 C30'
_cell_volume   576.42346327
_cell_formula_units_Z   2
loop_
 _symmetry_equiv_pos_site_id
 _symmetry_equiv_pos_as_xyz
  1  'x, y, z'
loop_
 _atom_site_type_symbol
 _atom_site_label
 _atom_site_symmetry_multiplicity
 _atom_site_fract_x
 _atom_site_fract_y
 _atom_site_fract_z
 _atom_site_occupancy
  C  C0  1  0.23309200  0.76690800  0.25000000  1
  C  C1  1  0.76690800  0.23309200  0.75000000  1
  C  C2  1  0.00000000  0.00000000  0.00000000  1
  C  C3  1  0.00000000  0.00000000  0.50000000  1
  C  C4  1  0.51939500  0.48060500  0.25000000  1
  C  C5  1  0.48060500  0.51939500  0.75000000  1
  Ni  Ni6  1  0.55142700  0.87286500  0.38037800  1
  Ni  Ni7  1  0.44857300  0.12713500  0.61962200  1
  Ni  Ni8  1  0.12713500  0.44857300  0.11962200  1
  Ni  Ni9  1  0.87286500  0.55142700  0.88037800  1
  Cu  Cu10  1  0.78083700  0.21916300  0.25000000  1
  Cu  Cu11  1  0.21916300  0.78083700  0.75000000  1
  Cu  Cu12  1  0.37637500  0.16814400  0.11871700  1
  Cu  Cu13  1  0.62362500  0.83185600  0.88128300  1
  Cu  Cu14  1  0.83185600  0.62362500  0.38128300  1
  Cu  Cu15  1  0.16814400  0.37637500  0.61871700  1
  C  C16  1  0.45806000  0.12022500  0.32761100  1
  C  C17  1  0.54194000  0.87977500  0.67238900  1
  C  C18  1  0.87977500  0.54194000  0.17238900  1
  C  C19  1  0.12022500  0.45806000  0.82761100  1
  C  C20  1  0.50730400  0.84209800  0.12133600  1
  C  C21  1  0.49269600  0.15790200  0.87866400  1
  C  C22  1  0.15790200  0.49269600  0.37866400  1
  C  C23  1  0.84209800  0.50730400  0.62133600  1
  C  C24  1  0.19892800  0.04179200  0.18923100  1
  C  C25  1  0.80107200  0.95820800  0.81076900  1
  C  C26  1  0.95820800  0.80107200  0.31076900  1
  C  C27  1  0.04179200  0.19892800  0.68923100  1
  C  C28  1  0.74543100  0.02673700  0.24502300  1
  C  C29  1  0.25456900  0.97326300  0.75497700  1
  C  C30  1  0.97326300  0.25456900  0.25497700  1
  C  C31  1  0.02673700  0.74543100  0.74502300  1
  C  C32  1  0.66341500  0.24734900  0.47776400  1
  C  C33  1  0.33658500  0.75265100  0.52223600  1
  C  C34  1  0.75265100  0.33658500  0.02223600  1
  C  C35  1  0.24734900  0.66341500  0.97776400  1
  C  C36  1  0.64197800  0.64640800  0.41434300  1
  C  C37  1  0.35802200  0.35359200  0.58565700  1
  C  C38  1  0.35359200  0.35802200  0.08565700  1
  C  C39  1  0.64640800  0.64197800  0.91434300  1
