# generated using pymatgen
data_Cu(NiC2)7
_symmetry_space_group_name_H-M   'P 1'
_cell_length_a   6.91145974
_cell_length_b   6.91145974
_cell_length_c   6.91146040
_cell_angle_alpha   90.95029015
_cell_angle_beta   90.95029015
_cell_angle_gamma   90.95029401
_symmetry_Int_Tables_number   1
_chemical_formula_structural   Cu(NiC2)7
_chemical_formula_sum   'Cu1 Ni7 C14'
_cell_volume   330.01079455
_cell_formula_units_Z   1
loop_
 _symmetry_equiv_pos_site_id
 _symmetry_equiv_pos_as_xyz
  1  'x, y, z'
loop_
 _atom_site_type_symbol
 _atom_site_label
 _atom_site_symmetry_multiplicity
 _atom_site_fract_x
 _atom_site_fract_y
 _atom_site_fract_z
 _atom_site_occupancy
  Ni  Ni0  1  0.13762700  0.86237300  0.50000000  1
  Ni  Ni1  1  0.50000000  0.13762700  0.86237300  1
  Ni  Ni2  1  0.86237300  0.50000000  0.13762700  1
  Ni  Ni3  1  0.00000000  0.36550600  0.63449400  1
  Ni  Ni4  1  0.63449400  0.00000000  0.36550600  1
  Ni  Ni5  1  0.36550600  0.63449400  0.00000000  1
  Ni  Ni6  1  0.00000000  0.00000000  0.00000000  1
  Cu  Cu7  1  0.50000000  0.50000000  0.50000000  1
  C  C8  1  0.74659200  0.74659200  0.74659200  1
  C  C9  1  0.25340800  0.25340800  0.25340800  1
  C  C10  1  0.46217700  0.79842600  0.66904500  1
  C  C11  1  0.66904500  0.46217700  0.79842600  1
  C  C12  1  0.79842600  0.66904500  0.46217700  1
  C  C13  1  0.17822400  0.30885200  0.96725100  1
  C  C14  1  0.96725100  0.17822400  0.30885200  1
  C  C15  1  0.30885200  0.96725100  0.17822400  1
  C  C16  1  0.03274900  0.69114800  0.82177600  1
  C  C17  1  0.82177600  0.03274900  0.69114800  1
  C  C18  1  0.69114800  0.82177600  0.03274900  1
  C  C19  1  0.33095500  0.20157400  0.53782300  1
  C  C20  1  0.53782300  0.33095500  0.20157400  1
  C  C21  1  0.20157400  0.53782300  0.33095500  1
