# generated using pymatgen
data_Cu4NiC23
_symmetry_space_group_name_H-M   'P 1'
_cell_length_a   9.83403805
_cell_length_b   9.97239600
_cell_length_c   9.66313129
_cell_angle_alpha   51.66034511
_cell_angle_beta   68.13075015
_cell_angle_gamma   79.83389586
_symmetry_Int_Tables_number   1
_chemical_formula_structural   Cu4NiC23
_chemical_formula_sum   'Cu8 Ni2 C46'
_cell_volume   687.85853176
_cell_formula_units_Z   2
loop_
 _symmetry_equiv_pos_site_id
 _symmetry_equiv_pos_as_xyz
  1  'x, y, z'
loop_
 _atom_site_type_symbol
 _atom_site_label
 _atom_site_symmetry_multiplicity
 _atom_site_fract_x
 _atom_site_fract_y
 _atom_site_fract_z
 _atom_site_occupancy
  C  C0  1  0.40522400  0.16720300  0.35199500  1
  C  C1  1  0.48779700  0.70596500  0.16247700  1
  C  C2  1  0.51220300  0.29403500  0.83752300  1
  C  C3  1  0.59477600  0.83279700  0.64800500  1
  C  C4  1  0.20801100  0.99918200  0.27497800  1
  C  C5  1  0.79198900  0.00081800  0.72502200  1
  Ni  Ni6  1  0.10500700  0.78871900  0.16378300  1
  Ni  Ni7  1  0.89499300  0.21128100  0.83621700  1
  Cu  Cu8  1  0.97883300  0.20516400  0.39032200  1
  Cu  Cu9  1  0.20345800  0.20025000  0.87208400  1
  Cu  Cu10  1  0.18127800  0.55795100  0.50797300  1
  Cu  Cu11  1  0.22923000  0.76083300  0.80507600  1
  Cu  Cu12  1  0.77077000  0.23916700  0.19492400  1
  Cu  Cu13  1  0.81872200  0.44204900  0.49202700  1
  Cu  Cu14  1  0.79654200  0.79975000  0.12791600  1
  Cu  Cu15  1  0.02116700  0.79483600  0.60967800  1
  C  C16  1  0.09361000  0.44492600  0.38696500  1
  C  C17  1  0.50206100  0.98741500  0.19964500  1
  C  C18  1  0.37525200  0.39634900  0.58687200  1
  C  C19  1  0.25958800  0.57901000  0.89794300  1
  C  C20  1  0.85455400  0.65705100  0.99504900  1
  C  C21  1  0.14544600  0.34294900  0.00495100  1
  C  C22  1  0.74041200  0.42099000  0.10205700  1
  C  C23  1  0.62474900  0.60365100  0.41312800  1
  C  C24  1  0.49793900  0.01258500  0.80035500  1
  C  C25  1  0.90639000  0.55507400  0.61303500  1
  C  C26  1  0.80449500  0.19989300  0.04490300  1
  C  C27  1  0.95444700  0.38969000  0.36585000  1
  C  C28  1  0.15103400  0.16243400  0.35090600  1
  C  C29  1  0.92717200  0.22717900  0.23421300  1
  C  C30  1  0.85444800  0.46326000  0.63603600  1
  C  C31  1  0.37210100  0.19063300  0.76715600  1
  C  C32  1  0.10926800  0.31523200  0.72174100  1
  C  C33  1  0.10564400  0.02640000  0.06612100  1
  C  C34  1  0.35138400  0.52064800  0.51015000  1
  C  C35  1  0.36130700  0.89092700  0.61587900  1
  C  C36  1  0.23005200  0.30758000  0.94401100  1
  C  C37  1  0.41756200  0.48902700  0.09798800  1
  C  C38  1  0.23376200  0.77336700  0.30351700  1
  C  C39  1  0.46105000  0.43938800  0.24246000  1
  C  C40  1  0.43382300  0.08034600  0.16277700  1
  C  C41  1  0.56617700  0.91965400  0.83722300  1
  C  C42  1  0.53895000  0.56061200  0.75754000  1
  C  C43  1  0.76623800  0.22663300  0.69648300  1
  C  C44  1  0.58243800  0.51097300  0.90201200  1
  C  C45  1  0.76994800  0.69242000  0.05598900  1
  C  C46  1  0.63869300  0.10907300  0.38412100  1
  C  C47  1  0.64861600  0.47935200  0.48985000  1
  C  C48  1  0.89435600  0.97360000  0.93387900  1
  C  C49  1  0.89073200  0.68476800  0.27825900  1
  C  C50  1  0.62789900  0.80936700  0.23284400  1
  C  C51  1  0.14555200  0.53674000  0.36396400  1
  C  C52  1  0.07282800  0.77282100  0.76578700  1
  C  C53  1  0.84896600  0.83756600  0.64909400  1
  C  C54  1  0.04555300  0.61031000  0.63415000  1
  C  C55  1  0.19550500  0.80010700  0.95509700  1
