# generated using pymatgen
data_Cu2Ni2C
_symmetry_space_group_name_H-M   'P 1'
_cell_length_a   3.24972800
_cell_length_b   6.28179000
_cell_length_c   13.38479500
_cell_angle_alpha   90.00000000
_cell_angle_beta   90.00000000
_cell_angle_gamma   90.00000000
_symmetry_Int_Tables_number   1
_chemical_formula_structural   Cu2Ni2C
_chemical_formula_sum   'Cu8 Ni8 C4'
_cell_volume   273.23866211
_cell_formula_units_Z   4
loop_
 _symmetry_equiv_pos_site_id
 _symmetry_equiv_pos_as_xyz
  1  'x, y, z'
loop_
 _atom_site_type_symbol
 _atom_site_label
 _atom_site_symmetry_multiplicity
 _atom_site_fract_x
 _atom_site_fract_y
 _atom_site_fract_z
 _atom_site_occupancy
  C  C0  1  0.50000000  0.64137700  0.39826900  1
  C  C1  1  0.50000000  0.35862300  0.60173100  1
  C  C2  1  0.00000000  0.85862300  0.89826900  1
  C  C3  1  0.00000000  0.14137700  0.10173100  1
  Ni  Ni4  1  0.50000000  0.69427600  0.13038900  1
  Ni  Ni5  1  0.50000000  0.30572400  0.86961100  1
  Ni  Ni6  1  0.00000000  0.80572400  0.63038900  1
  Ni  Ni7  1  0.00000000  0.19427600  0.36961100  1
  Ni  Ni8  1  0.50000000  0.62378100  0.75829200  1
  Ni  Ni9  1  0.50000000  0.37621900  0.24170800  1
  Ni  Ni10  1  0.00000000  0.87621900  0.25829200  1
  Ni  Ni11  1  0.00000000  0.12378100  0.74170800  1
  Cu  Cu12  1  0.50000000  0.07208500  0.44609100  1
  Cu  Cu13  1  0.50000000  0.92791500  0.55390900  1
  Cu  Cu14  1  0.00000000  0.42791500  0.94609100  1
  Cu  Cu15  1  0.00000000  0.57208500  0.05390900  1
  Cu  Cu16  1  0.50000000  0.06059500  0.30986400  1
  Cu  Cu17  1  0.50000000  0.93940500  0.69013600  1
  Cu  Cu18  1  0.00000000  0.43940500  0.80986400  1
  Cu  Cu19  1  0.00000000  0.56059500  0.19013600  1
