# generated using pymatgen
data_CuNiC8
_symmetry_space_group_name_H-M   'P 1'
_cell_length_a   5.61115400
_cell_length_b   5.34635100
_cell_length_c   9.32457166
_cell_angle_alpha   55.52049035
_cell_angle_beta   90.00000000
_cell_angle_gamma   90.00000000
_symmetry_Int_Tables_number   1
_chemical_formula_structural   CuNiC8
_chemical_formula_sum   'Cu2 Ni2 C16'
_cell_volume   230.58920156
_cell_formula_units_Z   2
loop_
 _symmetry_equiv_pos_site_id
 _symmetry_equiv_pos_as_xyz
  1  'x, y, z'
loop_
 _atom_site_type_symbol
 _atom_site_label
 _atom_site_symmetry_multiplicity
 _atom_site_fract_x
 _atom_site_fract_y
 _atom_site_fract_z
 _atom_site_occupancy
  C  C0  1  0.56535600  0.73318400  0.75174500  1
  C  C1  1  0.06535600  0.26681600  0.74825500  1
  C  C2  1  0.43464400  0.26681600  0.24825500  1
  C  C3  1  0.93464400  0.73318400  0.25174500  1
  Ni  Ni4  1  0.50000000  0.50000000  0.50000000  1
  Ni  Ni5  1  0.00000000  0.50000000  0.00000000  1
  Cu  Cu6  1  0.50000000  0.00000000  0.00000000  1
  Cu  Cu7  1  0.00000000  0.00000000  0.50000000  1
  C  C8  1  0.97339500  0.84226400  0.75096500  1
  C  C9  1  0.47339500  0.15773600  0.74903500  1
  C  C10  1  0.02660500  0.15773600  0.24903500  1
  C  C11  1  0.52660500  0.84226400  0.25096500  1
  C  C12  1  0.80738800  0.26154000  0.95345700  1
  C  C13  1  0.30738800  0.73846000  0.54654300  1
  C  C14  1  0.20248800  0.35012400  0.45006500  1
  C  C15  1  0.70248800  0.64987600  0.04993500  1
  C  C16  1  0.19261200  0.73846000  0.04654300  1
  C  C17  1  0.69261200  0.26154000  0.45345700  1
  C  C18  1  0.79751200  0.64987600  0.54993500  1
  C  C19  1  0.29751200  0.35012400  0.95006500  1
