# generated using pymatgen
data_CuNiC5
_symmetry_space_group_name_H-M   'P 1'
_cell_length_a   7.39973840
_cell_length_b   8.77119142
_cell_length_c   9.27227366
_cell_angle_alpha   64.45431757
_cell_angle_beta   69.27365833
_cell_angle_gamma   67.85023841
_symmetry_Int_Tables_number   1
_chemical_formula_structural   CuNiC5
_chemical_formula_sum   'Cu6 Ni6 C30'
_cell_volume   489.55180222
_cell_formula_units_Z   6
loop_
 _symmetry_equiv_pos_site_id
 _symmetry_equiv_pos_as_xyz
  1  'x, y, z'
loop_
 _atom_site_type_symbol
 _atom_site_label
 _atom_site_symmetry_multiplicity
 _atom_site_fract_x
 _atom_site_fract_y
 _atom_site_fract_z
 _atom_site_occupancy
  C  C0  1  0.00000000  0.00000000  0.00000000  1
  C  C1  1  0.79272100  0.78532200  0.56214000  1
  C  C2  1  0.20728000  0.21467800  0.43786000  1
  Ni  Ni3  1  0.92600500  0.37834400  0.72541100  1
  Ni  Ni4  1  0.07399500  0.62165600  0.27458900  1
  Ni  Ni5  1  0.91883400  0.15225900  0.27769200  1
  Ni  Ni6  1  0.08116600  0.84774100  0.72230800  1
  Ni  Ni7  1  0.43504600  0.05289000  0.72489200  1
  Ni  Ni8  1  0.56495400  0.94711000  0.27510800  1
  Cu  Cu9  1  0.15673000  0.50626600  0.66718700  1
  Cu  Cu10  1  0.84327000  0.49373400  0.33281300  1
  Cu  Cu11  1  0.62500300  0.34310700  0.29887400  1
  Cu  Cu12  1  0.37499700  0.65689300  0.70112600  1
  Cu  Cu13  1  0.64748800  0.06089700  0.83909600  1
  Cu  Cu14  1  0.35251200  0.93910300  0.16090400  1
  C  C15  1  0.11529300  0.40202600  0.74893500  1
  C  C16  1  0.88470700  0.59797400  0.25106500  1
  C  C17  1  0.98085900  0.31702500  0.57811900  1
  C  C18  1  0.01914100  0.68297500  0.42188100  1
  C  C19  1  0.76231000  0.55309900  0.69653000  1
  C  C20  1  0.23769000  0.44690100  0.30347000  1
  C  C21  1  0.86309500  0.23176500  0.88040900  1
  C  C22  1  0.13690500  0.76823500  0.11959100  1
  C  C23  1  0.04956900  0.08574500  0.13522400  1
  C  C24  1  0.95043100  0.91425500  0.86477600  1
  C  C25  1  0.03226800  0.23334600  0.32190400  1
  C  C26  1  0.96773200  0.76665400  0.67809600  1
  C  C27  1  0.73410300  0.30625300  0.21296800  1
  C  C28  1  0.26589700  0.69374700  0.78703200  1
  C  C29  1  0.83843200  0.00749200  0.42415900  1
  C  C30  1  0.16156800  0.99250800  0.57584100  1
  C  C31  1  0.57123900  0.87650000  0.70618000  1
  C  C32  1  0.42876100  0.12350000  0.29382000  1
  C  C33  1  0.38405400  0.18597800  0.56013800  1
  C  C34  1  0.61594600  0.81402200  0.43986200  1
  C  C35  1  0.55722700  0.14003100  0.76445400  1
  C  C36  1  0.44277300  0.85996900  0.23554600  1
  C  C37  1  0.25335300  0.02210600  0.86422000  1
  C  C38  1  0.74664700  0.97789400  0.13578000  1
  C  C39  1  0.50000000  0.50000000  0.50000000  1
  C  C40  1  0.61600000  0.67129400  0.02095500  1
  C  C41  1  0.38400000  0.32870600  0.97904500  1
