# generated using pymatgen
data_Cu4NiC2
_symmetry_space_group_name_H-M   'P 1'
_cell_length_a   8.74400286
_cell_length_b   8.74400286
_cell_length_c   10.38640040
_cell_angle_alpha   62.07197558
_cell_angle_beta   62.07197558
_cell_angle_gamma   53.28032071
_symmetry_Int_Tables_number   1
_chemical_formula_structural   Cu4NiC2
_chemical_formula_sum   'Cu8 Ni2 C4'
_cell_volume   542.15919231
_cell_formula_units_Z   2
loop_
 _symmetry_equiv_pos_site_id
 _symmetry_equiv_pos_as_xyz
  1  'x, y, z'
loop_
 _atom_site_type_symbol
 _atom_site_label
 _atom_site_symmetry_multiplicity
 _atom_site_fract_x
 _atom_site_fract_y
 _atom_site_fract_z
 _atom_site_occupancy
  C  C0  1  0.15876700  0.15876700  0.71506000  1
  C  C1  1  0.84123300  0.84123300  0.28494000  1
  C  C2  1  0.40824000  0.40824000  0.85815000  1
  C  C3  1  0.59176000  0.59176000  0.14185000  1
  Ni  Ni4  1  0.15729200  0.15729200  0.29811900  1
  Ni  Ni5  1  0.84270800  0.84270800  0.70188100  1
  Cu  Cu6  1  0.83938800  0.33211200  0.46614000  1
  Cu  Cu7  1  0.33211200  0.83938800  0.46614000  1
  Cu  Cu8  1  0.16061200  0.66788800  0.53386000  1
  Cu  Cu9  1  0.66788800  0.16061200  0.53386000  1
  Cu  Cu10  1  0.12557500  0.12557500  0.10430600  1
  Cu  Cu11  1  0.87442500  0.87442500  0.89569400  1
  Cu  Cu12  1  0.31515700  0.31515700  0.26965100  1
  Cu  Cu13  1  0.68484300  0.68484300  0.73034900  1
