# generated using pymatgen
data_Cu(Ni2C3)3
_symmetry_space_group_name_H-M   'P 1'
_cell_length_a   3.96257224
_cell_length_b   7.96053229
_cell_length_c   11.43581600
_cell_angle_alpha   90.00000000
_cell_angle_beta   90.00000000
_cell_angle_gamma   99.76701340
_symmetry_Int_Tables_number   1
_chemical_formula_structural   Cu(Ni2C3)3
_chemical_formula_sum   'Cu2 Ni12 C18'
_cell_volume   355.50491785
_cell_formula_units_Z   2
loop_
 _symmetry_equiv_pos_site_id
 _symmetry_equiv_pos_as_xyz
  1  'x, y, z'
loop_
 _atom_site_type_symbol
 _atom_site_label
 _atom_site_symmetry_multiplicity
 _atom_site_fract_x
 _atom_site_fract_y
 _atom_site_fract_z
 _atom_site_occupancy
  C  C0  1  0.50000000  0.00000000  0.00000000  1
  C  C1  1  0.00000000  0.50000000  0.50000000  1
  C  C2  1  0.35125100  0.98420200  0.22865000  1
  C  C3  1  0.64874900  0.01579800  0.77135000  1
  C  C4  1  0.14874900  0.51579800  0.72865000  1
  C  C5  1  0.85125100  0.48420200  0.27135000  1
  C  C6  1  0.55178600  0.81831700  0.19408100  1
  C  C7  1  0.44821400  0.18168300  0.80591800  1
  C  C8  1  0.94821400  0.68168300  0.69408200  1
  C  C9  1  0.05178600  0.31831700  0.30591800  1
  C  C10  1  0.04113900  0.88197900  0.47164800  1
  C  C11  1  0.95886100  0.11802100  0.52835200  1
  C  C12  1  0.45886100  0.61802100  0.97164800  1
  C  C13  1  0.54113900  0.38197900  0.02835200  1
  C  C14  1  0.58636000  0.55304600  0.08085400  1
  C  C15  1  0.41364000  0.44695400  0.91914600  1
  C  C16  1  0.91364000  0.94695400  0.58085400  1
  C  C17  1  0.08636000  0.05304600  0.41914600  1
  Ni  Ni18  1  0.45911500  0.92018500  0.16646900  1
  Ni  Ni19  1  0.54088500  0.07981500  0.83353100  1
  Ni  Ni20  1  0.04088500  0.57981500  0.66646900  1
  Ni  Ni21  1  0.95911500  0.42018500  0.33353100  1
  Ni  Ni22  1  0.09729700  0.74087700  0.43312200  1
  Ni  Ni23  1  0.90270300  0.25912300  0.56687800  1
  Ni  Ni24  1  0.40270300  0.75912300  0.93312200  1
  Ni  Ni25  1  0.59729700  0.24087700  0.06687800  1
  Ni  Ni26  1  0.69012900  0.61522400  0.17860400  1
  Ni  Ni27  1  0.30987100  0.38477600  0.82139600  1
  Ni  Ni28  1  0.80987100  0.88477600  0.67860400  1
  Ni  Ni29  1  0.19012900  0.11522400  0.32139600  1
  Cu  Cu30  1  0.00000000  0.00000000  0.00000000  1
  Cu  Cu31  1  0.50000000  0.50000000  0.50000000  1
