# generated using pymatgen
data_Cu3Ni3C5
_symmetry_space_group_name_H-M   'P 1'
_cell_length_a   4.10312200
_cell_length_b   10.57210700
_cell_length_c   17.93094000
_cell_angle_alpha   90.00000000
_cell_angle_beta   90.00000000
_cell_angle_gamma   90.00000000
_symmetry_Int_Tables_number   1
_chemical_formula_structural   Cu3Ni3C5
_chemical_formula_sum   'Cu12 Ni12 C20'
_cell_volume   777.81987751
_cell_formula_units_Z   4
loop_
 _symmetry_equiv_pos_site_id
 _symmetry_equiv_pos_as_xyz
  1  'x, y, z'
loop_
 _atom_site_type_symbol
 _atom_site_label
 _atom_site_symmetry_multiplicity
 _atom_site_fract_x
 _atom_site_fract_y
 _atom_site_fract_z
 _atom_site_occupancy
  C  C0  1  0.75000000  0.91627600  0.66221000  1
  C  C1  1  0.25000000  0.08372400  0.33779000  1
  C  C2  1  0.75000000  0.41627600  0.83779000  1
  C  C3  1  0.25000000  0.58372400  0.16221000  1
  C  C4  1  0.75000000  0.34331000  0.46318000  1
  C  C5  1  0.25000000  0.65669000  0.53682000  1
  C  C6  1  0.75000000  0.84331000  0.03682000  1
  C  C7  1  0.25000000  0.15669000  0.96318000  1
  Ni  Ni8  1  0.25000000  0.12256100  0.53310600  1
  Ni  Ni9  1  0.75000000  0.37743900  0.03310600  1
  Ni  Ni10  1  0.25000000  0.62256100  0.96689400  1
  Ni  Ni11  1  0.75000000  0.87743900  0.46689400  1
  Ni  Ni12  1  0.25000000  0.62417200  0.37251300  1
  Ni  Ni13  1  0.75000000  0.37582800  0.62748700  1
  Ni  Ni14  1  0.25000000  0.12417200  0.12748700  1
  Ni  Ni15  1  0.75000000  0.87582800  0.87251300  1
  Ni  Ni16  1  0.25000000  0.12639600  0.79914100  1
  Ni  Ni17  1  0.75000000  0.87360400  0.20085900  1
  Ni  Ni18  1  0.25000000  0.62639600  0.70085900  1
  Ni  Ni19  1  0.75000000  0.37360400  0.29914100  1
  Cu  Cu20  1  0.25000000  0.20630500  0.84770900  1
  Cu  Cu21  1  0.75000000  0.79369500  0.15229100  1
  Cu  Cu22  1  0.25000000  0.70630500  0.65229100  1
  Cu  Cu23  1  0.75000000  0.29369500  0.34770900  1
  Cu  Cu24  1  0.75000000  0.79416800  0.51289800  1
  Cu  Cu25  1  0.25000000  0.20583200  0.48710200  1
  Cu  Cu26  1  0.75000000  0.93348200  0.93108500  1
  Cu  Cu27  1  0.25000000  0.06651800  0.06891500  1
  Cu  Cu28  1  0.75000000  0.29416800  0.98710200  1
  Cu  Cu29  1  0.25000000  0.70583200  0.01289800  1
  Cu  Cu30  1  0.75000000  0.43348200  0.56891500  1
  Cu  Cu31  1  0.25000000  0.56651800  0.43108500  1
  C  C32  1  0.25000000  0.05250300  0.74841000  1
  C  C33  1  0.75000000  0.94749700  0.25159000  1
  C  C34  1  0.75000000  0.44749700  0.24841000  1
  C  C35  1  0.75000000  0.82596300  0.81244800  1
  C  C36  1  0.75000000  0.46221000  0.07862200  1
  C  C37  1  0.25000000  0.53779000  0.92137800  1
  C  C38  1  0.75000000  0.96221000  0.42137800  1
  C  C39  1  0.25000000  0.03779000  0.57862200  1
  C  C40  1  0.25000000  0.17403700  0.18755200  1
  C  C41  1  0.75000000  0.32596300  0.68755200  1
  C  C42  1  0.25000000  0.67403700  0.31244800  1
  C  C43  1  0.25000000  0.55250300  0.75159000  1
