# generated using pymatgen
data_Cu(NiC5)2
_symmetry_space_group_name_H-M   'P 1'
_cell_length_a   6.40351067
_cell_length_b   8.30493500
_cell_length_c   11.88369379
_cell_angle_alpha   90.00000000
_cell_angle_beta   90.56455627
_cell_angle_gamma   90.00000000
_symmetry_Int_Tables_number   1
_chemical_formula_structural   Cu(NiC5)2
_chemical_formula_sum   'Cu4 Ni8 C40'
_cell_volume   631.95294938
_cell_formula_units_Z   4
loop_
 _symmetry_equiv_pos_site_id
 _symmetry_equiv_pos_as_xyz
  1  'x, y, z'
loop_
 _atom_site_type_symbol
 _atom_site_label
 _atom_site_symmetry_multiplicity
 _atom_site_fract_x
 _atom_site_fract_y
 _atom_site_fract_z
 _atom_site_occupancy
  Ni  Ni0  1  0.09905300  0.46104500  0.84519800  1
  Ni  Ni1  1  0.09905300  0.03895500  0.34519800  1
  Ni  Ni2  1  0.61163900  0.09093900  0.13160300  1
  Ni  Ni3  1  0.90094700  0.96104500  0.65480200  1
  Ni  Ni4  1  0.38836100  0.90906100  0.86839700  1
  Ni  Ni5  1  0.38836100  0.59093900  0.36839700  1
  Ni  Ni6  1  0.61163900  0.40906100  0.63160300  1
  Ni  Ni7  1  0.90094700  0.53895500  0.15480200  1
  Cu  Cu8  1  0.11034400  0.16711000  0.05009800  1
  Cu  Cu9  1  0.88965600  0.83289000  0.94990200  1
  Cu  Cu10  1  0.88965600  0.66711000  0.44990200  1
  Cu  Cu11  1  0.11034400  0.33289000  0.55009800  1
  C  C12  1  0.76190300  0.17540500  0.86486900  1
  C  C13  1  0.38768500  0.05333700  0.63170900  1
  C  C14  1  0.61231500  0.94666300  0.36829100  1
  C  C15  1  0.23809700  0.82459500  0.13513100  1
  C  C16  1  0.76190300  0.32459500  0.36486900  1
  C  C17  1  0.38768500  0.44666300  0.13170900  1
  C  C18  1  0.23809700  0.67540500  0.63513100  1
  C  C19  1  0.61231500  0.55333700  0.86829100  1
  C  C20  1  0.03449100  0.23137600  0.39372300  1
  C  C21  1  0.67081200  0.01434500  0.59063200  1
  C  C22  1  0.18884200  0.57909300  0.47051300  1
  C  C23  1  0.81115800  0.07909300  0.02948700  1
  C  C24  1  0.03449100  0.26862400  0.89372300  1
  C  C25  1  0.96550900  0.76862400  0.60627700  1
  C  C26  1  0.08953900  0.10129600  0.61617500  1
  C  C27  1  0.51588500  0.89940800  0.13921500  1
  C  C28  1  0.51588500  0.60059200  0.63921500  1
  C  C29  1  0.32066900  0.86750900  0.72852400  1
  C  C30  1  0.67933100  0.36750900  0.77147600  1
  C  C31  1  0.48411500  0.10059200  0.86078500  1
  C  C32  1  0.91046100  0.89870400  0.38382500  1
  C  C33  1  0.87563000  0.53330100  0.29782700  1
  C  C34  1  0.41486200  0.28077600  0.58494500  1
  C  C35  1  0.41486200  0.21922400  0.08494500  1
  C  C36  1  0.12437000  0.03330100  0.20217300  1
  C  C37  1  0.48411500  0.39940800  0.36078500  1
  C  C38  1  0.12437000  0.46669900  0.70217300  1
  C  C39  1  0.81115800  0.42090700  0.52948700  1
  C  C40  1  0.67081200  0.48565500  0.09063200  1
  C  C41  1  0.67933100  0.13249200  0.27147600  1
  C  C42  1  0.96550900  0.73137600  0.10627700  1
  C  C43  1  0.08953900  0.39870400  0.11617500  1
  C  C44  1  0.18884200  0.92090700  0.97051300  1
  C  C45  1  0.58513800  0.78077600  0.91505500  1
  C  C46  1  0.32918700  0.98565500  0.40936800  1
  C  C47  1  0.32918700  0.51434500  0.90936800  1
  C  C48  1  0.91046100  0.60129600  0.88382500  1
  C  C49  1  0.58513800  0.71922400  0.41505500  1
  C  C50  1  0.32066900  0.63249100  0.22852400  1
  C  C51  1  0.87563000  0.96669900  0.79782700  1
