# generated using pymatgen
data_CuNiC8
_symmetry_space_group_name_H-M   'P 1'
_cell_length_a   5.36553468
_cell_length_b   5.73874500
_cell_length_c   7.71885378
_cell_angle_alpha   90.00000000
_cell_angle_beta   89.63254851
_cell_angle_gamma   90.00000000
_symmetry_Int_Tables_number   1
_chemical_formula_structural   CuNiC8
_chemical_formula_sum   'Cu2 Ni2 C16'
_cell_volume   237.66969904
_cell_formula_units_Z   2
loop_
 _symmetry_equiv_pos_site_id
 _symmetry_equiv_pos_as_xyz
  1  'x, y, z'
loop_
 _atom_site_type_symbol
 _atom_site_label
 _atom_site_symmetry_multiplicity
 _atom_site_fract_x
 _atom_site_fract_y
 _atom_site_fract_z
 _atom_site_occupancy
  C  C0  1  0.02204300  0.42866300  0.25294700  1
  C  C1  1  0.97795700  0.57133700  0.74705300  1
  C  C2  1  0.47795700  0.92866300  0.24705300  1
  C  C3  1  0.52204300  0.07133700  0.75294700  1
  Ni  Ni4  1  0.00000000  0.00000000  0.50000000  1
  Ni  Ni5  1  0.50000000  0.50000000  0.00000000  1
  Cu  Cu6  1  0.00000000  0.00000000  0.00000000  1
  Cu  Cu7  1  0.50000000  0.50000000  0.50000000  1
  C  C8  1  0.88324200  0.04460900  0.24729400  1
  C  C9  1  0.11675800  0.95539100  0.75270600  1
  C  C10  1  0.61675800  0.54460900  0.25270600  1
  C  C11  1  0.38324200  0.45539100  0.74729400  1
  C  C12  1  0.18532600  0.70338100  0.06334200  1
  C  C13  1  0.81467400  0.29661900  0.93665800  1
  C  C14  1  0.31467400  0.20338100  0.43665800  1
  C  C15  1  0.68532600  0.79661900  0.56334200  1
  C  C16  1  0.30811200  0.19192900  0.05341300  1
  C  C17  1  0.69188800  0.80807100  0.94658700  1
  C  C18  1  0.19188800  0.69192900  0.44658700  1
  C  C19  1  0.80811200  0.30807100  0.55341300  1
