# generated using pymatgen
data_Cu3Ni6C5
_symmetry_space_group_name_H-M   'P 1'
_cell_length_a   3.78104600
_cell_length_b   11.29296208
_cell_length_c   13.88876590
_cell_angle_alpha   80.27680172
_cell_angle_beta   82.17667681
_cell_angle_gamma   80.36289857
_symmetry_Int_Tables_number   1
_chemical_formula_structural   Cu3Ni6C5
_chemical_formula_sum   'Cu6 Ni12 C10'
_cell_volume   572.71148932
_cell_formula_units_Z   2
loop_
 _symmetry_equiv_pos_site_id
 _symmetry_equiv_pos_as_xyz
  1  'x, y, z'
loop_
 _atom_site_type_symbol
 _atom_site_label
 _atom_site_symmetry_multiplicity
 _atom_site_fract_x
 _atom_site_fract_y
 _atom_site_fract_z
 _atom_site_occupancy
  C  C0  1  0.83010000  0.96094500  0.37885500  1
  C  C1  1  0.16990000  0.03905500  0.62114500  1
  C  C2  1  0.16657200  0.26774100  0.39911400  1
  C  C3  1  0.83342800  0.73225900  0.60088600  1
  C  C4  1  0.50194400  0.89279800  0.10331500  1
  C  C5  1  0.49805600  0.10720200  0.89668500  1
  C  C6  1  0.83884100  0.17606000  0.14625800  1
  C  C7  1  0.16115900  0.82394000  0.85374200  1
  C  C8  1  0.49968000  0.60562600  0.39501400  1
  C  C9  1  0.50032000  0.39437400  0.60498600  1
  Ni  Ni10  1  0.37158600  0.79002700  0.46680100  1
  Ni  Ni11  1  0.62841400  0.20997300  0.53319900  1
  Ni  Ni12  1  0.37313200  0.02732200  0.22641300  1
  Ni  Ni13  1  0.62686800  0.97267800  0.77358700  1
  Ni  Ni14  1  0.96299100  0.04173600  0.03228200  1
  Ni  Ni15  1  0.03700900  0.95826400  0.96771800  1
  Ni  Ni16  1  0.70029800  0.11539700  0.48400800  1
  Ni  Ni17  1  0.29970200  0.88460300  0.51599200  1
  Ni  Ni18  1  0.30103100  0.11193700  0.28600100  1
  Ni  Ni19  1  0.69896900  0.88806300  0.71399900  1
  Ni  Ni20  1  0.03677700  0.45090600  0.47554000  1
  Ni  Ni21  1  0.96322300  0.54909400  0.52446000  1
  Cu  Cu22  1  0.66936700  0.41153700  0.24972900  1
  Cu  Cu23  1  0.33063300  0.58846300  0.75027100  1
  Cu  Cu24  1  0.33094100  0.32880700  0.00931100  1
  Cu  Cu25  1  0.66905900  0.67119300  0.99068900  1
  Cu  Cu26  1  0.01491700  0.73099400  0.23917100  1
  Cu  Cu27  1  0.98508300  0.26900600  0.76082900  1
