# generated using pymatgen
data_CuNi3C10
_symmetry_space_group_name_H-M   'P 1'
_cell_length_a   5.62310746
_cell_length_b   14.32720555
_cell_length_c   19.54793204
_cell_angle_alpha   90.00000000
_cell_angle_beta   90.00000000
_cell_angle_gamma   90.00000000
_symmetry_Int_Tables_number   1
_chemical_formula_structural   CuNi3C10
_chemical_formula_sum   'Cu8 Ni24 C80'
_cell_volume   1574.84818888
_cell_formula_units_Z   8
loop_
 _symmetry_equiv_pos_site_id
 _symmetry_equiv_pos_as_xyz
  1  'x, y, z'
loop_
 _atom_site_type_symbol
 _atom_site_label
 _atom_site_symmetry_multiplicity
 _atom_site_fract_x
 _atom_site_fract_y
 _atom_site_fract_z
 _atom_site_occupancy
  Ni  Ni0  1  0.97896570  0.21646087  0.99390051  1
  Ni  Ni1  1  0.02103430  0.78353913  0.49390051  1
  Ni  Ni2  1  0.02103430  0.71646087  0.99390051  1
  Ni  Ni3  1  0.97896570  0.28353913  0.49390051  1
  Ni  Ni4  1  0.98268202  0.95202973  0.64712398  1
  Ni  Ni5  1  0.01731798  0.04797027  0.14712398  1
  Ni  Ni6  1  0.01731798  0.45202973  0.64712398  1
  Ni  Ni7  1  0.98268202  0.54797027  0.14712398  1
  Ni  Ni8  1  0.98819584  0.86212360  0.82695444  1
  Ni  Ni9  1  0.01180416  0.13787640  0.32695444  1
  Ni  Ni10  1  0.01180416  0.36212360  0.82695444  1
  Ni  Ni11  1  0.98819584  0.63787640  0.32695444  1
  Ni  Ni12  1  0.46818580  0.79769401  0.73194651  1
  Ni  Ni13  1  0.53181420  0.20230599  0.23194651  1
  Ni  Ni14  1  0.53181420  0.29769401  0.73194651  1
  Ni  Ni15  1  0.46818580  0.70230599  0.23194651  1
  Ni  Ni16  1  0.54284237  0.96748318  0.88768116  1
  Ni  Ni17  1  0.45715763  0.03251682  0.38768116  1
  Ni  Ni18  1  0.45715763  0.46748318  0.88768116  1
  Ni  Ni19  1  0.54284237  0.53251682  0.38768116  1
  Ni  Ni20  1  0.49372324  0.88509666  0.55188106  1
  Ni  Ni21  1  0.50627676  0.11490334  0.05188106  1
  Ni  Ni22  1  0.50627676  0.38509666  0.55188106  1
  Ni  Ni23  1  0.49372324  0.61490334  0.05188106  1
  Cu  Cu24  1  0.92700221  0.61137027  0.80374788  1
  Cu  Cu25  1  0.07299779  0.38862973  0.30374788  1
  Cu  Cu26  1  0.07299779  0.11137027  0.80374788  1
  Cu  Cu27  1  0.92700221  0.88862973  0.30374788  1
  Cu  Cu28  1  0.56022686  0.63811808  0.57295230  1
  Cu  Cu29  1  0.43977314  0.36188192  0.07295230  1
  Cu  Cu30  1  0.43977314  0.13811808  0.57295230  1
  Cu  Cu31  1  0.56022686  0.86188192  0.07295230  1
  C  C32  1  0.96536083  0.47521733  0.98090961  1
  C  C33  1  0.03463917  0.52478267  0.48090961  1
  C  C34  1  0.03463917  0.97521733  0.98090961  1
  C  C35  1  0.96536083  0.02478267  0.48090961  1
  C  C36  1  0.98681297  0.22464196  0.65296122  1
  C  C37  1  0.01318703  0.77535804  0.15296122  1
  C  C38  1  0.01318703  0.72464196  0.65296122  1
  C  C39  1  0.98681297  0.27535804  0.15296122  1
  C  C40  1  0.47501604  0.52423882  0.72416843  1
  C  C41  1  0.52498396  0.47576118  0.22416843  1
  C  C42  1  0.52498396  0.02423882  0.72416843  1
  C  C43  1  0.47501604  0.97576118  0.22416843  1
  C  C44  1  0.45823671  0.72619430  0.89602222  1
  C  C45  1  0.54176329  0.27380570  0.39602222  1
  C  C46  1  0.54176329  0.22619430  0.89602222  1
  C  C47  1  0.45823671  0.77380570  0.39602222  1
  C  C48  1  0.58273531  0.81232822  0.84733722  1
  C  C49  1  0.41726469  0.18767178  0.34733722  1
  C  C50  1  0.41726469  0.31232822  0.84733722  1
  C  C51  1  0.58273531  0.68767178  0.34733722  1
  C  C52  1  0.70347602  0.46687280  0.76539300  1
  C  C53  1  0.29652398  0.53312720  0.26539300  1
  C  C54  1  0.29652398  0.96687280  0.76539300  1
  C  C55  1  0.70347602  0.03312720  0.26539300  1
  C  C56  1  0.88691405  0.87170131  0.99677627  1
  C  C57  1  0.11308595  0.12829869  0.49677627  1
  C  C58  1  0.11308595  0.37170131  0.99677627  1
  C  C59  1  0.88691405  0.62829869  0.49677627  1
  C  C60  1  0.79087975  0.78142587  0.60863056  1
  C  C61  1  0.20912025  0.21857413  0.10863056  1
  C  C62  1  0.20912025  0.28142587  0.60863056  1
  C  C63  1  0.79087975  0.71857413  0.10863056  1
  C  C64  1  0.66410868  0.46337177  0.99789716  1
  C  C65  1  0.33589132  0.53662823  0.49789716  1
  C  C66  1  0.33589132  0.96337177  0.99789716  1
  C  C67  1  0.66410868  0.03662823  0.49789716  1
  C  C68  1  0.91292517  0.43866077  0.53043858  1
  C  C69  1  0.08707483  0.56133923  0.03043858  1
  C  C70  1  0.08707483  0.93866077  0.53043858  1
  C  C71  1  0.91292517  0.06133923  0.03043858  1
  C  C72  1  0.79097033  0.99432999  0.76181705  1
  C  C73  1  0.20902967  0.00567001  0.26181705  1
  C  C74  1  0.20902967  0.49432999  0.76181705  1
  C  C75  1  0.79097033  0.50567001  0.26181705  1
  C  C76  1  0.60976335  0.62325118  0.88213227  1
  C  C77  1  0.39023665  0.37674882  0.38213227  1
  C  C78  1  0.39023665  0.12325118  0.88213227  1
  C  C79  1  0.60976335  0.87674882  0.38213227  1
  C  C80  1  0.53907834  0.64090541  0.72907048  1
  C  C81  1  0.46092166  0.35909459  0.22907048  1
  C  C82  1  0.46092166  0.14090541  0.72907048  1
  C  C83  1  0.53907834  0.85909459  0.22907048  1
  C  C84  1  0.94942926  0.60811135  0.64892404  1
  C  C85  1  0.05057074  0.39188865  0.14892404  1
  C  C86  1  0.05057074  0.10811135  0.64892404  1
  C  C87  1  0.94942926  0.89188865  0.14892404  1
  C  C88  1  0.84073884  0.21355928  0.87570029  1
  C  C89  1  0.15926116  0.78644072  0.37570029  1
  C  C90  1  0.15926116  0.71355928  0.87570029  1
  C  C91  1  0.84073884  0.28644072  0.37570029  1
  C  C92  1  0.98469226  0.25632842  0.73794321  1
  C  C93  1  0.01530774  0.74367158  0.23794321  1
  C  C94  1  0.01530774  0.75632842  0.73794321  1
  C  C95  1  0.98469226  0.24367158  0.23794321  1
  C  C96  1  0.53527168  0.99465722  0.63877323  1
  C  C97  1  0.46472832  0.00534278  0.13877323  1
  C  C98  1  0.46472832  0.49465722  0.63877323  1
  C  C99  1  0.53527168  0.50534278  0.13877323  1
  C  C100  1  0.98748530  0.99679236  0.89510399  1
  C  C101  1  0.01251470  0.00320764  0.39510399  1
  C  C102  1  0.01251470  0.49679236  0.89510399  1
  C  C103  1  0.98748530  0.50320764  0.39510399  1
  C  C104  1  0.28293238  0.75435401  0.61761421  1
  C  C105  1  0.71706762  0.24564599  0.11761421  1
  C  C106  1  0.71706762  0.25435401  0.61761421  1
  C  C107  1  0.28293238  0.74564599  0.11761421  1
  C  C108  1  0.46695976  0.74702626  0.98279910  1
  C  C109  1  0.53304024  0.25297374  0.48279910  1
  C  C110  1  0.53304024  0.24702626  0.98279910  1
  C  C111  1  0.46695976  0.75297374  0.48279910  1
