# generated using pymatgen
data_CuNiC10
_symmetry_space_group_name_H-M   'P 1'
_cell_length_a   10.60733932
_cell_length_b   10.60733932
_cell_length_c   10.60733932
_cell_angle_alpha   158.52854216
_cell_angle_beta   158.52854216
_cell_angle_gamma   30.54840697
_symmetry_Int_Tables_number   1
_chemical_formula_structural   CuNiC10
_chemical_formula_sum   'Cu1 Ni1 C10'
_cell_volume   159.80494523
_cell_formula_units_Z   1
loop_
 _symmetry_equiv_pos_site_id
 _symmetry_equiv_pos_as_xyz
  1  'x, y, z'
loop_
 _atom_site_type_symbol
 _atom_site_label
 _atom_site_symmetry_multiplicity
 _atom_site_fract_x
 _atom_site_fract_y
 _atom_site_fract_z
 _atom_site_occupancy
  C  C0  1  0.68615200  0.68615200  0.00000000  1
  C  C1  1  0.31897200  0.31897200  0.00000000  1
  C  C2  1  0.49318400  0.49318400  0.00000000  1
  Ni  Ni3  1  0.89996300  0.89996300  0.00000000  1
  Cu  Cu4  1  0.09684900  0.09684900  0.00000000  1
  C  C5  1  0.80598800  0.80598800  0.00000000  1
  C  C6  1  0.19538100  0.19538100  0.00000000  1
  C  C7  1  0.90420300  0.40420300  0.50000000  1
  C  C8  1  0.40420300  0.90420300  0.50000000  1
  C  C9  1  0.09763600  0.59763600  0.50000000  1
  C  C10  1  0.59763600  0.09763600  0.50000000  1
  C  C11  1  0.99983200  0.99983200  0.00000000  1
