# generated using pymatgen
data_Cu21Ni4C15
_symmetry_space_group_name_H-M   'P 1'
_cell_length_a   10.02181283
_cell_length_b   20.16700085
_cell_length_c   10.12157985
_cell_angle_alpha   101.37641265
_cell_angle_beta   90.00000000
_cell_angle_gamma   90.00000000
_symmetry_Int_Tables_number   1
_chemical_formula_structural   Cu21Ni4C15
_chemical_formula_sum   'Cu84 Ni16 C60'
_cell_volume   2005.47916132
_cell_formula_units_Z   4
loop_
 _symmetry_equiv_pos_site_id
 _symmetry_equiv_pos_as_xyz
  1  'x, y, z'
loop_
 _atom_site_type_symbol
 _atom_site_label
 _atom_site_symmetry_multiplicity
 _atom_site_fract_x
 _atom_site_fract_y
 _atom_site_fract_z
 _atom_site_occupancy
  C  C0  1  0.50974862  0.25481307  0.76488970  1
  C  C1  1  0.49025138  0.74518693  0.23511030  1
  C  C2  1  0.00974862  0.74518693  0.73511030  1
  C  C3  1  0.99025138  0.25481307  0.26488970  1
  C  C4  1  0.33593049  0.87474103  0.63348928  1
  C  C5  1  0.66406951  0.12525897  0.36651072  1
  C  C6  1  0.83593049  0.12525897  0.86651072  1
  C  C7  1  0.16406951  0.87474103  0.13348928  1
  C  C8  1  0.72131166  0.93771941  0.55945101  1
  C  C9  1  0.27868834  0.06228059  0.44054899  1
  C  C10  1  0.22131166  0.06228059  0.94054899  1
  C  C11  1  0.77868834  0.93771941  0.05945101  1
  C  C12  1  0.86271386  0.34284062  0.94135301  1
  C  C13  1  0.13728614  0.65715938  0.05864699  1
  C  C14  1  0.36271386  0.65715938  0.55864699  1
  C  C15  1  0.63728614  0.34284062  0.44135301  1
  C  C16  1  0.65384674  0.67588904  0.83240838  1
  C  C17  1  0.34615326  0.32411096  0.16759162  1
  C  C18  1  0.15384674  0.32411096  0.66759162  1
  C  C19  1  0.84615326  0.67588904  0.33240838  1
  C  C20  1  0.88656159  0.60840455  0.56535611  1
  C  C21  1  0.11343841  0.39159545  0.43464389  1
  C  C22  1  0.38656159  0.39159545  0.93464389  1
  C  C23  1  0.61343841  0.60840455  0.06535611  1
  C  C24  1  0.41018968  0.95246434  0.96851788  1
  C  C25  1  0.58981032  0.04753566  0.03148212  1
  C  C26  1  0.91018968  0.04753566  0.53148212  1
  C  C27  1  0.08981032  0.95246434  0.46851788  1
  C  C28  1  0.67820141  0.41795483  0.82181959  1
  C  C29  1  0.32179859  0.58204517  0.17818041  1
  C  C30  1  0.17820141  0.58204517  0.67818041  1
  C  C31  1  0.82179859  0.41795483  0.32181959  1
  C  C32  1  0.15028388  0.98549827  0.60874350  1
  C  C33  1  0.84971612  0.01450173  0.39125650  1
  C  C34  1  0.65028388  0.01450173  0.89125650  1
  C  C35  1  0.34971612  0.98549827  0.10874350  1
  C  C36  1  0.49357402  0.58660634  0.96431757  1
  C  C37  1  0.50642598  0.41339366  0.03568243  1
  C  C38  1  0.99357402  0.41339366  0.53568243  1
  C  C39  1  0.00642598  0.58660634  0.46431757  1
  C  C40  1  0.99309042  0.43590220  0.79526787  1
  C  C41  1  0.00690958  0.56409780  0.20473213  1
  C  C42  1  0.49309042  0.56409780  0.70473213  1
  C  C43  1  0.50690958  0.43590220  0.29526787  1
  C  C44  1  0.56246500  0.84770861  0.94757376  1
  C  C45  1  0.43753500  0.15229139  0.05242624  1
  C  C46  1  0.06246500  0.15229139  0.55242624  1
  C  C47  1  0.93753500  0.84770861  0.44757376  1
  C  C48  1  0.58711431  0.58265863  0.58618120  1
  C  C49  1  0.41288569  0.41734137  0.41381880  1
  C  C50  1  0.08711431  0.41734137  0.91381880  1
  C  C51  1  0.91288569  0.58265863  0.08618120  1
  C  C52  1  0.74967721  0.47325335  0.92991419  1
  C  C53  1  0.25032279  0.52674665  0.07008581  1
  C  C54  1  0.24967721  0.52674665  0.57008581  1
  C  C55  1  0.75032279  0.47325335  0.42991419  1
  C  C56  1  0.62837963  0.87091888  0.82516262  1
  C  C57  1  0.37162037  0.12908112  0.17483738  1
  C  C58  1  0.12837963  0.12908112  0.67483738  1
  C  C59  1  0.87162037  0.87091888  0.32516262  1
  Ni  Ni60  1  0.92130400  0.56408488  0.81974182  1
  Ni  Ni61  1  0.07869600  0.43591512  0.18025818  1
  Ni  Ni62  1  0.42130400  0.43591512  0.68025818  1
  Ni  Ni63  1  0.57869600  0.56408488  0.31974182  1
  Ni  Ni64  1  0.33953629  0.74739705  0.88934598  1
  Ni  Ni65  1  0.66046371  0.25260295  0.11065402  1
  Ni  Ni66  1  0.83953629  0.25260295  0.61065402  1
  Ni  Ni67  1  0.16046371  0.74739705  0.38934598  1
  Ni  Ni68  1  0.64443274  0.76899000  0.57250302  1
  Ni  Ni69  1  0.35556726  0.23101000  0.42749698  1
  Ni  Ni70  1  0.14443274  0.23101000  0.92749698  1
  Ni  Ni71  1  0.85556726  0.76899000  0.07250302  1
  Ni  Ni72  1  0.97430311  0.93808589  0.78657724  1
  Ni  Ni73  1  0.02569689  0.06191411  0.21342276  1
  Ni  Ni74  1  0.47430311  0.06191411  0.71342276  1
  Ni  Ni75  1  0.52569689  0.93808589  0.28657724  1
  Cu  Cu76  1  0.50058530  0.74981436  0.55316145  1
  Cu  Cu77  1  0.49941470  0.25018564  0.44683855  1
  Cu  Cu78  1  0.00058530  0.25018564  0.94683855  1
  Cu  Cu79  1  0.99941470  0.74981436  0.05316145  1
  Cu  Cu80  1  0.83924657  0.60920790  0.74964993  1
  Cu  Cu81  1  0.16075343  0.39079210  0.25035007  1
  Cu  Cu82  1  0.33924657  0.39079210  0.75035007  1
  Cu  Cu83  1  0.66075343  0.60920790  0.24964993  1
  Cu  Cu84  1  0.84234770  0.96660392  0.75321972  1
  Cu  Cu85  1  0.15765230  0.03339608  0.24678028  1
  Cu  Cu86  1  0.34234770  0.03339608  0.74678028  1
  Cu  Cu87  1  0.65765230  0.96660392  0.25321972  1
  Cu  Cu88  1  0.70732358  0.42798545  0.91646403  1
  Cu  Cu89  1  0.29267642  0.57201455  0.08353597  1
  Cu  Cu90  1  0.20732358  0.57201455  0.58353597  1
  Cu  Cu91  1  0.79267642  0.42798545  0.41646403  1
  Cu  Cu92  1  0.55346277  0.40151906  0.64305894  1
  Cu  Cu93  1  0.44653723  0.59848094  0.35694106  1
  Cu  Cu94  1  0.05346277  0.59848094  0.85694106  1
  Cu  Cu95  1  0.94653723  0.40151906  0.14305894  1
  Cu  Cu96  1  0.71560331  0.72525619  0.65141023  1
  Cu  Cu97  1  0.28439669  0.27474381  0.34858977  1
  Cu  Cu98  1  0.21560331  0.27474381  0.84858977  1
  Cu  Cu99  1  0.78439669  0.72525619  0.15141023  1
  Cu  Cu100  1  0.53061304  0.60313625  0.66714062  1
  Cu  Cu101  1  0.46938696  0.39686375  0.33285938  1
  Cu  Cu102  1  0.03061304  0.39686375  0.83285938  1
  Cu  Cu103  1  0.96938696  0.60313625  0.16714062  1
  Cu  Cu104  1  0.56167227  0.62140911  0.99144845  1
  Cu  Cu105  1  0.43832773  0.37859089  0.00855155  1
  Cu  Cu106  1  0.06167227  0.37859089  0.50855155  1
  Cu  Cu107  1  0.93832773  0.62140911  0.49144845  1
  Cu  Cu108  1  0.27773263  0.81045497  0.86755722  1
  Cu  Cu109  1  0.72226737  0.18954503  0.13244278  1
  Cu  Cu110  1  0.77773263  0.18954503  0.63244278  1
  Cu  Cu111  1  0.22226737  0.81045497  0.36755722  1
  Cu  Cu112  1  0.65028132  0.84168483  0.64438293  1
  Cu  Cu113  1  0.34971868  0.15831517  0.35561707  1
  Cu  Cu114  1  0.15028132  0.15831517  0.85561707  1
  Cu  Cu115  1  0.84971868  0.84168483  0.14438293  1
  Cu  Cu116  1  0.79910208  0.31115630  0.71841212  1
  Cu  Cu117  1  0.20089792  0.68884370  0.28158788  1
  Cu  Cu118  1  0.29910208  0.68884370  0.78158788  1
  Cu  Cu119  1  0.70089792  0.31115630  0.21841212  1
  Cu  Cu120  1  0.29514960  0.73168580  0.02213998  1
  Cu  Cu121  1  0.70485040  0.26831420  0.97786002  1
  Cu  Cu122  1  0.79514960  0.26831420  0.47786002  1
  Cu  Cu123  1  0.20485040  0.73168580  0.52213998  1
  Cu  Cu124  1  0.79045135  0.76234237  0.93808306  1
  Cu  Cu125  1  0.20954865  0.23765763  0.06191694  1
  Cu  Cu126  1  0.29045135  0.23765763  0.56191694  1
  Cu  Cu127  1  0.70954865  0.76234237  0.43808306  1
  Cu  Cu128  1  0.48755997  0.87803025  0.18652932  1
  Cu  Cu129  1  0.51244003  0.12196975  0.81347068  1
  Cu  Cu130  1  0.98755997  0.12196975  0.31347068  1
  Cu  Cu131  1  0.01244003  0.87803025  0.68652932  1
  Cu  Cu132  1  0.84919955  0.55336738  0.94365083  1
  Cu  Cu133  1  0.15080045  0.44663262  0.05634917  1
  Cu  Cu134  1  0.34919955  0.44663262  0.55634917  1
  Cu  Cu135  1  0.65080045  0.55336738  0.44365083  1
  Cu  Cu136  1  0.48867236  0.75527075  0.89473058  1
  Cu  Cu137  1  0.51132764  0.24472925  0.10526942  1
  Cu  Cu138  1  0.98867236  0.24472925  0.60526942  1
  Cu  Cu139  1  0.01132764  0.75527075  0.39473058  1
  Cu  Cu140  1  0.59974844  0.88810629  0.91951408  1
  Cu  Cu141  1  0.40025156  0.11189371  0.08048592  1
  Cu  Cu142  1  0.09974844  0.11189371  0.58048592  1
  Cu  Cu143  1  0.90025156  0.88810629  0.41951408  1
  Cu  Cu144  1  0.17345851  0.97003464  0.51247822  1
  Cu  Cu145  1  0.82654149  0.02996536  0.48752178  1
  Cu  Cu146  1  0.67345851  0.02996536  0.98752178  1
  Cu  Cu147  1  0.32654149  0.97003464  0.01247822  1
  Cu  Cu148  1  0.94372540  0.49865720  0.72727976  1
  Cu  Cu149  1  0.05627460  0.50134280  0.27272024  1
  Cu  Cu150  1  0.44372540  0.50134280  0.77272024  1
  Cu  Cu151  1  0.55627460  0.49865720  0.22727976  1
  Cu  Cu152  1  0.96228013  0.92067283  0.92385561  1
  Cu  Cu153  1  0.03771987  0.07932717  0.07614439  1
  Cu  Cu154  1  0.46228013  0.07932717  0.57614439  1
  Cu  Cu155  1  0.53771987  0.92067283  0.42385561  1
  Cu  Cu156  1  0.42270547  0.99266765  0.28794102  1
  Cu  Cu157  1  0.57729453  0.00733235  0.71205898  1
  Cu  Cu158  1  0.92270547  0.00733235  0.21205898  1
  Cu  Cu159  1  0.07729453  0.99266765  0.78794102  1
