# generated using pymatgen
data_Cu(Ni3C14)2
_symmetry_space_group_name_H-M   'P 1'
_cell_length_a   9.66376030
_cell_length_b   28.79859035
_cell_length_c   14.13436205
_cell_angle_alpha   90.00000000
_cell_angle_beta   90.00000000
_cell_angle_gamma   90.00000000
_symmetry_Int_Tables_number   1
_chemical_formula_structural   Cu(Ni3C14)2
_chemical_formula_sum   'Cu4 Ni24 C112'
_cell_volume   3933.63075550
_cell_formula_units_Z   4
loop_
 _symmetry_equiv_pos_site_id
 _symmetry_equiv_pos_as_xyz
  1  'x, y, z'
loop_
 _atom_site_type_symbol
 _atom_site_label
 _atom_site_symmetry_multiplicity
 _atom_site_fract_x
 _atom_site_fract_y
 _atom_site_fract_z
 _atom_site_occupancy
  C  C0  1  0.51015601  0.55340065  0.72480935  1
  C  C1  1  0.48984399  0.44659935  0.27519065  1
  C  C2  1  0.98984399  0.94659935  0.22480935  1
  C  C3  1  0.51015601  0.44659935  0.77519065  1
  C  C4  1  0.01015601  0.05340065  0.77519065  1
  C  C5  1  0.48984399  0.55340065  0.22480935  1
  C  C6  1  0.98984399  0.05340065  0.27519065  1
  C  C7  1  0.01015601  0.94659935  0.72480935  1
  C  C8  1  0.74482436  0.97153177  0.84500263  1
  C  C9  1  0.25517564  0.02846823  0.15499737  1
  C  C10  1  0.75517564  0.52846823  0.34500263  1
  C  C11  1  0.74482436  0.02846823  0.65499737  1
  C  C12  1  0.24482436  0.47153177  0.65499737  1
  C  C13  1  0.25517564  0.97153177  0.34500263  1
  C  C14  1  0.75517564  0.47153177  0.15499737  1
  C  C15  1  0.24482436  0.52846823  0.84500263  1
  C  C16  1  0.95286206  0.65787325  0.82818878  1
  C  C17  1  0.04713794  0.34212675  0.17181122  1
  C  C18  1  0.54713794  0.84212675  0.32818878  1
  C  C19  1  0.95286206  0.34212675  0.67181122  1
  C  C20  1  0.45286206  0.15787325  0.67181122  1
  C  C21  1  0.04713794  0.65787325  0.32818878  1
  C  C22  1  0.54713794  0.15787325  0.17181122  1
  C  C23  1  0.45286206  0.84212675  0.82818878  1
  C  C24  1  0.82502039  0.62844403  0.92813323  1
  C  C25  1  0.17497961  0.37155597  0.07186677  1
  C  C26  1  0.67497961  0.87155597  0.42813323  1
  C  C27  1  0.82502039  0.37155597  0.57186677  1
  C  C28  1  0.32502039  0.12844403  0.57186677  1
  C  C29  1  0.17497961  0.62844403  0.42813323  1
  C  C30  1  0.67497961  0.12844403  0.07186677  1
  C  C31  1  0.32502039  0.87155597  0.92813323  1
  C  C32  1  0.94636168  0.91774632  0.87905435  1
  C  C33  1  0.05363832  0.08225368  0.12094565  1
  C  C34  1  0.55363832  0.58225368  0.37905435  1
  C  C35  1  0.94636168  0.08225368  0.62094565  1
  C  C36  1  0.44636168  0.41774632  0.62094565  1
  C  C37  1  0.05363832  0.91774632  0.37905435  1
  C  C38  1  0.55363832  0.41774632  0.12094565  1
  C  C39  1  0.44636168  0.58225368  0.87905435  1
  C  C40  1  0.86643507  0.71919106  0.78121335  1
  C  C41  1  0.13356493  0.28080894  0.21878665  1
  C  C42  1  0.63356493  0.78080894  0.28121335  1
  C  C43  1  0.86643507  0.28080894  0.71878665  1
  C  C44  1  0.36643507  0.21919106  0.71878665  1
  C  C45  1  0.13356493  0.71919106  0.28121335  1
  C  C46  1  0.63356493  0.21919106  0.21878665  1
  C  C47  1  0.36643507  0.78080894  0.78121335  1
  C  C48  1  0.59898920  0.85535986  0.56043932  1
  C  C49  1  0.40101080  0.14464014  0.43956068  1
  C  C50  1  0.90101080  0.64464014  0.06043932  1
  C  C51  1  0.59898920  0.14464014  0.93956068  1
  C  C52  1  0.09898920  0.35535986  0.93956068  1
  C  C53  1  0.40101080  0.85535986  0.06043932  1
  C  C54  1  0.90101080  0.35535986  0.43956068  1
  C  C55  1  0.09898920  0.64464014  0.56043932  1
  C  C56  1  0.57650739  0.96806638  0.71843984  1
  C  C57  1  0.42349261  0.03193362  0.28156016  1
  C  C58  1  0.92349261  0.53193362  0.21843984  1
  C  C59  1  0.57650739  0.03193362  0.78156016  1
  C  C60  1  0.07650739  0.46806638  0.78156016  1
  C  C61  1  0.42349261  0.96806638  0.21843984  1
  C  C62  1  0.92349261  0.46806638  0.28156016  1
  C  C63  1  0.07650739  0.53193362  0.71843984  1
  C  C64  1  0.59597413  0.73916487  0.58569543  1
  C  C65  1  0.40402587  0.26083513  0.41430457  1
  C  C66  1  0.90402587  0.76083513  0.08569543  1
  C  C67  1  0.59597413  0.26083513  0.91430457  1
  C  C68  1  0.09597413  0.23916487  0.91430457  1
  C  C69  1  0.40402587  0.73916487  0.08569543  1
  C  C70  1  0.90402587  0.23916487  0.41430457  1
  C  C71  1  0.09597413  0.76083513  0.58569543  1
  C  C72  1  0.67701095  0.51097287  0.81882454  1
  C  C73  1  0.32298905  0.48902713  0.18117546  1
  C  C74  1  0.82298905  0.98902713  0.31882454  1
  C  C75  1  0.67701095  0.48902713  0.68117546  1
  C  C76  1  0.17701095  0.01097287  0.68117546  1
  C  C77  1  0.32298905  0.51097287  0.31882454  1
  C  C78  1  0.82298905  0.01097287  0.18117546  1
  C  C79  1  0.17701095  0.98902713  0.81882454  1
  C  C80  1  0.80803372  0.89728351  0.77786764  1
  C  C81  1  0.19196628  0.10271649  0.22213236  1
  C  C82  1  0.69196628  0.60271649  0.27786764  1
  C  C83  1  0.80803372  0.10271649  0.72213236  1
  C  C84  1  0.30803372  0.39728351  0.72213236  1
  C  C85  1  0.19196628  0.89728351  0.27786764  1
  C  C86  1  0.69196628  0.39728351  0.22213236  1
  C  C87  1  0.30803372  0.60271649  0.77786764  1
  C  C88  1  0.82778305  0.79190110  0.96522512  1
  C  C89  1  0.17221695  0.20809890  0.03477488  1
  C  C90  1  0.67221695  0.70809890  0.46522512  1
  C  C91  1  0.82778305  0.20809890  0.53477488  1
  C  C92  1  0.32778305  0.29190110  0.53477488  1
  C  C93  1  0.17221695  0.79190110  0.46522512  1
  C  C94  1  0.67221695  0.29190110  0.03477488  1
  C  C95  1  0.32778305  0.70809890  0.96522512  1
  C  C96  1  0.70632294  0.79900857  0.61264138  1
  C  C97  1  0.29367706  0.20099143  0.38735862  1
  C  C98  1  0.79367706  0.70099143  0.11264138  1
  C  C99  1  0.70632294  0.20099143  0.88735862  1
  C  C100  1  0.20632294  0.29900857  0.88735862  1
  C  C101  1  0.29367706  0.79900857  0.11264138  1
  C  C102  1  0.79367706  0.29900857  0.38735862  1
  C  C103  1  0.20632294  0.70099143  0.61264138  1
  C  C104  1  0.95332235  0.77430601  0.85295397  1
  C  C105  1  0.04667765  0.22569399  0.14704603  1
  C  C106  1  0.54667765  0.72569399  0.35295397  1
  C  C107  1  0.95332235  0.22569399  0.64704603  1
  C  C108  1  0.45332235  0.27430601  0.64704603  1
  C  C109  1  0.04667765  0.77430601  0.35295397  1
  C  C110  1  0.54667765  0.27430601  0.14704603  1
  C  C111  1  0.45332235  0.72569399  0.85295397  1
  Ni  Ni112  1  0.62406518  0.95145638  0.97279817  1
  Ni  Ni113  1  0.37593482  0.04854362  0.02720183  1
  Ni  Ni114  1  0.87593482  0.54854362  0.47279817  1
  Ni  Ni115  1  0.62406518  0.04854362  0.52720183  1
  Ni  Ni116  1  0.12406518  0.45145638  0.52720183  1
  Ni  Ni117  1  0.37593482  0.95145638  0.47279817  1
  Ni  Ni118  1  0.87593482  0.45145638  0.02720183  1
  Ni  Ni119  1  0.12406518  0.54854362  0.97279817  1
  Ni  Ni120  1  0.87495666  0.96244667  0.57126692  1
  Ni  Ni121  1  0.12504334  0.03755333  0.42873308  1
  Ni  Ni122  1  0.62504334  0.53755333  0.07126692  1
  Ni  Ni123  1  0.87495666  0.03755333  0.92873308  1
  Ni  Ni124  1  0.37495666  0.46244667  0.92873308  1
  Ni  Ni125  1  0.12504334  0.96244667  0.07126692  1
  Ni  Ni126  1  0.62504334  0.46244667  0.42873308  1
  Ni  Ni127  1  0.37495666  0.53755333  0.57126692  1
  Ni  Ni128  1  0.63740659  0.61134093  0.66636815  1
  Ni  Ni129  1  0.36259341  0.38865907  0.33363185  1
  Ni  Ni130  1  0.86259341  0.88865907  0.16636815  1
  Ni  Ni131  1  0.63740659  0.38865907  0.83363185  1
  Ni  Ni132  1  0.13740659  0.11134093  0.83363185  1
  Ni  Ni133  1  0.36259341  0.61134093  0.16636815  1
  Ni  Ni134  1  0.86259341  0.11134093  0.33363185  1
  Ni  Ni135  1  0.13740659  0.88865907  0.66636815  1
  Cu  Cu136  1  0.87726511  0.00000000  0.75000000  1
  Cu  Cu137  1  0.12273489  0.00000000  0.25000000  1
  Cu  Cu138  1  0.62273489  0.50000000  0.25000000  1
  Cu  Cu139  1  0.37726511  0.50000000  0.75000000  1
