# generated using pymatgen
data_Cu(NiC7)2
_symmetry_space_group_name_H-M   'P 1'
_cell_length_a   14.89575256
_cell_length_b   14.89575256
_cell_length_c   14.89575256
_cell_angle_alpha   165.10828077
_cell_angle_beta   165.10828077
_cell_angle_gamma   21.12021496
_symmetry_Int_Tables_number   1
_chemical_formula_structural   Cu(NiC7)2
_chemical_formula_sum   'Cu1 Ni2 C14'
_cell_volume   218.25640378
_cell_formula_units_Z   1
loop_
 _symmetry_equiv_pos_site_id
 _symmetry_equiv_pos_as_xyz
  1  'x, y, z'
loop_
 _atom_site_type_symbol
 _atom_site_label
 _atom_site_symmetry_multiplicity
 _atom_site_fract_x
 _atom_site_fract_y
 _atom_site_fract_z
 _atom_site_occupancy
  C  C0  1  0.41994000  0.41994000  0.00000000  1
  C  C1  1  0.57690700  0.57690700  0.00000000  1
  C  C2  1  0.70711400  0.70711400  0.00000000  1
  C  C3  1  0.29466700  0.29466700  0.00000000  1
  Ni  Ni4  1  0.85549800  0.85549800  0.00000000  1
  Ni  Ni5  1  0.14389800  0.14389800  0.00000000  1
  Cu  Cu6  1  0.99997100  0.99997100  0.00000000  1
  C  C7  1  0.93107600  0.93107600  0.00000000  1
  C  C8  1  0.06978900  0.06978900  0.00000000  1
  C  C9  1  0.84747500  0.34747500  0.50000000  1
  C  C10  1  0.34747500  0.84747500  0.50000000  1
  C  C11  1  0.15320100  0.65320100  0.50000000  1
  C  C12  1  0.65320100  0.15320100  0.50000000  1
  C  C13  1  0.74941400  0.24941400  0.50000000  1
  C  C14  1  0.24941400  0.74941400  0.50000000  1
  C  C15  1  0.00048000  0.50048000  0.50000000  1
  C  C16  1  0.50048000  0.00048000  0.50000000  1
