# generated using pymatgen
data_Cu20(NiC2)3
_symmetry_space_group_name_H-M   'P 1'
_cell_length_a   7.40332173
_cell_length_b   7.40332173
_cell_length_c   7.40332173
_cell_angle_alpha   60.00000000
_cell_angle_beta   60.00000000
_cell_angle_gamma   60.00000000
_symmetry_Int_Tables_number   1
_chemical_formula_structural   Cu20(NiC2)3
_chemical_formula_sum   'Cu20 Ni3 C6'
_cell_volume   286.92267555
_cell_formula_units_Z   1
loop_
 _symmetry_equiv_pos_site_id
 _symmetry_equiv_pos_as_xyz
  1  'x, y, z'
loop_
 _atom_site_type_symbol
 _atom_site_label
 _atom_site_symmetry_multiplicity
 _atom_site_fract_x
 _atom_site_fract_y
 _atom_site_fract_z
 _atom_site_occupancy
  Ni  Ni0  1  0.00000000  0.00000000  0.00000000  1
  Ni  Ni1  1  0.75000000  0.75000000  0.75000000  1
  Ni  Ni2  1  0.25000000  0.25000000  0.25000000  1
  Cu  Cu3  1  0.61685300  0.61685300  0.14944100  1
  Cu  Cu4  1  0.61685300  0.14944100  0.61685300  1
  Cu  Cu5  1  0.14944100  0.61685300  0.61685300  1
  Cu  Cu6  1  0.61685300  0.61685300  0.61685300  1
  Cu  Cu7  1  0.38314700  0.38314700  0.85055900  1
  Cu  Cu8  1  0.38314700  0.85055900  0.38314700  1
  Cu  Cu9  1  0.85055900  0.38314700  0.38314700  1
  Cu  Cu10  1  0.38314700  0.38314700  0.38314700  1
  Cu  Cu11  1  0.00000000  0.00000000  0.34151000  1
  Cu  Cu12  1  0.65849000  0.00000000  0.34151000  1
  Cu  Cu13  1  0.00000000  0.65849000  0.34151000  1
  Cu  Cu14  1  0.65849000  0.34151000  0.00000000  1
  Cu  Cu15  1  0.00000000  0.34151000  0.00000000  1
  Cu  Cu16  1  0.00000000  0.34151000  0.65849000  1
  Cu  Cu17  1  0.34151000  0.65849000  0.00000000  1
  Cu  Cu18  1  0.34151000  0.00000000  0.65849000  1
  Cu  Cu19  1  0.34151000  0.00000000  0.00000000  1
  Cu  Cu20  1  0.00000000  0.00000000  0.65849000  1
  Cu  Cu21  1  0.00000000  0.65849000  0.00000000  1
  Cu  Cu22  1  0.65849000  0.00000000  0.00000000  1
  C  C23  1  0.73125900  0.73125900  0.26874100  1
  C  C24  1  0.26874100  0.73125900  0.26874100  1
  C  C25  1  0.73125900  0.26874100  0.26874100  1
  C  C26  1  0.26874100  0.26874100  0.73125900  1
  C  C27  1  0.73125900  0.26874100  0.73125900  1
  C  C28  1  0.26874100  0.73125900  0.73125900  1
