# generated using pymatgen
data_Cu12NiC24
_symmetry_space_group_name_H-M   'P 1'
_cell_length_a   3.19235669
_cell_length_b   9.70105873
_cell_length_c   12.93879506
_cell_angle_alpha   90.55376896
_cell_angle_beta   89.99999544
_cell_angle_gamma   90.00000542
_symmetry_Int_Tables_number   1
_chemical_formula_structural   Cu12NiC24
_chemical_formula_sum   'Cu12 Ni1 C24'
_cell_volume   400.68593060
_cell_formula_units_Z   1
loop_
 _symmetry_equiv_pos_site_id
 _symmetry_equiv_pos_as_xyz
  1  'x, y, z'
loop_
 _atom_site_type_symbol
 _atom_site_label
 _atom_site_symmetry_multiplicity
 _atom_site_fract_x
 _atom_site_fract_y
 _atom_site_fract_z
 _atom_site_occupancy
  Ni  Ni0  1  0.00000007  0.49662510  0.86159147  1
  Cu  Cu1  1  0.49999946  0.00597667  0.22535643  1
  Cu  Cu2  1  0.50000029  0.99516940  0.77441560  1
  Cu  Cu3  1  0.50000013  0.49281271  0.69585081  1
  Cu  Cu4  1  0.49999992  0.50741822  0.28140271  1
  Cu  Cu5  1  0.50000045  0.00110334  0.49843139  1
  Cu  Cu6  1  0.49999993  0.48777430  0.03107679  1
  Cu  Cu7  1  0.00000009  0.24617530  0.38880275  1
  Cu  Cu8  1  0.00000044  0.75970626  0.60362519  1
  Cu  Cu9  1  0.99999999  0.23220941  0.89079832  1
  Cu  Cu10  1  0.99999956  0.75152923  0.11729522  1
  Cu  Cu11  1  0.99999979  0.99288404  0.00523251  1
  Cu  Cu12  1  0.00000011  0.50235238  0.49094422  1
  C  C13  1  0.99999993  0.27166627  0.14614929  1
  C  C14  1  0.00000026  0.73502042  0.85886425  1
  C  C15  1  0.00000030  0.22030637  0.63833797  1
  C  C16  1  0.99999987  0.77924547  0.35864396  1
  C  C17  1  0.99999971  0.34311518  0.04934146  1
  C  C18  1  0.00000003  0.65771324  0.95237700  1
  C  C19  1  0.00000028  0.15326195  0.54398875  1
  C  C20  1  0.00000034  0.84986026  0.45278221  1
  C  C21  1  0.99999968  0.12959673  0.14477444  1
  C  C22  1  0.00000018  0.87362792  0.85725780  1
  C  C23  1  0.00000016  0.36775843  0.63924258  1
  C  C24  1  0.99999982  0.63426302  0.35566660  1
  C  C25  1  0.50000009  0.11961615  0.36259668  1
  C  C26  1  0.50000047  0.88567879  0.63633511  1
  C  C27  1  0.50000001  0.38871165  0.85837976  1
  C  C28  1  0.49999952  0.62080257  0.14585099  1
  C  C29  1  0.99999987  0.34952244  0.23632440  1
  C  C30  1  0.00000046  0.65160065  0.76576528  1
  C  C31  1  0.00000037  0.14978139  0.73179337  1
  C  C32  1  0.99999950  0.85321596  0.26645420  1
  C  C33  1  0.50000008  0.39281570  0.42047508  1
  C  C34  1  0.50000024  0.60921112  0.56774241  1
  C  C35  1  0.49999996  0.09818716  0.92404321  1
  C  C36  1  0.49999963  0.89368680  0.08136479  1
