# generated using pymatgen
data_Cu3NiC19
_symmetry_space_group_name_H-M   'P 1'
_cell_length_a   8.78004474
_cell_length_b   8.78004474
_cell_length_c   10.92145800
_cell_angle_alpha   90.00000000
_cell_angle_beta   90.00000000
_cell_angle_gamma   120.00000554
_symmetry_Int_Tables_number   1
_chemical_formula_structural   Cu3NiC19
_chemical_formula_sum   'Cu6 Ni2 C38'
_cell_volume   729.12952524
_cell_formula_units_Z   2
loop_
 _symmetry_equiv_pos_site_id
 _symmetry_equiv_pos_as_xyz
  1  'x, y, z'
loop_
 _atom_site_type_symbol
 _atom_site_label
 _atom_site_symmetry_multiplicity
 _atom_site_fract_x
 _atom_site_fract_y
 _atom_site_fract_z
 _atom_site_occupancy
  Ni  Ni0  1  0.00000000  0.00000000  0.75000000  1
  Ni  Ni1  1  0.00000000  0.00000000  0.25000000  1
  Cu  Cu2  1  0.63031300  0.09349200  0.75000000  1
  Cu  Cu3  1  0.36968700  0.90650800  0.25000000  1
  Cu  Cu4  1  0.46317900  0.36968700  0.75000000  1
  Cu  Cu5  1  0.53682100  0.63031300  0.25000000  1
  Cu  Cu6  1  0.90650800  0.53682100  0.75000000  1
  Cu  Cu7  1  0.09349200  0.46317900  0.25000000  1
  C  C8  1  0.66666700  0.33333300  0.45199200  1
  C  C9  1  0.33333300  0.66666700  0.54800800  1
  C  C10  1  0.33333300  0.66666700  0.95199200  1
  C  C11  1  0.66666700  0.33333300  0.04800800  1
  C  C12  1  0.95660300  0.30329500  0.75000000  1
  C  C13  1  0.04339700  0.69670500  0.25000000  1
  C  C14  1  0.34669100  0.04339700  0.75000000  1
  C  C15  1  0.65330900  0.95660300  0.25000000  1
  C  C16  1  0.69670500  0.65330900  0.75000000  1
  C  C17  1  0.30329500  0.34669100  0.25000000  1
  C  C18  1  0.81475000  0.05865000  0.95822000  1
  C  C19  1  0.18525000  0.94135000  0.04178000  1
  C  C20  1  0.24390000  0.18525000  0.95822000  1
  C  C21  1  0.18525000  0.94135000  0.45822000  1
  C  C22  1  0.75610000  0.81475000  0.04178000  1
  C  C23  1  0.81475000  0.05865000  0.54178000  1
  C  C24  1  0.94135000  0.75610000  0.95822000  1
  C  C25  1  0.75610000  0.81475000  0.45822000  1
  C  C26  1  0.05865000  0.24390000  0.04178000  1
  C  C27  1  0.24390000  0.18525000  0.54178000  1
  C  C28  1  0.05865000  0.24390000  0.45822000  1
  C  C29  1  0.94135000  0.75610000  0.54178000  1
  C  C30  1  0.53821200  0.68744100  0.89550000  1
  C  C31  1  0.46178800  0.31255900  0.10450000  1
  C  C32  1  0.14922900  0.46178800  0.89550000  1
  C  C33  1  0.46178800  0.31255900  0.39550000  1
  C  C34  1  0.85077100  0.53821200  0.10450000  1
  C  C35  1  0.53821200  0.68744100  0.60450000  1
  C  C36  1  0.31255900  0.85077100  0.89550000  1
  C  C37  1  0.85077100  0.53821200  0.39550000  1
  C  C38  1  0.68744100  0.14922900  0.10450000  1
  C  C39  1  0.14922900  0.46178800  0.60450000  1
  C  C40  1  0.68744100  0.14922900  0.39550000  1
  C  C41  1  0.31255900  0.85077100  0.60450000  1
  C  C42  1  0.66666700  0.33333300  0.88199400  1
  C  C43  1  0.33333300  0.66666700  0.11800600  1
  C  C44  1  0.33333300  0.66666700  0.38199400  1
  C  C45  1  0.66666700  0.33333300  0.61800600  1
