# generated using pymatgen
data_Cu2Ni2C7
_symmetry_space_group_name_H-M   'P 1'
_cell_length_a   6.80490800
_cell_length_b   6.80824700
_cell_length_c   17.22612500
_cell_angle_alpha   90.00000000
_cell_angle_beta   90.00000000
_cell_angle_gamma   90.00000000
_symmetry_Int_Tables_number   1
_chemical_formula_structural   Cu2Ni2C7
_chemical_formula_sum   'Cu16 Ni16 C56'
_cell_volume   798.07766304
_cell_formula_units_Z   8
loop_
 _symmetry_equiv_pos_site_id
 _symmetry_equiv_pos_as_xyz
  1  'x, y, z'
loop_
 _atom_site_type_symbol
 _atom_site_label
 _atom_site_symmetry_multiplicity
 _atom_site_fract_x
 _atom_site_fract_y
 _atom_site_fract_z
 _atom_site_occupancy
  C  C0  1  0.26456600  0.29309800  0.04291600  1
  C  C1  1  0.73543400  0.70690200  0.95708400  1
  C  C2  1  0.23543400  0.70690200  0.54291600  1
  C  C3  1  0.73543400  0.79309800  0.45708400  1
  C  C4  1  0.76456600  0.29309800  0.45708400  1
  C  C5  1  0.26456600  0.20690200  0.54291600  1
  C  C6  1  0.76456600  0.20690200  0.95708400  1
  C  C7  1  0.23543400  0.79309800  0.04291600  1
  C  C8  1  0.08207100  0.17111900  0.25966000  1
  C  C9  1  0.91792900  0.82888100  0.74034000  1
  C  C10  1  0.41792900  0.82888100  0.75966000  1
  C  C11  1  0.91792900  0.67111900  0.24034000  1
  C  C12  1  0.58207100  0.17111900  0.24034000  1
  C  C13  1  0.08207100  0.32888100  0.75966000  1
  C  C14  1  0.58207100  0.32888100  0.74034000  1
  C  C15  1  0.41792900  0.67111900  0.25966000  1
  C  C16  1  0.13522200  0.38948700  0.49398700  1
  C  C17  1  0.86477800  0.61051300  0.50601300  1
  C  C18  1  0.36477800  0.61051300  0.99398700  1
  C  C19  1  0.86477800  0.88948700  0.00601300  1
  C  C20  1  0.63522200  0.38948700  0.00601300  1
  C  C21  1  0.13522200  0.11051300  0.99398700  1
  C  C22  1  0.63522200  0.11051300  0.50601300  1
  C  C23  1  0.36477800  0.88948700  0.49398700  1
  C  C24  1  0.03750300  0.26486800  0.34878300  1
  C  C25  1  0.96249700  0.73513200  0.65121700  1
  C  C26  1  0.46249700  0.73513200  0.84878300  1
  C  C27  1  0.96249700  0.76486800  0.15121700  1
  C  C28  1  0.53750300  0.26486800  0.15121700  1
  C  C29  1  0.03750300  0.23513200  0.84878300  1
  C  C30  1  0.53750300  0.23513200  0.65121700  1
  C  C31  1  0.46249700  0.76486800  0.34878300  1
  C  C32  1  0.47961600  0.02225700  0.17038100  1
  C  C33  1  0.52038400  0.97774300  0.82961900  1
  C  C34  1  0.02038400  0.97774300  0.67038100  1
  C  C35  1  0.52038400  0.52225700  0.32961900  1
  C  C36  1  0.97961600  0.02225700  0.32961900  1
  C  C37  1  0.47961600  0.47774300  0.67038100  1
  C  C38  1  0.97961600  0.47774300  0.82961900  1
  C  C39  1  0.02038400  0.52225700  0.17038100  1
  C  C40  1  0.21437200  0.09206200  0.34055300  1
  C  C41  1  0.78562800  0.90793800  0.65944700  1
  C  C42  1  0.28562800  0.90793800  0.84055300  1
  C  C43  1  0.78562800  0.59206200  0.15944700  1
  C  C44  1  0.71437200  0.09206200  0.15944700  1
  C  C45  1  0.21437200  0.40793800  0.84055300  1
  C  C46  1  0.71437200  0.40793800  0.65944700  1
  C  C47  1  0.28562800  0.59206200  0.34055300  1
  C  C48  1  0.06444100  0.14712200  0.11086100  1
  C  C49  1  0.93555900  0.85287800  0.88913900  1
  C  C50  1  0.43555900  0.85287800  0.61086100  1
  C  C51  1  0.93555900  0.64712200  0.38913900  1
  C  C52  1  0.56444100  0.14712200  0.38913900  1
  C  C53  1  0.06444100  0.35287800  0.61086100  1
  C  C54  1  0.56444100  0.35287800  0.88913900  1
  C  C55  1  0.43555900  0.64712200  0.11086100  1
  Ni  Ni56  1  0.07677300  0.13688700  0.31984900  1
  Ni  Ni57  1  0.92322700  0.86311300  0.68015100  1
  Ni  Ni58  1  0.42322700  0.86311300  0.81984900  1
  Ni  Ni59  1  0.92322700  0.63688700  0.18015100  1
  Ni  Ni60  1  0.57677300  0.13688700  0.18015100  1
  Ni  Ni61  1  0.07677300  0.36311300  0.81984900  1
  Ni  Ni62  1  0.57677300  0.36311300  0.68015100  1
  Ni  Ni63  1  0.42322700  0.63688700  0.31984900  1
  Ni  Ni64  1  0.17662800  0.17331200  0.04550900  1
  Ni  Ni65  1  0.82337200  0.82668800  0.95449100  1
  Ni  Ni66  1  0.32337200  0.82668800  0.54550900  1
  Ni  Ni67  1  0.82337200  0.67331200  0.45449100  1
  Ni  Ni68  1  0.67662800  0.17331200  0.45449100  1
  Ni  Ni69  1  0.17662800  0.32668800  0.54550900  1
  Ni  Ni70  1  0.67662800  0.32668800  0.95449100  1
  Ni  Ni71  1  0.32337200  0.67331200  0.04550900  1
  Cu  Cu72  1  0.43222100  0.01115600  0.39080500  1
  Cu  Cu73  1  0.56777900  0.98884400  0.60919500  1
  Cu  Cu74  1  0.06777900  0.98884400  0.89080500  1
  Cu  Cu75  1  0.56777900  0.51115600  0.10919500  1
  Cu  Cu76  1  0.93222100  0.01115600  0.10919500  1
  Cu  Cu77  1  0.43222100  0.48884400  0.89080500  1
  Cu  Cu78  1  0.93222100  0.48884400  0.60919500  1
  Cu  Cu79  1  0.06777900  0.51115600  0.39080500  1
  Cu  Cu80  1  0.09946800  0.25673100  0.16983300  1
  Cu  Cu81  1  0.90053200  0.74326900  0.83016700  1
  Cu  Cu82  1  0.40053200  0.74326900  0.66983300  1
  Cu  Cu83  1  0.90053200  0.75673100  0.33016700  1
  Cu  Cu84  1  0.59946800  0.25673100  0.33016700  1
  Cu  Cu85  1  0.09946800  0.24326900  0.66983300  1
  Cu  Cu86  1  0.59946800  0.24326900  0.83016700  1
  Cu  Cu87  1  0.40053200  0.75673100  0.16983300  1
