# generated using pymatgen
data_Cu4Ni4C13
_symmetry_space_group_name_H-M   'P 1'
_cell_length_a   8.05413700
_cell_length_b   7.41004100
_cell_length_c   9.30881228
_cell_angle_alpha   65.04639661
_cell_angle_beta   90.00000000
_cell_angle_gamma   90.00000000
_symmetry_Int_Tables_number   1
_chemical_formula_structural   Cu4Ni4C13
_chemical_formula_sum   'Cu8 Ni8 C26'
_cell_volume   503.70171020
_cell_formula_units_Z   2
loop_
 _symmetry_equiv_pos_site_id
 _symmetry_equiv_pos_as_xyz
  1  'x, y, z'
loop_
 _atom_site_type_symbol
 _atom_site_label
 _atom_site_symmetry_multiplicity
 _atom_site_fract_x
 _atom_site_fract_y
 _atom_site_fract_z
 _atom_site_occupancy
  C  C0  1  0.00000000  0.00000000  0.00000000  1
  C  C1  1  0.50000000  0.00000000  0.50000000  1
  C  C2  1  0.31218800  0.04245300  0.89771800  1
  C  C3  1  0.81218800  0.95754700  0.60228200  1
  C  C4  1  0.68781200  0.95754700  0.10228200  1
  C  C5  1  0.18781200  0.04245300  0.39771800  1
  C  C6  1  0.30843300  0.09762700  0.04695000  1
  C  C7  1  0.80843300  0.90237300  0.45305000  1
  C  C8  1  0.69156700  0.90237300  0.95305000  1
  C  C9  1  0.19156700  0.09762700  0.54695000  1
  C  C10  1  0.39832200  0.53429100  0.26499500  1
  C  C11  1  0.89832200  0.46570900  0.23500500  1
  C  C12  1  0.60167800  0.46570900  0.73500500  1
  C  C13  1  0.10167800  0.53429100  0.76499500  1
  C  C14  1  0.29872600  0.75899500  0.23151500  1
  C  C15  1  0.79872600  0.24100500  0.26848500  1
  C  C16  1  0.70127400  0.24100500  0.76848500  1
  C  C17  1  0.20127400  0.75899500  0.73151500  1
  C  C18  1  0.19587200  0.59706700  0.12125200  1
  C  C19  1  0.69587200  0.40293300  0.37874800  1
  C  C20  1  0.80412800  0.40293300  0.87874800  1
  C  C21  1  0.30412800  0.59706700  0.62125200  1
  Ni  Ni22  1  0.31268400  0.63974100  0.20458100  1
  Ni  Ni23  1  0.81268400  0.36025900  0.29541900  1
  Ni  Ni24  1  0.68731600  0.36025900  0.79541900  1
  Ni  Ni25  1  0.18731600  0.63974100  0.70458100  1
  Ni  Ni26  1  0.21402700  0.42632800  0.09757900  1
  Ni  Ni27  1  0.71402700  0.57367200  0.40242100  1
  Ni  Ni28  1  0.78597300  0.57367200  0.90242100  1
  Ni  Ni29  1  0.28597300  0.42632800  0.59757900  1
  C  C30  1  0.01651100  0.94292400  0.27321200  1
  C  C31  1  0.51651100  0.05707600  0.22678800  1
  C  C32  1  0.98348900  0.05707600  0.72678800  1
  C  C33  1  0.48348900  0.94292400  0.77321200  1
  Cu  Cu34  1  0.23996500  0.08647200  0.96330500  1
  Cu  Cu35  1  0.73996500  0.91352800  0.53669500  1
  Cu  Cu36  1  0.76003500  0.91352800  0.03669500  1
  Cu  Cu37  1  0.26003500  0.08647200  0.46330500  1
  Cu  Cu38  1  0.06607400  0.69874100  0.06095500  1
  Cu  Cu39  1  0.56607400  0.30125900  0.43904500  1
  Cu  Cu40  1  0.93392600  0.30125900  0.93904500  1
  Cu  Cu41  1  0.43392600  0.69874100  0.56095500  1
