# generated using pymatgen
data_Cu4Ni8C13
_symmetry_space_group_name_H-M   'P 1'
_cell_length_a   8.09854100
_cell_length_b   8.07971120
_cell_length_c   10.60903183
_cell_angle_alpha   69.74773674
_cell_angle_beta   67.56212931
_cell_angle_gamma   59.92288165
_symmetry_Int_Tables_number   1
_chemical_formula_structural   Cu4Ni8C13
_chemical_formula_sum   'Cu8 Ni16 C26'
_cell_volume   544.73290310
_cell_formula_units_Z   2
loop_
 _symmetry_equiv_pos_site_id
 _symmetry_equiv_pos_as_xyz
  1  'x, y, z'
loop_
 _atom_site_type_symbol
 _atom_site_label
 _atom_site_symmetry_multiplicity
 _atom_site_fract_x
 _atom_site_fract_y
 _atom_site_fract_z
 _atom_site_occupancy
  C  C0  1  0.23053400  0.25000000  0.75000000  1
  C  C1  1  0.76946600  0.75000000  0.25000000  1
  Ni  Ni2  1  0.40051800  0.55796600  0.61848600  1
  Ni  Ni3  1  0.57697000  0.94203400  0.88151400  1
  Ni  Ni4  1  0.59948200  0.44203400  0.38151400  1
  Ni  Ni5  1  0.42303000  0.05796600  0.11848600  1
  Ni  Ni6  1  0.45946800  0.47114200  0.76174400  1
  Ni  Ni7  1  0.69235400  0.02885800  0.73825600  1
  Ni  Ni8  1  0.54053200  0.52885800  0.23825600  1
  Ni  Ni9  1  0.30764600  0.97114200  0.26174400  1
  Ni  Ni10  1  0.00581200  0.83007100  0.65664900  1
  Ni  Ni11  1  0.49253200  0.66992900  0.84335100  1
  Ni  Ni12  1  0.99418800  0.16992900  0.34335100  1
  Ni  Ni13  1  0.50746800  0.33007100  0.15664900  1
  Ni  Ni14  1  0.98677300  0.04703300  0.62456900  1
  Ni  Ni15  1  0.65837600  0.45296700  0.87543100  1
  Ni  Ni16  1  0.01322700  0.95296700  0.37543100  1
  Ni  Ni17  1  0.34162400  0.54703300  0.12456900  1
  Cu  Cu18  1  0.53839500  0.07859100  0.45714100  1
  Cu  Cu19  1  0.07412800  0.42140900  0.04285900  1
  Cu  Cu20  1  0.46160500  0.92140900  0.54285900  1
  Cu  Cu21  1  0.92587200  0.57859100  0.95714100  1
  Cu  Cu22  1  0.02829700  0.58273200  0.48900800  1
  Cu  Cu23  1  0.10003700  0.91726800  0.01099200  1
  Cu  Cu24  1  0.97170300  0.41726800  0.51099200  1
  Cu  Cu25  1  0.89996300  0.08273200  0.98900800  1
  C  C26  1  0.13034600  0.55914100  0.56385100  1
  C  C27  1  0.25333800  0.94085900  0.93614900  1
  C  C28  1  0.86965400  0.44085900  0.43614900  1
  C  C29  1  0.74666200  0.05914100  0.06385100  1
  C  C30  1  0.39627100  0.45692700  0.70203500  1
  C  C31  1  0.55523400  0.04307300  0.79796500  1
  C  C32  1  0.60372900  0.54307300  0.29796500  1
  C  C33  1  0.44476600  0.95692700  0.20203500  1
  C  C34  1  0.48201700  0.21884900  0.51469500  1
  C  C35  1  0.21556000  0.28115100  0.98530500  1
  C  C36  1  0.51798300  0.78115100  0.48530500  1
  C  C37  1  0.78444000  0.71884900  0.01469500  1
  C  C38  1  0.03516200  0.26846800  0.60293500  1
  C  C39  1  0.90656500  0.23153200  0.89706500  1
  C  C40  1  0.96483800  0.73153200  0.39706500  1
  C  C41  1  0.09343500  0.76846800  0.10293500  1
  C  C42  1  0.34971800  0.94419800  0.66288900  1
  C  C43  1  0.95680500  0.55580200  0.83711100  1
  C  C44  1  0.65028200  0.05580200  0.33711100  1
  C  C45  1  0.04319500  0.44419800  0.16288900  1
  C  C46  1  0.91572600  0.96402200  0.66776700  1
  C  C47  1  0.54751500  0.53597800  0.83223300  1
  C  C48  1  0.08427400  0.03597800  0.33223300  1
  C  C49  1  0.45248500  0.46402200  0.16776700  1
