# generated using pymatgen
data_CuNi2C5
_symmetry_space_group_name_H-M   'P 1'
_cell_length_a   6.70739500
_cell_length_b   7.30302400
_cell_length_c   11.05881300
_cell_angle_alpha   90.00000000
_cell_angle_beta   90.00000000
_cell_angle_gamma   90.00000000
_symmetry_Int_Tables_number   1
_chemical_formula_structural   CuNi2C5
_chemical_formula_sum   'Cu4 Ni8 C20'
_cell_volume   541.70784496
_cell_formula_units_Z   4
loop_
 _symmetry_equiv_pos_site_id
 _symmetry_equiv_pos_as_xyz
  1  'x, y, z'
loop_
 _atom_site_type_symbol
 _atom_site_label
 _atom_site_symmetry_multiplicity
 _atom_site_fract_x
 _atom_site_fract_y
 _atom_site_fract_z
 _atom_site_occupancy
  Ni  Ni0  1  0.52790100  0.49765800  0.82776200  1
  Ni  Ni1  1  0.47209900  0.50234200  0.17223800  1
  Ni  Ni2  1  0.02790100  0.50234200  0.67223800  1
  Ni  Ni3  1  0.47209900  0.99765800  0.17223800  1
  Ni  Ni4  1  0.97209900  0.49765800  0.32776200  1
  Ni  Ni5  1  0.52790100  0.00234200  0.82776200  1
  Ni  Ni6  1  0.97209900  0.00234200  0.32776200  1
  Ni  Ni7  1  0.02790100  0.99765800  0.67223800  1
  Cu  Cu8  1  0.56414900  0.75000000  0.50124500  1
  Cu  Cu9  1  0.43585100  0.25000000  0.49875500  1
  Cu  Cu10  1  0.06414900  0.25000000  0.99875500  1
  Cu  Cu11  1  0.93585100  0.75000000  0.00124500  1
  C  C12  1  0.83546900  0.75000000  0.80960200  1
  C  C13  1  0.16453100  0.25000000  0.19039800  1
  C  C14  1  0.33546900  0.25000000  0.69039800  1
  C  C15  1  0.66453100  0.75000000  0.30960200  1
  C  C16  1  0.36799900  0.75000000  0.66121600  1
  C  C17  1  0.63200100  0.25000000  0.33878400  1
  C  C18  1  0.86799900  0.25000000  0.83878400  1
  C  C19  1  0.13200100  0.75000000  0.16121600  1
  C  C20  1  0.89295100  0.75000000  0.51324800  1
  C  C21  1  0.10704900  0.25000000  0.48675200  1
  C  C22  1  0.39295100  0.25000000  0.98675200  1
  C  C23  1  0.60704900  0.75000000  0.01324800  1
  C  C24  1  0.64311600  0.03357500  0.57823100  1
  C  C25  1  0.35688400  0.96642500  0.42176900  1
  C  C26  1  0.14311600  0.96642500  0.92176900  1
  C  C27  1  0.35688400  0.53357500  0.42176900  1
  C  C28  1  0.85688400  0.03357500  0.07823100  1
  C  C29  1  0.64311600  0.46642500  0.57823100  1
  C  C30  1  0.85688400  0.46642500  0.07823100  1
  C  C31  1  0.14311600  0.53357500  0.92176900  1
