# generated using pymatgen
data_Cu(NiC18)2
_symmetry_space_group_name_H-M   'P 1'
_cell_length_a   6.99320608
_cell_length_b   13.58049647
_cell_length_c   13.57137056
_cell_angle_alpha   90.00000000
_cell_angle_beta   90.00000000
_cell_angle_gamma   90.00000000
_symmetry_Int_Tables_number   1
_chemical_formula_structural   Cu(NiC18)2
_chemical_formula_sum   'Cu2 Ni4 C72'
_cell_volume   1288.88949000
_cell_formula_units_Z   2
loop_
 _symmetry_equiv_pos_site_id
 _symmetry_equiv_pos_as_xyz
  1  'x, y, z'
loop_
 _atom_site_type_symbol
 _atom_site_label
 _atom_site_symmetry_multiplicity
 _atom_site_fract_x
 _atom_site_fract_y
 _atom_site_fract_z
 _atom_site_occupancy
  Ni  Ni0  1  0.79992582  -0.00000000  0.56710097  1
  Ni  Ni1  1  0.20007418  0.00000000  0.43289903  1
  Ni  Ni2  1  0.20007418  0.50000000  0.06710097  1
  Ni  Ni3  1  0.79992582  0.50000000  0.93289903  1
  Cu  Cu4  1  0.00000000  0.00000000  -0.00000000  1
  Cu  Cu5  1  -0.00000000  0.50000000  0.50000000  1
  C  C6  1  0.38515535  0.75000000  0.75000000  1
  C  C7  1  0.61484465  0.25000000  0.25000000  1
  C  C8  1  0.61484465  0.75000000  0.25000000  1
  C  C9  1  0.38515535  0.25000000  0.75000000  1
  C  C10  1  0.76893914  0.88287502  0.81469046  1
  C  C11  1  0.23106086  0.11712498  0.18530954  1
  C  C12  1  0.23106086  0.61712498  0.31469046  1
  C  C13  1  0.76893914  0.61712498  0.68530954  1
  C  C14  1  0.76893914  0.38287502  0.68530954  1
  C  C15  1  0.23106086  0.38287502  0.31469046  1
  C  C16  1  0.23106086  0.88287502  0.18530954  1
  C  C17  1  0.76893914  0.11712498  0.81469046  1
  C  C18  1  0.99875545  0.69283106  0.88715133  1
  C  C19  1  0.00124455  0.30716894  0.11284867  1
  C  C20  1  0.00124455  0.80716894  0.38715133  1
  C  C21  1  0.99875545  0.80716894  0.61284867  1
  C  C22  1  0.99875545  0.19283106  0.61284867  1
  C  C23  1  0.00124455  0.19283106  0.38715133  1
  C  C24  1  0.00124455  0.69283106  0.11284867  1
  C  C25  1  0.99875545  0.30716894  0.88715133  1
  C  C26  1  0.36650261  0.00000000  0.63807794  1
  C  C27  1  0.63349739  -0.00000000  0.36192206  1
  C  C28  1  0.63349739  0.50000000  0.13807794  1
  C  C29  1  0.36650261  0.50000000  0.86192206  1
  C  C30  1  0.50000000  0.65818116  -0.00000000  1
  C  C31  1  0.50000000  0.34181884  -0.00000000  1
  C  C32  1  0.50000000  0.84181884  0.50000000  1
  C  C33  1  0.50000000  0.15818116  0.50000000  1
  C  C34  1  0.30587014  -0.00000000  0.88457606  1
  C  C35  1  0.69412986  -0.00000000  0.11542394  1
  C  C36  1  0.69412986  0.50000000  0.38457606  1
  C  C37  1  0.30587014  0.50000000  0.61542394  1
  C  C38  1  0.78923546  0.00000000  0.86880810  1
  C  C39  1  0.21076454  -0.00000000  0.13119190  1
  C  C40  1  0.21076454  0.50000000  0.36880810  1
  C  C41  1  0.78923546  0.50000000  0.63119190  1
  C  C42  1  0.85082119  0.87970690  0.69098729  1
  C  C43  1  0.14917881  0.12029310  0.30901271  1
  C  C44  1  0.14917881  0.62029310  0.19098729  1
  C  C45  1  0.85082119  0.62029310  0.80901271  1
  C  C46  1  0.85082119  0.37970690  0.80901271  1
  C  C47  1  0.14917881  0.37970690  0.19098729  1
  C  C48  1  0.14917881  0.87970690  0.30901271  1
  C  C49  1  0.85082119  0.12029310  0.69098729  1
  C  C50  1  -0.00000000  0.62862485  -0.00000000  1
  C  C51  1  0.00000000  0.37137515  -0.00000000  1
  C  C52  1  0.00000000  0.87137515  0.50000000  1
  C  C53  1  -0.00000000  0.12862485  0.50000000  1
  C  C54  1  0.91427355  0.81452232  0.89534072  1
  C  C55  1  0.08572645  0.18547768  0.10465928  1
  C  C56  1  0.08572645  0.68547768  0.39534072  1
  C  C57  1  0.91427355  0.68547768  0.60465928  1
  C  C58  1  0.91427355  0.31452232  0.60465928  1
  C  C59  1  0.08572645  0.31452232  0.39534072  1
  C  C60  1  0.08572645  0.81452232  0.10465928  1
  C  C61  1  0.91427355  0.18547768  0.89534072  1
  C  C62  1  0.77195266  0.80221020  0.33571496  1
  C  C63  1  0.22804734  0.19778980  0.66428504  1
  C  C64  1  0.22804734  0.69778980  0.83571496  1
  C  C65  1  0.77195266  0.69778980  0.16428504  1
  C  C66  1  0.77195266  0.30221020  0.16428504  1
  C  C67  1  0.22804734  0.30221020  0.83571496  1
  C  C68  1  0.22804734  0.80221020  0.66428504  1
  C  C69  1  0.77195266  0.19778980  0.33571496  1
  C  C70  1  0.53456034  0.83881442  0.80293548  1
  C  C71  1  0.46543966  0.16118558  0.19706452  1
  C  C72  1  0.46543966  0.66118558  0.30293548  1
  C  C73  1  0.53456034  0.66118558  0.69706452  1
  C  C74  1  0.53456034  0.33881442  0.69706452  1
  C  C75  1  0.46543966  0.33881442  0.30293548  1
  C  C76  1  0.46543966  0.83881442  0.19706452  1
  C  C77  1  0.53456034  0.16118558  0.80293548  1
