# generated using pymatgen
data_Cu2NiC11
_symmetry_space_group_name_H-M   'P 1'
_cell_length_a   15.06005630
_cell_length_b   15.06005630
_cell_length_c   5.88890772
_cell_angle_alpha   84.17061751
_cell_angle_beta   84.17061751
_cell_angle_gamma   11.10844945
_symmetry_Int_Tables_number   1
_chemical_formula_structural   Cu2NiC11
_chemical_formula_sum   'Cu4 Ni2 C22'
_cell_volume   255.98909806
_cell_formula_units_Z   2
loop_
 _symmetry_equiv_pos_site_id
 _symmetry_equiv_pos_as_xyz
  1  'x, y, z'
loop_
 _atom_site_type_symbol
 _atom_site_label
 _atom_site_symmetry_multiplicity
 _atom_site_fract_x
 _atom_site_fract_y
 _atom_site_fract_z
 _atom_site_occupancy
  C  C0  1  0.78837600  0.78837600  0.85234200  1
  C  C1  1  0.93375500  0.93375500  0.28942400  1
  C  C2  1  0.06624500  0.06624500  0.71057600  1
  C  C3  1  0.36248700  0.36248700  0.56555000  1
  C  C4  1  0.50000000  0.50000000  0.00000000  1
  C  C5  1  0.63751300  0.63751300  0.43445000  1
  C  C6  1  0.21162400  0.21162400  0.14765800  1
  C  C7  1  0.50000000  0.50000000  0.50000000  1
  Ni  Ni8  1  0.21110000  0.21110000  0.64705300  1
  Ni  Ni9  1  0.78890000  0.78890000  0.35294700  1
  Cu  Cu10  1  0.36340100  0.36340100  0.06680700  1
  Cu  Cu11  1  0.63659900  0.63659900  0.93319300  1
  Cu  Cu12  1  0.93507000  0.93507000  0.77183000  1
  Cu  Cu13  1  0.06493000  0.06493000  0.22817000  1
  C  C14  1  0.71101500  0.71101500  0.87588800  1
  C  C15  1  0.86135500  0.86135500  0.29578200  1
  C  C16  1  0.99413700  0.99413700  0.75411500  1
  C  C17  1  0.28753100  0.28753100  0.58081500  1
  C  C18  1  0.42956200  0.42956200  0.01706400  1
  C  C19  1  0.56958000  0.56958000  0.44726600  1
  C  C20  1  0.13601300  0.13601300  0.16623900  1
  C  C21  1  0.86398700  0.86398700  0.83376100  1
  C  C22  1  0.00586300  0.00586300  0.24588500  1
  C  C23  1  0.13864500  0.13864500  0.70421800  1
  C  C24  1  0.43042000  0.43042000  0.55273400  1
  C  C25  1  0.57043800  0.57043800  0.98293600  1
  C  C26  1  0.71246900  0.71246900  0.41918500  1
  C  C27  1  0.28898500  0.28898500  0.12411100  1
