# generated using pymatgen
data_CuNiC5
_symmetry_space_group_name_H-M   'P 1'
_cell_length_a   7.73367899
_cell_length_b   7.73367899
_cell_length_c   7.73367899
_cell_angle_alpha   120.13307537
_cell_angle_beta   119.78993013
_cell_angle_gamma   90.06694872
_symmetry_Int_Tables_number   1
_chemical_formula_structural   CuNiC5
_chemical_formula_sum   'Cu2 Ni2 C10'
_cell_volume   327.25845891
_cell_formula_units_Z   2
loop_
 _symmetry_equiv_pos_site_id
 _symmetry_equiv_pos_as_xyz
  1  'x, y, z'
loop_
 _atom_site_type_symbol
 _atom_site_label
 _atom_site_symmetry_multiplicity
 _atom_site_fract_x
 _atom_site_fract_y
 _atom_site_fract_z
 _atom_site_occupancy
  Ni  Ni0  1  0.00000000  0.50000000  0.50000000  1
  Ni  Ni1  1  0.50000000  0.50000000  0.00000000  1
  C  C2  1  0.12836600  0.87836600  0.25000000  1
  C  C3  1  0.87163400  0.12163400  0.75000000  1
  Cu  Cu4  1  0.50000000  0.00000000  0.00000000  1
  Cu  Cu5  1  0.50000000  0.50000000  0.50000000  1
  C  C6  1  0.27432300  0.25483800  0.01948500  1
  C  C7  1  0.73535200  0.25483800  0.48051500  1
  C  C8  1  0.73667500  0.71949300  0.48281800  1
  C  C9  1  0.73667500  0.25385800  0.01718200  1
  C  C10  1  0.72567700  0.74516200  0.98051500  1
  C  C11  1  0.26464800  0.74516200  0.51948500  1
  C  C12  1  0.26332500  0.28050700  0.51718200  1
  C  C13  1  0.26332500  0.74614200  0.98281800  1
