# generated using pymatgen
data_Cu2NiC11
_symmetry_space_group_name_H-M   'P 1'
_cell_length_a   6.23485400
_cell_length_b   7.14181700
_cell_length_c   14.29443900
_cell_angle_alpha   90.00000000
_cell_angle_beta   90.00000000
_cell_angle_gamma   90.00000000
_symmetry_Int_Tables_number   1
_chemical_formula_structural   Cu2NiC11
_chemical_formula_sum   'Cu8 Ni4 C44'
_cell_volume   636.50544270
_cell_formula_units_Z   4
loop_
 _symmetry_equiv_pos_site_id
 _symmetry_equiv_pos_as_xyz
  1  'x, y, z'
loop_
 _atom_site_type_symbol
 _atom_site_label
 _atom_site_symmetry_multiplicity
 _atom_site_fract_x
 _atom_site_fract_y
 _atom_site_fract_z
 _atom_site_occupancy
  Ni  Ni0  1  0.25000000  0.39632200  0.77656600  1
  Ni  Ni1  1  0.25000000  0.10367800  0.27656600  1
  Ni  Ni2  1  0.75000000  0.89632200  0.72343400  1
  Ni  Ni3  1  0.75000000  0.60367800  0.22343400  1
  Cu  Cu4  1  0.25000000  0.85283500  0.87937600  1
  Cu  Cu5  1  0.75000000  0.14716500  0.12062400  1
  Cu  Cu6  1  0.75000000  0.35283500  0.62062400  1
  Cu  Cu7  1  0.25000000  0.64716500  0.37937600  1
  Cu  Cu8  1  0.00000000  0.50000000  0.00000000  1
  Cu  Cu9  1  0.00000000  0.00000000  0.50000000  1
  Cu  Cu10  1  0.50000000  0.00000000  0.50000000  1
  Cu  Cu11  1  0.50000000  0.50000000  0.00000000  1
  C  C12  1  0.75000000  0.86677700  0.92935700  1
  C  C13  1  0.25000000  0.13322300  0.07064300  1
  C  C14  1  0.25000000  0.36677700  0.57064300  1
  C  C15  1  0.75000000  0.63322300  0.42935700  1
  C  C16  1  0.25000000  0.88655300  0.69762400  1
  C  C17  1  0.25000000  0.61344700  0.19762400  1
  C  C18  1  0.75000000  0.38655300  0.80237600  1
  C  C19  1  0.75000000  0.11344700  0.30237600  1
  C  C20  1  0.53856900  0.11117400  0.35980700  1
  C  C21  1  0.03856900  0.88882600  0.64019300  1
  C  C22  1  0.46143100  0.61117400  0.14019300  1
  C  C23  1  0.96143100  0.38882600  0.85980700  1
  C  C24  1  0.46143100  0.88882600  0.64019300  1
  C  C25  1  0.96143100  0.11117400  0.35980700  1
  C  C26  1  0.53856900  0.38882600  0.85980700  1
  C  C27  1  0.03856900  0.61117400  0.14019300  1
  C  C28  1  0.75000000  0.82929000  0.47966300  1
  C  C29  1  0.25000000  0.17071000  0.52033700  1
  C  C30  1  0.25000000  0.32929000  0.02033700  1
  C  C31  1  0.75000000  0.67071000  0.97966300  1
  C  C32  1  0.25000000  0.62549400  0.94904700  1
  C  C33  1  0.75000000  0.37450600  0.05095300  1
  C  C34  1  0.75000000  0.12549400  0.55095300  1
  C  C35  1  0.25000000  0.87450600  0.44904700  1
  C  C36  1  0.25000000  0.70308300  0.75859200  1
  C  C37  1  0.75000000  0.29691700  0.24140800  1
  C  C38  1  0.75000000  0.20308300  0.74140800  1
  C  C39  1  0.25000000  0.79691700  0.25859200  1
  C  C40  1  0.93634300  0.62866000  0.35741600  1
  C  C41  1  0.43634300  0.37134000  0.64258400  1
  C  C42  1  0.06365700  0.12866000  0.14258400  1
  C  C43  1  0.56365700  0.87134000  0.85741600  1
  C  C44  1  0.06365700  0.37134000  0.64258400  1
  C  C45  1  0.56365700  0.62866000  0.35741600  1
  C  C46  1  0.93634300  0.87134000  0.85741600  1
  C  C47  1  0.43634300  0.12866000  0.14258400  1
  C  C48  1  0.25000000  0.97779300  0.00037500  1
  C  C49  1  0.75000000  0.54928900  0.72918400  1
  C  C50  1  0.75000000  0.95071100  0.22918400  1
  C  C51  1  0.25000000  0.04928900  0.77081600  1
  C  C52  1  0.25000000  0.52220700  0.50037500  1
  C  C53  1  0.75000000  0.47779300  0.49962500  1
  C  C54  1  0.75000000  0.02220700  0.99962500  1
  C  C55  1  0.25000000  0.45071100  0.27081600  1
