# generated using pymatgen
data_Cu2NiC8
_symmetry_space_group_name_H-M   'P 1'
_cell_length_a   6.44667756
_cell_length_b   7.27063540
_cell_length_c   6.37364975
_cell_angle_alpha   74.79202213
_cell_angle_beta   81.14247757
_cell_angle_gamma   70.20845700
_symmetry_Int_Tables_number   1
_chemical_formula_structural   Cu2NiC8
_chemical_formula_sum   'Cu4 Ni2 C16'
_cell_volume   270.55242465
_cell_formula_units_Z   2
loop_
 _symmetry_equiv_pos_site_id
 _symmetry_equiv_pos_as_xyz
  1  'x, y, z'
loop_
 _atom_site_type_symbol
 _atom_site_label
 _atom_site_symmetry_multiplicity
 _atom_site_fract_x
 _atom_site_fract_y
 _atom_site_fract_z
 _atom_site_occupancy
  Ni  Ni0  1  0.28838400  0.18653600  0.91877900  1
  Ni  Ni1  1  0.71167200  0.81333700  0.08123900  1
  C  C2  1  0.90603300  0.22048700  0.31852900  1
  C  C3  1  0.09389200  0.77984000  0.68127800  1
  Cu  Cu4  1  0.21322500  0.76343500  0.17144200  1
  Cu  Cu5  1  0.78673400  0.23657400  0.82869400  1
  Cu  Cu6  1  0.63887100  0.68194600  0.61795400  1
  Cu  Cu7  1  0.36110900  0.31800700  0.38208300  1
  C  C8  1  0.62516100  0.45755700  0.74890600  1
  C  C9  1  0.37477800  0.54243900  0.25125600  1
  C  C10  1  0.05760200  0.75766500  0.01232100  1
  C  C11  1  0.94243200  0.24228600  0.98766200  1
  C  C12  1  0.25883500  0.34076700  0.61057400  1
  C  C13  1  0.74122200  0.65905500  0.38948800  1
  C  C14  1  0.59927900  0.18779200  0.36874900  1
  C  C15  1  0.40076500  0.81223400  0.63114400  1
  C  C16  1  0.62613400  0.11846400  0.94445200  1
  C  C17  1  0.37392700  0.88143900  0.05555600  1
  C  C18  1  0.92754700  0.15050000  0.64247300  1
  C  C19  1  0.07240500  0.84961300  0.35744300  1
  C  C20  1  0.21397400  0.27003700  0.24552700  1
  C  C21  1  0.78602000  0.72998800  0.75445100  1
