# generated using pymatgen
data_Cu2NiC11
_symmetry_space_group_name_H-M   'P 1'
_cell_length_a   5.12811766
_cell_length_b   5.12811766
_cell_length_c   17.93374679
_cell_angle_alpha   83.65477620
_cell_angle_beta   83.65477620
_cell_angle_gamma   32.44658357
_symmetry_Int_Tables_number   1
_chemical_formula_structural   Cu2NiC11
_chemical_formula_sum   'Cu4 Ni2 C22'
_cell_volume   251.34555713
_cell_formula_units_Z   2
loop_
 _symmetry_equiv_pos_site_id
 _symmetry_equiv_pos_as_xyz
  1  'x, y, z'
loop_
 _atom_site_type_symbol
 _atom_site_label
 _atom_site_symmetry_multiplicity
 _atom_site_fract_x
 _atom_site_fract_y
 _atom_site_fract_z
 _atom_site_occupancy
  C  C0  1  0.28512400  0.28512400  0.92079900  1
  C  C1  1  0.86663700  0.86663700  0.79284200  1
  C  C2  1  0.42796200  0.42796200  0.65024800  1
  C  C3  1  0.00300500  0.00300500  0.49688900  1
  C  C4  1  0.56961600  0.56961600  0.35384100  1
  C  C5  1  0.14064400  0.14064400  0.21687900  1
  C  C6  1  0.71287500  0.71287500  0.06739700  1
  C  C7  1  0.56903200  0.56903200  0.85785100  1
  Ni  Ni8  1  0.99296700  0.99296700  0.99417700  1
  Ni  Ni9  1  0.71387100  0.71387100  0.57275200  1
  Cu  Cu10  1  0.14534900  0.14534900  0.72569200  1
  Cu  Cu11  1  0.28671900  0.28671900  0.42662700  1
  Cu  Cu12  1  0.86036800  0.86036800  0.28533500  1
  Cu  Cu13  1  0.42707600  0.42707600  0.14183400  1
  C  C14  1  0.36567300  0.36567300  0.03153900  1
  C  C15  1  0.93196100  0.93196100  0.90181500  1
  C  C16  1  0.51077200  0.51077200  0.74690700  1
  C  C17  1  0.08790400  0.08790400  0.60289600  1
  C  C18  1  0.65318900  0.65318900  0.47171200  1
  C  C19  1  0.22345600  0.22345600  0.32148000  1
  C  C20  1  0.80072500  0.80072500  0.17566300  1
  C  C21  1  0.21913000  0.21913000  0.81640200  1
  C  C22  1  0.77401900  0.77401900  0.67186600  1
  C  C23  1  0.34248500  0.34248500  0.53954600  1
  C  C24  1  0.92283400  0.92283400  0.39300500  1
  C  C25  1  0.49536100  0.49536100  0.24961100  1
  C  C26  1  0.04968100  0.04968100  0.10395200  1
  C  C27  1  0.62156600  0.62156600  0.97044600  1
