# generated using pymatgen
data_Cu3NiC16
_symmetry_space_group_name_H-M   'P 1'
_cell_length_a   4.85289100
_cell_length_b   5.97111005
_cell_length_c   7.70594697
_cell_angle_alpha   105.29751859
_cell_angle_beta   90.10284468
_cell_angle_gamma   89.99238117
_symmetry_Int_Tables_number   1
_chemical_formula_structural   Cu3NiC16
_chemical_formula_sum   'Cu3 Ni1 C16'
_cell_volume   215.38434426
_cell_formula_units_Z   1
loop_
 _symmetry_equiv_pos_site_id
 _symmetry_equiv_pos_as_xyz
  1  'x, y, z'
loop_
 _atom_site_type_symbol
 _atom_site_label
 _atom_site_symmetry_multiplicity
 _atom_site_fract_x
 _atom_site_fract_y
 _atom_site_fract_z
 _atom_site_occupancy
  Ni  Ni0  1  0.00000000  0.00000000  0.00000000  1
  Cu  Cu1  1  0.50000000  0.50000000  0.50000000  1
  Cu  Cu2  1  0.00000000  0.00000000  0.50000000  1
  Cu  Cu3  1  0.50000000  0.50000000  0.00000000  1
  C  C4  1  0.50247100  0.00367800  0.74092700  1
  C  C5  1  0.99738600  0.50829800  0.25315900  1
  C  C6  1  0.49752900  0.99632200  0.25907300  1
  C  C7  1  0.00261400  0.49170200  0.74684100  1
  C  C8  1  0.78664800  0.00083800  0.73454900  1
  C  C9  1  0.28410600  0.49673700  0.25064800  1
  C  C10  1  0.85615300  0.64714300  0.39887700  1
  C  C11  1  0.37453600  0.15133300  0.88787800  1
  C  C12  1  0.34909500  0.85362000  0.60764700  1
  C  C13  1  0.84945700  0.37490300  0.10845100  1
  C  C14  1  0.21335200  0.99916200  0.26545100  1
  C  C15  1  0.71589400  0.50326300  0.74935200  1
  C  C16  1  0.14384700  0.35285700  0.60112300  1
  C  C17  1  0.62546400  0.84866700  0.11212200  1
  C  C18  1  0.65090500  0.14638000  0.39235300  1
  C  C19  1  0.15054300  0.62509700  0.89154900  1
