# generated using pymatgen
data_Cu12Ni12C47
_symmetry_space_group_name_H-M   'P 1'
_cell_length_a   11.67848047
_cell_length_b   11.67848047
_cell_length_c   12.89789026
_cell_angle_alpha   66.71623679
_cell_angle_beta   66.71623679
_cell_angle_gamma   62.77760983
_symmetry_Int_Tables_number   1
_chemical_formula_structural   Cu12Ni12C47
_chemical_formula_sum   'Cu24 Ni24 C94'
_cell_volume   1386.45348577
_cell_formula_units_Z   2
loop_
 _symmetry_equiv_pos_site_id
 _symmetry_equiv_pos_as_xyz
  1  'x, y, z'
loop_
 _atom_site_type_symbol
 _atom_site_label
 _atom_site_symmetry_multiplicity
 _atom_site_fract_x
 _atom_site_fract_y
 _atom_site_fract_z
 _atom_site_occupancy
  C  C0  1  0.44923400  0.55076600  0.75000000  1
  C  C1  1  0.55076600  0.44923400  0.25000000  1
  C  C2  1  0.77429700  0.54635200  0.72872300  1
  C  C3  1  0.45364800  0.22570300  0.77127700  1
  C  C4  1  0.22570300  0.45364800  0.27127700  1
  C  C5  1  0.54635200  0.77429700  0.22872300  1
  C  C6  1  0.88137700  0.56841900  0.75347500  1
  C  C7  1  0.43158100  0.11862300  0.74652500  1
  C  C8  1  0.11862300  0.43158100  0.24652500  1
  C  C9  1  0.56841900  0.88137700  0.25347500  1
  C  C10  1  0.35618900  0.96004600  0.44870100  1
  C  C11  1  0.03995400  0.64381100  0.05129900  1
  C  C12  1  0.64381100  0.03995400  0.55129900  1
  C  C13  1  0.96004600  0.35618900  0.94870100  1
  C  C14  1  0.28203200  0.83977300  0.54708700  1
  C  C15  1  0.16022700  0.71796800  0.95291300  1
  C  C16  1  0.71796800  0.16022700  0.45291300  1
  C  C17  1  0.83977300  0.28203200  0.04708700  1
  C  C18  1  0.05629300  0.90968100  0.64223000  1
  C  C19  1  0.09031900  0.94370700  0.85777000  1
  C  C20  1  0.94370700  0.09031900  0.35777000  1
  C  C21  1  0.90968100  0.05629300  0.14223000  1
  C  C22  1  0.96882900  0.08339700  0.63363500  1
  C  C23  1  0.91660300  0.03117100  0.86636500  1
  C  C24  1  0.03117100  0.91660300  0.36636500  1
  C  C25  1  0.08339700  0.96882900  0.13363500  1
  C  C26  1  0.23239400  0.18445700  0.42890200  1
  C  C27  1  0.81554300  0.76760600  0.07109800  1
  C  C28  1  0.76760600  0.81554300  0.57109800  1
  C  C29  1  0.18445700  0.23239400  0.92890200  1
  C  C30  1  0.06222900  0.23517900  0.50572300  1
  C  C31  1  0.76482100  0.93777100  0.99427700  1
  C  C32  1  0.93777100  0.76482100  0.49427700  1
  C  C33  1  0.23517900  0.06222900  0.00572300  1
  C  C34  1  0.78638500  0.52856100  0.50346200  1
  C  C35  1  0.47143900  0.21361500  0.99653800  1
  C  C36  1  0.21361500  0.47143900  0.49653800  1
  C  C37  1  0.52856100  0.78638500  0.00346200  1
  C  C38  1  0.94713400  0.50699100  0.40596900  1
  C  C39  1  0.49300900  0.05286600  0.09403100  1
  C  C40  1  0.05286600  0.49300900  0.59403100  1
  C  C41  1  0.50699100  0.94713400  0.90596900  1
  C  C42  1  0.61885400  0.75182000  0.46446400  1
  C  C43  1  0.24818000  0.38114600  0.03553600  1
  C  C44  1  0.38114600  0.24818000  0.53553600  1
  C  C45  1  0.75182000  0.61885400  0.96446400  1
  C  C46  1  0.67087600  0.87924300  0.35257500  1
  C  C47  1  0.12075700  0.32912400  0.14742500  1
  C  C48  1  0.32912400  0.12075700  0.64742500  1
  C  C49  1  0.87924300  0.67087600  0.85257500  1
  C  C50  1  0.00069600  0.67040800  0.26050000  1
  C  C51  1  0.32959200  0.99930400  0.23950000  1
  C  C52  1  0.99930400  0.32959200  0.73950000  1
  C  C53  1  0.67040800  0.00069600  0.76050000  1
  C  C54  1  0.87784000  0.83135400  0.22783700  1
  C  C55  1  0.16864600  0.12216000  0.27216300  1
  C  C56  1  0.12216000  0.16864600  0.77216300  1
  C  C57  1  0.83135400  0.87784000  0.72783700  1
  Ni  Ni58  1  0.34226400  0.85928000  0.77154300  1
  Ni  Ni59  1  0.14072000  0.65773600  0.72845700  1
  Ni  Ni60  1  0.65773600  0.14072000  0.22845700  1
  Ni  Ni61  1  0.85928000  0.34226400  0.27154300  1
  Ni  Ni62  1  0.48135800  0.84360300  0.68309700  1
  Ni  Ni63  1  0.15639700  0.51864200  0.81690300  1
  Ni  Ni64  1  0.51864200  0.15639700  0.31690300  1
  Ni  Ni65  1  0.84360300  0.48135800  0.18309700  1
  Ni  Ni66  1  0.75096200  0.32380000  0.69121800  1
  Ni  Ni67  1  0.67620000  0.24903800  0.80878200  1
  Ni  Ni68  1  0.24903800  0.67620000  0.30878200  1
  Ni  Ni69  1  0.32380000  0.75096200  0.19121800  1
  Ni  Ni70  1  0.56767300  0.50834300  0.96720100  1
  Ni  Ni71  1  0.49165700  0.43232700  0.53279900  1
  Ni  Ni72  1  0.43232700  0.49165700  0.03279900  1
  Ni  Ni73  1  0.50834300  0.56767300  0.46720100  1
  Ni  Ni74  1  0.15911500  0.03445600  0.53130800  1
  Ni  Ni75  1  0.96554400  0.84088500  0.96869200  1
  Ni  Ni76  1  0.84088500  0.96554400  0.46869200  1
  Ni  Ni77  1  0.03445600  0.15911500  0.03130800  1
  Ni  Ni78  1  0.81321800  0.69323600  0.36709200  1
  Ni  Ni79  1  0.30676400  0.18678200  0.13290800  1
  Ni  Ni80  1  0.18678200  0.30676400  0.63290800  1
  Ni  Ni81  1  0.69323600  0.81321800  0.86709200  1
  Cu  Cu82  1  0.27401000  0.93624300  0.50195600  1
  Cu  Cu83  1  0.06375700  0.72599000  0.99804400  1
  Cu  Cu84  1  0.72599000  0.06375700  0.49804400  1
  Cu  Cu85  1  0.93624300  0.27401000  0.00195600  1
  Cu  Cu86  1  0.05211700  0.00668600  0.60664600  1
  Cu  Cu87  1  0.99331400  0.94788300  0.89335400  1
  Cu  Cu88  1  0.94788300  0.99331400  0.39335400  1
  Cu  Cu89  1  0.00668600  0.05211700  0.10664600  1
  Cu  Cu90  1  0.15017600  0.16194300  0.48283600  1
  Cu  Cu91  1  0.83805700  0.84982400  0.01716400  1
  Cu  Cu92  1  0.84982400  0.83805700  0.51716400  1
  Cu  Cu93  1  0.16194300  0.15017600  0.98283600  1
  Cu  Cu94  1  0.84897400  0.56555300  0.42891500  1
  Cu  Cu95  1  0.43444700  0.15102600  0.07108500  1
  Cu  Cu96  1  0.15102600  0.43444700  0.57108500  1
  Cu  Cu97  1  0.56555300  0.84897400  0.92891500  1
  Cu  Cu98  1  0.68786100  0.77959500  0.39135000  1
  Cu  Cu99  1  0.22040500  0.31213900  0.10865000  1
  Cu  Cu100  1  0.31213900  0.22040500  0.60865000  1
  Cu  Cu101  1  0.77959500  0.68786100  0.89135000  1
  Cu  Cu102  1  0.90491300  0.73570800  0.27717900  1
  Cu  Cu103  1  0.26429200  0.09508700  0.22282100  1
  Cu  Cu104  1  0.09508700  0.26429200  0.72282100  1
  Cu  Cu105  1  0.73570800  0.90491300  0.77717900  1
  C  C106  1  0.31817300  0.75009800  0.82172900  1
  C  C107  1  0.24990200  0.68182700  0.67827100  1
  C  C108  1  0.68182700  0.24990200  0.17827100  1
  C  C109  1  0.75009800  0.31817300  0.32172900  1
  C  C110  1  0.26278700  0.97152900  0.78791400  1
  C  C111  1  0.02847100  0.73721300  0.71208600  1
  C  C112  1  0.73721300  0.02847100  0.21208600  1
  C  C113  1  0.97152900  0.26278700  0.28791400  1
  C  C114  1  0.52384300  0.93769800  0.64324000  1
  C  C115  1  0.06230200  0.47615700  0.85676000  1
  C  C116  1  0.47615700  0.06230200  0.35676000  1
  C  C117  1  0.93769800  0.52384300  0.14324000  1
  C  C118  1  0.54116500  0.73102800  0.65717700  1
  C  C119  1  0.26897200  0.45883500  0.84282300  1
  C  C120  1  0.45883400  0.26897200  0.34282300  1
  C  C121  1  0.73102800  0.54116600  0.15717700  1
  C  C122  1  0.68267000  0.44799000  0.65372900  1
  C  C123  1  0.55201000  0.31733000  0.84627100  1
  C  C124  1  0.31733000  0.55201000  0.34627100  1
  C  C125  1  0.44799000  0.68267000  0.15372900  1
  C  C126  1  0.86780400  0.26345700  0.64094900  1
  C  C127  1  0.73654300  0.13219600  0.85905100  1
  C  C128  1  0.13219600  0.73654300  0.35905100  1
  C  C129  1  0.26345700  0.86780400  0.14094900  1
  C  C130  1  0.59821600  0.53561700  0.85638500  1
  C  C131  1  0.46438300  0.40178400  0.64361500  1
  C  C132  1  0.40178400  0.46438300  0.14361500  1
  C  C133  1  0.53561700  0.59821600  0.35638500  1
  C  C134  1  0.63730900  0.49433700  0.02876300  1
  C  C135  1  0.50566300  0.36269100  0.47123700  1
  C  C136  1  0.36269100  0.50566300  0.97123700  1
  C  C137  1  0.49433700  0.63730900  0.52876300  1
  C  C138  1  0.86931600  0.53504300  0.70139200  1
  C  C139  1  0.46495700  0.13068400  0.79860800  1
  C  C140  1  0.13068400  0.46495700  0.29860800  1
  C  C141  1  0.53504300  0.86931600  0.20139200  1
