# generated using pymatgen
data_Cu2Ni3C
_symmetry_space_group_name_H-M   'P 1'
_cell_length_a   8.71680300
_cell_length_b   8.83729400
_cell_length_c   13.58022800
_cell_angle_alpha   90.00000000
_cell_angle_beta   90.00000000
_cell_angle_gamma   90.00000000
_symmetry_Int_Tables_number   1
_chemical_formula_structural   Cu2Ni3C
_chemical_formula_sum   'Cu8 Ni12 C4'
_cell_volume   1046.12503607
_cell_formula_units_Z   4
loop_
 _symmetry_equiv_pos_site_id
 _symmetry_equiv_pos_as_xyz
  1  'x, y, z'
loop_
 _atom_site_type_symbol
 _atom_site_label
 _atom_site_symmetry_multiplicity
 _atom_site_fract_x
 _atom_site_fract_y
 _atom_site_fract_z
 _atom_site_occupancy
  C  C0  1  0.50000000  0.50000000  0.37537300  1
  C  C1  1  0.00000000  0.00000000  0.62462700  1
  C  C2  1  0.50000000  0.50000000  0.87568800  1
  C  C3  1  0.00000000  0.00000000  0.12431200  1
  Ni  Ni4  1  0.78310000  0.50000000  0.87515400  1
  Ni  Ni5  1  0.28310000  0.00000000  0.12484600  1
  Ni  Ni6  1  0.71690000  0.00000000  0.12484600  1
  Ni  Ni7  1  0.21690000  0.50000000  0.87515400  1
  Ni  Ni8  1  0.78600100  0.50000000  0.37522300  1
  Ni  Ni9  1  0.28600100  0.00000000  0.62477700  1
  Ni  Ni10  1  0.71399900  0.00000000  0.62477700  1
  Ni  Ni11  1  0.21399900  0.50000000  0.37522300  1
  Ni  Ni12  1  0.50000000  0.50000000  0.69390500  1
  Ni  Ni13  1  0.00000000  0.00000000  0.30609500  1
  Ni  Ni14  1  0.50000000  0.50000000  0.05728100  1
  Ni  Ni15  1  0.00000000  0.00000000  0.94271900  1
  Cu  Cu16  1  0.50000000  0.27022700  0.87349400  1
  Cu  Cu17  1  0.50000000  0.72977300  0.87349400  1
  Cu  Cu18  1  0.00000000  0.77022700  0.12650600  1
  Cu  Cu19  1  0.00000000  0.22977300  0.12650600  1
  Cu  Cu20  1  0.50000000  0.29738300  0.37474300  1
  Cu  Cu21  1  0.50000000  0.70261700  0.37474300  1
  Cu  Cu22  1  0.00000000  0.79738300  0.62525700  1
  Cu  Cu23  1  0.00000000  0.20261700  0.62525700  1
