# generated using pymatgen
data_CuNi2
_symmetry_space_group_name_H-M   'P 1'
_cell_length_a   7.92025113
_cell_length_b   7.92025113
_cell_length_c   4.95529300
_cell_angle_alpha   90.00000000
_cell_angle_beta   90.00000000
_cell_angle_gamma   157.38624406
_symmetry_Int_Tables_number   1
_chemical_formula_structural   CuNi2
_chemical_formula_sum   'Cu2 Ni4'
_cell_volume   119.52609886
_cell_formula_units_Z   2
loop_
 _symmetry_equiv_pos_site_id
 _symmetry_equiv_pos_as_xyz
  1  'x, y, z'
loop_
 _atom_site_type_symbol
 _atom_site_label
 _atom_site_symmetry_multiplicity
 _atom_site_fract_x
 _atom_site_fract_y
 _atom_site_fract_z
 _atom_site_occupancy
  Ni  Ni0  1  0.62175300  0.37824700  0.25000000  1
  Ni  Ni1  1  0.93959700  0.06040300  0.25000000  1
  Ni  Ni2  1  0.06040300  0.93959700  0.75000000  1
  Ni  Ni3  1  0.37824700  0.62175300  0.75000000  1
  Cu  Cu4  1  0.27778500  0.72221500  0.25000000  1
  Cu  Cu5  1  0.72221500  0.27778500  0.75000000  1
