# generated using pymatgen
data_CuNiC16
_symmetry_space_group_name_H-M   'P 1'
_cell_length_a   7.33504498
_cell_length_b   7.33504498
_cell_length_c   10.23825752
_cell_angle_alpha   66.70442696
_cell_angle_beta   66.70442696
_cell_angle_gamma   70.08893635
_symmetry_Int_Tables_number   1
_chemical_formula_structural   CuNiC16
_chemical_formula_sum   'Cu2 Ni2 C32'
_cell_volume   453.48709564
_cell_formula_units_Z   2
loop_
 _symmetry_equiv_pos_site_id
 _symmetry_equiv_pos_as_xyz
  1  'x, y, z'
loop_
 _atom_site_type_symbol
 _atom_site_label
 _atom_site_symmetry_multiplicity
 _atom_site_fract_x
 _atom_site_fract_y
 _atom_site_fract_z
 _atom_site_occupancy
  Ni  Ni0  1  0.95624300  0.04375700  0.25000000  1
  Ni  Ni1  1  0.04375700  0.95624300  0.75000000  1
  Cu  Cu2  1  0.00000000  0.50000000  0.00000000  1
  Cu  Cu3  1  0.50000000  0.00000000  0.50000000  1
  C  C4  1  0.70256200  0.68770500  0.30656300  1
  C  C5  1  0.31229500  0.29743800  0.19343700  1
  C  C6  1  0.29743800  0.31229500  0.69343700  1
  C  C7  1  0.68770500  0.70256200  0.80656300  1
  C  C8  1  0.74755100  0.27176600  0.52068600  1
  C  C9  1  0.72823400  0.25244900  0.97931400  1
  C  C10  1  0.25244900  0.72823400  0.47931400  1
  C  C11  1  0.27176600  0.74755100  0.02068600  1
  C  C12  1  0.46553700  0.68841400  0.35413500  1
  C  C13  1  0.31158600  0.53446300  0.14586500  1
  C  C14  1  0.53446300  0.31158600  0.64586500  1
  C  C15  1  0.68841400  0.46553700  0.85413500  1
  C  C16  1  0.78575900  0.49788700  0.43290600  1
  C  C17  1  0.50211300  0.21424100  0.06709400  1
  C  C18  1  0.21424100  0.50211400  0.56709400  1
  C  C19  1  0.49788700  0.78575900  0.93290600  1
  C  C20  1  0.80077900  0.65682100  0.15784500  1
  C  C21  1  0.34317900  0.19922100  0.34215500  1
  C  C22  1  0.19922100  0.34317900  0.84215500  1
  C  C23  1  0.65682100  0.80077900  0.65784500  1
  C  C24  1  0.72197300  0.87513600  0.32510000  1
  C  C25  1  0.12486400  0.27802700  0.17490000  1
  C  C26  1  0.27802700  0.12486400  0.67490000  1
  C  C27  1  0.87513600  0.72197300  0.82510000  1
  C  C28  1  0.72095400  0.18837100  0.41617900  1
  C  C29  1  0.81162900  0.27904600  0.08382100  1
  C  C30  1  0.27904600  0.81162900  0.58382100  1
  C  C31  1  0.18837100  0.72095400  0.91617900  1
  C  C32  1  0.90557900  0.15701500  0.59631900  1
  C  C33  1  0.84298500  0.09442100  0.90368100  1
  C  C34  1  0.09442100  0.84298500  0.40368100  1
  C  C35  1  0.15701500  0.90557900  0.09631900  1
