# generated using pymatgen
data_Cu3NiC11
_symmetry_space_group_name_H-M   'P 1'
_cell_length_a   10.32100753
_cell_length_b   10.32099945
_cell_length_c   14.60925249
_cell_angle_alpha   19.32594088
_cell_angle_beta   19.32589881
_cell_angle_gamma   33.30940721
_symmetry_Int_Tables_number   1
_chemical_formula_structural   Cu3NiC11
_chemical_formula_sum   'Cu3 Ni1 C11'
_cell_volume   147.60655655
_cell_formula_units_Z   1
loop_
 _symmetry_equiv_pos_site_id
 _symmetry_equiv_pos_as_xyz
  1  'x, y, z'
loop_
 _atom_site_type_symbol
 _atom_site_label
 _atom_site_symmetry_multiplicity
 _atom_site_fract_x
 _atom_site_fract_y
 _atom_site_fract_z
 _atom_site_occupancy
  C  C0  1  0.00000200  0.50000100  0.49999800  1
  C  C1  1  0.50000200  0.00000200  0.49999800  1
  C  C2  1  0.50000200  0.50000100  0.49999800  1
  Ni  Ni3  1  0.00000100  0.99999100  0.00000700  1
  Cu  Cu4  1  0.00000200  0.49999700  0.00000100  1
  Cu  Cu5  1  0.49999400  0.00000200  0.00000400  1
  Cu  Cu6  1  0.49998300  0.50000500  0.00000700  1
  C  C7  1  0.99999500  0.99999100  0.25915200  1
  C  C8  1  0.99998000  0.52251800  0.24670200  1
  C  C9  1  0.52251900  0.99997800  0.24670300  1
  C  C10  1  0.00001100  0.00000900  0.74084400  1
  C  C11  1  0.47745900  0.47745600  0.29175700  1
  C  C12  1  0.00002500  0.47748600  0.75329100  1
  C  C13  1  0.47748600  0.00002400  0.75329200  1
  C  C14  1  0.52253900  0.52254000  0.70824700  1
