# generated using pymatgen
data_Cu2NiC4
_symmetry_space_group_name_H-M   'P 1'
_cell_length_a   3.45257100
_cell_length_b   10.19995900
_cell_length_c   12.06163100
_cell_angle_alpha   90.00000000
_cell_angle_beta   90.00000000
_cell_angle_gamma   90.00000000
_symmetry_Int_Tables_number   1
_chemical_formula_structural   Cu2NiC4
_chemical_formula_sum   'Cu8 Ni4 C16'
_cell_volume   424.76339412
_cell_formula_units_Z   4
loop_
 _symmetry_equiv_pos_site_id
 _symmetry_equiv_pos_as_xyz
  1  'x, y, z'
loop_
 _atom_site_type_symbol
 _atom_site_label
 _atom_site_symmetry_multiplicity
 _atom_site_fract_x
 _atom_site_fract_y
 _atom_site_fract_z
 _atom_site_occupancy
  Ni  Ni0  1  0.75000000  0.25288400  0.85127300  1
  Ni  Ni1  1  0.25000000  0.74711600  0.14872700  1
  Ni  Ni2  1  0.75000000  0.75288400  0.64872700  1
  Ni  Ni3  1  0.25000000  0.24711600  0.35127300  1
  Cu  Cu4  1  0.25000000  0.57694200  0.88890600  1
  Cu  Cu5  1  0.75000000  0.42305800  0.11109400  1
  Cu  Cu6  1  0.25000000  0.07694200  0.61109400  1
  Cu  Cu7  1  0.75000000  0.92305800  0.38890600  1
  Cu  Cu8  1  0.75000000  0.92252800  0.88786200  1
  Cu  Cu9  1  0.25000000  0.07747200  0.11213800  1
  Cu  Cu10  1  0.75000000  0.42252800  0.61213800  1
  Cu  Cu11  1  0.25000000  0.57747200  0.38786200  1
  C  C12  1  0.25000000  0.57467500  0.57764200  1
  C  C13  1  0.75000000  0.42532500  0.42235800  1
  C  C14  1  0.25000000  0.07467500  0.92235800  1
  C  C15  1  0.75000000  0.92532500  0.07764200  1
  C  C16  1  0.25000000  0.48532600  0.21621200  1
  C  C17  1  0.75000000  0.51467400  0.78378800  1
  C  C18  1  0.25000000  0.98532600  0.28378800  1
  C  C19  1  0.75000000  0.01467400  0.71621200  1
  C  C20  1  0.25000000  0.87403100  0.52036900  1
  C  C21  1  0.75000000  0.12596900  0.47963100  1
  C  C22  1  0.25000000  0.37403100  0.97963100  1
  C  C23  1  0.75000000  0.62596900  0.02036900  1
  C  C24  1  0.75000000  0.71144000  0.32430800  1
  C  C25  1  0.25000000  0.28856000  0.67569200  1
  C  C26  1  0.75000000  0.21144000  0.17569200  1
  C  C27  1  0.25000000  0.78856000  0.82430800  1
