# generated using pymatgen
data_Cu8Ni2C
_symmetry_space_group_name_H-M   'P 1'
_cell_length_a   8.77814945
_cell_length_b   8.77814945
_cell_length_c   8.77814945
_cell_angle_alpha   60.00000000
_cell_angle_beta   60.00000000
_cell_angle_gamma   60.00000000
_symmetry_Int_Tables_number   1
_chemical_formula_structural   Cu8Ni2C
_chemical_formula_sum   'Cu32 Ni8 C4'
_cell_volume   478.29287712
_cell_formula_units_Z   4
loop_
 _symmetry_equiv_pos_site_id
 _symmetry_equiv_pos_as_xyz
  1  'x, y, z'
loop_
 _atom_site_type_symbol
 _atom_site_label
 _atom_site_symmetry_multiplicity
 _atom_site_fract_x
 _atom_site_fract_y
 _atom_site_fract_z
 _atom_site_occupancy
  C  C0  1  0.25000000  0.25000000  0.25000000  1
  C  C1  1  0.00000000  0.00000000  0.00000000  1
  C  C2  1  0.50000000  0.50000000  0.50000000  1
  C  C3  1  0.75000000  0.75000000  0.75000000  1
  Ni  Ni4  1  0.92400000  0.35866700  0.35866700  1
  Ni  Ni5  1  0.35866700  0.92400000  0.35866700  1
  Ni  Ni6  1  0.35866700  0.35866700  0.92400000  1
  Ni  Ni7  1  0.35866700  0.35866700  0.35866700  1
  Ni  Ni8  1  0.32600000  0.89133300  0.89133300  1
  Ni  Ni9  1  0.89133300  0.32600000  0.89133300  1
  Ni  Ni10  1  0.89133300  0.89133300  0.32600000  1
  Ni  Ni11  1  0.89133300  0.89133300  0.89133300  1
  Cu  Cu12  1  0.75079300  0.41640200  0.41640200  1
  Cu  Cu13  1  0.41640200  0.75079300  0.41640200  1
  Cu  Cu14  1  0.41640200  0.41640200  0.75079300  1
  Cu  Cu15  1  0.41640200  0.41640200  0.41640200  1
  Cu  Cu16  1  0.49920700  0.83359800  0.83359800  1
  Cu  Cu17  1  0.83359800  0.49920700  0.83359800  1
  Cu  Cu18  1  0.83359800  0.83359800  0.49920700  1
  Cu  Cu19  1  0.83359800  0.83359800  0.83359800  1
  Cu  Cu20  1  0.49495900  0.26559700  0.26559700  1
  Cu  Cu21  1  0.26559700  0.49495900  0.97384700  1
  Cu  Cu22  1  0.26559700  0.97384700  0.49495900  1
  Cu  Cu23  1  0.97384700  0.26559700  0.26559700  1
  Cu  Cu24  1  0.26559700  0.26559700  0.49495900  1
  Cu  Cu25  1  0.49495900  0.97384700  0.26559700  1
  Cu  Cu26  1  0.97384700  0.49495900  0.26559700  1
  Cu  Cu27  1  0.26559700  0.26559700  0.97384700  1
  Cu  Cu28  1  0.26559700  0.49495900  0.26559700  1
  Cu  Cu29  1  0.97384700  0.26559700  0.49495900  1
  Cu  Cu30  1  0.49495900  0.26559700  0.97384700  1
  Cu  Cu31  1  0.26559700  0.97384700  0.26559700  1
  Cu  Cu32  1  0.75504100  0.98440300  0.98440300  1
  Cu  Cu33  1  0.98440300  0.75504100  0.27615300  1
  Cu  Cu34  1  0.98440300  0.27615300  0.75504100  1
  Cu  Cu35  1  0.27615300  0.98440300  0.98440300  1
  Cu  Cu36  1  0.98440300  0.98440300  0.75504100  1
  Cu  Cu37  1  0.75504100  0.27615300  0.98440300  1
  Cu  Cu38  1  0.27615300  0.75504100  0.98440300  1
  Cu  Cu39  1  0.98440300  0.98440300  0.27615300  1
  Cu  Cu40  1  0.98440300  0.75504100  0.98440300  1
  Cu  Cu41  1  0.27615300  0.98440300  0.75504100  1
  Cu  Cu42  1  0.75504100  0.98440300  0.27615300  1
  Cu  Cu43  1  0.98440300  0.27615300  0.98440300  1
