# generated using pymatgen
data_Cu10NiC38
_symmetry_space_group_name_H-M   'P 1'
_cell_length_a   6.80069302
_cell_length_b   7.51932505
_cell_length_c   12.11559097
_cell_angle_alpha   106.48415729
_cell_angle_beta   94.21232845
_cell_angle_gamma   94.78790298
_symmetry_Int_Tables_number   1
_chemical_formula_structural   Cu10NiC38
_chemical_formula_sum   'Cu10 Ni1 C38'
_cell_volume   588.94591364
_cell_formula_units_Z   1
loop_
 _symmetry_equiv_pos_site_id
 _symmetry_equiv_pos_as_xyz
  1  'x, y, z'
loop_
 _atom_site_type_symbol
 _atom_site_label
 _atom_site_symmetry_multiplicity
 _atom_site_fract_x
 _atom_site_fract_y
 _atom_site_fract_z
 _atom_site_occupancy
  Ni  Ni0  1  0.66833227  0.03087465  0.69787160  1
  C  C1  1  0.03313130  0.10935987  0.16476016  1
  C  C2  1  0.12336030  0.32523979  0.44908191  1
  C  C3  1  0.77131626  0.27111624  0.97123241  1
  C  C4  1  0.26072736  0.74121485  0.03720791  1
  C  C5  1  0.80869564  0.48709873  0.26272183  1
  C  C6  1  0.97656736  0.88220749  0.85556782  1
  C  C7  1  0.86450552  0.68664542  0.54739876  1
  C  C8  1  0.18386730  0.50859261  0.73668899  1
  Cu  Cu9  1  0.29270847  0.54144722  0.25834953  1
  Cu  Cu10  1  0.48855501  0.19955663  0.12408414  1
  Cu  Cu11  1  0.83532754  0.93563642  0.34582593  1
  Cu  Cu12  1  0.14745633  0.08140236  0.65867735  1
  Cu  Cu13  1  0.78292049  0.73411317  0.08139030  1
  Cu  Cu14  1  0.51938490  0.77895651  0.87020789  1
  Cu  Cu15  1  0.23929860  0.27335929  0.92229962  1
  Cu  Cu16  1  0.62000097  0.26370631  0.46734673  1
  Cu  Cu17  1  0.70631498  0.44382757  0.73436911  1
  Cu  Cu18  1  0.36078043  0.73731465  0.52397649  1
  C  C19  1  0.29014594  0.94817080  0.57707245  1
  C  C20  1  0.87689794  0.75449242  0.38768224  1
  C  C21  1  0.09917865  0.40106815  0.26585644  1
  C  C22  1  0.25712313  0.65876833  0.16759975  1
  C  C23  1  0.28258406  0.80517212  0.87949561  1
  C  C24  1  0.27897947  0.16822376  0.78690520  1
  C  C25  1  0.63390379  0.29052291  0.60871757  1
  C  C26  1  0.95116493  0.95687479  0.67882968  1
  C  C27  1  0.10269136  0.25476896  0.60980456  1
  C  C28  1  0.40429831  0.30941181  0.42757244  1
  C  C29  1  0.05180911  0.16584322  0.96211486  1
  C  C30  1  0.74755231  0.86684113  0.20860767  1
  C  C31  1  0.81289625  0.39621069  0.44204235  1
  C  C32  1  0.89442081  0.59630418  0.73720998  1
  C  C33  1  0.02997800  0.08260018  0.34492744  1
  C  C34  1  0.96711389  0.82884881  0.02960034  1
  C  C35  1  0.18735541  0.58961123  0.55335871  1
  C  C36  1  0.58131142  0.76511141  0.59073148  1
  C  C37  1  0.80461367  0.53004786  0.09246830  1
  C  C38  1  0.44173058  0.25118937  0.99881162  1
  C  C39  1  0.58202161  0.74271395  0.99610375  1
  C  C40  1  0.20907967  0.48747068  0.92395821  1
  C  C41  1  0.51617975  0.57090367  0.77188879  1
  C  C42  1  0.73884388  0.29874321  0.80805294  1
  C  C43  1  0.66561622  0.04645747  0.41729839  1
  C  C44  1  0.66310424  0.94065036  0.84484063  1
  C  C45  1  0.36658584  0.68805281  0.38487273  1
  C  C46  1  0.47449485  0.40407463  0.22305564  1
  C  C47  1  0.72605636  0.18422081  0.13146820  1
  C  C48  1  0.32901753  0.02960248  0.12888254  1
