# generated using pymatgen
data_Cu33Ni7C9
_symmetry_space_group_name_H-M   'P 1'
_cell_length_a   16.00817625
_cell_length_b   16.00817625
_cell_length_c   9.72173628
_cell_angle_alpha   82.26849314
_cell_angle_beta   82.26849314
_cell_angle_gamma   135.08842145
_symmetry_Int_Tables_number   1
_chemical_formula_structural   Cu33Ni7C9
_chemical_formula_sum   'Cu66 Ni14 C18'
_cell_volume   1646.19667659
_cell_formula_units_Z   2
loop_
 _symmetry_equiv_pos_site_id
 _symmetry_equiv_pos_as_xyz
  1  'x, y, z'
loop_
 _atom_site_type_symbol
 _atom_site_label
 _atom_site_symmetry_multiplicity
 _atom_site_fract_x
 _atom_site_fract_y
 _atom_site_fract_z
 _atom_site_occupancy
  C  C0  1  0.92321300  0.17426000  0.81358800  1
  C  C1  1  0.17426000  0.92321300  0.31358800  1
  C  C2  1  0.21845300  0.49606300  0.47414900  1
  C  C3  1  0.49606300  0.21845300  0.97414900  1
  C  C4  1  0.61594800  0.89328000  0.74455400  1
  C  C5  1  0.89328000  0.61594800  0.24455400  1
  C  C6  1  0.81774100  0.85524300  0.84885100  1
  C  C7  1  0.85524300  0.81774100  0.34885100  1
  C  C8  1  0.61428700  0.83598600  0.14151500  1
  C  C9  1  0.83598600  0.61428700  0.64151500  1
  C  C10  1  0.21980000  0.45370400  0.84896700  1
  C  C11  1  0.45370400  0.21980000  0.34896700  1
  C  C12  1  0.00672800  0.47389700  0.78385400  1
  C  C13  1  0.47389700  0.00672800  0.28385400  1
  C  C14  1  0.22025200  0.26313800  0.57437300  1
  C  C15  1  0.26313800  0.22025200  0.07437300  1
  C  C16  1  0.91086900  0.28991000  0.16374100  1
  C  C17  1  0.28991000  0.91086900  0.66374100  1
  Ni  Ni18  1  0.68232900  0.61509900  0.12450400  1
  Ni  Ni19  1  0.61509900  0.68232900  0.62450400  1
  Ni  Ni20  1  0.99806000  0.11599800  0.32610300  1
  Ni  Ni21  1  0.11599800  0.99806000  0.82610300  1
  Ni  Ni22  1  0.01844600  0.48567600  0.37262700  1
  Ni  Ni23  1  0.48567600  0.01844600  0.87262700  1
  Ni  Ni24  1  0.71399600  0.00121200  0.37029400  1
  Ni  Ni25  1  0.00121200  0.71399600  0.87029400  1
  Ni  Ni26  1  0.45986600  0.35874900  0.68653400  1
  Ni  Ni27  1  0.35874900  0.45986600  0.18653400  1
  Ni  Ni28  1  0.73124800  0.34135600  0.59514600  1
  Ni  Ni29  1  0.34135600  0.73124800  0.09514600  1
  Ni  Ni30  1  0.36290700  0.75872000  0.61432600  1
  Ni  Ni31  1  0.75872000  0.36290700  0.11432600  1
  Cu  Cu32  1  0.82111900  0.96621100  0.99239800  1
  Cu  Cu33  1  0.96621100  0.82111900  0.49239800  1
  Cu  Cu34  1  0.09122400  0.47315400  0.96960800  1
  Cu  Cu35  1  0.47315400  0.09122400  0.46960800  1
  Cu  Cu36  1  0.62964800  0.78719000  0.92847200  1
  Cu  Cu37  1  0.78719000  0.62964800  0.42847200  1
  Cu  Cu38  1  0.01716200  0.27103000  0.00804900  1
  Cu  Cu39  1  0.27103000  0.01716200  0.50804900  1
  Cu  Cu40  1  0.71787700  0.03249200  0.23679400  1
  Cu  Cu41  1  0.03249200  0.71787700  0.73679400  1
  Cu  Cu42  1  0.87538800  0.26938200  0.93842800  1
  Cu  Cu43  1  0.26938200  0.87538800  0.43842800  1
  Cu  Cu44  1  0.29107500  0.43904700  0.62267400  1
  Cu  Cu45  1  0.43904700  0.29107500  0.12267400  1
  Cu  Cu46  1  0.68443700  0.98405700  0.92990400  1
  Cu  Cu47  1  0.98405700  0.68443700  0.42990400  1
  Cu  Cu48  1  0.81658100  0.99143800  0.72130800  1
  Cu  Cu49  1  0.99143800  0.81658100  0.22130800  1
  Cu  Cu50  1  0.82017400  0.19610200  0.66443300  1
  Cu  Cu51  1  0.19610200  0.82017400  0.16443300  1
  Cu  Cu52  1  0.09446500  0.28660500  0.55436500  1
  Cu  Cu53  1  0.28660500  0.09446500  0.05436500  1
  Cu  Cu54  1  0.11072500  0.22296000  0.79608000  1
  Cu  Cu55  1  0.22296000  0.11072500  0.29608000  1
  Cu  Cu56  1  0.95532000  0.48076500  0.30259700  1
  Cu  Cu57  1  0.48076500  0.95532000  0.80259700  1
  Cu  Cu58  1  0.03388300  0.41691500  0.36163700  1
  Cu  Cu59  1  0.41691500  0.03388300  0.86163700  1
  Cu  Cu60  1  0.65019600  0.59365200  0.01222900  1
  Cu  Cu61  1  0.59365200  0.65019600  0.51222900  1
  Cu  Cu62  1  0.66039600  0.53570900  0.22116800  1
  Cu  Cu63  1  0.53570900  0.66039600  0.72116800  1
  Cu  Cu64  1  0.73983700  0.72193100  0.13922900  1
  Cu  Cu65  1  0.72193100  0.73983700  0.63922900  1
  Cu  Cu66  1  0.99570600  0.06207100  0.43646300  1
  Cu  Cu67  1  0.06207100  0.99570600  0.93646300  1
  Cu  Cu68  1  0.01056500  0.09760300  0.20453900  1
  Cu  Cu69  1  0.09760300  0.01056500  0.70453900  1
  Cu  Cu70  1  0.98765100  0.18572600  0.33436200  1
  Cu  Cu71  1  0.18572600  0.98765100  0.83436200  1
  Cu  Cu72  1  0.69215300  0.90834100  0.41651200  1
  Cu  Cu73  1  0.90834100  0.69215300  0.91651200  1
  Cu  Cu74  1  0.73273400  0.06626300  0.44799000  1
  Cu  Cu75  1  0.06626300  0.73273400  0.94799000  1
  Cu  Cu76  1  0.06741100  0.55361500  0.45191200  1
  Cu  Cu77  1  0.55361500  0.06741100  0.95191200  1
  Cu  Cu78  1  0.10194900  0.42276800  0.70837900  1
  Cu  Cu79  1  0.42276800  0.10194900  0.20837900  1
  Cu  Cu80  1  0.49359500  0.39039600  0.54934500  1
  Cu  Cu81  1  0.39039600  0.49359500  0.04934500  1
  Cu  Cu82  1  0.53577200  0.39905400  0.75692200  1
  Cu  Cu83  1  0.39905400  0.53577200  0.25692200  1
  Cu  Cu84  1  0.34275100  0.28196000  0.76012400  1
  Cu  Cu85  1  0.28196000  0.34275100  0.26012400  1
  Cu  Cu86  1  0.70517300  0.24846500  0.58325100  1
  Cu  Cu87  1  0.24846500  0.70517300  0.08325100  1
  Cu  Cu88  1  0.70045000  0.38094800  0.51941000  1
  Cu  Cu89  1  0.38094800  0.70045000  0.01941000  1
  Cu  Cu90  1  0.78744700  0.39543200  0.68420000  1
  Cu  Cu91  1  0.39543200  0.78744700  0.18420000  1
  Cu  Cu92  1  0.45621800  0.87236700  0.53765700  1
  Cu  Cu93  1  0.87236700  0.45621800  0.03765700  1
  Cu  Cu94  1  0.37559300  0.68882100  0.63923500  1
  Cu  Cu95  1  0.68882100  0.37559300  0.13923500  1
  Cu  Cu96  1  0.25653100  0.71459000  0.66763200  1
  Cu  Cu97  1  0.71459000  0.25653100  0.16763200  1
