# generated using pymatgen
data_Cu(Ni10C11)3
_symmetry_space_group_name_H-M   'P 1'
_cell_length_a   8.59951900
_cell_length_b   8.59951900
_cell_length_c   8.58091700
_cell_angle_alpha   90.00000000
_cell_angle_beta   90.00000000
_cell_angle_gamma   90.00000000
_symmetry_Int_Tables_number   1
_chemical_formula_structural   Cu(Ni10C11)3
_chemical_formula_sum   'Cu1 Ni30 C33'
_cell_volume   634.57363166
_cell_formula_units_Z   1
loop_
 _symmetry_equiv_pos_site_id
 _symmetry_equiv_pos_as_xyz
  1  'x, y, z'
loop_
 _atom_site_type_symbol
 _atom_site_label
 _atom_site_symmetry_multiplicity
 _atom_site_fract_x
 _atom_site_fract_y
 _atom_site_fract_z
 _atom_site_occupancy
  C  C0  1  0.00000000  0.00000000  0.00000000  1
  Ni  Ni1  1  0.50000000  0.00000000  0.00000000  1
  Ni  Ni2  1  0.50000000  0.00000000  0.50000000  1
  Ni  Ni3  1  0.00000000  0.50000000  0.00000000  1
  Ni  Ni4  1  0.00000000  0.50000000  0.50000000  1
  Ni  Ni5  1  0.50000000  0.50000000  0.00000000  1
  Ni  Ni6  1  0.50000000  0.50000000  0.50000000  1
  Ni  Ni7  1  0.25517900  0.00000000  0.25203400  1
  Ni  Ni8  1  0.25517900  0.00000000  0.74796600  1
  Ni  Ni9  1  0.74482100  0.00000000  0.25203400  1
  Ni  Ni10  1  0.74482100  0.00000000  0.74796600  1
  Ni  Ni11  1  0.25063000  0.50000000  0.25043100  1
  Ni  Ni12  1  0.25063000  0.50000000  0.74956900  1
  Ni  Ni13  1  0.74937000  0.50000000  0.25043100  1
  Ni  Ni14  1  0.74937000  0.50000000  0.74956900  1
  Ni  Ni15  1  0.00000000  0.25517900  0.25203400  1
  Ni  Ni16  1  0.00000000  0.25517900  0.74796600  1
  Ni  Ni17  1  0.50000000  0.25063000  0.25043100  1
  Ni  Ni18  1  0.50000000  0.25063000  0.74956900  1
  Ni  Ni19  1  0.00000000  0.74482100  0.25203400  1
  Ni  Ni20  1  0.00000000  0.74482100  0.74796600  1
  Ni  Ni21  1  0.50000000  0.74937000  0.25043100  1
  Ni  Ni22  1  0.50000000  0.74937000  0.74956900  1
  Ni  Ni23  1  0.25313600  0.25313600  0.00000000  1
  Ni  Ni24  1  0.25145200  0.25145200  0.50000000  1
  Ni  Ni25  1  0.74686400  0.25313600  0.00000000  1
  Ni  Ni26  1  0.74854800  0.25145200  0.50000000  1
  Ni  Ni27  1  0.25313600  0.74686400  0.00000000  1
  Ni  Ni28  1  0.25145200  0.74854800  0.50000000  1
  Ni  Ni29  1  0.74686400  0.74686400  0.00000000  1
  Ni  Ni30  1  0.74854800  0.74854800  0.50000000  1
  Cu  Cu31  1  0.00000000  0.00000000  0.50000000  1
  C  C32  1  0.00000000  0.26230200  0.00000000  1
  C  C33  1  0.00000000  0.26326300  0.50000000  1
  C  C34  1  0.50000000  0.25251100  0.00000000  1
  C  C35  1  0.50000000  0.25216100  0.50000000  1
  C  C36  1  0.00000000  0.73769800  0.00000000  1
  C  C37  1  0.00000000  0.73673700  0.50000000  1
  C  C38  1  0.50000000  0.74748900  0.00000000  1
  C  C39  1  0.50000000  0.74783900  0.50000000  1
  C  C40  1  0.24951300  0.24951300  0.25013300  1
  C  C41  1  0.24951300  0.24951300  0.74986700  1
  C  C42  1  0.75048700  0.24951300  0.25013300  1
  C  C43  1  0.75048700  0.24951300  0.74986700  1
  C  C44  1  0.24951300  0.75048700  0.25013300  1
  C  C45  1  0.24951300  0.75048700  0.74986700  1
  C  C46  1  0.75048700  0.75048700  0.25013300  1
  C  C47  1  0.75048700  0.75048700  0.74986700  1
  C  C48  1  0.00000000  0.00000000  0.25746800  1
  C  C49  1  0.00000000  0.00000000  0.74253200  1
  C  C50  1  0.50000000  0.00000000  0.25023000  1
  C  C51  1  0.50000000  0.00000000  0.74977000  1
  C  C52  1  0.00000000  0.50000000  0.25023000  1
  C  C53  1  0.00000000  0.50000000  0.74977000  1
  C  C54  1  0.50000000  0.50000000  0.24997900  1
  C  C55  1  0.50000000  0.50000000  0.75002100  1
  C  C56  1  0.26230200  0.00000000  0.00000000  1
  C  C57  1  0.26326300  0.00000000  0.50000000  1
  C  C58  1  0.73769800  0.00000000  0.00000000  1
  C  C59  1  0.73673700  0.00000000  0.50000000  1
  C  C60  1  0.25251100  0.50000000  0.00000000  1
  C  C61  1  0.25216100  0.50000000  0.50000000  1
  C  C62  1  0.74748900  0.50000000  0.00000000  1
  C  C63  1  0.74783900  0.50000000  0.50000000  1
