# generated using pymatgen
data_Cu2NiC10
_symmetry_space_group_name_H-M   'P 1'
_cell_length_a   6.21809274
_cell_length_b   8.82012300
_cell_length_c   12.08732648
_cell_angle_alpha   90.00000000
_cell_angle_beta   89.17403816
_cell_angle_gamma   90.00000000
_symmetry_Int_Tables_number   1
_chemical_formula_structural   Cu2NiC10
_chemical_formula_sum   'Cu8 Ni4 C40'
_cell_volume   662.85259531
_cell_formula_units_Z   4
loop_
 _symmetry_equiv_pos_site_id
 _symmetry_equiv_pos_as_xyz
  1  'x, y, z'
loop_
 _atom_site_type_symbol
 _atom_site_label
 _atom_site_symmetry_multiplicity
 _atom_site_fract_x
 _atom_site_fract_y
 _atom_site_fract_z
 _atom_site_occupancy
  Ni  Ni0  1  0.10161600  0.14821600  0.02940700  1
  Ni  Ni1  1  0.89838400  0.85178400  0.97059300  1
  Ni  Ni2  1  0.89838400  0.64821600  0.47059300  1
  Ni  Ni3  1  0.10161600  0.35178400  0.52940700  1
  Cu  Cu4  1  0.75341800  0.19017700  0.83218700  1
  Cu  Cu5  1  0.37373800  0.07349200  0.60301600  1
  Cu  Cu6  1  0.62626200  0.92650800  0.39698400  1
  Cu  Cu7  1  0.24658200  0.80982300  0.16781300  1
  Cu  Cu8  1  0.75341800  0.30982300  0.33218700  1
  Cu  Cu9  1  0.37373800  0.42650800  0.10301600  1
  Cu  Cu10  1  0.24658200  0.69017700  0.66781300  1
  Cu  Cu11  1  0.62626200  0.57349200  0.89698400  1
  C  C12  1  0.09177100  0.45071000  0.84572200  1
  C  C13  1  0.09177100  0.04929000  0.34572200  1
  C  C14  1  0.56424400  0.06617000  0.15114800  1
  C  C15  1  0.90822900  0.95071000  0.65427800  1
  C  C16  1  0.43575600  0.93383000  0.84885200  1
  C  C17  1  0.43575600  0.56617000  0.34885200  1
  C  C18  1  0.56424400  0.43383000  0.65114800  1
  C  C19  1  0.90822900  0.54929000  0.15427800  1
  C  C20  1  0.03470800  0.26848900  0.37138100  1
  C  C21  1  0.65312700  0.01745800  0.57032500  1
  C  C22  1  0.19641800  0.55620900  0.45907100  1
  C  C23  1  0.80358200  0.05620900  0.04092900  1
  C  C24  1  0.03470800  0.23151000  0.87138100  1
  C  C25  1  0.96529200  0.73151000  0.62861900  1
  C  C26  1  0.08477700  0.12613400  0.59824900  1
  C  C27  1  0.52810300  0.84594800  0.19787500  1
  C  C28  1  0.52810300  0.65405200  0.69787500  1
  C  C29  1  0.27937300  0.89802400  0.69756000  1
  C  C30  1  0.72062700  0.39802400  0.80244000  1
  C  C31  1  0.47189700  0.15405200  0.80212500  1
  C  C32  1  0.91522300  0.87386600  0.40175100  1
  C  C33  1  0.79701200  0.52118300  0.31380800  1
  C  C34  1  0.41379500  0.27619700  0.55870800  1
  C  C35  1  0.41379500  0.22380300  0.05870800  1
  C  C36  1  0.20298800  0.02118300  0.18619200  1
  C  C37  1  0.47189700  0.34594800  0.30212500  1
  C  C38  1  0.20298800  0.47881700  0.68619200  1
  C  C39  1  0.80358200  0.44379100  0.54092900  1
  C  C40  1  0.65312700  0.48254200  0.07032500  1
  C  C41  1  0.72062700  0.10197600  0.30244000  1
  C  C42  1  0.96529200  0.76849000  0.12861900  1
  C  C43  1  0.08477700  0.37386600  0.09824900  1
  C  C44  1  0.19641800  0.94379100  0.95907100  1
  C  C45  1  0.58620500  0.77619700  0.94129200  1
  C  C46  1  0.34687300  0.98254200  0.42967500  1
  C  C47  1  0.34687300  0.51745800  0.92967500  1
  C  C48  1  0.91522300  0.62613400  0.90175100  1
  C  C49  1  0.58620500  0.72380300  0.44129200  1
  C  C50  1  0.27937300  0.60197600  0.19756000  1
  C  C51  1  0.79701200  0.97881700  0.81380800  1
