# generated using pymatgen
data_Cu7NiC7
_symmetry_space_group_name_H-M   'P 1'
_cell_length_a   9.00960500
_cell_length_b   5.26815100
_cell_length_c   15.25220874
_cell_angle_alpha   86.86369301
_cell_angle_beta   90.00000000
_cell_angle_gamma   90.00000000
_symmetry_Int_Tables_number   1
_chemical_formula_structural   Cu7NiC7
_chemical_formula_sum   'Cu28 Ni4 C28'
_cell_volume   722.84591748
_cell_formula_units_Z   4
loop_
 _symmetry_equiv_pos_site_id
 _symmetry_equiv_pos_as_xyz
  1  'x, y, z'
loop_
 _atom_site_type_symbol
 _atom_site_label
 _atom_site_symmetry_multiplicity
 _atom_site_fract_x
 _atom_site_fract_y
 _atom_site_fract_z
 _atom_site_occupancy
  C  C0  1  0.49659600  0.99603200  0.27133800  1
  C  C1  1  0.99659600  0.00396800  0.22866200  1
  C  C2  1  0.50340400  0.00396800  0.72866200  1
  C  C3  1  0.00340400  0.99603200  0.77133800  1
  C  C4  1  0.66388900  0.28266200  0.10715100  1
  C  C5  1  0.16388900  0.71733800  0.39284900  1
  C  C6  1  0.33611100  0.71733800  0.89284900  1
  C  C7  1  0.83611100  0.28266200  0.60715100  1
  C  C8  1  0.52217000  0.15500500  0.07260800  1
  C  C9  1  0.02217000  0.84499500  0.42739200  1
  C  C10  1  0.47783000  0.84499500  0.92739200  1
  C  C11  1  0.97783000  0.15500500  0.57260800  1
  C  C12  1  0.47635400  0.63495100  0.09587100  1
  C  C13  1  0.97635400  0.36504900  0.40412900  1
  C  C14  1  0.52364600  0.36504900  0.90412900  1
  C  C15  1  0.02364600  0.63495100  0.59587100  1
  C  C16  1  0.33323200  0.81153700  0.09645200  1
  C  C17  1  0.83323200  0.18846300  0.40354800  1
  C  C18  1  0.66676800  0.18846300  0.90354800  1
  C  C19  1  0.16676800  0.81153700  0.59645200  1
  C  C20  1  0.56979200  0.43696300  0.36544200  1
  C  C21  1  0.06979200  0.56303700  0.13455800  1
  C  C22  1  0.43020800  0.56303700  0.63455800  1
  C  C23  1  0.93020800  0.43696300  0.86544200  1
  C  C24  1  0.64357500  0.51483300  0.27670700  1
  C  C25  1  0.14357500  0.48516700  0.22329300  1
  C  C26  1  0.35642500  0.48516700  0.72329300  1
  C  C27  1  0.85642500  0.51483300  0.77670700  1
  Ni  Ni28  1  0.42873800  0.91525700  0.50048400  1
  Ni  Ni29  1  0.92873800  0.08474300  0.99951600  1
  Ni  Ni30  1  0.57126200  0.08474300  0.49951600  1
  Ni  Ni31  1  0.07126200  0.91525700  0.00048400  1
  Cu  Cu32  1  0.38252600  0.84197800  0.42841100  1
  Cu  Cu33  1  0.88252600  0.15802200  0.07158900  1
  Cu  Cu34  1  0.61747400  0.15802200  0.57158900  1
  Cu  Cu35  1  0.11747400  0.84197800  0.92841100  1
  Cu  Cu36  1  0.62881100  0.13553800  0.42375100  1
  Cu  Cu37  1  0.12881100  0.86446200  0.07624900  1
  Cu  Cu38  1  0.37118900  0.86446200  0.57624900  1
  Cu  Cu39  1  0.87118900  0.13553800  0.92375100  1
  Cu  Cu40  1  0.74664000  0.13179800  0.24342000  1
  Cu  Cu41  1  0.24664000  0.86820200  0.25658000  1
  Cu  Cu42  1  0.25336000  0.86820200  0.75658000  1
  Cu  Cu43  1  0.75336000  0.13179800  0.74342000  1
  Cu  Cu44  1  0.74758300  0.84925100  0.23542800  1
  Cu  Cu45  1  0.24758300  0.15074900  0.26457200  1
  Cu  Cu46  1  0.25241700  0.15074900  0.76457200  1
  Cu  Cu47  1  0.75241700  0.84925100  0.73542800  1
  Cu  Cu48  1  0.55494500  0.30150300  0.10490600  1
  Cu  Cu49  1  0.05494500  0.69849700  0.39509400  1
  Cu  Cu50  1  0.44505500  0.69849700  0.89509400  1
  Cu  Cu51  1  0.94505500  0.30150300  0.60490600  1
  Cu  Cu52  1  0.44201700  0.80938300  0.10593500  1
  Cu  Cu53  1  0.94201700  0.19061700  0.39406500  1
  Cu  Cu54  1  0.55798300  0.19061700  0.89406500  1
  Cu  Cu55  1  0.05798300  0.80938300  0.60593500  1
  Cu  Cu56  1  0.54543500  0.49837700  0.30472800  1
  Cu  Cu57  1  0.04543500  0.50162300  0.19527200  1
  Cu  Cu58  1  0.45456500  0.50162300  0.69527200  1
  Cu  Cu59  1  0.95456500  0.49837700  0.80472800  1
