# generated using pymatgen
data_Cu3Ni2C19
_symmetry_space_group_name_H-M   'P 1'
_cell_length_a   14.10266723
_cell_length_b   14.10266723
_cell_length_c   7.17903400
_cell_angle_alpha   90.00000000
_cell_angle_beta   90.00000000
_cell_angle_gamma   118.72769100
_symmetry_Int_Tables_number   1
_chemical_formula_structural   Cu3Ni2C19
_chemical_formula_sum   'Cu12 Ni8 C76'
_cell_volume   1252.06107809
_cell_formula_units_Z   4
loop_
 _symmetry_equiv_pos_site_id
 _symmetry_equiv_pos_as_xyz
  1  'x, y, z'
loop_
 _atom_site_type_symbol
 _atom_site_label
 _atom_site_symmetry_multiplicity
 _atom_site_fract_x
 _atom_site_fract_y
 _atom_site_fract_z
 _atom_site_occupancy
  Ni  Ni0  1  0.38590100  0.38590100  0.79918400  1
  Ni  Ni1  1  0.61409900  0.61409900  0.20081600  1
  Ni  Ni2  1  0.11409900  0.11409900  0.29918400  1
  Ni  Ni3  1  0.88590100  0.88590100  0.70081600  1
  Ni  Ni4  1  0.40400900  0.90400900  0.75000000  1
  Ni  Ni5  1  0.09599100  0.59599100  0.25000000  1
  Ni  Ni6  1  0.59599100  0.09599100  0.25000000  1
  Ni  Ni7  1  0.90400900  0.40400900  0.75000000  1
  Cu  Cu8  1  0.88142300  0.11857700  0.50000000  1
  Cu  Cu9  1  0.38142300  0.61857700  0.00000000  1
  Cu  Cu10  1  0.11857700  0.88142300  0.50000000  1
  Cu  Cu11  1  0.61857700  0.38142300  0.00000000  1
  Cu  Cu12  1  0.60242100  0.86819400  0.97637400  1
  Cu  Cu13  1  0.13180600  0.39757900  0.02362600  1
  Cu  Cu14  1  0.63180600  0.89757900  0.47637400  1
  Cu  Cu15  1  0.10242100  0.36819400  0.52362600  1
  Cu  Cu16  1  0.39757900  0.13180600  0.02362600  1
  Cu  Cu17  1  0.86819400  0.60242100  0.97637400  1
  Cu  Cu18  1  0.36819400  0.10242100  0.52362600  1
  Cu  Cu19  1  0.89757900  0.63180600  0.47637400  1
  C  C20  1  0.88001400  0.11998600  0.00000000  1
  C  C21  1  0.38001400  0.61998600  0.50000000  1
  C  C22  1  0.11998600  0.88001400  0.00000000  1
  C  C23  1  0.61998600  0.38001400  0.50000000  1
  C  C24  1  0.71401100  0.09185900  0.76003500  1
  C  C25  1  0.90814100  0.28598900  0.23996500  1
  C  C26  1  0.40814100  0.78598900  0.26003500  1
  C  C27  1  0.21401100  0.59185900  0.73996500  1
  C  C28  1  0.28598900  0.90814100  0.23996500  1
  C  C29  1  0.09185900  0.71401100  0.76003500  1
  C  C30  1  0.59185900  0.21401100  0.73996500  1
  C  C31  1  0.78598900  0.40814100  0.26003500  1
  C  C32  1  0.07195700  0.19713000  0.80223700  1
  C  C33  1  0.80287000  0.92804300  0.19776300  1
  C  C34  1  0.30287000  0.42804300  0.30223700  1
  C  C35  1  0.57195700  0.69713000  0.69776300  1
  C  C36  1  0.92804300  0.80287000  0.19776300  1
  C  C37  1  0.19713000  0.07195700  0.80223700  1
  C  C38  1  0.69713000  0.57195700  0.69776300  1
  C  C39  1  0.42804300  0.30287000  0.30223700  1
  C  C40  1  0.63160200  0.01414800  0.89540500  1
  C  C41  1  0.98585200  0.36839800  0.10459500  1
  C  C42  1  0.48585200  0.86839800  0.39540500  1
  C  C43  1  0.13160200  0.51414800  0.60459500  1
  C  C44  1  0.36839800  0.98585200  0.10459500  1
  C  C45  1  0.01414800  0.63160200  0.89540500  1
  C  C46  1  0.51414800  0.13160200  0.60459500  1
  C  C47  1  0.86839800  0.48585200  0.39540500  1
  C  C48  1  0.83527100  0.14444500  0.83167500  1
  C  C49  1  0.85555500  0.16472900  0.16832500  1
  C  C50  1  0.35555500  0.66472900  0.33167500  1
  C  C51  1  0.33527100  0.64444500  0.66832500  1
  C  C52  1  0.16472900  0.85555500  0.16832500  1
  C  C53  1  0.14444500  0.83527100  0.83167500  1
  C  C54  1  0.64444500  0.33527100  0.66832500  1
  C  C55  1  0.66472900  0.35555500  0.33167500  1
  C  C56  1  0.71375900  0.05350400  0.56245900  1
  C  C57  1  0.94649600  0.28624100  0.43754100  1
  C  C58  1  0.44649600  0.78624100  0.06245900  1
  C  C59  1  0.21375900  0.55350400  0.93754100  1
  C  C60  1  0.28624100  0.94649600  0.43754100  1
  C  C61  1  0.05350400  0.71375900  0.56245900  1
  C  C62  1  0.55350400  0.21375900  0.93754100  1
  C  C63  1  0.78624100  0.44649600  0.06245900  1
  C  C64  1  0.70110400  0.20110400  0.75000000  1
  C  C65  1  0.79889600  0.29889600  0.25000000  1
  C  C66  1  0.29889600  0.79889600  0.25000000  1
  C  C67  1  0.20110400  0.70110400  0.75000000  1
  C  C68  1  0.16322500  0.16322500  0.86755100  1
  C  C69  1  0.83677500  0.83677500  0.13244900  1
  C  C70  1  0.33677500  0.33677500  0.36755100  1
  C  C71  1  0.66322500  0.66322500  0.63244900  1
  C  C72  1  0.13380800  0.31935700  0.78149300  1
  C  C73  1  0.68064300  0.86619200  0.21850700  1
  C  C74  1  0.18064300  0.36619200  0.28149300  1
  C  C75  1  0.63380800  0.81935700  0.71850700  1
  C  C76  1  0.86619200  0.68064300  0.21850700  1
  C  C77  1  0.31935700  0.13380800  0.78149300  1
  C  C78  1  0.81935700  0.63380800  0.71850700  1
  C  C79  1  0.36619200  0.18064300  0.28149300  1
  C  C80  1  0.01144900  0.13293900  0.63477800  1
  C  C81  1  0.86706100  0.98855100  0.36522200  1
  C  C82  1  0.36706100  0.48855100  0.13477800  1
  C  C83  1  0.51144900  0.63293900  0.86522200  1
  C  C84  1  0.98855100  0.86706100  0.36522200  1
  C  C85  1  0.13293900  0.01144900  0.63477800  1
  C  C86  1  0.63293900  0.51144900  0.86522200  1
  C  C87  1  0.48855100  0.36706100  0.13477800  1
  C  C88  1  0.99911700  0.16741900  0.98314600  1
  C  C89  1  0.83258100  0.00088300  0.01685400  1
  C  C90  1  0.33258100  0.50088300  0.48314600  1
  C  C91  1  0.49911700  0.66741900  0.51685400  1
  C  C92  1  0.00088300  0.83258100  0.01685400  1
  C  C93  1  0.16741900  0.99911700  0.98314600  1
  C  C94  1  0.66741900  0.49911700  0.51685400  1
  C  C95  1  0.50088300  0.33258100  0.48314600  1
