# generated using pymatgen
data_Cu(NiC7)3
_symmetry_space_group_name_H-M   'P 1'
_cell_length_a   10.27610881
_cell_length_b   10.27610881
_cell_length_c   10.62041254
_cell_angle_alpha   59.04558916
_cell_angle_beta   59.04558916
_cell_angle_gamma   48.90356353
_symmetry_Int_Tables_number   1
_chemical_formula_structural   Cu(NiC7)3
_chemical_formula_sum   'Cu2 Ni6 C42'
_cell_volume   697.31939922
_cell_formula_units_Z   2
loop_
 _symmetry_equiv_pos_site_id
 _symmetry_equiv_pos_as_xyz
  1  'x, y, z'
loop_
 _atom_site_type_symbol
 _atom_site_label
 _atom_site_symmetry_multiplicity
 _atom_site_fract_x
 _atom_site_fract_y
 _atom_site_fract_z
 _atom_site_occupancy
  Ni  Ni0  1  0.26048600  0.75933900  0.74053800  1
  Ni  Ni1  1  0.75933900  0.26048600  0.74053800  1
  Ni  Ni2  1  0.73951400  0.24066100  0.25946200  1
  Ni  Ni3  1  0.24066100  0.73951400  0.25946200  1
  Ni  Ni4  1  0.78953800  0.78953800  0.88275400  1
  Ni  Ni5  1  0.21046200  0.21046200  0.11724600  1
  Cu  Cu6  1  0.00000000  0.00000000  0.50000000  1
  Cu  Cu7  1  0.50000000  0.50000000  0.00000000  1
  C  C8  1  0.67070500  0.02872200  0.11658200  1
  C  C9  1  0.52652900  0.17246700  0.68414300  1
  C  C10  1  0.17246700  0.52652900  0.68414300  1
  C  C11  1  0.02872200  0.67070500  0.11658200  1
  C  C12  1  0.32929500  0.97127800  0.88341800  1
  C  C13  1  0.47347100  0.82753300  0.31585700  1
  C  C14  1  0.82753300  0.47347100  0.31585700  1
  C  C15  1  0.97127800  0.32929500  0.88341800  1
  C  C16  1  0.84737000  0.84737000  0.36790500  1
  C  C17  1  0.34744500  0.34744500  0.43700600  1
  C  C18  1  0.15263000  0.15263000  0.63209500  1
  C  C19  1  0.65255500  0.65255500  0.56299400  1
  C  C20  1  0.36264700  0.36264700  0.73450300  1
  C  C21  1  0.86155600  0.86155600  0.04000400  1
  C  C22  1  0.63735300  0.63735300  0.26549700  1
  C  C23  1  0.13844400  0.13844400  0.95999600  1
  C  C24  1  0.01405600  0.48650000  0.82040700  1
  C  C25  1  0.98594400  0.51350000  0.17959300  1
  C  C26  1  0.51350000  0.98594400  0.17959300  1
  C  C27  1  0.48650000  0.01405600  0.82040700  1
  C  C28  1  0.07509800  0.07509800  0.60894000  1
  C  C29  1  0.57519400  0.57519400  0.74028200  1
  C  C30  1  0.92490200  0.92490200  0.39106000  1
  C  C31  1  0.42480600  0.42480600  0.25971800  1
  C  C32  1  0.29718300  0.98904100  0.73670200  1
  C  C33  1  0.48857700  0.79721100  0.47732500  1
  C  C34  1  0.79721100  0.48857700  0.47732500  1
  C  C35  1  0.98904100  0.29718300  0.73670200  1
  C  C36  1  0.70281700  0.01095900  0.26329800  1
  C  C37  1  0.51142300  0.20278900  0.52267500  1
  C  C38  1  0.20278900  0.51142300  0.52267500  1
  C  C39  1  0.01095900  0.70281700  0.26329800  1
  C  C40  1  0.27717100  0.89326000  0.32856600  1
  C  C41  1  0.38941400  0.77783400  0.00215600  1
  C  C42  1  0.77783400  0.38941400  0.00215600  1
  C  C43  1  0.89326000  0.27717100  0.32856600  1
  C  C44  1  0.72282900  0.10674000  0.67143400  1
  C  C45  1  0.61058600  0.22216600  0.99784400  1
  C  C46  1  0.22216600  0.61058600  0.99784400  1
  C  C47  1  0.10674000  0.72282900  0.67143400  1
  C  C48  1  0.24990900  0.24990900  0.47286100  1
  C  C49  1  0.75009100  0.75009100  0.52713900  1
