# generated using pymatgen
data_Cu3NiC10
_symmetry_space_group_name_H-M   'P 1'
_cell_length_a   3.79461900
_cell_length_b   3.79461900
_cell_length_c   11.88644800
_cell_angle_alpha   90.00000000
_cell_angle_beta   90.00000000
_cell_angle_gamma   90.00000000
_symmetry_Int_Tables_number   1
_chemical_formula_structural   Cu3NiC10
_chemical_formula_sum   'Cu3 Ni1 C10'
_cell_volume   171.15454987
_cell_formula_units_Z   1
loop_
 _symmetry_equiv_pos_site_id
 _symmetry_equiv_pos_as_xyz
  1  'x, y, z'
loop_
 _atom_site_type_symbol
 _atom_site_label
 _atom_site_symmetry_multiplicity
 _atom_site_fract_x
 _atom_site_fract_y
 _atom_site_fract_z
 _atom_site_occupancy
  C  C0  1  0.50000000  0.50000000  0.17390800  1
  C  C1  1  0.50000000  0.50000000  0.82609100  1
  Ni  Ni2  1  0.50000000  0.50000000  0.50000000  1
  Cu  Cu3  1  0.00000000  0.00000000  0.35672100  1
  Cu  Cu4  1  0.00000000  0.00000000  0.00000000  1
  Cu  Cu5  1  0.00000000  0.00000000  0.64327900  1
  C  C6  1  0.00000000  0.50000000  0.39885300  1
  C  C7  1  0.50000000  0.00000000  0.39885300  1
  C  C8  1  0.50000000  0.00000000  0.00000000  1
  C  C9  1  0.00000000  0.00000000  0.19214700  1
  C  C10  1  0.00000000  0.50000000  0.60114700  1
  C  C11  1  0.50000000  0.00000000  0.60114700  1
  C  C12  1  0.00000000  0.00000000  0.80785300  1
  C  C13  1  0.00000000  0.50000000  0.00000000  1
