# generated using pymatgen
data_CuNiC4
_symmetry_space_group_name_H-M   'P 1'
_cell_length_a   4.75306300
_cell_length_b   5.10301000
_cell_length_c   5.66338500
_cell_angle_alpha   90.00000000
_cell_angle_beta   90.00000000
_cell_angle_gamma   90.00000000
_symmetry_Int_Tables_number   1
_chemical_formula_structural   CuNiC4
_chemical_formula_sum   'Cu2 Ni2 C8'
_cell_volume   137.36499552
_cell_formula_units_Z   2
loop_
 _symmetry_equiv_pos_site_id
 _symmetry_equiv_pos_as_xyz
  1  'x, y, z'
loop_
 _atom_site_type_symbol
 _atom_site_label
 _atom_site_symmetry_multiplicity
 _atom_site_fract_x
 _atom_site_fract_y
 _atom_site_fract_z
 _atom_site_occupancy
  Ni  Ni0  1  0.00000000  0.00000000  0.07772700  1
  Ni  Ni1  1  0.50000000  0.50000000  0.92227300  1
  Cu  Cu2  1  0.00000000  0.50000000  0.43031800  1
  Cu  Cu3  1  0.50000000  0.00000000  0.56968200  1
  C  C4  1  0.71970000  0.16256900  0.85299400  1
  C  C5  1  0.78030000  0.66256900  0.14700600  1
  C  C6  1  0.21970000  0.33743100  0.14700600  1
  C  C7  1  0.28030000  0.83743100  0.85299400  1
  C  C8  1  0.26544500  0.32510200  0.62676900  1
  C  C9  1  0.23455500  0.82510200  0.37323100  1
  C  C10  1  0.76544500  0.17489800  0.37323100  1
  C  C11  1  0.73455500  0.67489800  0.62676900  1
