# generated using pymatgen
data_Cu8NiC16
_symmetry_space_group_name_H-M   'P 1'
_cell_length_a   4.87894303
_cell_length_b   4.89703634
_cell_length_c   12.57665641
_cell_angle_alpha   88.74944376
_cell_angle_beta   90.16318934
_cell_angle_gamma   89.12472385
_symmetry_Int_Tables_number   1
_chemical_formula_structural   Cu8NiC16
_chemical_formula_sum   'Cu8 Ni1 C16'
_cell_volume   300.37787351
_cell_formula_units_Z   1
loop_
 _symmetry_equiv_pos_site_id
 _symmetry_equiv_pos_as_xyz
  1  'x, y, z'
loop_
 _atom_site_type_symbol
 _atom_site_label
 _atom_site_symmetry_multiplicity
 _atom_site_fract_x
 _atom_site_fract_y
 _atom_site_fract_z
 _atom_site_occupancy
  Ni  Ni0  1  0.50673000  0.00337600  0.93532800  1
  Cu  Cu1  1  0.99744400  0.90817900  0.02028200  1
  Cu  Cu2  1  0.03984000  0.03252900  0.25585700  1
  Cu  Cu3  1  0.97919500  0.95885300  0.49661900  1
  Cu  Cu4  1  0.04426300  0.01785200  0.74007200  1
  Cu  Cu5  1  0.47363000  0.52160300  0.61666300  1
  Cu  Cu6  1  0.54936500  0.45991200  0.13402000  1
  Cu  Cu7  1  0.47589900  0.52596400  0.37573400  1
  Cu  Cu8  1  0.47392800  0.52093200  0.86151500  1
  C  C9  1  0.19023300  0.81818200  0.37295700  1
  C  C10  1  0.17215800  0.79968500  0.61365200  1
  C  C11  1  0.19680500  0.81397800  0.87862300  1
  C  C12  1  0.33144700  0.31902500  0.25347400  1
  C  C13  1  0.31751200  0.33511400  0.74675600  1
  C  C14  1  0.66850800  0.66767300  0.99471100  1
  C  C15  1  0.65845000  0.68609600  0.49606000  1
  C  C16  1  0.82657300  0.16699100  0.12759100  1
  C  C17  1  0.26621400  0.78322400  0.13530000  1
  C  C18  1  0.29408900  0.27330600  0.00269000  1
  C  C19  1  0.27084400  0.29260900  0.49597300  1
  C  C20  1  0.74925300  0.70559800  0.25178800  1
  C  C21  1  0.68873400  0.75589100  0.75154900  1
  C  C22  1  0.78781000  0.19754000  0.38284200  1
  C  C23  1  0.78413400  0.21736100  0.61917500  1
  C  C24  1  0.78471700  0.21852600  0.87306200  1
