# generated using pymatgen
data_Cu7Ni2C
_symmetry_space_group_name_H-M   'P 1'
_cell_length_a   4.99415300
_cell_length_b   11.77820800
_cell_length_c   13.11255200
_cell_angle_alpha   90.00000000
_cell_angle_beta   90.00000000
_cell_angle_gamma   90.00000000
_symmetry_Int_Tables_number   1
_chemical_formula_structural   Cu7Ni2C
_chemical_formula_sum   'Cu28 Ni8 C4'
_cell_volume   771.30879983
_cell_formula_units_Z   4
loop_
 _symmetry_equiv_pos_site_id
 _symmetry_equiv_pos_as_xyz
  1  'x, y, z'
loop_
 _atom_site_type_symbol
 _atom_site_label
 _atom_site_symmetry_multiplicity
 _atom_site_fract_x
 _atom_site_fract_y
 _atom_site_fract_z
 _atom_site_occupancy
  C  C0  1  0.50000000  0.50000000  0.00000000  1
  C  C1  1  0.00000000  0.00000000  0.50000000  1
  C  C2  1  0.00000000  0.00000000  0.00000000  1
  C  C3  1  0.50000000  0.50000000  0.50000000  1
  Ni  Ni4  1  0.01231900  0.38193300  0.64349300  1
  Ni  Ni5  1  0.48768100  0.11806700  0.14349300  1
  Ni  Ni6  1  0.51231900  0.11806700  0.35650700  1
  Ni  Ni7  1  0.98768100  0.38193300  0.85650700  1
  Ni  Ni8  1  0.98768100  0.61806700  0.35650700  1
  Ni  Ni9  1  0.51231900  0.88193300  0.85650700  1
  Ni  Ni10  1  0.48768100  0.88193300  0.64349300  1
  Ni  Ni11  1  0.01231900  0.61806700  0.14349300  1
  Cu  Cu12  1  0.59749900  0.37201000  0.06357400  1
  Cu  Cu13  1  0.90250100  0.12799000  0.56357400  1
  Cu  Cu14  1  0.09749900  0.12799000  0.93642600  1
  Cu  Cu15  1  0.40250100  0.37201000  0.43642600  1
  Cu  Cu16  1  0.40250100  0.62799000  0.93642600  1
  Cu  Cu17  1  0.09749900  0.87201000  0.43642600  1
  Cu  Cu18  1  0.90250100  0.87201000  0.06357400  1
  Cu  Cu19  1  0.59749900  0.62799000  0.56357400  1
  Cu  Cu20  1  0.77504800  0.38245200  0.61292800  1
  Cu  Cu21  1  0.72495200  0.11754800  0.11292800  1
  Cu  Cu22  1  0.27504800  0.11754800  0.38707200  1
  Cu  Cu23  1  0.22495200  0.38245200  0.88707200  1
  Cu  Cu24  1  0.22495200  0.61754800  0.38707200  1
  Cu  Cu25  1  0.27504800  0.88245200  0.88707200  1
  Cu  Cu26  1  0.72495200  0.88245200  0.61292800  1
  Cu  Cu27  1  0.77504800  0.61754800  0.11292800  1
  Cu  Cu28  1  0.84452500  0.46599800  0.88843700  1
  Cu  Cu29  1  0.65547500  0.03400200  0.38843700  1
  Cu  Cu30  1  0.34452500  0.03400200  0.11156300  1
  Cu  Cu31  1  0.15547500  0.46599800  0.61156300  1
  Cu  Cu32  1  0.15547500  0.53400200  0.11156300  1
  Cu  Cu33  1  0.34452500  0.96599800  0.61156300  1
  Cu  Cu34  1  0.65547500  0.96599800  0.88843700  1
  Cu  Cu35  1  0.84452500  0.53400200  0.38843700  1
  Cu  Cu36  1  0.00000000  0.64604400  0.75000000  1
  Cu  Cu37  1  0.50000000  0.85395600  0.25000000  1
  Cu  Cu38  1  0.00000000  0.35395600  0.25000000  1
  Cu  Cu39  1  0.50000000  0.14604400  0.75000000  1
