# generated using pymatgen
data_Cu5Ni2C25
_symmetry_space_group_name_H-M   'P 1'
_cell_length_a   5.17483191
_cell_length_b   10.38050528
_cell_length_c   5.88474509
_cell_angle_alpha   104.57093982
_cell_angle_beta   71.35322714
_cell_angle_gamma   85.16193250
_symmetry_Int_Tables_number   1
_chemical_formula_structural   Cu5Ni2C25
_chemical_formula_sum   'Cu5 Ni2 C25'
_cell_volume   285.16788372
_cell_formula_units_Z   1
loop_
 _symmetry_equiv_pos_site_id
 _symmetry_equiv_pos_as_xyz
  1  'x, y, z'
loop_
 _atom_site_type_symbol
 _atom_site_label
 _atom_site_symmetry_multiplicity
 _atom_site_fract_x
 _atom_site_fract_y
 _atom_site_fract_z
 _atom_site_occupancy
  C  C0  1  0.50133000  0.12250200  0.93691400  1
  C  C1  1  0.50401000  0.37813900  0.31819300  1
  C  C2  1  0.50340300  0.63061000  0.68538800  1
  C  C3  1  0.50606100  0.86547600  0.05473900  1
  C  C4  1  0.50118700  0.12270100  0.43851100  1
  C  C5  1  0.50013800  0.38208200  0.81305400  1
  C  C6  1  0.49329700  0.62593500  0.19760200  1
  C  C7  1  0.48974300  0.86674700  0.55333400  1
  C  C8  1  0.00240300  0.74831500  0.62650200  1
  Ni  Ni9  1  0.99456900  0.99825000  0.99649500  1
  Ni  Ni10  1  0.00353600  0.25057200  0.87159800  1
  Cu  Cu11  1  0.99911800  0.25169300  0.37483900  1
  Cu  Cu12  1  0.00473900  0.51038900  0.74819900  1
  Cu  Cu13  1  0.99421700  0.74952100  0.12845700  1
  Cu  Cu14  1  0.99870600  0.99659500  0.49946000  1
  Cu  Cu15  1  0.00329400  0.50478100  0.25562600  1
  C  C16  1  0.23597200  0.06990700  0.74607500  1
  C  C17  1  0.20829200  0.31244900  0.09371500  1
  C  C18  1  0.24798400  0.55263200  0.47140600  1
  C  C19  1  0.22888800  0.82567500  0.86842800  1
  C  C20  1  0.19979400  0.06825000  0.22492200  1
  C  C21  1  0.24309500  0.30578200  0.60620700  1
  C  C22  1  0.23017000  0.56227600  0.98361800  1
  C  C23  1  0.21781900  0.82715400  0.35095200  1
  C  C24  1  0.76628300  0.18292000  0.13368000  1
  C  C25  1  0.78589700  0.43100100  0.51166900  1
  C  C26  1  0.76113800  0.68025200  0.91486200  1
  C  C27  1  0.75384800  0.94163900  0.26195200  1
  C  C28  1  0.79480500  0.18570000  0.65193400  1
  C  C29  1  0.77341700  0.42310600  0.00774300  1
  C  C30  1  0.76819000  0.67935400  0.38955700  1
  C  C31  1  0.78465600  0.94759200  0.78436700  1
