# generated using pymatgen
data_Cu2Ni3C19
_symmetry_space_group_name_H-M   'P 1'
_cell_length_a   9.37044900
_cell_length_b   5.41612500
_cell_length_c   5.71684067
_cell_angle_alpha   71.60562169
_cell_angle_beta   90.00000000
_cell_angle_gamma   90.00000000
_symmetry_Int_Tables_number   1
_chemical_formula_structural   Cu2Ni3C19
_chemical_formula_sum   'Cu2 Ni3 C19'
_cell_volume   275.31432488
_cell_formula_units_Z   1
loop_
 _symmetry_equiv_pos_site_id
 _symmetry_equiv_pos_as_xyz
  1  'x, y, z'
loop_
 _atom_site_type_symbol
 _atom_site_label
 _atom_site_symmetry_multiplicity
 _atom_site_fract_x
 _atom_site_fract_y
 _atom_site_fract_z
 _atom_site_occupancy
  C  C0  1  0.99868300  0.50000000  0.50000000  1
  C  C1  1  0.82565700  0.00000000  0.50000000  1
  C  C2  1  0.17225800  0.00000000  0.50000000  1
  C  C3  1  0.50176200  0.00000000  0.50000000  1
  C  C4  1  0.32583900  0.50000000  0.50000000  1
  C  C5  1  0.67478900  0.50000000  0.50000000  1
  C  C6  1  0.33397200  0.00000000  0.00000000  1
  Ni  Ni7  1  0.16497000  0.50000000  0.00000000  1
  Ni  Ni8  1  0.83392000  0.50000000  0.00000000  1
  Ni  Ni9  1  0.66775600  0.00000000  0.00000000  1
  Cu  Cu10  1  0.99700200  0.00000000  0.00000000  1
  Cu  Cu11  1  0.50318900  0.50000000  0.00000000  1
  C  C12  1  0.15249900  0.23069200  0.79227200  1
  C  C13  1  0.99984500  0.24955100  0.20163800  1
  C  C14  1  0.99984500  0.75044900  0.79836200  1
  C  C15  1  0.83966200  0.22642800  0.79764100  1
  C  C16  1  0.15249900  0.76930800  0.20772800  1
  C  C17  1  0.83966200  0.77357200  0.20235900  1
  C  C18  1  0.65990900  0.72877500  0.79755900  1
  C  C19  1  0.50562300  0.74270000  0.20704400  1
  C  C20  1  0.50562300  0.25730000  0.79295600  1
  C  C21  1  0.34256300  0.71713700  0.79157200  1
  C  C22  1  0.65990900  0.27122500  0.20244100  1
  C  C23  1  0.34256300  0.28286300  0.20842800  1
