# generated using pymatgen
data_CuNi2C7
_symmetry_space_group_name_H-M   'P 1'
_cell_length_a   5.25020464
_cell_length_b   5.26477000
_cell_length_c   7.75528153
_cell_angle_alpha   89.99831130
_cell_angle_beta   89.16652393
_cell_angle_gamma   89.99973353
_symmetry_Int_Tables_number   1
_chemical_formula_structural   CuNi2C7
_chemical_formula_sum   'Cu2 Ni4 C14'
_cell_volume   214.34198572
_cell_formula_units_Z   2
loop_
 _symmetry_equiv_pos_site_id
 _symmetry_equiv_pos_as_xyz
  1  'x, y, z'
loop_
 _atom_site_type_symbol
 _atom_site_label
 _atom_site_symmetry_multiplicity
 _atom_site_fract_x
 _atom_site_fract_y
 _atom_site_fract_z
 _atom_site_occupancy
  Ni  Ni0  1  0.00973700  0.03091000  0.25710600  1
  Ni  Ni1  1  0.49027800  0.53092600  0.24287000  1
  Ni  Ni2  1  0.99027500  0.96909700  0.74289600  1
  Ni  Ni3  1  0.50972500  0.46906900  0.75713200  1
  Cu  Cu4  1  0.99998600  0.49995500  0.49993500  1
  Cu  Cu5  1  0.49997400  0.00003500  0.00005400  1
  C  C6  1  0.49997700  0.00000900  0.50000100  1
  C  C7  1  0.00001000  0.49997400  0.00000300  1
  C  C8  1  0.65665400  0.31396400  0.42317500  1
  C  C9  1  0.84333800  0.81396400  0.07682300  1
  C  C10  1  0.34335800  0.68603700  0.57682500  1
  C  C11  1  0.15667200  0.18603600  0.92318000  1
  C  C12  1  0.18125600  0.16948700  0.55502200  1
  C  C13  1  0.31874900  0.66947100  0.94498300  1
  C  C14  1  0.81874100  0.83054000  0.44497300  1
  C  C15  1  0.68125700  0.33052100  0.05501700  1
  C  C16  1  0.11641900  0.41561600  0.23808600  1
  C  C17  1  0.38357200  0.91560000  0.26191500  1
  C  C18  1  0.61644000  0.08439700  0.73808800  1
  C  C19  1  0.88358500  0.58439100  0.76191600  1
