# generated using pymatgen
data_Cu2NiC8
_symmetry_space_group_name_H-M   'P 1'
_cell_length_a   9.36435300
_cell_length_b   9.36435300
_cell_length_c   9.36435300
_cell_angle_alpha   90.00000000
_cell_angle_beta   90.00000000
_cell_angle_gamma   90.00000000
_symmetry_Int_Tables_number   1
_chemical_formula_structural   Cu2NiC8
_chemical_formula_sum   'Cu8 Ni4 C32'
_cell_volume   821.17048193
_cell_formula_units_Z   4
loop_
 _symmetry_equiv_pos_site_id
 _symmetry_equiv_pos_as_xyz
  1  'x, y, z'
loop_
 _atom_site_type_symbol
 _atom_site_label
 _atom_site_symmetry_multiplicity
 _atom_site_fract_x
 _atom_site_fract_y
 _atom_site_fract_z
 _atom_site_occupancy
  Ni  Ni0  1  0.00157200  0.00157200  0.00157200  1
  Ni  Ni1  1  0.49842800  0.99842800  0.50157200  1
  Ni  Ni2  1  0.50157200  0.49842800  0.99842800  1
  Ni  Ni3  1  0.99842800  0.50157200  0.49842800  1
  Cu  Cu4  1  0.65491000  0.84509000  0.15491000  1
  Cu  Cu5  1  0.84509000  0.15491000  0.65491000  1
  Cu  Cu6  1  0.15491000  0.65491000  0.84509000  1
  Cu  Cu7  1  0.34509000  0.34509000  0.34509000  1
  Cu  Cu8  1  0.59910400  0.59910400  0.59910400  1
  Cu  Cu9  1  0.90089600  0.40089600  0.09910400  1
  Cu  Cu10  1  0.09910400  0.90089600  0.40089600  1
  Cu  Cu11  1  0.40089600  0.09910400  0.90089600  1
  C  C12  1  0.76290900  0.73709100  0.26290900  1
  C  C13  1  0.73709100  0.26290900  0.76290900  1
  C  C14  1  0.26290900  0.76290900  0.73709100  1
  C  C15  1  0.23709100  0.23709100  0.23709100  1
  C  C16  1  0.51072700  0.98927300  0.01072700  1
  C  C17  1  0.98927300  0.01072700  0.51072700  1
  C  C18  1  0.01072700  0.51072700  0.98927300  1
  C  C19  1  0.48927300  0.48927300  0.48927300  1
  C  C20  1  0.71400500  0.43255500  0.05461100  1
  C  C21  1  0.21400500  0.06744500  0.94538900  1
  C  C22  1  0.28599500  0.93255500  0.44538900  1
  C  C23  1  0.06744500  0.94538900  0.21400500  1
  C  C24  1  0.20486800  0.44125500  0.44697600  1
  C  C25  1  0.44697600  0.20486800  0.44125500  1
  C  C26  1  0.44125500  0.44697600  0.20486800  1
  C  C27  1  0.05874500  0.55302400  0.70486800  1
  C  C28  1  0.94697600  0.29513200  0.55874500  1
  C  C29  1  0.55874500  0.94697600  0.29513200  1
  C  C30  1  0.05302400  0.79513200  0.94125500  1
  C  C31  1  0.55302400  0.70486800  0.05874500  1
  C  C32  1  0.94125500  0.05302400  0.79513200  1
  C  C33  1  0.70486800  0.05874500  0.55302400  1
  C  C34  1  0.79513200  0.94125500  0.05302400  1
  C  C35  1  0.29513200  0.55874500  0.94697600  1
  C  C36  1  0.78599500  0.56744500  0.55461100  1
  C  C37  1  0.55461100  0.78599500  0.56744500  1
  C  C38  1  0.56744500  0.55461100  0.78599500  1
  C  C39  1  0.93255500  0.44538900  0.28599500  1
  C  C40  1  0.05461100  0.71400500  0.43255500  1
  C  C41  1  0.43255500  0.05461100  0.71400500  1
  C  C42  1  0.94538900  0.21400500  0.06744500  1
  C  C43  1  0.44538900  0.28599500  0.93255500  1
