# generated using pymatgen
data_CuNi3C28
_symmetry_space_group_name_H-M   'P 1'
_cell_length_a   7.46609500
_cell_length_b   10.84153000
_cell_length_c   13.55065237
_cell_angle_alpha   89.94900709
_cell_angle_beta   90.00000000
_cell_angle_gamma   90.00000000
_symmetry_Int_Tables_number   1
_chemical_formula_structural   CuNi3C28
_chemical_formula_sum   'Cu2 Ni6 C56'
_cell_volume   1096.84211984
_cell_formula_units_Z   2
loop_
 _symmetry_equiv_pos_site_id
 _symmetry_equiv_pos_as_xyz
  1  'x, y, z'
loop_
 _atom_site_type_symbol
 _atom_site_label
 _atom_site_symmetry_multiplicity
 _atom_site_fract_x
 _atom_site_fract_y
 _atom_site_fract_z
 _atom_site_occupancy
  Ni  Ni0  1  0.24190500  0.68346800  0.39721400  1
  Ni  Ni1  1  0.74190500  0.31653200  0.60278600  1
  Ni  Ni2  1  0.73531600  0.16866200  0.08037800  1
  Ni  Ni3  1  0.23531600  0.83133800  0.91962200  1
  Ni  Ni4  1  0.69663300  0.04019900  0.38419900  1
  Ni  Ni5  1  0.19663300  0.95980100  0.61580100  1
  Cu  Cu6  1  0.51873100  0.49736600  0.91087600  1
  Cu  Cu7  1  0.01873100  0.50263400  0.08912400  1
  C  C8  1  0.74249500  0.69251500  0.28311500  1
  C  C9  1  0.24249500  0.30748500  0.71688500  1
  C  C10  1  0.24277800  0.19211500  0.21130300  1
  C  C11  1  0.74277800  0.80788500  0.78869700  1
  C  C12  1  0.03368400  0.90586500  0.17907400  1
  C  C13  1  0.53368400  0.09413500  0.82092600  1
  C  C14  1  0.94587000  0.40241000  0.32019700  1
  C  C15  1  0.44587000  0.59759000  0.67980300  1
  C  C16  1  0.24516200  0.30075200  0.44851900  1
  C  C17  1  0.74516200  0.69924800  0.55148100  1
  C  C18  1  0.74162500  0.79571600  0.05233400  1
  C  C19  1  0.24162500  0.20428400  0.94766600  1
  C  C20  1  0.53947200  0.40162500  0.31845500  1
  C  C21  1  0.03947200  0.59837500  0.68154500  1
  C  C22  1  0.44029300  0.90051600  0.17621100  1
  C  C23  1  0.94029300  0.09948400  0.82378900  1
  C  C24  1  0.73994600  0.73218100  0.43558400  1
  C  C25  1  0.23994600  0.26781900  0.56441600  1
  C  C26  1  0.24307600  0.24121100  0.06301300  1
  C  C27  1  0.74307600  0.75878900  0.93698700  1
  C  C28  1  0.93228800  0.54783600  0.29253000  1
  C  C29  1  0.43228800  0.45216400  0.70747000  1
  C  C30  1  0.04601100  0.05273800  0.20241000  1
  C  C31  1  0.54601100  0.94726200  0.79759000  1
  C  C32  1  0.75619700  0.67773400  0.12656900  1
  C  C33  1  0.25619700  0.32226600  0.87343100  1
  C  C34  1  0.26102000  0.18390000  0.37155900  1
  C  C35  1  0.76102000  0.81610000  0.62844100  1
  C  C36  1  0.06527600  0.38325400  0.42172200  1
  C  C37  1  0.56527600  0.61674600  0.57827800  1
  C  C38  1  0.91445100  0.88865300  0.07618800  1
  C  C39  1  0.41445100  0.11134700  0.92381200  1
  C  C40  1  0.94170000  0.82758100  0.26779900  1
  C  C41  1  0.44170000  0.17241900  0.73220100  1
  C  C42  1  0.03184700  0.32266300  0.23020800  1
  C  C43  1  0.53184700  0.67733700  0.76979200  1
  C  C44  1  0.54735700  0.54812100  0.29040700  1
  C  C45  1  0.04735700  0.45187900  0.70959300  1
  C  C46  1  0.43304400  0.04822100  0.19746300  1
  C  C47  1  0.93304400  0.95177900  0.80253700  1
  C  C48  1  0.53364400  0.82295200  0.26530500  1
  C  C49  1  0.03364400  0.17704800  0.73469500  1
  C  C50  1  0.45624100  0.31878100  0.23015200  1
  C  C51  1  0.95624100  0.68121900  0.76984800  1
  C  C52  1  0.42370400  0.38633300  0.42236300  1
  C  C53  1  0.92370400  0.61366700  0.57763700  1
  C  C54  1  0.55622900  0.87576000  0.07357100  1
  C  C55  1  0.05622900  0.12424000  0.92642900  1
  C  C56  1  0.74204600  0.34952300  0.34709600  1
  C  C57  1  0.24204600  0.65047700  0.65290400  1
  C  C58  1  0.23485600  0.84950900  0.15315900  1
  C  C59  1  0.73485600  0.15049100  0.84684100  1
  C  C60  1  0.39194000  0.53245900  0.13814800  1
  C  C61  1  0.89194000  0.46754100  0.86185200  1
  C  C62  1  0.62516000  0.99175500  0.59621800  1
  C  C63  1  0.12516000  0.00824500  0.40378200  1
