# generated using pymatgen
data_Cu8NiC16
_symmetry_space_group_name_H-M   'P 1'
_cell_length_a   4.82461222
_cell_length_b   4.96662390
_cell_length_c   12.48834164
_cell_angle_alpha   87.10768344
_cell_angle_beta   89.75173928
_cell_angle_gamma   88.37541010
_symmetry_Int_Tables_number   1
_chemical_formula_structural   Cu8NiC16
_chemical_formula_sum   'Cu8 Ni1 C16'
_cell_volume   298.74347713
_cell_formula_units_Z   1
loop_
 _symmetry_equiv_pos_site_id
 _symmetry_equiv_pos_as_xyz
  1  'x, y, z'
loop_
 _atom_site_type_symbol
 _atom_site_label
 _atom_site_symmetry_multiplicity
 _atom_site_fract_x
 _atom_site_fract_y
 _atom_site_fract_z
 _atom_site_occupancy
  Ni  Ni0  1  0.50689200  0.02129800  0.87193000  1
  Cu  Cu1  1  0.98389700  0.95394700  0.00963000  1
  Cu  Cu2  1  0.04803400  0.03012800  0.24915200  1
  Cu  Cu3  1  0.97932800  0.93437700  0.49149500  1
  Cu  Cu4  1  0.04534100  0.01532100  0.73162200  1
  Cu  Cu5  1  0.47055100  0.50330400  0.61770500  1
  Cu  Cu6  1  0.54810700  0.47549700  0.12887600  1
  Cu  Cu7  1  0.47927500  0.51131600  0.37302400  1
  Cu  Cu8  1  0.45865300  0.52861000  0.87540300  1
  C  C9  1  0.19100800  0.79985200  0.36754100  1
  C  C10  1  0.16212500  0.77048600  0.61476400  1
  C  C11  1  0.16860300  0.81128500  0.87171600  1
  C  C12  1  0.34658200  0.30843600  0.25095100  1
  C  C13  1  0.34304600  0.31272600  0.75855000  1
  C  C14  1  0.64696600  0.71330300  0.98779600  1
  C  C15  1  0.65227500  0.67236500  0.49504300  1
  C  C16  1  0.84771500  0.19706100  0.12487100  1
  C  C17  1  0.22600000  0.76070600  0.12837200  1
  C  C18  1  0.33844300  0.23456800  0.99161100  1
  C  C19  1  0.27712900  0.26837600  0.49896500  1
  C  C20  1  0.73364400  0.72103700  0.24629200  1
  C  C21  1  0.65921600  0.79018000  0.75694000  1
  C  C22  1  0.79807400  0.19457700  0.38005600  1
  C  C23  1  0.78799300  0.21810900  0.61915400  1
  C  C24  1  0.81499200  0.25313900  0.87625400  1
