# generated using pymatgen
data_CuNiC20
_symmetry_space_group_name_H-M   'P 1'
_cell_length_a   6.11661751
_cell_length_b   6.11661751
_cell_length_c   11.64305700
_cell_angle_alpha   90.00000000
_cell_angle_beta   90.00000000
_cell_angle_gamma   92.20228184
_symmetry_Int_Tables_number   1
_chemical_formula_structural   CuNiC20
_chemical_formula_sum   'Cu2 Ni2 C40'
_cell_volume   435.28006374
_cell_formula_units_Z   2
loop_
 _symmetry_equiv_pos_site_id
 _symmetry_equiv_pos_as_xyz
  1  'x, y, z'
loop_
 _atom_site_type_symbol
 _atom_site_label
 _atom_site_symmetry_multiplicity
 _atom_site_fract_x
 _atom_site_fract_y
 _atom_site_fract_z
 _atom_site_occupancy
  Ni  Ni0  1  0.00000000  0.00000000  0.44212100  1
  Ni  Ni1  1  0.00000000  0.00000000  0.94212100  1
  Cu  Cu2  1  0.50000000  0.50000000  0.23453500  1
  Cu  Cu3  1  0.50000000  0.50000000  0.73453500  1
  C  C4  1  0.74804400  0.72113700  0.86189700  1
  C  C5  1  0.25195600  0.27886300  0.86189700  1
  C  C6  1  0.27307000  0.71830500  0.63381800  1
  C  C7  1  0.72693000  0.28169500  0.63381800  1
  C  C8  1  0.28169500  0.72693000  0.13381800  1
  C  C9  1  0.71830500  0.27307000  0.13381800  1
  C  C10  1  0.27886300  0.25195600  0.36189700  1
  C  C11  1  0.72113700  0.74804400  0.36189700  1
  C  C12  1  0.75967800  0.72498500  0.75549000  1
  C  C13  1  0.24032200  0.27501500  0.75549000  1
  C  C14  1  0.22166400  0.71052500  0.73693000  1
  C  C15  1  0.77833600  0.28947500  0.73693000  1
  C  C16  1  0.28947500  0.77833600  0.23693000  1
  C  C17  1  0.71052500  0.22166400  0.23693000  1
  C  C18  1  0.27501500  0.24032200  0.25549000  1
  C  C19  1  0.72498500  0.75967800  0.25549000  1
  C  C20  1  0.64454600  0.87330800  0.89646600  1
  C  C21  1  0.35545400  0.12669200  0.89646600  1
  C  C22  1  0.47012100  0.77825500  0.63155600  1
  C  C23  1  0.52987900  0.22174500  0.63155600  1
  C  C24  1  0.22174500  0.52987900  0.13155600  1
  C  C25  1  0.77825500  0.47012100  0.13155600  1
  C  C26  1  0.12669200  0.35545400  0.39646600  1
  C  C27  1  0.87330800  0.64454600  0.39646600  1
  C  C28  1  0.93472300  0.71087100  0.89733900  1
  C  C29  1  0.06527700  0.28912900  0.89733900  1
  C  C30  1  0.16284700  0.83765500  0.57853100  1
  C  C31  1  0.83715300  0.16234500  0.57853100  1
  C  C32  1  0.16234500  0.83715300  0.07853100  1
  C  C33  1  0.83765500  0.16284700  0.07853100  1
  C  C34  1  0.28912900  0.06527700  0.39733900  1
  C  C35  1  0.71087100  0.93472300  0.39733900  1
  C  C36  1  0.65715500  0.54826700  0.89443000  1
  C  C37  1  0.34284500  0.45173300  0.89443000  1
  C  C38  1  0.26406200  0.52656600  0.59841800  1
  C  C39  1  0.73593800  0.47343400  0.59841800  1
  C  C40  1  0.47343400  0.73593800  0.09841800  1
  C  C41  1  0.52656600  0.26406200  0.09841800  1
  C  C42  1  0.45173300  0.34284500  0.39443000  1
  C  C43  1  0.54826700  0.65715500  0.39443000  1
