# generated using pymatgen
data_Cu9Ni3C35
_symmetry_space_group_name_H-M   'P 1'
_cell_length_a   8.83124927
_cell_length_b   8.83124927
_cell_length_c   8.54217400
_cell_angle_alpha   90.00000000
_cell_angle_beta   90.00000000
_cell_angle_gamma   119.99999450
_symmetry_Int_Tables_number   1
_chemical_formula_structural   Cu9Ni3C35
_chemical_formula_sum   'Cu9 Ni3 C35'
_cell_volume   576.95687868
_cell_formula_units_Z   1
loop_
 _symmetry_equiv_pos_site_id
 _symmetry_equiv_pos_as_xyz
  1  'x, y, z'
loop_
 _atom_site_type_symbol
 _atom_site_label
 _atom_site_symmetry_multiplicity
 _atom_site_fract_x
 _atom_site_fract_y
 _atom_site_fract_z
 _atom_site_occupancy
  Ni  Ni0  1  0.33625400  0.00000000  0.00000000  1
  Ni  Ni1  1  0.00000000  0.33625400  0.00000000  1
  Ni  Ni2  1  0.66374600  0.66374600  0.00000000  1
  Cu  Cu3  1  0.65179700  0.00000000  0.23458800  1
  Cu  Cu4  1  0.00000000  0.65179700  0.23458800  1
  Cu  Cu5  1  0.65179700  0.00000000  0.76541200  1
  Cu  Cu6  1  0.00000000  0.65179700  0.76541200  1
  Cu  Cu7  1  0.34820300  0.34820300  0.23458800  1
  Cu  Cu8  1  0.34820300  0.34820300  0.76541200  1
  Cu  Cu9  1  0.28248100  0.00000000  0.50000000  1
  Cu  Cu10  1  0.00000000  0.28248100  0.50000000  1
  Cu  Cu11  1  0.71751900  0.71751900  0.50000000  1
  C  C12  1  0.00000000  0.00000000  0.20958500  1
  C  C13  1  0.00000000  0.00000000  0.79041500  1
  C  C14  1  0.33333300  0.66666700  0.00000000  1
  C  C15  1  0.66666700  0.33333300  0.00000000  1
  C  C16  1  0.33333300  0.66666700  0.32374400  1
  C  C17  1  0.33333300  0.66666700  0.67625600  1
  C  C18  1  0.66666700  0.33333300  0.67625600  1
  C  C19  1  0.66666700  0.33333300  0.32374400  1
  C  C20  1  0.17768100  0.51152300  0.31718000  1
  C  C21  1  0.48847700  0.66615800  0.31718000  1
  C  C22  1  0.17768100  0.51152300  0.68282000  1
  C  C23  1  0.51152300  0.17768100  0.68282000  1
  C  C24  1  0.33384200  0.82231900  0.31718000  1
  C  C25  1  0.48847700  0.66615800  0.68282000  1
  C  C26  1  0.66615800  0.48847700  0.68282000  1
  C  C27  1  0.51152300  0.17768100  0.31718000  1
  C  C28  1  0.33384200  0.82231900  0.68282000  1
  C  C29  1  0.66615800  0.48847700  0.31718000  1
  C  C30  1  0.82231900  0.33384200  0.68282000  1
  C  C31  1  0.82231900  0.33384200  0.31718000  1
  C  C32  1  0.32231900  0.50302100  0.00000000  1
  C  C33  1  0.49697900  0.81929800  0.00000000  1
  C  C34  1  0.50302100  0.32231900  0.00000000  1
  C  C35  1  0.18070200  0.67768100  0.00000000  1
  C  C36  1  0.81929800  0.49697900  0.00000000  1
  C  C37  1  0.67768100  0.18070200  0.00000000  1
  C  C38  1  0.74317800  0.00000000  0.50000000  1
  C  C39  1  0.00000000  0.74317800  0.50000000  1
  C  C40  1  0.25682200  0.25682200  0.50000000  1
  C  C41  1  0.15680800  0.00000000  0.21197400  1
  C  C42  1  0.00000000  0.15680800  0.21197400  1
  C  C43  1  0.15680800  0.00000000  0.78802600  1
  C  C44  1  0.00000000  0.15680800  0.78802600  1
  C  C45  1  0.84319200  0.84319200  0.21197400  1
  C  C46  1  0.84319200  0.84319200  0.78802600  1
