# generated using pymatgen
data_CuNi3C7
_symmetry_space_group_name_H-M   'P 1'
_cell_length_a   7.79359100
_cell_length_b   9.71725900
_cell_length_c   11.52729679
_cell_angle_alpha   68.17563118
_cell_angle_beta   90.00000000
_cell_angle_gamma   90.00000000
_symmetry_Int_Tables_number   1
_chemical_formula_structural   CuNi3C7
_chemical_formula_sum   'Cu4 Ni12 C28'
_cell_volume   810.42012537
_cell_formula_units_Z   4
loop_
 _symmetry_equiv_pos_site_id
 _symmetry_equiv_pos_as_xyz
  1  'x, y, z'
loop_
 _atom_site_type_symbol
 _atom_site_label
 _atom_site_symmetry_multiplicity
 _atom_site_fract_x
 _atom_site_fract_y
 _atom_site_fract_z
 _atom_site_occupancy
  C  C0  1  0.78757200  0.44373000  0.64200400  1
  C  C1  1  0.28757200  0.55627000  0.85799600  1
  C  C2  1  0.21242800  0.55627000  0.35799600  1
  C  C3  1  0.71242800  0.44373000  0.14200400  1
  C  C4  1  0.50000000  0.00000000  0.00000000  1
  C  C5  1  0.00000000  0.00000000  0.50000000  1
  C  C6  1  0.38417500  0.30311000  0.63383800  1
  C  C7  1  0.88417500  0.69689000  0.86616200  1
  C  C8  1  0.61582500  0.69689000  0.36616200  1
  C  C9  1  0.11582500  0.30311000  0.13383800  1
  C  C10  1  0.39612900  0.46918900  0.61974900  1
  C  C11  1  0.89612900  0.53081100  0.88025100  1
  C  C12  1  0.60387100  0.53081100  0.38025100  1
  C  C13  1  0.10387100  0.46918900  0.11974900  1
  C  C14  1  0.00000000  0.00000000  0.00000000  1
  C  C15  1  0.50000000  0.00000000  0.50000000  1
  C  C16  1  0.01971400  0.21520800  0.89545500  1
  C  C17  1  0.51971400  0.78479200  0.60454500  1
  C  C18  1  0.98028600  0.78479200  0.10454500  1
  C  C19  1  0.48028600  0.21520800  0.39545500  1
  C  C20  1  0.03845000  0.93507200  0.85665500  1
  C  C21  1  0.53845000  0.06492800  0.64334500  1
  C  C22  1  0.96155000  0.06492800  0.14334500  1
  C  C23  1  0.46155000  0.93507200  0.35665500  1
  C  C24  1  0.53014900  0.21587600  0.97638200  1
  C  C25  1  0.03014900  0.78412400  0.52361800  1
  C  C26  1  0.46985100  0.78412400  0.02361800  1
  C  C27  1  0.96985100  0.21587600  0.47638200  1
  Ni  Ni28  1  0.02606500  0.34431300  0.84164800  1
  Ni  Ni29  1  0.52606500  0.65568700  0.65835200  1
  Ni  Ni30  1  0.97393500  0.65568700  0.15835200  1
  Ni  Ni31  1  0.47393500  0.34431300  0.34164800  1
  Ni  Ni32  1  0.05773400  0.88603400  0.77837100  1
  Ni  Ni33  1  0.55773400  0.11396600  0.72162900  1
  Ni  Ni34  1  0.94226600  0.11396600  0.22162900  1
  Ni  Ni35  1  0.44226600  0.88603400  0.27837100  1
  Ni  Ni36  1  0.54872000  0.34075800  0.96046100  1
  Ni  Ni37  1  0.04872000  0.65924200  0.53953900  1
  Ni  Ni38  1  0.45128000  0.65924200  0.03953900  1
  Ni  Ni39  1  0.95128000  0.34075800  0.46046100  1
  Cu  Cu40  1  0.33480200  0.40132100  0.58971600  1
  Cu  Cu41  1  0.83480200  0.59867900  0.91028400  1
  Cu  Cu42  1  0.66519800  0.59867900  0.41028400  1
  Cu  Cu43  1  0.16519800  0.40132100  0.08971600  1
