# generated using pymatgen
data_CuNiC8
_symmetry_space_group_name_H-M   'P 1'
_cell_length_a   7.61718469
_cell_length_b   7.61718469
_cell_length_c   15.29790767
_cell_angle_alpha   88.56476292
_cell_angle_beta   88.56476292
_cell_angle_gamma   42.16255742
_symmetry_Int_Tables_number   1
_chemical_formula_structural   CuNiC8
_chemical_formula_sum   'Cu4 Ni4 C32'
_cell_volume   595.57976639
_cell_formula_units_Z   4
loop_
 _symmetry_equiv_pos_site_id
 _symmetry_equiv_pos_as_xyz
  1  'x, y, z'
loop_
 _atom_site_type_symbol
 _atom_site_label
 _atom_site_symmetry_multiplicity
 _atom_site_fract_x
 _atom_site_fract_y
 _atom_site_fract_z
 _atom_site_occupancy
  C  C0  1  0.64796700  0.73005100  0.87648000  1
  C  C1  1  0.35203300  0.26994900  0.12352000  1
  C  C2  1  0.26994900  0.35203300  0.62352000  1
  C  C3  1  0.73005100  0.64796700  0.37648000  1
  Ni  Ni4  1  0.38588000  0.36942300  0.87529900  1
  Ni  Ni5  1  0.61412000  0.63057700  0.12470100  1
  Ni  Ni6  1  0.63057700  0.61412000  0.62470100  1
  Ni  Ni7  1  0.36942300  0.38588000  0.37529900  1
  Cu  Cu8  1  0.00000000  0.00000000  0.50000000  1
  Cu  Cu9  1  0.00000000  0.00000000  0.00000000  1
  Cu  Cu10  1  0.95294700  0.04705300  0.75000000  1
  Cu  Cu11  1  0.04705300  0.95294700  0.25000000  1
  C  C12  1  0.42444500  0.74800200  0.51881900  1
  C  C13  1  0.57555500  0.25199800  0.48118100  1
  C  C14  1  0.25199800  0.57555500  0.98118100  1
  C  C15  1  0.74800200  0.42444500  0.01881900  1
  C  C16  1  0.68708500  0.81366100  0.59128800  1
  C  C17  1  0.31291500  0.18633900  0.40871200  1
  C  C18  1  0.18633900  0.31291500  0.90871200  1
  C  C19  1  0.81366100  0.68708500  0.09128800  1
  C  C20  1  0.54534800  0.12416100  0.77837100  1
  C  C21  1  0.45465200  0.87583900  0.22162900  1
  C  C22  1  0.87583900  0.45465200  0.72162900  1
  C  C23  1  0.12416100  0.54534800  0.27837100  1
  C  C24  1  0.60360900  0.38395400  0.65646900  1
  C  C25  1  0.39639100  0.61604600  0.34353100  1
  C  C26  1  0.61604600  0.39639100  0.84353100  1
  C  C27  1  0.38395400  0.60360900  0.15646900  1
  C  C28  1  0.34726600  0.89663800  0.70120300  1
  C  C29  1  0.65273400  0.10336200  0.29879700  1
  C  C30  1  0.10336200  0.65273400  0.79879700  1
  C  C31  1  0.89663800  0.34726600  0.20120300  1
  C  C32  1  0.66237300  0.06825700  0.95150100  1
  C  C33  1  0.33762700  0.93174300  0.04849900  1
  C  C34  1  0.93174300  0.33762700  0.54849900  1
  C  C35  1  0.06825700  0.66237300  0.45150100  1
  C  C36  1  0.84245200  0.03202900  0.12865100  1
  C  C37  1  0.15754800  0.96797100  0.87134900  1
  C  C38  1  0.96797100  0.15754800  0.37134900  1
  C  C39  1  0.03202900  0.84245200  0.62865100  1
