# generated using pymatgen
data_Cu2NiC4
_symmetry_space_group_name_H-M   'P 1'
_cell_length_a   3.12057800
_cell_length_b   9.27630200
_cell_length_c   9.92045300
_cell_angle_alpha   90.00000000
_cell_angle_beta   90.00000000
_cell_angle_gamma   90.00000000
_symmetry_Int_Tables_number   1
_chemical_formula_structural   Cu2NiC4
_chemical_formula_sum   'Cu8 Ni4 C16'
_cell_volume   287.17155869
_cell_formula_units_Z   4
loop_
 _symmetry_equiv_pos_site_id
 _symmetry_equiv_pos_as_xyz
  1  'x, y, z'
loop_
 _atom_site_type_symbol
 _atom_site_label
 _atom_site_symmetry_multiplicity
 _atom_site_fract_x
 _atom_site_fract_y
 _atom_site_fract_z
 _atom_site_occupancy
  Ni  Ni0  1  0.83000900  0.75000000  0.34560100  1
  Ni  Ni1  1  0.83000900  0.25000000  0.15439900  1
  Ni  Ni2  1  0.16999100  0.75000000  0.84560100  1
  Ni  Ni3  1  0.16999100  0.25000000  0.65439900  1
  Cu  Cu4  1  0.32945800  0.56882000  0.11448500  1
  Cu  Cu5  1  0.32945800  0.06882000  0.38551500  1
  Cu  Cu6  1  0.67054200  0.06882000  0.88551500  1
  Cu  Cu7  1  0.32945800  0.43118000  0.38551500  1
  Cu  Cu8  1  0.67054200  0.43118000  0.88551500  1
  Cu  Cu9  1  0.32945800  0.93118000  0.11448500  1
  Cu  Cu10  1  0.67054200  0.93118000  0.61448500  1
  Cu  Cu11  1  0.67054200  0.56882000  0.61448500  1
  C  C12  1  0.63020200  0.88380900  0.95783000  1
  C  C13  1  0.36979800  0.11619100  0.04217000  1
  C  C14  1  0.98061200  0.00000000  0.25000000  1
  C  C15  1  0.36979800  0.88380900  0.45783000  1
  C  C16  1  0.36979800  0.61619100  0.45783000  1
  C  C17  1  0.31973200  0.25000000  0.29833200  1
  C  C18  1  0.63020200  0.11619100  0.54217000  1
  C  C19  1  0.68026800  0.25000000  0.79833200  1
  C  C20  1  0.98061200  0.50000000  0.25000000  1
  C  C21  1  0.01938800  0.00000000  0.75000000  1
  C  C22  1  0.63020200  0.61619100  0.95783000  1
  C  C23  1  0.68026800  0.75000000  0.70166800  1
  C  C24  1  0.31973200  0.75000000  0.20166800  1
  C  C25  1  0.01938800  0.50000000  0.75000000  1
  C  C26  1  0.63020200  0.38380900  0.54217000  1
  C  C27  1  0.36979800  0.38380900  0.04217000  1
