# generated using pymatgen
data_CuNiC8
_symmetry_space_group_name_H-M   'P 1'
_cell_length_a   5.60765862
_cell_length_b   5.62420133
_cell_length_c   56.73747306
_cell_angle_alpha   119.54025649
_cell_angle_beta   119.41314111
_cell_angle_gamma   90.31075848
_symmetry_Int_Tables_number   1
_chemical_formula_structural   CuNiC8
_chemical_formula_sum   'Cu10 Ni10 C80'
_cell_volume   1281.75219088
_cell_formula_units_Z   10
loop_
 _symmetry_equiv_pos_site_id
 _symmetry_equiv_pos_as_xyz
  1  'x, y, z'
loop_
 _atom_site_type_symbol
 _atom_site_label
 _atom_site_symmetry_multiplicity
 _atom_site_fract_x
 _atom_site_fract_y
 _atom_site_fract_z
 _atom_site_occupancy
  C  C0  1  0.24964834  0.74848769  0.94959676  1
  C  C1  1  0.24801466  0.74711653  0.84979646  1
  C  C2  1  0.74932149  0.24833483  0.94973498  1
  C  C3  1  0.24893884  0.74848280  0.74987925  1
  C  C4  1  0.74715204  0.24902263  0.84969777  1
  C  C5  1  0.25092423  0.74669171  0.64984500  1
  C  C6  1  0.75258400  0.25107973  0.75062842  1
  C  C7  1  0.25360113  0.75246147  0.55062735  1
  C  C8  1  0.75189464  0.24889602  0.65009813  1
  C  C9  1  0.24810536  0.75110398  0.44990187  1
  C  C10  1  0.74639887  0.24753853  0.54937265  1
  C  C11  1  0.24741600  0.74892027  0.34937158  1
  C  C12  1  0.74907577  0.25330829  0.45015500  1
  C  C13  1  0.25284796  0.75097737  0.25030223  1
  C  C14  1  0.75106116  0.25151720  0.35012075  1
  C  C15  1  0.25067851  0.75166517  0.15026502  1
  C  C16  1  0.75198534  0.25288347  0.25020354  1
  C  C17  1  0.24742567  0.74768575  0.04957673  1
  C  C18  1  0.75035166  0.25151231  0.15040324  1
  C  C19  1  0.75257433  0.25231425  0.05042327  1
  Ni  Ni20  1  0.00413837  0.00286721  0.90069750  1
  Ni  Ni21  1  0.99646927  0.99815124  0.79962804  1
  Ni  Ni22  1  0.00111216  -0.00086202  0.70020963  1
  Ni  Ni23  1  0.00013928  0.99803413  0.59994396  1
  Ni  Ni24  1  0.99986072  0.00196587  0.50005604  1
  Ni  Ni25  1  -0.00111216  0.00086202  0.39979037  1
  Ni  Ni26  1  0.00353073  0.00184876  0.30037196  1
  Ni  Ni27  1  0.99586163  0.99713279  0.19930250  1
  Ni  Ni28  1  0.50490761  0.50655290  0.10116541  1
  Ni  Ni29  1  0.49509239  0.49344710  0.99883459  1
  Cu  Cu30  1  0.49583931  0.49458222  0.89907186  1
  Cu  Cu31  1  0.49987462  0.50185768  0.80030404  1
  Cu  Cu32  1  0.50018764  0.49813995  0.70002003  1
  Cu  Cu33  1  0.50073020  0.49853335  0.60006960  1
  Cu  Cu34  1  0.49926980  0.50146665  0.49993040  1
  Cu  Cu35  1  0.49981236  0.50186005  0.39997997  1
  Cu  Cu36  1  0.50012538  0.49814232  0.29969596  1
  Cu  Cu37  1  0.99636876  -0.00171011  0.09944972  1
  Cu  Cu38  1  0.50416069  0.50541778  0.20092814  1
  Cu  Cu39  1  0.00363124  0.00171011  0.00055028  1
  C  C40  1  0.25236990  0.24660224  0.94977642  1
  C  C41  1  0.21901502  0.70069894  0.89944158  1
  C  C42  1  0.28744221  0.20407934  0.89921365  1
  C  C43  1  0.24697588  0.25065564  0.84973808  1
  C  C44  1  0.75029548  0.74835235  0.94983977  1
  C  C45  1  0.70926921  0.78818423  0.89969594  1
  C  C46  1  0.21198162  0.71909773  0.80028268  1
  C  C47  1  0.77851796  0.29481251  0.89988429  1
  C  C48  1  0.29023935  0.22328677  0.79982366  1
  C  C49  1  0.24862429  0.24921516  0.74999319  1
  C  C50  1  0.74808076  0.75229022  0.85018187  1
  C  C51  1  0.70521186  0.77657620  0.79995486  1
  C  C52  1  0.21020828  0.71101303  0.70007442  1
  C  C53  1  0.78822939  0.28554332  0.80043445  1
  C  C54  1  0.29702752  0.22000352  0.70022751  1
  C  C55  1  0.25048054  0.24535987  0.65000096  1
  C  C56  1  0.74966331  0.75308399  0.75028848  1
  C  C57  1  0.70532690  0.77784739  0.70016096  1
  C  C58  1  0.21730650  0.69797206  0.59941405  1
  C  C59  1  0.79117037  0.28631570  0.70008454  1
  C  C60  1  0.28985744  0.20804420  0.60033545  1
  C  C61  1  0.24909565  0.24994528  0.54989778  1
  C  C62  1  0.75103426  0.74597814  0.65006552  1
  C  C63  1  0.71427401  0.79121505  0.60026768  1
  C  C64  1  0.21871084  0.70397036  0.49993510  1
  C  C65  1  0.78128916  0.29602964  0.60006490  1
  C  C66  1  0.28572599  0.20878495  0.49973232  1
  C  C67  1  0.24896574  0.25402186  0.44993448  1
  C  C68  1  0.75090435  0.75005472  0.55010222  1
  C  C69  1  0.71014256  0.79195580  0.49966455  1
  C  C70  1  0.20882963  0.71368430  0.39991546  1
  C  C71  1  0.78269350  0.30202794  0.50058595  1
  C  C72  1  0.29467310  0.22215261  0.39983904  1
  C  C73  1  0.25033669  0.24691601  0.34971152  1
  C  C74  1  0.74951946  0.75464013  0.44999904  1
  C  C75  1  0.70297248  0.77999648  0.39977249  1
  C  C76  1  0.21177061  0.71445668  0.29956555  1
  C  C77  1  0.78979172  0.28898697  0.39992558  1
  C  C78  1  0.29478814  0.22342380  0.30004514  1
  C  C79  1  0.25191924  0.24770978  0.24981813  1
  C  C80  1  0.75137571  0.75078484  0.35000681  1
  C  C81  1  0.70976065  0.77671323  0.30017634  1
  C  C82  1  0.22148204  0.70518749  0.20011571  1
  C  C83  1  0.78801838  0.28090227  0.29971732  1
  C  C84  1  0.29073079  0.21181577  0.20030406  1
  C  C85  1  0.24970452  0.25164765  0.15016023  1
  C  C86  1  0.75302412  0.74934436  0.25026192  1
  C  C87  1  0.71255779  0.79592066  0.20078635  1
  C  C88  1  0.21008243  0.71011851  0.09986606  1
  C  C89  1  0.78098498  0.29930106  0.20055842  1
  C  C90  1  0.28015473  0.20412971  0.10014601  1
  C  C91  1  0.25029205  0.24926783  0.05017029  1
  C  C92  1  0.74763010  0.75339776  0.15022358  1
  C  C93  1  0.71809458  0.79808965  0.09987964  1
  C  C94  1  0.21168352  0.70766382  0.99993266  1
  C  C95  1  0.78831648  0.29233618  0.10006734  1
  C  C96  1  0.28190542  0.20191035  0.00012036  1
  C  C97  1  0.74970795  0.75073217  0.04982971  1
  C  C98  1  0.71984527  0.79587029  0.99985399  1
  C  C99  1  0.78991757  0.28988149  0.00013394  1
