# generated using pymatgen
data_Cu5Ni3C17
_symmetry_space_group_name_H-M   'P 1'
_cell_length_a   5.87000332
_cell_length_b   5.71980770
_cell_length_c   8.90792528
_cell_angle_alpha   89.15383982
_cell_angle_beta   91.33104079
_cell_angle_gamma   119.90897787
_symmetry_Int_Tables_number   1
_chemical_formula_structural   Cu5Ni3C17
_chemical_formula_sum   'Cu5 Ni3 C17'
_cell_volume   259.18176436
_cell_formula_units_Z   1
loop_
 _symmetry_equiv_pos_site_id
 _symmetry_equiv_pos_as_xyz
  1  'x, y, z'
loop_
 _atom_site_type_symbol
 _atom_site_label
 _atom_site_symmetry_multiplicity
 _atom_site_fract_x
 _atom_site_fract_y
 _atom_site_fract_z
 _atom_site_occupancy
  C  C0  1  0.17495600  0.34460900  0.95085100  1
  Ni  Ni1  1  0.67297200  0.83589300  0.20857100  1
  Ni  Ni2  1  0.83713300  0.67367000  0.70308000  1
  Ni  Ni3  1  0.82078400  0.16503300  0.69360800  1
  Cu  Cu4  1  0.16138300  0.82167600  0.21020900  1
  Cu  Cu5  1  0.33767300  0.67870700  0.48456300  1
  Cu  Cu6  1  0.17974100  0.33541200  0.23729600  1
  Cu  Cu7  1  0.34006300  0.17094700  0.70011400  1
  Cu  Cu8  1  0.66807600  0.32768100  0.98598200  1
  C  C9  1  0.18502300  0.84421800  0.60186500  1
  C  C10  1  0.04501400  0.52146200  0.34554200  1
  C  C11  1  0.31291300  0.64044700  0.10921000  1
  C  C12  1  0.01542700  0.99769800  0.31859800  1
  C  C13  1  0.01504400  0.02576500  0.80760300  1
  C  C14  1  0.18742700  0.35871200  0.60175000  1
  C  C15  1  0.45739700  0.94940500  0.33981700  1
  C  C16  1  0.46603700  0.51253600  0.35577600  1
  C  C17  1  0.32578800  0.16437000  0.10451800  1
  C  C18  1  0.65993300  0.83830000  0.59075400  1
  C  C19  1  0.51127000  0.46734300  0.84268100  1
  C  C20  1  0.50721100  0.04542000  0.84306100  1
  C  C21  1  0.65200600  0.32487000  0.59135300  1
  C  C22  1  0.83397400  0.64966500  0.10272100  1
  C  C23  1  0.94722600  0.46408300  0.84402000  1
  C  C24  1  0.85219300  0.17560900  0.09530100  1
