# generated using pymatgen
data_Cu8Ni2C5
_symmetry_space_group_name_H-M   'P 1'
_cell_length_a   7.25732200
_cell_length_b   7.25732200
_cell_length_c   8.14175300
_cell_angle_alpha   90.00000000
_cell_angle_beta   90.00000000
_cell_angle_gamma   90.00000000
_symmetry_Int_Tables_number   1
_chemical_formula_structural   Cu8Ni2C5
_chemical_formula_sum   'Cu16 Ni4 C10'
_cell_volume   428.81573033
_cell_formula_units_Z   2
loop_
 _symmetry_equiv_pos_site_id
 _symmetry_equiv_pos_as_xyz
  1  'x, y, z'
loop_
 _atom_site_type_symbol
 _atom_site_label
 _atom_site_symmetry_multiplicity
 _atom_site_fract_x
 _atom_site_fract_y
 _atom_site_fract_z
 _atom_site_occupancy
  C  C0  1  0.68042400  0.18042400  0.22426900  1
  C  C1  1  0.31957600  0.81957600  0.77573100  1
  C  C2  1  0.31957600  0.81957600  0.22426900  1
  C  C3  1  0.81957600  0.68042400  0.22426900  1
  C  C4  1  0.81957600  0.68042400  0.77573100  1
  C  C5  1  0.68042400  0.18042400  0.77573100  1
  C  C6  1  0.18042400  0.31957600  0.77573100  1
  C  C7  1  0.18042400  0.31957600  0.22426900  1
  C  C8  1  0.00000000  0.00000000  0.50000000  1
  C  C9  1  0.50000000  0.50000000  0.50000000  1
  Ni  Ni10  1  0.11440100  0.61440100  0.50000000  1
  Ni  Ni11  1  0.88559900  0.38559900  0.50000000  1
  Ni  Ni12  1  0.38559900  0.11440100  0.50000000  1
  Ni  Ni13  1  0.61440100  0.88559900  0.50000000  1
  Cu  Cu14  1  0.17247300  0.03913100  0.00000000  1
  Cu  Cu15  1  0.82752700  0.96086900  0.00000000  1
  Cu  Cu16  1  0.96086900  0.17247300  0.00000000  1
  Cu  Cu17  1  0.32752700  0.53913100  0.00000000  1
  Cu  Cu18  1  0.03913100  0.82752700  0.00000000  1
  Cu  Cu19  1  0.67247300  0.46086900  0.00000000  1
  Cu  Cu20  1  0.53913100  0.67247300  0.00000000  1
  Cu  Cu21  1  0.46086900  0.32752700  0.00000000  1
  Cu  Cu22  1  0.09005300  0.59005300  0.00000000  1
  Cu  Cu23  1  0.90994700  0.40994700  0.00000000  1
  Cu  Cu24  1  0.40994700  0.09005300  0.00000000  1
  Cu  Cu25  1  0.59005300  0.90994700  0.00000000  1
  Cu  Cu26  1  0.00000000  0.00000000  0.16127400  1
  Cu  Cu27  1  0.00000000  0.00000000  0.83872600  1
  Cu  Cu28  1  0.50000000  0.50000000  0.83872600  1
  Cu  Cu29  1  0.50000000  0.50000000  0.16127400  1
