# generated using pymatgen
data_Cu2NiC4
_symmetry_space_group_name_H-M   'P 1'
_cell_length_a   3.54386600
_cell_length_b   6.26339169
_cell_length_c   6.60416024
_cell_angle_alpha   117.50990398
_cell_angle_beta   74.43653654
_cell_angle_gamma   90.00000000
_symmetry_Int_Tables_number   1
_chemical_formula_structural   Cu2NiC4
_chemical_formula_sum   'Cu2 Ni1 C4'
_cell_volume   123.92354123
_cell_formula_units_Z   1
loop_
 _symmetry_equiv_pos_site_id
 _symmetry_equiv_pos_as_xyz
  1  'x, y, z'
loop_
 _atom_site_type_symbol
 _atom_site_label
 _atom_site_symmetry_multiplicity
 _atom_site_fract_x
 _atom_site_fract_y
 _atom_site_fract_z
 _atom_site_occupancy
  Ni  Ni0  1  0.75803600  0.21187000  0.48392800  1
  Cu  Cu1  1  0.49813600  0.49604500  0.00372900  1
  Cu  Cu2  1  0.24286800  0.79035200  0.51426400  1
  C  C3  1  0.86618400  0.47350400  0.26763100  1
  C  C4  1  0.13280700  0.53197000  0.73438600  1
  C  C5  1  0.38814900  0.94367800  0.22370200  1
  C  C6  1  0.61382000  0.05258100  0.77236000  1
