# generated using pymatgen
data_CuNiC8
_symmetry_space_group_name_H-M   'P 1'
_cell_length_a   5.65775800
_cell_length_b   5.44062100
_cell_length_c   9.46811134
_cell_angle_alpha   55.07354277
_cell_angle_beta   90.00000000
_cell_angle_gamma   90.00000000
_symmetry_Int_Tables_number   1
_chemical_formula_structural   CuNiC8
_chemical_formula_sum   'Cu2 Ni2 C16'
_cell_volume   238.95191247
_cell_formula_units_Z   2
loop_
 _symmetry_equiv_pos_site_id
 _symmetry_equiv_pos_as_xyz
  1  'x, y, z'
loop_
 _atom_site_type_symbol
 _atom_site_label
 _atom_site_symmetry_multiplicity
 _atom_site_fract_x
 _atom_site_fract_y
 _atom_site_fract_z
 _atom_site_occupancy
  C  C0  1  0.94092400  0.23632500  0.75048200  1
  C  C1  1  0.44092400  0.76367500  0.74951800  1
  C  C2  1  0.05907600  0.76367500  0.24951800  1
  C  C3  1  0.55907600  0.23632500  0.25048200  1
  Ni  Ni4  1  0.00000000  0.50000000  0.00000000  1
  Ni  Ni5  1  0.50000000  0.50000000  0.50000000  1
  Cu  Cu6  1  0.00000000  0.00000000  0.50000000  1
  Cu  Cu7  1  0.50000000  0.00000000  0.00000000  1
  C  C8  1  0.52167200  0.33745800  0.74782300  1
  C  C9  1  0.02167200  0.66254200  0.75217700  1
  C  C10  1  0.47832800  0.66254200  0.25217700  1
  C  C11  1  0.97832800  0.33745800  0.24782300  1
  C  C12  1  0.69903200  0.16309500  0.54439600  1
  C  C13  1  0.19903200  0.83690500  0.95560400  1
  C  C14  1  0.29365800  0.25422400  0.04540800  1
  C  C15  1  0.79365800  0.74577600  0.45459200  1
  C  C16  1  0.30096800  0.83690500  0.45560400  1
  C  C17  1  0.80096800  0.16309500  0.04439600  1
  C  C18  1  0.70634200  0.74577600  0.95459200  1
  C  C19  1  0.20634200  0.25422400  0.54540800  1
