# generated using pymatgen
data_CuNiC8
_symmetry_space_group_name_H-M   'P 1'
_cell_length_a   5.56925359
_cell_length_b   7.89676534
_cell_length_c   5.65267200
_cell_angle_alpha   90.00001157
_cell_angle_beta   89.99991831
_cell_angle_gamma   89.93364845
_symmetry_Int_Tables_number   1
_chemical_formula_structural   CuNiC8
_chemical_formula_sum   'Cu2 Ni2 C16'
_cell_volume   248.59919668
_cell_formula_units_Z   2
loop_
 _symmetry_equiv_pos_site_id
 _symmetry_equiv_pos_as_xyz
  1  'x, y, z'
loop_
 _atom_site_type_symbol
 _atom_site_label
 _atom_site_symmetry_multiplicity
 _atom_site_fract_x
 _atom_site_fract_y
 _atom_site_fract_z
 _atom_site_occupancy
  C  C0  1  0.99468200  0.24952500  0.53108500  1
  C  C1  1  0.49467700  0.74952500  0.96891300  1
  C  C2  1  0.01017000  0.75312300  0.45126900  1
  C  C3  1  0.51017000  0.25312200  0.04873100  1
  Ni  Ni4  1  0.50008800  0.50021900  0.50244600  1
  Ni  Ni5  1  0.00007800  0.00021300  0.99755900  1
  Cu  Cu6  1  0.49986100  0.99927200  0.50065200  1
  Cu  Cu7  1  0.99986400  0.49927800  0.99935000  1
  C  C8  1  0.79100800  0.46220100  0.27245100  1
  C  C9  1  0.29100700  0.96220800  0.22754600  1
  C  C10  1  0.19188100  0.54476600  0.71619800  1
  C  C11  1  0.69188100  0.04476000  0.78380100  1
  C  C12  1  0.71549800  0.45803000  0.80382400  1
  C  C13  1  0.21549900  0.95802500  0.69617700  1
  C  C14  1  0.27389600  0.53249300  0.20964600  1
  C  C15  1  0.77389300  0.03249800  0.29035200  1
  C  C16  1  0.93650900  0.74114500  0.02486600  1
  C  C17  1  0.43650800  0.24114600  0.47514600  1
  C  C18  1  0.08641400  0.25922500  0.98372300  1
  C  C19  1  0.58641400  0.75922500  0.51626500  1
