# generated using pymatgen
data_Cu9NiC8
_symmetry_space_group_name_H-M   'P 1'
_cell_length_a   8.99898234
_cell_length_b   8.99898234
_cell_length_c   8.02874200
_cell_angle_alpha   90.00000000
_cell_angle_beta   90.00000000
_cell_angle_gamma   108.03173004
_symmetry_Int_Tables_number   1
_chemical_formula_structural   Cu9NiC8
_chemical_formula_sum   'Cu18 Ni2 C16'
_cell_volume   618.24755371
_cell_formula_units_Z   2
loop_
 _symmetry_equiv_pos_site_id
 _symmetry_equiv_pos_as_xyz
  1  'x, y, z'
loop_
 _atom_site_type_symbol
 _atom_site_label
 _atom_site_symmetry_multiplicity
 _atom_site_fract_x
 _atom_site_fract_y
 _atom_site_fract_z
 _atom_site_occupancy
  C  C0  1  0.23403300  0.23403300  0.00000000  1
  C  C1  1  0.76596700  0.76596700  0.50000000  1
  C  C2  1  0.35644600  0.64355400  0.25000000  1
  C  C3  1  0.64355400  0.35644600  0.75000000  1
  C  C4  1  0.64946100  0.35053900  0.25000000  1
  C  C5  1  0.35053900  0.64946100  0.75000000  1
  C  C6  1  0.62473300  0.62473300  0.00000000  1
  C  C7  1  0.37526700  0.37526700  0.50000000  1
  C  C8  1  0.57597800  0.00839100  0.45787400  1
  C  C9  1  0.00839100  0.57597800  0.54212600  1
  C  C10  1  0.42402200  0.99160900  0.95787400  1
  C  C11  1  0.99160900  0.42402200  0.04212600  1
  C  C12  1  0.73346600  0.97648200  0.07509400  1
  C  C13  1  0.97648200  0.73346600  0.92490600  1
  C  C14  1  0.26653400  0.02351800  0.57509400  1
  C  C15  1  0.02351800  0.26653400  0.42490600  1
  Ni  Ni16  1  0.94093500  0.05906500  0.75000000  1
  Ni  Ni17  1  0.05906500  0.94093500  0.25000000  1
  Cu  Cu18  1  0.51615400  0.14061100  0.00403400  1
  Cu  Cu19  1  0.14061100  0.51615400  0.99596600  1
  Cu  Cu20  1  0.48384600  0.85938900  0.50403400  1
  Cu  Cu21  1  0.85938900  0.48384600  0.49596600  1
  Cu  Cu22  1  0.46234100  0.86110700  0.01150300  1
  Cu  Cu23  1  0.86110700  0.46234100  0.98849700  1
  Cu  Cu24  1  0.53765900  0.13889300  0.51150300  1
  Cu  Cu25  1  0.13889300  0.53765900  0.48849700  1
  Cu  Cu26  1  0.49285100  0.49285100  0.00000000  1
  Cu  Cu27  1  0.50714900  0.50714900  0.50000000  1
  Cu  Cu28  1  0.68236200  0.69518800  0.15206900  1
  Cu  Cu29  1  0.69518800  0.68236200  0.84793100  1
  Cu  Cu30  1  0.31763800  0.30481200  0.65206900  1
  Cu  Cu31  1  0.30481200  0.31763800  0.34793100  1
  Cu  Cu32  1  0.70775800  0.03013400  0.35787100  1
  Cu  Cu33  1  0.03013400  0.70775800  0.64212900  1
  Cu  Cu34  1  0.29224200  0.96986600  0.85787100  1
  Cu  Cu35  1  0.96986600  0.29224200  0.14212900  1
