# generated using pymatgen
data_CuNi3C20
_symmetry_space_group_name_H-M   'P 1'
_cell_length_a   5.02060434
_cell_length_b   5.02060434
_cell_length_c   13.50015200
_cell_angle_alpha   90.00000000
_cell_angle_beta   90.00000000
_cell_angle_gamma   120.00000449
_symmetry_Int_Tables_number   1
_chemical_formula_structural   CuNi3C20
_chemical_formula_sum   'Cu1 Ni3 C20'
_cell_volume   294.70076610
_cell_formula_units_Z   1
loop_
 _symmetry_equiv_pos_site_id
 _symmetry_equiv_pos_as_xyz
  1  'x, y, z'
loop_
 _atom_site_type_symbol
 _atom_site_label
 _atom_site_symmetry_multiplicity
 _atom_site_fract_x
 _atom_site_fract_y
 _atom_site_fract_z
 _atom_site_occupancy
  C  C0  1  0.33333300  0.66666700  0.74876600  1
  C  C1  1  0.33333300  0.66666700  0.25123400  1
  C  C2  1  0.33333300  0.66666700  0.50000000  1
  C  C3  1  0.33333300  0.66666700  0.00000000  1
  C  C4  1  0.33726800  0.16863400  0.60106200  1
  C  C5  1  0.33274200  0.16637100  0.10591800  1
  C  C6  1  0.83136600  0.16863400  0.60106200  1
  C  C7  1  0.83362900  0.16637100  0.10591800  1
  C  C8  1  0.83136600  0.66273200  0.60106200  1
  C  C9  1  0.83362900  0.66725800  0.10591800  1
  C  C10  1  0.33726800  0.16863400  0.39893800  1
  C  C11  1  0.33274200  0.16637100  0.89408200  1
  C  C12  1  0.83136600  0.16863400  0.39893800  1
  C  C13  1  0.83362900  0.16637100  0.89408200  1
  C  C14  1  0.83136600  0.66273200  0.39893800  1
  C  C15  1  0.83362900  0.66725800  0.89408200  1
  C  C16  1  0.66666700  0.33333300  0.75004800  1
  C  C17  1  0.66666700  0.33333300  0.24995200  1
  C  C18  1  0.00000000  0.00000000  0.74703600  1
  C  C19  1  0.00000000  0.00000000  0.25296400  1
  Ni  Ni20  1  0.66666700  0.33333300  0.00000000  1
  Ni  Ni21  1  0.00000000  0.00000000  0.50000000  1
  Ni  Ni22  1  0.00000000  0.00000000  0.00000000  1
  Cu  Cu23  1  0.66666700  0.33333300  0.50000000  1
