# generated using pymatgen
data_Cu11NiC14
_symmetry_space_group_name_H-M   'P 1'
_cell_length_a   5.12651816
_cell_length_b   5.12651816
_cell_length_c   16.23052400
_cell_angle_alpha   90.00000000
_cell_angle_beta   90.00000000
_cell_angle_gamma   120.00000200
_symmetry_Int_Tables_number   1
_chemical_formula_structural   Cu11NiC14
_chemical_formula_sum   'Cu11 Ni1 C14'
_cell_volume   369.40958820
_cell_formula_units_Z   1
loop_
 _symmetry_equiv_pos_site_id
 _symmetry_equiv_pos_as_xyz
  1  'x, y, z'
loop_
 _atom_site_type_symbol
 _atom_site_label
 _atom_site_symmetry_multiplicity
 _atom_site_fract_x
 _atom_site_fract_y
 _atom_site_fract_z
 _atom_site_occupancy
  C  C0  1  0.66666700  0.33333300  0.74966800  1
  C  C1  1  0.66666700  0.33333300  0.25033200  1
  C  C2  1  0.16688900  0.33377700  0.62661400  1
  C  C3  1  0.16656500  0.33313000  0.12518200  1
  C  C4  1  0.66622300  0.83311100  0.62661400  1
  C  C5  1  0.66687000  0.83343500  0.12518200  1
  C  C6  1  0.16688900  0.83311100  0.62661400  1
  C  C7  1  0.16656500  0.83343500  0.12518200  1
  C  C8  1  0.16688900  0.33377700  0.37338600  1
  C  C9  1  0.16656500  0.33313000  0.87481800  1
  C  C10  1  0.66622300  0.83311100  0.37338600  1
  C  C11  1  0.66687000  0.83343500  0.87481800  1
  C  C12  1  0.16688900  0.83311100  0.37338600  1
  C  C13  1  0.16656500  0.83343500  0.87481800  1
  Ni  Ni14  1  0.00000000  0.00000000  0.50000000  1
  Cu  Cu15  1  0.00000000  0.00000000  0.24986400  1
  Cu  Cu16  1  0.00000000  0.00000000  0.75013600  1
  Cu  Cu17  1  0.33333300  0.66666700  0.75045800  1
  Cu  Cu18  1  0.33333300  0.66666700  0.24954200  1
  Cu  Cu19  1  0.66666700  0.33333300  0.58083700  1
  Cu  Cu20  1  0.66666700  0.33333300  0.08095200  1
  Cu  Cu21  1  0.66666700  0.33333300  0.41916300  1
  Cu  Cu22  1  0.66666700  0.33333300  0.91904800  1
  Cu  Cu23  1  0.00000000  0.00000000  0.00000000  1
  Cu  Cu24  1  0.33333300  0.66666700  0.50000000  1
  Cu  Cu25  1  0.33333300  0.66666700  0.00000000  1
