# generated using pymatgen
data_Cu12Ni16C
_symmetry_space_group_name_H-M   'P 1'
_cell_length_a   9.11019863
_cell_length_b   9.11019863
_cell_length_c   9.04222356
_cell_angle_alpha   70.77469631
_cell_angle_beta   70.77469631
_cell_angle_gamma   109.58668289
_symmetry_Int_Tables_number   1
_chemical_formula_structural   Cu12Ni16C
_chemical_formula_sum   'Cu12 Ni16 C1'
_cell_volume   580.37099917
_cell_formula_units_Z   1
loop_
 _symmetry_equiv_pos_site_id
 _symmetry_equiv_pos_as_xyz
  1  'x, y, z'
loop_
 _atom_site_type_symbol
 _atom_site_label
 _atom_site_symmetry_multiplicity
 _atom_site_fract_x
 _atom_site_fract_y
 _atom_site_fract_z
 _atom_site_occupancy
  Ni  Ni0  1  0.99805700  0.99805700  0.34745200  1
  Ni  Ni1  1  0.31311600  0.31311600  0.28960500  1
  Ni  Ni2  1  0.35392700  0.35392700  0.66237800  1
  Ni  Ni3  1  0.00224600  0.00224600  0.99756300  1
  Ni  Ni4  1  0.40227300  0.67821600  0.99735800  1
  Ni  Ni5  1  0.28670900  0.59930900  0.39989000  1
  Ni  Ni6  1  0.68354500  0.99970200  0.60028200  1
  Ni  Ni7  1  0.65314100  0.00106200  0.99612200  1
  Ni  Ni8  1  0.31931100  0.70833200  0.68641100  1
  Ni  Ni9  1  0.99796800  0.40083400  0.31768000  1
  Ni  Ni10  1  0.40083400  0.99796800  0.31768000  1
  Ni  Ni11  1  0.70833200  0.31931100  0.68641100  1
  Ni  Ni12  1  0.00106200  0.65314100  0.99612200  1
  Ni  Ni13  1  0.99970200  0.68354500  0.60028200  1
  Ni  Ni14  1  0.59930900  0.28670900  0.39989000  1
  Ni  Ni15  1  0.67821600  0.40227300  0.99735800  1
  Cu  Cu16  1  0.63495600  0.63495600  0.17778200  1
  Cu  Cu17  1  0.81650100  0.81650100  0.81305500  1
  Cu  Cu18  1  0.17835400  0.36102200  0.00756700  1
  Cu  Cu19  1  0.99898300  0.18422100  0.63480500  1
  Cu  Cu20  1  0.63398700  0.81953000  0.36477000  1
  Cu  Cu21  1  0.81041500  0.18063000  0.18602900  1
  Cu  Cu22  1  0.99633200  0.36633000  0.81735000  1
  Cu  Cu23  1  0.36633000  0.99633200  0.81735000  1
  Cu  Cu24  1  0.18063000  0.81041500  0.18602900  1
  Cu  Cu25  1  0.81953000  0.63398700  0.36477000  1
  Cu  Cu26  1  0.18422100  0.99898300  0.63480500  1
  Cu  Cu27  1  0.36102200  0.17835400  0.00756700  1
  C  C28  1  0.62097400  0.62097400  0.69563800  1
