# generated using pymatgen
data_CuNiC8
_symmetry_space_group_name_H-M   'P 1'
_cell_length_a   5.85999424
_cell_length_b   5.97380938
_cell_length_c   8.35374876
_cell_angle_alpha   90.24145949
_cell_angle_beta   89.28380638
_cell_angle_gamma   89.08891014
_symmetry_Int_Tables_number   1
_chemical_formula_structural   CuNiC8
_chemical_formula_sum   'Cu2 Ni2 C16'
_cell_volume   292.37274744
_cell_formula_units_Z   2
loop_
 _symmetry_equiv_pos_site_id
 _symmetry_equiv_pos_as_xyz
  1  'x, y, z'
loop_
 _atom_site_type_symbol
 _atom_site_label
 _atom_site_symmetry_multiplicity
 _atom_site_fract_x
 _atom_site_fract_y
 _atom_site_fract_z
 _atom_site_occupancy
  C  C0  1  0.98839808  0.04101710  0.24897259  1
  C  C1  1  0.01160192  0.95898290  0.75102741  1
  Ni  Ni2  1  0.51084568  0.54276313  0.25381374  1
  Ni  Ni3  1  0.48915432  0.45723687  0.74618626  1
  Cu  Cu4  1  0.50000000  -0.00000000  0.00000000  1
  Cu  Cu5  1  0.00000000  0.50000000  0.50000000  1
  C  C6  1  0.00000000  0.50000000  0.00000000  1
  C  C7  1  0.50000000  -0.00000000  0.50000000  1
  C  C8  1  0.18879290  0.23826779  0.95995531  1
  C  C9  1  0.31669040  0.73082672  0.54156875  1
  C  C10  1  0.81120710  0.76173221  0.04004469  1
  C  C11  1  0.68330960  0.26917328  0.45843125  1
  C  C12  1  0.26279415  0.68558932  0.95935071  1
  C  C13  1  0.24794110  0.18512020  0.53806413  1
  C  C14  1  0.73720585  0.31441068  0.04064929  1
  C  C15  1  0.75205890  0.81487980  0.46193587  1
  C  C16  1  0.42750259  0.97789934  0.27221647  1
  C  C17  1  0.08213572  0.48530405  0.22140653  1
  C  C18  1  0.57249741  0.02210066  0.72778353  1
  C  C19  1  0.91786428  0.51469595  0.77859347  1
