# generated using pymatgen
data_Cu6NiC2
_symmetry_space_group_name_H-M   'P 1'
_cell_length_a   8.38629627
_cell_length_b   8.38629627
_cell_length_c   8.38629627
_cell_angle_alpha   33.80705449
_cell_angle_beta   33.80705449
_cell_angle_gamma   33.80705880
_symmetry_Int_Tables_number   1
_chemical_formula_structural   Cu6NiC2
_chemical_formula_sum   'Cu6 Ni1 C2'
_cell_volume   162.70599092
_cell_formula_units_Z   1
loop_
 _symmetry_equiv_pos_site_id
 _symmetry_equiv_pos_as_xyz
  1  'x, y, z'
loop_
 _atom_site_type_symbol
 _atom_site_label
 _atom_site_symmetry_multiplicity
 _atom_site_fract_x
 _atom_site_fract_y
 _atom_site_fract_z
 _atom_site_occupancy
  C  C0  1  0.23767400  0.23767400  0.23767400  1
  C  C1  1  0.78446200  0.78446200  0.78446200  1
  Ni  Ni2  1  0.44025000  0.44025000  0.44025000  1
  Cu  Cu3  1  0.28862800  0.28862800  0.74678700  1
  Cu  Cu4  1  0.28862800  0.74678700  0.28862800  1
  Cu  Cu5  1  0.74678700  0.28862800  0.28862800  1
  Cu  Cu6  1  0.32770100  0.32770100  0.32770100  1
  Cu  Cu7  1  0.87550500  0.87550500  0.87550500  1
  Cu  Cu8  1  0.58236500  0.58236500  0.58236500  1
