# generated using pymatgen
data_Cu2Ni2C25
_symmetry_space_group_name_H-M   'P 1'
_cell_length_a   4.87658300
_cell_length_b   6.24570669
_cell_length_c   10.43055139
_cell_angle_alpha   91.78218550
_cell_angle_beta   90.74182727
_cell_angle_gamma   90.28760357
_symmetry_Int_Tables_number   1
_chemical_formula_structural   Cu2Ni2C25
_chemical_formula_sum   'Cu2 Ni2 C25'
_cell_volume   317.50571735
_cell_formula_units_Z   1
loop_
 _symmetry_equiv_pos_site_id
 _symmetry_equiv_pos_as_xyz
  1  'x, y, z'
loop_
 _atom_site_type_symbol
 _atom_site_label
 _atom_site_symmetry_multiplicity
 _atom_site_fract_x
 _atom_site_fract_y
 _atom_site_fract_z
 _atom_site_occupancy
  C  C0  1  0.02155300  0.99002900  0.99218600  1
  C  C1  1  0.11074000  0.47697800  0.87083400  1
  C  C2  1  0.51604800  0.49035800  0.50843300  1
  C  C3  1  0.48528600  0.99545800  0.49392400  1
  C  C4  1  0.88925800  0.52286200  0.13034300  1
  Ni  Ni5  1  0.55008200  0.22768900  0.77852500  1
  Ni  Ni6  1  0.44999800  0.76926500  0.22105400  1
  Cu  Cu7  1  0.03002300  0.76588300  0.70614600  1
  Cu  Cu8  1  0.96988300  0.23388900  0.29108400  1
  C  C9  1  0.60649100  0.74483200  0.90553700  1
  C  C10  1  0.09366400  0.25279200  0.59562400  1
  C  C11  1  0.90569800  0.75086200  0.40334100  1
  C  C12  1  0.39527700  0.25481300  0.09517000  1
  C  C13  1  0.29327800  0.24572000  0.95173300  1
  C  C14  1  0.29103500  0.75133500  0.89624300  1
  C  C15  1  0.74442300  0.94185100  0.84074700  1
  C  C16  1  0.72779200  0.54062100  0.83720600  1
  C  C17  1  0.21443800  0.44838500  0.67777100  1
  C  C18  1  0.22657800  0.05361100  0.66030000  1
  C  C19  1  0.77681700  0.24645000  0.59615200  1
  C  C20  1  0.78335600  0.73719800  0.53975300  1
  C  C21  1  0.21592700  0.26270900  0.45930200  1
  C  C22  1  0.22075000  0.76342500  0.40265000  1
  C  C23  1  0.76680900  0.94943500  0.33994000  1
  C  C24  1  0.79016800  0.55409800  0.32063600  1
  C  C25  1  0.26887100  0.45794000  0.16267600  1
  C  C26  1  0.25699100  0.05625500  0.15819500  1
  C  C27  1  0.70867800  0.25182800  0.10585900  1
  C  C28  1  0.71000800  0.75319700  0.04800100  1
