# generated using pymatgen
data_CuNiC5
_symmetry_space_group_name_H-M   'P 1'
_cell_length_a   11.08751903
_cell_length_b   11.08751903
_cell_length_c   11.08751903
_cell_angle_alpha   96.58697672
_cell_angle_beta   96.58697672
_cell_angle_gamma   140.40575737
_symmetry_Int_Tables_number   1
_chemical_formula_structural   CuNiC5
_chemical_formula_sum   'Cu8 Ni8 C40'
_cell_volume   817.37477077
_cell_formula_units_Z   8
loop_
 _symmetry_equiv_pos_site_id
 _symmetry_equiv_pos_as_xyz
  1  'x, y, z'
loop_
 _atom_site_type_symbol
 _atom_site_label
 _atom_site_symmetry_multiplicity
 _atom_site_fract_x
 _atom_site_fract_y
 _atom_site_fract_z
 _atom_site_occupancy
  Ni  Ni0  1  0.71570000  0.71570000  0.00000000  1
  Ni  Ni1  1  0.64496700  0.16225100  0.85031500  1
  Ni  Ni2  1  0.31193600  0.79465200  0.14968500  1
  Ni  Ni3  1  0.16225100  0.31193600  0.51728400  1
  Ni  Ni4  1  0.79465200  0.64496700  0.48271600  1
  Ni  Ni5  1  0.21819800  0.21819800  0.00000000  1
  Ni  Ni6  1  0.97217200  0.47217200  0.50000000  1
  Ni  Ni7  1  0.47217200  0.97217200  0.50000000  1
  Cu  Cu8  1  0.93938600  0.21471300  0.17807300  1
  Cu  Cu9  1  0.03664000  0.76131300  0.82192700  1
  Cu  Cu10  1  0.21471300  0.03664000  0.27532700  1
  Cu  Cu11  1  0.76131300  0.93938600  0.72467300  1
  Cu  Cu12  1  0.72727900  0.41707800  0.17433500  1
  Cu  Cu13  1  0.24274300  0.55294500  0.82566500  1
  Cu  Cu14  1  0.41707800  0.24274300  0.68979900  1
  Cu  Cu15  1  0.55294500  0.72727900  0.31020100  1
  C  C16  1  0.51191700  0.90242300  0.81147900  1
  C  C17  1  0.09094400  0.70043800  0.18852100  1
  C  C18  1  0.90242300  0.09094400  0.39050500  1
  C  C19  1  0.70043800  0.51191700  0.60949500  1
  C  C20  1  0.72336200  0.22336200  0.50000000  1
  C  C21  1  0.22336200  0.72336200  0.50000000  1
  C  C22  1  0.46742600  0.46742600  0.00000000  1
  C  C23  1  0.40986800  0.06368400  0.86257300  1
  C  C24  1  0.20111100  0.54729500  0.13742700  1
  C  C25  1  0.06368400  0.20111100  0.65381600  1
  C  C26  1  0.54729500  0.40986800  0.34618400  1
  C  C27  1  0.75525000  0.24543700  0.03062900  1
  C  C28  1  0.21480800  0.72462100  0.96937100  1
  C  C29  1  0.24543700  0.21480800  0.49018700  1
  C  C30  1  0.72462100  0.75525000  0.50981300  1
  C  C31  1  0.55180100  0.90310100  0.14217400  1
  C  C32  1  0.76092700  0.40962600  0.85782600  1
  C  C33  1  0.90310100  0.76092700  0.35130000  1
  C  C34  1  0.40962600  0.55180000  0.64870000  1
  C  C35  1  0.96569000  0.96569000  0.00000000  1
  C  C36  1  0.91222700  0.36305300  0.32175200  1
  C  C37  1  0.04130100  0.59047500  0.67824800  1
  C  C38  1  0.36305300  0.04130100  0.45082600  1
  C  C39  1  0.59047500  0.91222700  0.54917400  1
  C  C40  1  0.33169400  0.16419200  0.07346200  1
  C  C41  1  0.09073100  0.25823200  0.92653800  1
  C  C42  1  0.16419200  0.09073100  0.83249900  1
  C  C43  1  0.25823200  0.33169400  0.16750100  1
  C  C44  1  0.51717300  0.08834700  0.66718100  1
  C  C45  1  0.42116600  0.84999200  0.33281900  1
  C  C46  1  0.08834700  0.42116600  0.57117400  1
  C  C47  1  0.84999200  0.51717300  0.42882600  1
  C  C48  1  0.59884600  0.76442400  0.92251700  1
  C  C49  1  0.84190700  0.67632900  0.07748300  1
  C  C50  1  0.76442400  0.84190700  0.16557800  1
  C  C51  1  0.67632900  0.59884600  0.83442200  1
  C  C52  1  0.43792300  0.05186100  0.19884500  1
  C  C53  1  0.85301600  0.23907800  0.80115500  1
  C  C54  1  0.05186100  0.85301600  0.61393800  1
  C  C55  1  0.23907800  0.43792300  0.38606200  1
