# generated using pymatgen
data_CuNi3C16
_symmetry_space_group_name_H-M   'P 1'
_cell_length_a   6.22439074
_cell_length_b   6.22439074
_cell_length_c   10.77368907
_cell_angle_alpha   73.57787784
_cell_angle_beta   73.57787784
_cell_angle_gamma   60.02843757
_symmetry_Int_Tables_number   1
_chemical_formula_structural   CuNi3C16
_chemical_formula_sum   'Cu1 Ni3 C16'
_cell_volume   341.77199721
_cell_formula_units_Z   1
loop_
 _symmetry_equiv_pos_site_id
 _symmetry_equiv_pos_as_xyz
  1  'x, y, z'
loop_
 _atom_site_type_symbol
 _atom_site_label
 _atom_site_symmetry_multiplicity
 _atom_site_fract_x
 _atom_site_fract_y
 _atom_site_fract_z
 _atom_site_occupancy
  C  C0  1  0.12918400  0.12918400  0.61973400  1
  C  C1  1  0.62742500  0.62742500  0.12432300  1
  C  C2  1  0.37257500  0.37257500  0.87567700  1
  C  C3  1  0.87081600  0.87081600  0.38026600  1
  Ni  Ni4  1  0.75076700  0.75076700  0.74890700  1
  Ni  Ni5  1  0.24923300  0.24923300  0.25109300  1
  Ni  Ni6  1  0.00000000  0.00000000  0.00000000  1
  Cu  Cu7  1  0.50000000  0.50000000  0.50000000  1
  C  C8  1  0.90636700  0.90636700  0.84205500  1
  C  C9  1  0.40591700  0.40591700  0.34363100  1
  C  C10  1  0.59408300  0.59408300  0.65636900  1
  C  C11  1  0.09363300  0.09363300  0.15794500  1
  C  C12  1  0.10815100  0.60721000  0.60798000  1
  C  C13  1  0.60689600  0.10803900  0.11027300  1
  C  C14  1  0.89196100  0.39310400  0.88972700  1
  C  C15  1  0.39279000  0.89184900  0.39202000  1
  C  C16  1  0.60721000  0.10815100  0.60798000  1
  C  C17  1  0.10803900  0.60689600  0.11027300  1
  C  C18  1  0.39310400  0.89196100  0.88972700  1
  C  C19  1  0.89184900  0.39279000  0.39202000  1
