# generated using pymatgen
data_Cu5NiC3
_symmetry_space_group_name_H-M   'P 1'
_cell_length_a   4.82818751
_cell_length_b   4.82818751
_cell_length_c   9.58628021
_cell_angle_alpha   89.84813678
_cell_angle_beta   89.84813678
_cell_angle_gamma   92.33727603
_symmetry_Int_Tables_number   1
_chemical_formula_structural   Cu5NiC3
_chemical_formula_sum   'Cu10 Ni2 C6'
_cell_volume   223.28201595
_cell_formula_units_Z   2
loop_
 _symmetry_equiv_pos_site_id
 _symmetry_equiv_pos_as_xyz
  1  'x, y, z'
loop_
 _atom_site_type_symbol
 _atom_site_label
 _atom_site_symmetry_multiplicity
 _atom_site_fract_x
 _atom_site_fract_y
 _atom_site_fract_z
 _atom_site_occupancy
  C  C0  1  0.03008200  0.03008200  0.83862200  1
  C  C1  1  0.96991800  0.96991800  0.16137800  1
  C  C2  1  0.00000000  0.00000000  0.50000000  1
  C  C3  1  0.50000000  0.50000000  0.00000000  1
  C  C4  1  0.49364900  0.49364900  0.67519400  1
  C  C5  1  0.50635100  0.50635100  0.32480600  1
  Ni  Ni6  1  0.68441000  0.68441000  0.15040400  1
  Ni  Ni7  1  0.31559000  0.31559000  0.84959600  1
  Cu  Cu8  1  0.20013600  0.79986400  0.00000000  1
  Cu  Cu9  1  0.18724900  0.79897400  0.32772600  1
  Cu  Cu10  1  0.20102600  0.81275100  0.67227400  1
  Cu  Cu11  1  0.71842400  0.71842400  0.84547800  1
  Cu  Cu12  1  0.69242400  0.69242400  0.50271300  1
  Cu  Cu13  1  0.28157600  0.28157600  0.15452200  1
  Cu  Cu14  1  0.30757600  0.30757600  0.49728700  1
  Cu  Cu15  1  0.79986400  0.20013600  0.00000000  1
  Cu  Cu16  1  0.81275100  0.20102600  0.67227400  1
  Cu  Cu17  1  0.79897400  0.18724900  0.32772600  1
