# generated using pymatgen
data_CuNi2C
_symmetry_space_group_name_H-M   'P 1'
_cell_length_a   6.84045100
_cell_length_b   6.84045100
_cell_length_c   8.85456200
_cell_angle_alpha   90.00000000
_cell_angle_beta   90.00000000
_cell_angle_gamma   90.00000000
_symmetry_Int_Tables_number   1
_chemical_formula_structural   CuNi2C
_chemical_formula_sum   'Cu8 Ni16 C8'
_cell_volume   414.32062752
_cell_formula_units_Z   8
loop_
 _symmetry_equiv_pos_site_id
 _symmetry_equiv_pos_as_xyz
  1  'x, y, z'
loop_
 _atom_site_type_symbol
 _atom_site_label
 _atom_site_symmetry_multiplicity
 _atom_site_fract_x
 _atom_site_fract_y
 _atom_site_fract_z
 _atom_site_occupancy
  C  C0  1  0.25401100  0.50000000  0.17309700  1
  C  C1  1  0.74598900  0.50000000  0.17309700  1
  C  C2  1  0.00000000  0.75401100  0.67309700  1
  C  C3  1  0.00000000  0.24598900  0.67309700  1
  C  C4  1  0.24598900  0.00000000  0.32690300  1
  C  C5  1  0.75401100  0.00000000  0.32690300  1
  C  C6  1  0.50000000  0.74598900  0.82690300  1
  C  C7  1  0.50000000  0.25401100  0.82690300  1
  Ni  Ni8  1  0.81953100  0.50000000  0.88647000  1
  Ni  Ni9  1  0.18046900  0.50000000  0.88647000  1
  Ni  Ni10  1  0.00000000  0.31953100  0.38647000  1
  Ni  Ni11  1  0.00000000  0.68046900  0.38647000  1
  Ni  Ni12  1  0.68046900  0.00000000  0.61353000  1
  Ni  Ni13  1  0.31953100  0.00000000  0.61353000  1
  Ni  Ni14  1  0.50000000  0.18046900  0.11353000  1
  Ni  Ni15  1  0.50000000  0.81953100  0.11353000  1
  Ni  Ni16  1  0.31666400  0.50000000  0.62978400  1
  Ni  Ni17  1  0.68333600  0.50000000  0.62978400  1
  Ni  Ni18  1  0.00000000  0.81666400  0.12978400  1
  Ni  Ni19  1  0.00000000  0.18333600  0.12978400  1
  Ni  Ni20  1  0.18333600  0.00000000  0.87021600  1
  Ni  Ni21  1  0.81666400  0.00000000  0.87021600  1
  Ni  Ni22  1  0.50000000  0.68333600  0.37021600  1
  Ni  Ni23  1  0.50000000  0.31666400  0.37021600  1
  Cu  Cu24  1  0.24174800  0.75825200  0.00000000  1
  Cu  Cu25  1  0.75825200  0.75825200  0.00000000  1
  Cu  Cu26  1  0.24174800  0.24174800  0.00000000  1
  Cu  Cu27  1  0.75825200  0.24174800  0.00000000  1
  Cu  Cu28  1  0.25825200  0.74174800  0.50000000  1
  Cu  Cu29  1  0.74174800  0.74174800  0.50000000  1
  Cu  Cu30  1  0.25825200  0.25825200  0.50000000  1
  Cu  Cu31  1  0.74174800  0.25825200  0.50000000  1
