# generated using pymatgen
data_Cu3NiC16
_symmetry_space_group_name_H-M   'P 1'
_cell_length_a   7.16214702
_cell_length_b   8.71998490
_cell_length_c   7.85870106
_cell_angle_alpha   64.32572445
_cell_angle_beta   73.72605176
_cell_angle_gamma   97.22124646
_symmetry_Int_Tables_number   1
_chemical_formula_structural   Cu3NiC16
_chemical_formula_sum   'Cu3 Ni1 C16'
_cell_volume   406.93629940
_cell_formula_units_Z   1
loop_
 _symmetry_equiv_pos_site_id
 _symmetry_equiv_pos_as_xyz
  1  'x, y, z'
loop_
 _atom_site_type_symbol
 _atom_site_label
 _atom_site_symmetry_multiplicity
 _atom_site_fract_x
 _atom_site_fract_y
 _atom_site_fract_z
 _atom_site_occupancy
  Ni  Ni0  1  -0.00000000  -0.00000000  -0.00000000  1
  Cu  Cu1  1  -0.00004475  0.49356017  0.75338538  1
  Cu  Cu2  1  -0.00000000  -0.00000000  0.50000000  1
  Cu  Cu3  1  0.00004475  0.50643983  0.24661462  1
  C  C4  1  0.50030941  0.62524369  0.31307392  1
  C  C5  1  0.50054052  0.62532921  0.81352182  1
  C  C6  1  0.49976096  0.12478944  0.06233642  1
  C  C7  1  0.49970149  0.12481702  0.56245551  1
  C  C8  1  0.49969059  0.37475631  0.68692608  1
  C  C9  1  0.49945948  0.37467079  0.18647818  1
  C  C10  1  0.50029851  0.87518298  0.43754449  1
  C  C11  1  0.50023904  0.87521056  0.93766358  1
  C  C12  1  0.30279952  0.32707599  0.50959616  1
  C  C13  1  0.30211787  0.32758739  0.01125067  1
  C  C14  1  0.30052453  0.82364340  0.26395544  1
  C  C15  1  0.30095636  0.82385274  0.76273919  1
  C  C16  1  0.69720048  0.67292401  0.49040384  1
  C  C17  1  0.69788213  0.67241261  0.98874933  1
  C  C18  1  0.69904364  0.17614726  0.23726081  1
  C  C19  1  0.69947547  0.17635660  0.73604456  1
