# generated using pymatgen
data_CuNi
_symmetry_space_group_name_H-M   'P 1'
_cell_length_a   4.83650500
_cell_length_b   5.24216300
_cell_length_c   6.21064500
_cell_angle_alpha   90.00000000
_cell_angle_beta   90.00000000
_cell_angle_gamma   90.00000000
_symmetry_Int_Tables_number   1
_chemical_formula_structural   CuNi
_chemical_formula_sum   'Cu4 Ni4'
_cell_volume   157.46312552
_cell_formula_units_Z   4
loop_
 _symmetry_equiv_pos_site_id
 _symmetry_equiv_pos_as_xyz
  1  'x, y, z'
loop_
 _atom_site_type_symbol
 _atom_site_label
 _atom_site_symmetry_multiplicity
 _atom_site_fract_x
 _atom_site_fract_y
 _atom_site_fract_z
 _atom_site_occupancy
  Ni  Ni0  1  0.00000000  0.50191300  0.23411400  1
  Ni  Ni1  1  0.00000000  0.01981500  0.50000000  1
  Ni  Ni2  1  0.00000000  0.50191300  0.76588600  1
  Ni  Ni3  1  0.50000000  0.65944300  0.50000000  1
  Cu  Cu4  1  0.00000000  0.00590400  0.00000000  1
  Cu  Cu5  1  0.50000000  0.68558300  0.00000000  1
  Cu  Cu6  1  0.50000000  0.14604800  0.21417800  1
  Cu  Cu7  1  0.50000000  0.14604800  0.78582200  1
