# generated using pymatgen
data_Cu16Ni30C
_symmetry_space_group_name_H-M   'P 1'
_cell_length_a   6.91445300
_cell_length_b   12.23399400
_cell_length_c   10.95777530
_cell_angle_alpha   90.00000000
_cell_angle_beta   95.28438230
_cell_angle_gamma   90.00000000
_symmetry_Int_Tables_number   1
_chemical_formula_structural   Cu16Ni30C
_chemical_formula_sum   'Cu32 Ni60 C2'
_cell_volume   922.99368121
_cell_formula_units_Z   2
loop_
 _symmetry_equiv_pos_site_id
 _symmetry_equiv_pos_as_xyz
  1  'x, y, z'
loop_
 _atom_site_type_symbol
 _atom_site_label
 _atom_site_symmetry_multiplicity
 _atom_site_fract_x
 _atom_site_fract_y
 _atom_site_fract_z
 _atom_site_occupancy
  C  C0  1  0.50000000  0.00000000  0.50000000  1
  C  C1  1  0.50000000  0.50000000  0.00000000  1
  Ni  Ni2  1  0.48373300  0.85866400  0.28911500  1
  Ni  Ni3  1  0.51626700  0.35866400  0.21088500  1
  Ni  Ni4  1  0.51626700  0.14133600  0.71088500  1
  Ni  Ni5  1  0.48373300  0.64133600  0.78911500  1
  Ni  Ni6  1  0.25967200  0.89599500  0.31215900  1
  Ni  Ni7  1  0.74032800  0.39599500  0.18784100  1
  Ni  Ni8  1  0.74032800  0.10400500  0.68784100  1
  Ni  Ni9  1  0.25967200  0.60400500  0.81215900  1
  Ni  Ni10  1  0.36688500  0.79868200  0.39708000  1
  Ni  Ni11  1  0.63311500  0.29868200  0.10292000  1
  Ni  Ni12  1  0.63311500  0.20131800  0.60292000  1
  Ni  Ni13  1  0.36688500  0.70131800  0.89708000  1
  Ni  Ni14  1  0.33977000  0.81862900  0.60893300  1
  Ni  Ni15  1  0.66023000  0.31862900  0.89106700  1
  Ni  Ni16  1  0.66023000  0.18137100  0.39106700  1
  Ni  Ni17  1  0.33977000  0.68137100  0.10893300  1
  Ni  Ni18  1  0.25383200  0.92740500  0.67592400  1
  Ni  Ni19  1  0.74616800  0.42740500  0.82407600  1
  Ni  Ni20  1  0.74616800  0.07259500  0.32407600  1
  Ni  Ni21  1  0.25383200  0.57259500  0.17592400  1
  Ni  Ni22  1  0.47881200  0.88482100  0.71843300  1
  Ni  Ni23  1  0.52118800  0.38482100  0.78156700  1
  Ni  Ni24  1  0.52118800  0.11517900  0.28156700  1
  Ni  Ni25  1  0.47881200  0.61517900  0.21843300  1
  Ni  Ni26  1  0.86177100  0.90118700  0.45520600  1
  Ni  Ni27  1  0.13822900  0.40118700  0.04479400  1
  Ni  Ni28  1  0.13822900  0.09881300  0.54479400  1
  Ni  Ni29  1  0.86177100  0.59881300  0.95520600  1
  Ni  Ni30  1  0.88072200  0.94311700  0.59866300  1
  Ni  Ni31  1  0.11927800  0.44311700  0.90133700  1
  Ni  Ni32  1  0.11927800  0.05688300  0.40133700  1
  Ni  Ni33  1  0.88072200  0.55688300  0.09866300  1
  Ni  Ni34  1  0.77288300  0.82565700  0.56286400  1
  Ni  Ni35  1  0.22711700  0.32565700  0.93713600  1
  Ni  Ni36  1  0.22711700  0.17434300  0.43713600  1
  Ni  Ni37  1  0.77288300  0.67434300  0.06286400  1
  Ni  Ni38  1  0.82251900  0.92640400  0.82784400  1
  Ni  Ni39  1  0.17748100  0.42640400  0.67215600  1
  Ni  Ni40  1  0.17748100  0.07359600  0.17215600  1
  Ni  Ni41  1  0.82251900  0.57359600  0.32784400  1
  Ni  Ni42  1  0.75656000  0.79798400  0.80941200  1
  Ni  Ni43  1  0.24344000  0.29798400  0.69058800  1
  Ni  Ni44  1  0.24344000  0.20201600  0.19058800  1
  Ni  Ni45  1  0.75656000  0.70201600  0.30941200  1
  Ni  Ni46  1  0.71719800  0.86305600  0.93722300  1
  Ni  Ni47  1  0.28280200  0.36305600  0.56277700  1
  Ni  Ni48  1  0.28280200  0.13694400  0.06277700  1
  Ni  Ni49  1  0.71719800  0.63694400  0.43722300  1
  Ni  Ni50  1  0.21651700  0.88560500  0.92666000  1
  Ni  Ni51  1  0.78348300  0.38560500  0.57334000  1
  Ni  Ni52  1  0.78348300  0.11439500  0.07334000  1
  Ni  Ni53  1  0.21651700  0.61439500  0.42666000  1
  Ni  Ni54  1  0.16856100  0.86672800  0.06808200  1
  Ni  Ni55  1  0.83143900  0.36672800  0.43191800  1
  Ni  Ni56  1  0.83143900  0.13327200  0.93191800  1
  Ni  Ni57  1  0.16856100  0.63327200  0.56808200  1
  Ni  Ni58  1  0.39427800  0.88278900  0.03708800  1
  Ni  Ni59  1  0.60572200  0.38278900  0.46291200  1
  Ni  Ni60  1  0.60572200  0.11721100  0.96291200  1
  Ni  Ni61  1  0.39427800  0.61721100  0.53708800  1
  Cu  Cu62  1  0.72691400  0.84267800  0.15109000  1
  Cu  Cu63  1  0.27308600  0.34267800  0.34891000  1
  Cu  Cu64  1  0.27308600  0.15732200  0.84891000  1
  Cu  Cu65  1  0.72691400  0.65732200  0.65109000  1
  Cu  Cu66  1  0.84778700  0.89911100  0.20285200  1
  Cu  Cu67  1  0.15221300  0.39911100  0.29714800  1
  Cu  Cu68  1  0.15221300  0.10088900  0.79714800  1
  Cu  Cu69  1  0.84778700  0.60088900  0.70285200  1
  Cu  Cu70  1  0.96782500  0.95605100  0.25574300  1
  Cu  Cu71  1  0.03217500  0.45605100  0.24425700  1
  Cu  Cu72  1  0.03217500  0.04394900  0.74425700  1
  Cu  Cu73  1  0.96782500  0.54394900  0.75574300  1
  Cu  Cu74  1  0.39121100  0.87224300  0.35559800  1
  Cu  Cu75  1  0.60878900  0.37224300  0.14440200  1
  Cu  Cu76  1  0.60878900  0.12775700  0.64440200  1
  Cu  Cu77  1  0.39121100  0.62775700  0.85559800  1
  Cu  Cu78  1  0.37606700  0.89447100  0.64407700  1
  Cu  Cu79  1  0.62393300  0.39447100  0.85592300  1
  Cu  Cu80  1  0.62393300  0.10552900  0.35592300  1
  Cu  Cu81  1  0.37606700  0.60552900  0.14407700  1
  Cu  Cu82  1  0.79003100  0.90438800  0.53296300  1
  Cu  Cu83  1  0.20996900  0.40438800  0.96703700  1
  Cu  Cu84  1  0.20996900  0.09561200  0.46703700  1
  Cu  Cu85  1  0.79003100  0.59561200  0.03296300  1
  Cu  Cu86  1  0.71588800  0.87136500  0.84402600  1
  Cu  Cu87  1  0.28411200  0.37136500  0.65597400  1
  Cu  Cu88  1  0.28411200  0.12863500  0.15597400  1
  Cu  Cu89  1  0.71588800  0.62863500  0.34402600  1
  Cu  Cu90  1  0.26514400  0.84692700  0.00634300  1
  Cu  Cu91  1  0.73485600  0.34692700  0.49365700  1
  Cu  Cu92  1  0.73485600  0.15307300  0.99365700  1
  Cu  Cu93  1  0.26514400  0.65307300  0.50634300  1
