# generated using pymatgen
data_Cu4Ni2C23
_symmetry_space_group_name_H-M   'P 1'
_cell_length_a   5.37295980
_cell_length_b   8.29188262
_cell_length_c   8.28650371
_cell_angle_alpha   89.56772701
_cell_angle_beta   80.33718293
_cell_angle_gamma   87.75958598
_symmetry_Int_Tables_number   1
_chemical_formula_structural   Cu4Ni2C23
_chemical_formula_sum   'Cu4 Ni2 C23'
_cell_volume   363.66383228
_cell_formula_units_Z   1
loop_
 _symmetry_equiv_pos_site_id
 _symmetry_equiv_pos_as_xyz
  1  'x, y, z'
loop_
 _atom_site_type_symbol
 _atom_site_label
 _atom_site_symmetry_multiplicity
 _atom_site_fract_x
 _atom_site_fract_y
 _atom_site_fract_z
 _atom_site_occupancy
  C  C0  1  0.25999498  0.69737608  0.89794730  1
  C  C1  1  0.70275088  0.32229932  0.13255910  1
  C  C2  1  0.24294193  0.21651233  0.81739318  1
  C  C3  1  0.72078745  0.80281185  0.21548611  1
  C  C4  1  0.50283062  0.02142791  0.51221256  1
  Ni  Ni5  1  0.86449502  0.74751142  0.56021138  1
  Ni  Ni6  1  0.09690556  0.26580605  0.47309705  1
  Cu  Cu7  1  0.77687725  0.43849092  0.71695880  1
  Cu  Cu8  1  0.18070551  0.57386178  0.31400136  1
  Cu  Cu9  1  0.76402743  0.95170317  0.82869779  1
  Cu  Cu10  1  0.20573386  0.07016450  0.20162151  1
  C  C11  1  0.52843316  0.38675216  0.82092106  1
  C  C12  1  0.42809156  0.62457085  0.20861350  1
  C  C13  1  0.96593065  0.57915865  0.21125610  1
  C  C14  1  0.99194407  0.43234246  0.81951576  1
  C  C15  1  0.84573785  0.33315301  0.55855427  1
  C  C16  1  0.11053020  0.67817727  0.47287408  1
  C  C17  1  0.71717437  0.61607509  0.66246976  1
  C  C18  1  0.24014169  0.39692123  0.36918656  1
  C  C19  1  0.90023983  0.09557561  0.87745939  1
  C  C20  1  0.08845030  0.91891811  0.15116101  1
  C  C21  1  0.50713970  0.99857578  0.77343656  1
  C  C22  1  0.46754201  0.03640641  0.25653410  1
  C  C23  1  0.71449455  0.82155146  0.96536663  1
  C  C24  1  0.24140377  0.20191919  0.06666150  1
  C  C25  1  0.94626517  0.86229195  0.68172855  1
  C  C26  1  0.01525268  0.14911512  0.35202622  1
  C  C27  1  0.70804202  0.82311839  0.45963309  1
  C  C28  1  0.25263593  0.19522393  0.57554072  1
