# generated using pymatgen
data_Cu3(NiC12)2
_symmetry_space_group_name_H-M   'P 1'
_cell_length_a   10.54176910
_cell_length_b   10.54176910
_cell_length_c   10.54176910
_cell_angle_alpha   146.54214169
_cell_angle_beta   131.65386129
_cell_angle_gamma   60.07139717
_symmetry_Int_Tables_number   1
_chemical_formula_structural   Cu3(NiC12)2
_chemical_formula_sum   'Cu3 Ni2 C24'
_cell_volume   478.16736781
_cell_formula_units_Z   1
loop_
 _symmetry_equiv_pos_site_id
 _symmetry_equiv_pos_as_xyz
  1  'x, y, z'
loop_
 _atom_site_type_symbol
 _atom_site_label
 _atom_site_symmetry_multiplicity
 _atom_site_fract_x
 _atom_site_fract_y
 _atom_site_fract_z
 _atom_site_occupancy
  C  C0  1  0.77869900  0.50000000  0.27869900  1
  C  C1  1  0.38751100  0.15421500  0.23329600  1
  C  C2  1  0.07908100  0.84578500  0.23329600  1
  C  C3  1  0.22130100  0.50000000  0.72130100  1
  C  C4  1  0.92091900  0.15421500  0.76670400  1
  C  C5  1  0.61248900  0.84578500  0.76670400  1
  Ni  Ni6  1  0.66592300  0.66592300  0.00000000  1
  Ni  Ni7  1  0.33407700  0.33407700  0.00000000  1
  Cu  Cu8  1  0.50000000  0.00000000  0.50000000  1
  Cu  Cu9  1  0.16876700  0.66876700  0.50000000  1
  Cu  Cu10  1  0.83123300  0.33123300  0.50000000  1
  C  C11  1  0.72174000  0.00000000  0.72174000  1
  C  C12  1  0.39938100  0.66864000  0.73074100  1
  C  C13  1  0.06210200  0.33136000  0.73074100  1
  C  C14  1  0.57762300  0.84706400  0.26944000  1
  C  C15  1  0.24480100  0.51508100  0.27028000  1
  C  C16  1  0.90582000  0.18008900  0.27426900  1
  C  C17  1  0.42237700  0.69181700  0.26944000  1
  C  C18  1  0.09418000  0.36844900  0.27426900  1
  C  C19  1  0.75519900  0.02547900  0.27028000  1
  C  C20  1  0.27826000  0.00000000  0.27826000  1
  C  C21  1  0.93789800  0.66864000  0.26925900  1
  C  C22  1  0.60061900  0.33136000  0.26925900  1
  C  C23  1  0.42237700  0.15293600  0.73056000  1
  C  C24  1  0.09418000  0.81991100  0.72573100  1
  C  C25  1  0.75519900  0.48491900  0.72972000  1
  C  C26  1  0.57762300  0.30818300  0.73056000  1
  C  C27  1  0.24480100  0.97452100  0.72972000  1
  C  C28  1  0.90582000  0.63155200  0.72573100  1
