# generated using pymatgen
data_CuNi2C5
_symmetry_space_group_name_H-M   'P 1'
_cell_length_a   8.55824600
_cell_length_b   9.17566100
_cell_length_c   13.60986200
_cell_angle_alpha   90.00000000
_cell_angle_beta   90.00000000
_cell_angle_gamma   90.00000000
_symmetry_Int_Tables_number   1
_chemical_formula_structural   CuNi2C5
_chemical_formula_sum   'Cu4 Ni8 C20'
_cell_volume   1068.74930992
_cell_formula_units_Z   4
loop_
 _symmetry_equiv_pos_site_id
 _symmetry_equiv_pos_as_xyz
  1  'x, y, z'
loop_
 _atom_site_type_symbol
 _atom_site_label
 _atom_site_symmetry_multiplicity
 _atom_site_fract_x
 _atom_site_fract_y
 _atom_site_fract_z
 _atom_site_occupancy
  Ni  Ni0  1  0.94869900  0.00476700  0.82829600  1
  Ni  Ni1  1  0.05130100  0.99523300  0.17170400  1
  Ni  Ni2  1  0.44869900  0.99523300  0.67170400  1
  Ni  Ni3  1  0.05130100  0.50476700  0.17170400  1
  Ni  Ni4  1  0.55130100  0.00476700  0.32829600  1
  Ni  Ni5  1  0.94869900  0.49523300  0.82829600  1
  Ni  Ni6  1  0.55130100  0.49523300  0.32829600  1
  Ni  Ni7  1  0.44869900  0.50476700  0.67170400  1
  Cu  Cu8  1  0.92289000  0.75000000  0.50501100  1
  Cu  Cu9  1  0.07711000  0.25000000  0.49498900  1
  Cu  Cu10  1  0.42289000  0.25000000  0.99498900  1
  Cu  Cu11  1  0.57711000  0.75000000  0.00501100  1
  C  C12  1  0.12508100  0.75000000  0.67812800  1
  C  C13  1  0.87491900  0.25000000  0.32187200  1
  C  C14  1  0.62508100  0.25000000  0.82187200  1
  C  C15  1  0.37491900  0.75000000  0.17812800  1
  C  C16  1  0.83622500  0.04339000  0.57629600  1
  C  C17  1  0.16377500  0.95661000  0.42370400  1
  C  C18  1  0.33622500  0.95661000  0.92370400  1
  C  C19  1  0.16377500  0.54339000  0.42370400  1
  C  C20  1  0.66377500  0.04339000  0.07629600  1
  C  C21  1  0.83622500  0.45661000  0.57629600  1
  C  C22  1  0.66377500  0.45661000  0.07629600  1
  C  C23  1  0.33622500  0.54339000  0.92370400  1
  C  C24  1  0.57788500  0.75000000  0.50811400  1
  C  C25  1  0.42211500  0.25000000  0.49188600  1
  C  C26  1  0.07788500  0.25000000  0.99188600  1
  C  C27  1  0.92211500  0.75000000  0.00811400  1
  C  C28  1  0.66252300  0.75000000  0.79733300  1
  C  C29  1  0.33747700  0.25000000  0.20266700  1
  C  C30  1  0.16252300  0.25000000  0.70266700  1
  C  C31  1  0.83747700  0.75000000  0.29733300  1
