# generated using pymatgen
data_Cu15Ni12C35
_symmetry_space_group_name_H-M   'P 1'
_cell_length_a   10.02252239
_cell_length_b   10.02252239
_cell_length_c   10.02252239
_cell_angle_alpha   109.47122063
_cell_angle_beta   109.47122063
_cell_angle_gamma   109.47122063
_symmetry_Int_Tables_number   1
_chemical_formula_structural   Cu15Ni12C35
_chemical_formula_sum   'Cu15 Ni12 C35'
_cell_volume   775.01340558
_cell_formula_units_Z   1
loop_
 _symmetry_equiv_pos_site_id
 _symmetry_equiv_pos_as_xyz
  1  'x, y, z'
loop_
 _atom_site_type_symbol
 _atom_site_label
 _atom_site_symmetry_multiplicity
 _atom_site_fract_x
 _atom_site_fract_y
 _atom_site_fract_z
 _atom_site_occupancy
  C  C0  1  0.00000000  0.00000000  0.50000000  1
  C  C1  1  0.50000000  0.00000000  0.00000000  1
  C  C2  1  0.00000000  0.50000000  0.00000000  1
  C  C3  1  0.50000000  0.50000000  0.50000000  1
  Ni  Ni4  1  0.78920100  0.66942400  0.45862400  1
  Ni  Ni5  1  0.78920100  0.33057600  0.11977700  1
  Ni  Ni6  1  0.21079900  0.66942400  0.88022300  1
  Ni  Ni7  1  0.21079900  0.33057600  0.54137600  1
  Ni  Ni8  1  0.66942400  0.45862400  0.78920100  1
  Ni  Ni9  1  0.33057600  0.11977700  0.78920100  1
  Ni  Ni10  1  0.66942400  0.88022300  0.21079900  1
  Ni  Ni11  1  0.33057600  0.54137600  0.21079900  1
  Ni  Ni12  1  0.45862400  0.78920100  0.66942400  1
  Ni  Ni13  1  0.11977700  0.78920100  0.33057600  1
  Ni  Ni14  1  0.88022300  0.21079900  0.66942400  1
  Ni  Ni15  1  0.54137600  0.21079900  0.33057600  1
  Cu  Cu16  1  0.74111600  0.75151300  0.49262900  1
  Cu  Cu17  1  0.74111600  0.24848700  0.98960300  1
  Cu  Cu18  1  0.25888400  0.75151300  0.01039700  1
  Cu  Cu19  1  0.25888400  0.24848700  0.50737100  1
  Cu  Cu20  1  0.75151300  0.49262900  0.74111600  1
  Cu  Cu21  1  0.24848700  0.98960300  0.74111600  1
  Cu  Cu22  1  0.75151300  0.01039700  0.25888400  1
  Cu  Cu23  1  0.24848700  0.50737100  0.25888400  1
  Cu  Cu24  1  0.49262900  0.74111600  0.75151300  1
  Cu  Cu25  1  0.98960300  0.74111600  0.24848700  1
  Cu  Cu26  1  0.01039700  0.25888400  0.75151300  1
  Cu  Cu27  1  0.50737100  0.25888400  0.24848700  1
  Cu  Cu28  1  0.50000000  0.50000000  0.00000000  1
  Cu  Cu29  1  0.50000000  0.00000000  0.50000000  1
  Cu  Cu30  1  0.00000000  0.50000000  0.50000000  1
  C  C31  1  0.80986000  0.89340500  0.51158200  1
  C  C32  1  0.61817700  0.10659500  0.91645500  1
  C  C33  1  0.19014000  0.70172200  0.08354500  1
  C  C34  1  0.38182300  0.29827800  0.48841800  1
  C  C35  1  0.89340500  0.51158200  0.80986000  1
  C  C36  1  0.10659500  0.91645500  0.61817700  1
  C  C37  1  0.70172200  0.08354500  0.19014000  1
  C  C38  1  0.29827800  0.48841800  0.38182300  1
  C  C39  1  0.51158200  0.80986000  0.89340500  1
  C  C40  1  0.91645500  0.61817700  0.10659500  1
  C  C41  1  0.08354500  0.19014000  0.70172200  1
  C  C42  1  0.48841800  0.38182300  0.29827800  1
  C  C43  1  0.19014000  0.10659500  0.48841800  1
  C  C44  1  0.38182300  0.89340500  0.08354500  1
  C  C45  1  0.80986000  0.29827800  0.91645500  1
  C  C46  1  0.61817700  0.70172200  0.51158200  1
  C  C47  1  0.10659500  0.48841800  0.19014000  1
  C  C48  1  0.89340500  0.08354500  0.38182300  1
  C  C49  1  0.29827800  0.91645500  0.80986000  1
  C  C50  1  0.70172200  0.51158200  0.61817700  1
  C  C51  1  0.48841800  0.19014000  0.10659500  1
  C  C52  1  0.08354500  0.38182300  0.89340500  1
  C  C53  1  0.91645500  0.80986000  0.29827800  1
  C  C54  1  0.51158200  0.61817700  0.70172200  1
  C  C55  1  0.50000000  0.60154000  0.10154000  1
  C  C56  1  0.50000000  0.39846000  0.89846000  1
  C  C57  1  0.60154000  0.10154000  0.50000000  1
  C  C58  1  0.39846000  0.89846000  0.50000000  1
  C  C59  1  0.10154000  0.50000000  0.60154000  1
  C  C60  1  0.89846000  0.50000000  0.39846000  1
  C  C61  1  0.00000000  0.00000000  0.00000000  1
