# generated using pymatgen
data_Cu2NiC5
_symmetry_space_group_name_H-M   'P 1'
_cell_length_a   6.75080300
_cell_length_b   7.12440300
_cell_length_c   7.81913500
_cell_angle_alpha   90.00000000
_cell_angle_beta   90.00000000
_cell_angle_gamma   90.00000000
_symmetry_Int_Tables_number   1
_chemical_formula_structural   Cu2NiC5
_chemical_formula_sum   'Cu4 Ni2 C10'
_cell_volume   376.06474720
_cell_formula_units_Z   2
loop_
 _symmetry_equiv_pos_site_id
 _symmetry_equiv_pos_as_xyz
  1  'x, y, z'
loop_
 _atom_site_type_symbol
 _atom_site_label
 _atom_site_symmetry_multiplicity
 _atom_site_fract_x
 _atom_site_fract_y
 _atom_site_fract_z
 _atom_site_occupancy
  Ni  Ni0  1  0.50731100  0.34858700  0.00000000  1
  Ni  Ni1  1  0.00731100  0.65141300  0.50000000  1
  C  C2  1  0.99977400  0.67085800  0.00000000  1
  C  C3  1  0.49977400  0.32914200  0.50000000  1
  Cu  Cu4  1  0.51448400  0.82535700  0.75046300  1
  Cu  Cu5  1  0.01448400  0.17464300  0.74953700  1
  Cu  Cu6  1  0.01448400  0.17464300  0.25046300  1
  Cu  Cu7  1  0.51448400  0.82535700  0.24953700  1
  C  C8  1  0.88972400  0.36250400  0.00000000  1
  C  C9  1  0.38972400  0.63749600  0.50000000  1
  C  C10  1  0.89060800  0.83183800  0.76391100  1
  C  C11  1  0.39060800  0.16816200  0.73608900  1
  C  C12  1  0.39060800  0.16816200  0.26391100  1
  C  C13  1  0.89060800  0.83183800  0.23608900  1
  C  C14  1  0.34550700  0.67469600  0.00000000  1
  C  C15  1  0.84550700  0.32530400  0.50000000  1
