# generated using pymatgen
data_CuNi
_symmetry_space_group_name_H-M   'P 1'
_cell_length_a   3.34813100
_cell_length_b   4.74663500
_cell_length_c   4.90436500
_cell_angle_alpha   90.00000000
_cell_angle_beta   90.00000000
_cell_angle_gamma   90.00000000
_symmetry_Int_Tables_number   1
_chemical_formula_structural   CuNi
_chemical_formula_sum   'Cu2 Ni2'
_cell_volume   77.94191350
_cell_formula_units_Z   2
loop_
 _symmetry_equiv_pos_site_id
 _symmetry_equiv_pos_as_xyz
  1  'x, y, z'
loop_
 _atom_site_type_symbol
 _atom_site_label
 _atom_site_symmetry_multiplicity
 _atom_site_fract_x
 _atom_site_fract_y
 _atom_site_fract_z
 _atom_site_occupancy
  Ni  Ni0  1  0.50000000  0.25000000  0.30225800  1
  Ni  Ni1  1  0.50000000  0.75000000  0.69774200  1
  Cu  Cu2  1  0.00000000  0.75000000  0.18630400  1
  Cu  Cu3  1  0.00000000  0.25000000  0.81369600  1
