# generated using pymatgen
data_Cu3(NiC9)2
_symmetry_space_group_name_H-M   'P 1'
_cell_length_a   9.20650756
_cell_length_b   8.17791575
_cell_length_c   8.43279026
_cell_angle_alpha   95.82545337
_cell_angle_beta   73.83552941
_cell_angle_gamma   78.55550428
_symmetry_Int_Tables_number   1
_chemical_formula_structural   Cu3(NiC9)2
_chemical_formula_sum   'Cu6 Ni4 C36'
_cell_volume   589.33795339
_cell_formula_units_Z   2
loop_
 _symmetry_equiv_pos_site_id
 _symmetry_equiv_pos_as_xyz
  1  'x, y, z'
loop_
 _atom_site_type_symbol
 _atom_site_label
 _atom_site_symmetry_multiplicity
 _atom_site_fract_x
 _atom_site_fract_y
 _atom_site_fract_z
 _atom_site_occupancy
  C  C0  1  0.29646300  0.98875300  0.25257400  1
  C  C1  1  0.58589500  0.41362500  0.78426000  1
  C  C2  1  0.66736300  0.77137600  0.04749300  1
  C  C3  1  0.78432300  0.01317200  0.67890300  1
  Ni  Ni4  1  0.41470500  0.94343900  0.86274800  1
  Ni  Ni5  1  0.42539900  0.14532600  0.55832800  1
  Ni  Ni6  1  0.56565100  0.15333400  0.13501900  1
  Ni  Ni7  1  0.24258700  0.38269400  0.42377200  1
  Cu  Cu8  1  0.22748500  0.67252500  0.05286000  1
  Cu  Cu9  1  0.84947600  0.58742300  0.51023200  1
  Cu  Cu10  1  0.22485100  0.34814100  0.82943000  1
  Cu  Cu11  1  0.98194200  0.29003600  0.27815700  1
  Cu  Cu12  1  0.35061500  0.57939000  0.24962800  1
  Cu  Cu13  1  0.89600200  0.07879100  0.99872500  1
  C  C14  1  0.05920500  0.37351800  0.92229700  1
  C  C15  1  0.90719500  0.79369000  0.35518500  1
  C  C16  1  0.04874000  0.66641900  0.58636100  1
  C  C17  1  0.67955700  0.19323500  0.49581700  1
  C  C18  1  0.46689800  0.43723100  0.11592100  1
  C  C19  1  0.13148000  0.92279100  0.79313900  1
  C  C20  1  0.43691800  0.78829700  0.39335200  1
  C  C21  1  0.99062100  0.62006000  0.16575100  1
  C  C22  1  0.15161700  0.26702200  0.30416000  1
  C  C23  1  0.01427900  0.94086300  0.83741300  1
  C  C24  1  0.02524500  0.55745600  0.55949100  1
  C  C25  1  0.37978900  0.94113400  0.53587800  1
  C  C26  1  0.98922500  0.16941800  0.11043700  1
  C  C27  1  0.33321000  0.86712100  0.69294400  1
  C  C28  1  0.29085000  0.50682000  0.89501400  1
  C  C29  1  0.48177500  0.03103500  0.02564600  1
  C  C30  1  0.59660900  0.17930500  0.59211500  1
  C  C31  1  0.81004400  0.21424500  0.89664700  1
  C  C32  1  0.34010700  0.16366700  0.81340400  1
  C  C33  1  0.28351900  0.83799800  0.99717900  1
  C  C34  1  0.45982900  0.71746000  0.27730600  1
  C  C35  1  0.25460200  0.33800500  0.62479300  1
  C  C36  1  0.03316700  0.71371700  0.11929200  1
  C  C37  1  0.62761800  0.81520200  0.78127800  1
  C  C38  1  0.64435100  0.31709900  0.02322500  1
  C  C39  1  0.89959700  0.49418100  0.30189800  1
  C  C40  1  0.75287600  0.01787300  0.12052600  1
  C  C41  1  0.86257000  0.23217900  0.43984400  1
  C  C42  1  0.43607300  0.20071400  0.34762000  1
  C  C43  1  0.67551600  0.64352700  0.67002500  1
  C  C44  1  0.82690800  0.38272200  0.57428900  1
  C  C45  1  0.84725300  0.78796500  0.46962800  1
