# generated using pymatgen
data_Cu24Ni2C17
_symmetry_space_group_name_H-M   'P 1'
_cell_length_a   11.16150591
_cell_length_b   10.74577735
_cell_length_c   7.78622207
_cell_angle_alpha   90.00000000
_cell_angle_beta   90.00000000
_cell_angle_gamma   116.76515337
_symmetry_Int_Tables_number   1
_chemical_formula_structural   Cu24Ni2C17
_chemical_formula_sum   'Cu24 Ni2 C17'
_cell_volume   833.81695511
_cell_formula_units_Z   1
loop_
 _symmetry_equiv_pos_site_id
 _symmetry_equiv_pos_as_xyz
  1  'x, y, z'
loop_
 _atom_site_type_symbol
 _atom_site_label
 _atom_site_symmetry_multiplicity
 _atom_site_fract_x
 _atom_site_fract_y
 _atom_site_fract_z
 _atom_site_occupancy
  C  C0  1  0.66327441  0.33468229  0.50225532  1
  C  C1  1  0.26264674  0.63908420  0.52020663  1
  C  C2  1  0.99034118  0.24563597  0.25000000  1
  C  C3  1  0.26264674  0.63908420  0.97979337  1
  C  C4  1  0.79380504  0.75186635  0.25000000  1
  C  C5  1  0.27826143  0.98704067  0.25000000  1
  C  C6  1  0.71174470  0.98489504  0.75000000  1
  C  C7  1  0.98054684  0.75288106  0.75000000  1
  C  C8  1  0.66327441  0.33468229  0.99774468  1
  C  C9  1  0.25389581  0.25180499  0.75000000  1
  C  C10  1  0.48807486  0.71980217  0.25000000  1
  C  C11  1  0.97002426  0.57022607  0.25000000  1
  C  C12  1  0.56169143  0.61660515  0.75000000  1
  C  C13  1  0.34783661  0.95361770  0.75000000  1
  C  C14  1  0.41784238  0.38590331  0.25000000  1
  C  C15  1  0.00186306  0.38316549  0.75000000  1
  C  C16  1  0.66260208  0.05706322  0.25000000  1
  Ni  Ni17  1  0.99166209  0.00087542  0.99741412  1
  Ni  Ni18  1  0.99166209  0.00087542  0.50258588  1
  Cu  Cu19  1  0.61181781  0.72193498  0.93203520  1
  Cu  Cu20  1  0.36302437  0.51589682  0.25000000  1
  Cu  Cu21  1  0.36430271  0.28100339  0.42832639  1
  Cu  Cu22  1  0.38693892  0.52879384  0.75000000  1
  Cu  Cu23  1  0.07629414  0.34982720  0.57236719  1
  Cu  Cu24  1  0.63152010  0.50169939  0.75000000  1
  Cu  Cu25  1  0.82982527  0.30208317  0.75000000  1
  Cu  Cu26  1  0.06071400  0.56275752  0.75000000  1
  Cu  Cu27  1  0.59188881  0.47315640  0.25000000  1
  Cu  Cu28  1  0.75119853  0.12522269  0.06379959  1
  Cu  Cu29  1  0.07629414  0.34982720  0.92763281  1
  Cu  Cu30  1  0.84721895  0.39308947  0.25000000  1
  Cu  Cu31  1  0.43668661  0.85667897  0.75000000  1
  Cu  Cu32  1  0.91476616  0.63590878  0.07012321  1
  Cu  Cu33  1  0.91476616  0.63590878  0.42987679  1
  Cu  Cu34  1  0.45232581  0.13029629  0.75000000  1
  Cu  Cu35  1  0.36430271  0.28100339  0.07167361  1
  Cu  Cu36  1  0.75119853  0.12522269  0.43620041  1
  Cu  Cu37  1  0.34624754  0.77439494  0.25000000  1
  Cu  Cu38  1  0.23882675  0.89629863  0.92339428  1
  Cu  Cu39  1  0.64537105  0.88947717  0.25000000  1
  Cu  Cu40  1  0.23882675  0.89629863  0.57660572  1
  Cu  Cu41  1  0.61181781  0.72193498  0.56796480  1
  Cu  Cu42  1  0.53763018  0.11024371  0.25000000  1
