# generated using pymatgen
data_Cu4(NiC4)3
_symmetry_space_group_name_H-M   'P 1'
_cell_length_a   6.59322634
_cell_length_b   6.59322634
_cell_length_c   6.59322634
_cell_angle_alpha   109.47122063
_cell_angle_beta   109.47122063
_cell_angle_gamma   109.47122063
_symmetry_Int_Tables_number   1
_chemical_formula_structural   Cu4(NiC4)3
_chemical_formula_sum   'Cu4 Ni3 C12'
_cell_volume   220.63380937
_cell_formula_units_Z   1
loop_
 _symmetry_equiv_pos_site_id
 _symmetry_equiv_pos_as_xyz
  1  'x, y, z'
loop_
 _atom_site_type_symbol
 _atom_site_label
 _atom_site_symmetry_multiplicity
 _atom_site_fract_x
 _atom_site_fract_y
 _atom_site_fract_z
 _atom_site_occupancy
  Ni  Ni0  1  0.50000000  0.50000000  0.00000000  1
  Ni  Ni1  1  0.50000000  0.00000000  0.50000000  1
  Ni  Ni2  1  0.00000000  0.50000000  0.50000000  1
  Cu  Cu3  1  0.50000000  0.50000000  0.50000000  1
  Cu  Cu4  1  0.00000000  0.50000000  0.00000000  1
  Cu  Cu5  1  0.00000000  0.00000000  0.50000000  1
  Cu  Cu6  1  0.50000000  0.00000000  0.00000000  1
  C  C7  1  0.30864800  0.81789100  0.12653900  1
  C  C8  1  0.69135200  0.18210900  0.87346100  1
  C  C9  1  0.69135200  0.81789100  0.50924300  1
  C  C10  1  0.87346100  0.69135200  0.18210900  1
  C  C11  1  0.81789100  0.12653900  0.30864800  1
  C  C12  1  0.18210900  0.49075700  0.30864800  1
  C  C13  1  0.49075700  0.30864800  0.18210900  1
  C  C14  1  0.18210900  0.87346100  0.69135200  1
  C  C15  1  0.30864800  0.18210900  0.49075700  1
  C  C16  1  0.12653900  0.30864800  0.81789100  1
  C  C17  1  0.81789100  0.50924300  0.69135200  1
  C  C18  1  0.50924300  0.69135200  0.81789100  1
