# generated using pymatgen
data_Cu16Ni2C19
_symmetry_space_group_name_H-M   'P 1'
_cell_length_a   8.27239866
_cell_length_b   8.27239866
_cell_length_c   4.65207314
_cell_angle_alpha   81.04359904
_cell_angle_beta   81.04359904
_cell_angle_gamma   105.49164968
_symmetry_Int_Tables_number   1
_chemical_formula_structural   Cu16Ni2C19
_chemical_formula_sum   'Cu16 Ni2 C19'
_cell_volume   296.46835800
_cell_formula_units_Z   1
loop_
 _symmetry_equiv_pos_site_id
 _symmetry_equiv_pos_as_xyz
  1  'x, y, z'
loop_
 _atom_site_type_symbol
 _atom_site_label
 _atom_site_symmetry_multiplicity
 _atom_site_fract_x
 _atom_site_fract_y
 _atom_site_fract_z
 _atom_site_occupancy
  C  C0  1  0.00000000  0.00000000  0.50000000  1
  C  C1  1  0.38876800  0.61123200  0.50000000  1
  C  C2  1  0.61123200  0.38876800  0.50000000  1
  Ni  Ni3  1  0.68685400  0.68685400  0.88610600  1
  Ni  Ni4  1  0.31314600  0.31314600  0.11389400  1
  Cu  Cu5  1  0.03950300  0.20426200  0.86262000  1
  Cu  Cu6  1  0.20426200  0.03950300  0.86262000  1
  Cu  Cu7  1  0.96049700  0.79573800  0.13738000  1
  Cu  Cu8  1  0.79573800  0.96049700  0.13738000  1
  Cu  Cu9  1  0.05508800  0.31510300  0.54266400  1
  Cu  Cu10  1  0.31510300  0.05508800  0.54266400  1
  Cu  Cu11  1  0.94491200  0.68489700  0.45733600  1
  Cu  Cu12  1  0.68489700  0.94491200  0.45733600  1
  Cu  Cu13  1  0.17615800  0.56490200  0.97984600  1
  Cu  Cu14  1  0.56490200  0.17615800  0.97984600  1
  Cu  Cu15  1  0.82384200  0.43509800  0.02015400  1
  Cu  Cu16  1  0.43509800  0.82384200  0.02015400  1
  Cu  Cu17  1  0.17421200  0.73790400  0.77045700  1
  Cu  Cu18  1  0.73790400  0.17421200  0.77045700  1
  Cu  Cu19  1  0.82578800  0.26209600  0.22954300  1
  Cu  Cu20  1  0.26209600  0.82578800  0.22954300  1
  C  C21  1  0.84429000  0.84429000  0.88703500  1
  C  C22  1  0.15571000  0.15571000  0.11296500  1
  C  C23  1  0.60295500  0.60295500  0.21679600  1
  C  C24  1  0.39704500  0.39704500  0.78320400  1
  C  C25  1  0.75922500  0.56021700  0.72954100  1
  C  C26  1  0.56021700  0.75922500  0.72954100  1
  C  C27  1  0.24077500  0.43978300  0.27045900  1
  C  C28  1  0.43978300  0.24077500  0.27045900  1
  C  C29  1  0.97833700  0.21186000  0.69228900  1
  C  C30  1  0.21186000  0.97833700  0.69228900  1
  C  C31  1  0.02166300  0.78814000  0.30771100  1
  C  C32  1  0.78814000  0.02166300  0.30771100  1
  C  C33  1  0.17071100  0.61764000  0.77478000  1
  C  C34  1  0.61764000  0.17071100  0.77478000  1
  C  C35  1  0.82928900  0.38236000  0.22522000  1
  C  C36  1  0.38236000  0.82928900  0.22522000  1
