# generated using pymatgen
data_Cu5(NiC4)2
_symmetry_space_group_name_H-M   'P 1'
_cell_length_a   11.20484455
_cell_length_b   10.42141694
_cell_length_c   14.07947159
_cell_angle_alpha   90.00000000
_cell_angle_beta   90.00000000
_cell_angle_gamma   90.00000000
_symmetry_Int_Tables_number   1
_chemical_formula_structural   Cu5(NiC4)2
_chemical_formula_sum   'Cu40 Ni16 C64'
_cell_volume   1644.06492117
_cell_formula_units_Z   8
loop_
 _symmetry_equiv_pos_site_id
 _symmetry_equiv_pos_as_xyz
  1  'x, y, z'
loop_
 _atom_site_type_symbol
 _atom_site_label
 _atom_site_symmetry_multiplicity
 _atom_site_fract_x
 _atom_site_fract_y
 _atom_site_fract_z
 _atom_site_occupancy
  Ni  Ni0  1  0.05091326  0.13540181  0.01346899  1
  Ni  Ni1  1  0.55091326  0.36459819  0.98653101  1
  Ni  Ni2  1  0.94908674  0.63540181  0.48653101  1
  Ni  Ni3  1  0.44908674  0.86459819  0.51346899  1
  Ni  Ni4  1  0.94908674  0.86459819  0.98653101  1
  Ni  Ni5  1  0.44908674  0.63540181  0.01346899  1
  Ni  Ni6  1  0.05091326  0.36459819  0.51346899  1
  Ni  Ni7  1  0.55091326  0.13540181  0.48653101  1
  Ni  Ni8  1  0.31471364  0.12046399  0.02979478  1
  Ni  Ni9  1  0.81471364  0.37953601  0.97020522  1
  Ni  Ni10  1  0.68528636  0.62046399  0.47020522  1
  Ni  Ni11  1  0.18528636  0.87953601  0.52979478  1
  Ni  Ni12  1  0.68528636  0.87953601  0.97020522  1
  Ni  Ni13  1  0.18528636  0.62046399  0.02979478  1
  Ni  Ni14  1  0.31471364  0.37953601  0.52979478  1
  Ni  Ni15  1  0.81471364  0.12046399  0.47020522  1
  Cu  Cu16  1  0.39282662  0.25501047  0.83409482  1
  Cu  Cu17  1  0.89282662  0.24498953  0.16590518  1
  Cu  Cu18  1  0.60717338  0.75501047  0.66590518  1
  Cu  Cu19  1  0.10717338  0.74498953  0.33409482  1
  Cu  Cu20  1  0.60717338  0.74498953  0.16590518  1
  Cu  Cu21  1  0.10717338  0.75501047  0.83409482  1
  Cu  Cu22  1  0.39282662  0.24498953  0.33409482  1
  Cu  Cu23  1  0.89282662  0.25501047  0.66590518  1
  Cu  Cu24  1  0.15513740  0.25331414  0.71455636  1
  Cu  Cu25  1  0.65513740  0.24668586  0.28544364  1
  Cu  Cu26  1  0.84486260  0.75331414  0.78544364  1
  Cu  Cu27  1  0.34486260  0.74668586  0.21455636  1
  Cu  Cu28  1  0.84486260  0.74668586  0.28544364  1
  Cu  Cu29  1  0.34486260  0.75331414  0.71455636  1
  Cu  Cu30  1  0.15513740  0.24668586  0.21455636  1
  Cu  Cu31  1  0.65513740  0.25331414  0.78544364  1
  Cu  Cu32  1  0.25752204  0.99919224  0.83051341  1
  Cu  Cu33  1  0.75752204  0.50080776  0.16948659  1
  Cu  Cu34  1  0.74247796  0.49919224  0.66948659  1
  Cu  Cu35  1  0.24247796  0.00080776  0.33051341  1
  Cu  Cu36  1  0.74247796  0.00080776  0.16948659  1
  Cu  Cu37  1  0.24247796  0.49919224  0.83051341  1
  Cu  Cu38  1  0.25752204  0.50080776  0.33051341  1
  Cu  Cu39  1  0.75752204  0.99919224  0.66948659  1
  Cu  Cu40  1  0.98277893  0.02204694  0.79580046  1
  Cu  Cu41  1  0.48277893  0.47795306  0.20419954  1
  Cu  Cu42  1  0.01722107  0.52204694  0.70419954  1
  Cu  Cu43  1  0.51722107  0.97795306  0.29580046  1
  Cu  Cu44  1  0.01722107  0.97795306  0.20419954  1
  Cu  Cu45  1  0.51722107  0.52204694  0.79580046  1
  Cu  Cu46  1  0.98277893  0.47795306  0.29580046  1
  Cu  Cu47  1  0.48277893  0.02204694  0.70419954  1
  Cu  Cu48  1  0.79815766  0.13297352  0.96957555  1
  Cu  Cu49  1  0.29815766  0.36702648  0.03042445  1
  Cu  Cu50  1  0.20184234  0.63297352  0.53042445  1
  Cu  Cu51  1  0.70184234  0.86702648  0.46957555  1
  Cu  Cu52  1  0.20184234  0.86702648  0.03042445  1
  Cu  Cu53  1  0.70184234  0.63297352  0.96957555  1
  Cu  Cu54  1  0.79815766  0.36702648  0.46957555  1
  Cu  Cu55  1  0.29815766  0.13297352  0.53042445  1
  C  C56  1  0.91016682  0.24495228  0.03388227  1
  C  C57  1  0.41016682  0.25504772  0.96611773  1
  C  C58  1  0.08983318  0.74495228  0.46611773  1
  C  C59  1  0.58983318  0.75504772  0.53388227  1
  C  C60  1  0.08983318  0.75504772  0.96611773  1
  C  C61  1  0.58983318  0.74495228  0.03388227  1
  C  C62  1  0.91016682  0.25504772  0.53388227  1
  C  C63  1  0.41016682  0.24495228  0.46611773  1
  C  C64  1  0.93770722  0.04584539  0.92357127  1
  C  C65  1  0.43770722  0.45415461  0.07642873  1
  C  C66  1  0.06229278  0.54584539  0.57642873  1
  C  C67  1  0.56229278  0.95415461  0.42357127  1
  C  C68  1  0.06229278  0.95415461  0.07642873  1
  C  C69  1  0.56229278  0.54584539  0.92357127  1
  C  C70  1  0.93770722  0.45415461  0.42357127  1
  C  C71  1  0.43770722  0.04584539  0.57642873  1
  C  C72  1  0.69871037  0.26307711  0.91327872  1
  C  C73  1  0.19871037  0.23692289  0.08672128  1
  C  C74  1  0.30128963  0.76307711  0.58672128  1
  C  C75  1  0.80128963  0.73692289  0.41327872  1
  C  C76  1  0.30128963  0.73692289  0.08672128  1
  C  C77  1  0.80128963  0.76307711  0.91327872  1
  C  C78  1  0.69871037  0.23692289  0.41327872  1
  C  C79  1  0.19871037  0.26307711  0.58672128  1
  C  C80  1  0.29056911  0.97701694  0.95731845  1
  C  C81  1  0.79056911  0.52298306  0.04268155  1
  C  C82  1  0.70943089  0.47701694  0.54268155  1
  C  C83  1  0.20943089  0.02298306  0.45731845  1
  C  C84  1  0.70943089  0.02298306  0.04268155  1
  C  C85  1  0.20943089  0.47701694  0.95731845  1
  C  C86  1  0.29056911  0.52298306  0.45731845  1
  C  C87  1  0.79056911  0.97701694  0.54268155  1
  C  C88  1  0.01297531  0.16581883  0.72291438  1
  C  C89  1  0.51297531  0.33418117  0.27708562  1
  C  C90  1  0.98702469  0.66581883  0.77708562  1
  C  C91  1  0.48702469  0.83418117  0.22291438  1
  C  C92  1  0.98702469  0.83418117  0.27708562  1
  C  C93  1  0.48702469  0.66581883  0.72291438  1
  C  C94  1  0.01297531  0.33418117  0.22291438  1
  C  C95  1  0.51297531  0.16581883  0.77708562  1
  C  C96  1  0.37092973  0.91822756  0.75904437  1
  C  C97  1  0.87092973  0.58177244  0.24095563  1
  C  C98  1  0.62907027  0.41822756  0.74095563  1
  C  C99  1  0.12907027  0.08177244  0.25904437  1
  C  C100  1  0.62907027  0.08177244  0.24095563  1
  C  C101  1  0.12907027  0.41822756  0.75904437  1
  C  C102  1  0.37092973  0.58177244  0.25904437  1
  C  C103  1  0.87092973  0.91822756  0.74095563  1
  C  C104  1  0.25634632  0.17132726  0.79752854  1
  C  C105  1  0.75634632  0.32867274  0.20247146  1
  C  C106  1  0.74365368  0.67132726  0.70247146  1
  C  C107  1  0.24365368  0.82867274  0.29752854  1
  C  C108  1  0.74365368  0.82867274  0.20247146  1
  C  C109  1  0.24365368  0.67132726  0.79752854  1
  C  C110  1  0.25634632  0.32867274  0.29752854  1
  C  C111  1  0.75634632  0.17132726  0.70247146  1
  C  C112  1  0.11879424  0.92297605  0.79143433  1
  C  C113  1  0.61879424  0.57702395  0.20856567  1
  C  C114  1  0.88120576  0.42297605  0.70856567  1
  C  C115  1  0.38120576  0.07702395  0.29143433  1
  C  C116  1  0.88120576  0.07702395  0.20856567  1
  C  C117  1  0.38120576  0.42297605  0.79143433  1
  C  C118  1  0.11879424  0.57702395  0.29143433  1
  C  C119  1  0.61879424  0.92297605  0.70856567  1
