# generated using pymatgen
data_CuNiC8
_symmetry_space_group_name_H-M   'P 1'
_cell_length_a   8.44740083
_cell_length_b   8.46992564
_cell_length_c   8.45620042
_cell_angle_alpha   90.00000000
_cell_angle_beta   90.00000000
_cell_angle_gamma   90.00000000
_symmetry_Int_Tables_number   1
_chemical_formula_structural   CuNiC8
_chemical_formula_sum   'Cu4 Ni4 C32'
_cell_volume   605.03147361
_cell_formula_units_Z   4
loop_
 _symmetry_equiv_pos_site_id
 _symmetry_equiv_pos_as_xyz
  1  'x, y, z'
loop_
 _atom_site_type_symbol
 _atom_site_label
 _atom_site_symmetry_multiplicity
 _atom_site_fract_x
 _atom_site_fract_y
 _atom_site_fract_z
 _atom_site_occupancy
  Ni  Ni0  1  -0.00000000  0.00000000  -0.00000000  1
  Ni  Ni1  1  0.50000000  0.50000000  0.50000000  1
  Ni  Ni2  1  0.50000000  0.50000000  -0.00000000  1
  Ni  Ni3  1  -0.00000000  0.00000000  0.50000000  1
  Cu  Cu4  1  -0.00000000  0.50000000  0.50000000  1
  Cu  Cu5  1  0.50000000  -0.00000000  0.50000000  1
  Cu  Cu6  1  0.50000000  -0.00000000  -0.00000000  1
  Cu  Cu7  1  -0.00000000  0.50000000  -0.00000000  1
  C  C8  1  0.75000000  0.75000000  0.75000000  1
  C  C9  1  0.25000000  0.25000000  0.75000000  1
  C  C10  1  0.25000000  0.75000000  0.25000000  1
  C  C11  1  0.75000000  0.25000000  0.25000000  1
  C  C12  1  0.25000000  0.25000000  0.25000000  1
  C  C13  1  0.75000000  0.75000000  0.25000000  1
  C  C14  1  0.75000000  0.25000000  0.75000000  1
  C  C15  1  0.25000000  0.75000000  0.75000000  1
  C  C16  1  0.01249868  0.22979876  0.26446463  1
  C  C17  1  0.98750132  0.77020124  0.26446463  1
  C  C18  1  0.98750132  0.22979876  0.73553537  1
  C  C19  1  0.01249868  0.77020124  0.73553537  1
  C  C20  1  0.26049123  0.01259779  0.23091392  1
  C  C21  1  0.26049123  0.98740221  0.76908608  1
  C  C22  1  0.73950877  0.98740221  0.23091392  1
  C  C23  1  0.73950877  0.01259779  0.76908608  1
  C  C24  1  0.23222812  0.26854719  0.01327488  1
  C  C25  1  0.76777188  0.26854719  0.98672512  1
  C  C26  1  0.23222812  0.73145281  0.98672512  1
  C  C27  1  0.76777188  0.73145281  0.01327488  1
  C  C28  1  0.48750132  0.27020124  0.23553537  1
  C  C29  1  0.51249868  0.72979876  0.23553537  1
  C  C30  1  0.51249868  0.27020124  0.76446463  1
  C  C31  1  0.48750132  0.72979876  0.76446463  1
  C  C32  1  0.23950877  0.48740221  0.26908608  1
  C  C33  1  0.23950877  0.51259779  0.73091392  1
  C  C34  1  0.76049123  0.51259779  0.26908608  1
  C  C35  1  0.76049123  0.48740221  0.73091392  1
  C  C36  1  0.26777188  0.23145281  0.48672512  1
  C  C37  1  0.73222812  0.23145281  0.51327488  1
  C  C38  1  0.26777188  0.76854719  0.51327488  1
  C  C39  1  0.73222812  0.76854719  0.48672512  1
