# generated using pymatgen
data_Cu2NiC2
_symmetry_space_group_name_H-M   'P 1'
_cell_length_a   3.80604600
_cell_length_b   7.84244800
_cell_length_c   7.84244800
_cell_angle_alpha   90.00000000
_cell_angle_beta   90.00000000
_cell_angle_gamma   90.00000000
_symmetry_Int_Tables_number   1
_chemical_formula_structural   Cu2NiC2
_chemical_formula_sum   'Cu4 Ni2 C4'
_cell_volume   234.08701753
_cell_formula_units_Z   2
loop_
 _symmetry_equiv_pos_site_id
 _symmetry_equiv_pos_as_xyz
  1  'x, y, z'
loop_
 _atom_site_type_symbol
 _atom_site_label
 _atom_site_symmetry_multiplicity
 _atom_site_fract_x
 _atom_site_fract_y
 _atom_site_fract_z
 _atom_site_occupancy
  C  C0  1  0.50000000  0.32849000  0.82849000  1
  C  C1  1  0.50000000  0.82849000  0.67151000  1
  C  C2  1  0.50000000  0.17151000  0.32849000  1
  C  C3  1  0.50000000  0.67151000  0.17151000  1
  Ni  Ni4  1  0.00000000  0.50000000  0.50000000  1
  Ni  Ni5  1  0.00000000  0.00000000  0.00000000  1
  Cu  Cu6  1  0.00000000  0.12079700  0.62079700  1
  Cu  Cu7  1  0.00000000  0.62079700  0.87920300  1
  Cu  Cu8  1  0.00000000  0.87920300  0.37920300  1
  Cu  Cu9  1  0.00000000  0.37920300  0.12079700  1
