# generated using pymatgen
data_Cu16Ni6C
_symmetry_space_group_name_H-M   'P 1'
_cell_length_a   6.83462200
_cell_length_b   9.15621900
_cell_length_c   13.35670917
_cell_angle_alpha   64.60164224
_cell_angle_beta   90.00000000
_cell_angle_gamma   90.00000000
_symmetry_Int_Tables_number   1
_chemical_formula_structural   Cu16Ni6C
_chemical_formula_sum   'Cu32 Ni12 C2'
_cell_volume   755.06620105
_cell_formula_units_Z   2
loop_
 _symmetry_equiv_pos_site_id
 _symmetry_equiv_pos_as_xyz
  1  'x, y, z'
loop_
 _atom_site_type_symbol
 _atom_site_label
 _atom_site_symmetry_multiplicity
 _atom_site_fract_x
 _atom_site_fract_y
 _atom_site_fract_z
 _atom_site_occupancy
  C  C0  1  0.00000000  0.00000000  0.00000000  1
  C  C1  1  0.50000000  0.00000000  0.50000000  1
  Ni  Ni2  1  0.72732200  0.39724800  0.89509000  1
  Ni  Ni3  1  0.77267800  0.39724800  0.39509000  1
  Ni  Ni4  1  0.27267800  0.60275200  0.10491000  1
  Ni  Ni5  1  0.22732200  0.60275200  0.60491000  1
  Ni  Ni6  1  0.53076000  0.37402000  0.90874500  1
  Ni  Ni7  1  0.96924000  0.37402000  0.40874500  1
  Ni  Ni8  1  0.46924000  0.62598000  0.09125500  1
  Ni  Ni9  1  0.03076000  0.62598000  0.59125500  1
  Ni  Ni10  1  0.78402900  0.55611300  0.85239400  1
  Ni  Ni11  1  0.71597100  0.55611300  0.35239400  1
  Ni  Ni12  1  0.21597100  0.44388700  0.14760600  1
  Ni  Ni13  1  0.28402900  0.44388700  0.64760600  1
  Cu  Cu14  1  0.96893200  0.17344000  0.04946900  1
  Cu  Cu15  1  0.53106800  0.17344000  0.54946900  1
  Cu  Cu16  1  0.03106800  0.82656000  0.95053100  1
  Cu  Cu17  1  0.46893200  0.82656000  0.45053100  1
  Cu  Cu18  1  0.19640600  0.89480900  0.16344700  1
  Cu  Cu19  1  0.30359400  0.89480900  0.66344700  1
  Cu  Cu20  1  0.80359400  0.10519100  0.83655300  1
  Cu  Cu21  1  0.69640600  0.10519100  0.33655300  1
  Cu  Cu22  1  0.82379200  0.06791900  0.08926600  1
  Cu  Cu23  1  0.67620800  0.06791900  0.58926600  1
  Cu  Cu24  1  0.17620800  0.93208100  0.91073400  1
  Cu  Cu25  1  0.32379200  0.93208100  0.41073400  1
  Cu  Cu26  1  0.31397100  0.97931200  0.18531300  1
  Cu  Cu27  1  0.18602900  0.97931200  0.68531300  1
  Cu  Cu28  1  0.68602900  0.02068800  0.81468700  1
  Cu  Cu29  1  0.81397100  0.02068800  0.31468700  1
  Cu  Cu30  1  0.47862100  0.22893600  0.94868800  1
  Cu  Cu31  1  0.02137900  0.22893600  0.44868800  1
  Cu  Cu32  1  0.52137900  0.77106400  0.05131200  1
  Cu  Cu33  1  0.97862100  0.77106400  0.55131200  1
  Cu  Cu34  1  0.40524900  0.48443500  0.88534000  1
  Cu  Cu35  1  0.09475100  0.48443500  0.38534000  1
  Cu  Cu36  1  0.59475100  0.51556500  0.11466000  1
  Cu  Cu37  1  0.90524900  0.51556500  0.61466000  1
  Cu  Cu38  1  0.96364000  0.57937000  0.84685800  1
  Cu  Cu39  1  0.53636000  0.57937000  0.34685800  1
  Cu  Cu40  1  0.03636000  0.42063000  0.15314200  1
  Cu  Cu41  1  0.46364000  0.42063000  0.65314200  1
  Cu  Cu42  1  0.66687500  0.67404500  0.81826600  1
  Cu  Cu43  1  0.83312500  0.67404500  0.31826600  1
  Cu  Cu44  1  0.33312500  0.32595500  0.18173400  1
  Cu  Cu45  1  0.16687500  0.32595500  0.68173400  1
