# generated using pymatgen
data_Cu11Ni2C9
_symmetry_space_group_name_H-M   'P 1'
_cell_length_a   3.91688419
_cell_length_b   8.23738823
_cell_length_c   9.98382692
_cell_angle_alpha   74.76655539
_cell_angle_beta   89.93647856
_cell_angle_gamma   69.16042207
_symmetry_Int_Tables_number   1
_chemical_formula_structural   Cu11Ni2C9
_chemical_formula_sum   'Cu11 Ni2 C9'
_cell_volume   288.94772855
_cell_formula_units_Z   1
loop_
 _symmetry_equiv_pos_site_id
 _symmetry_equiv_pos_as_xyz
  1  'x, y, z'
loop_
 _atom_site_type_symbol
 _atom_site_label
 _atom_site_symmetry_multiplicity
 _atom_site_fract_x
 _atom_site_fract_y
 _atom_site_fract_z
 _atom_site_occupancy
  C  C0  1  0.41203769  0.85829417  0.59144720  1
  C  C1  1  0.49772815  0.09443954  0.22845370  1
  C  C2  1  0.62960556  0.07247619  0.82389586  1
  C  C3  1  0.08209534  0.77611668  0.06517268  1
  C  C4  1  0.20205656  0.61399027  0.42016014  1
  C  C5  1  0.13805550  0.56656769  0.80733829  1
  C  C6  1  0.75452172  0.52329600  0.22084241  1
  C  C7  1  0.97539675  0.28860021  0.55774125  1
  C  C8  1  0.83792623  0.30277461  0.95601355  1
  Ni  Ni9  1  0.22624562  0.56397288  0.23409302  1
  Ni  Ni10  1  0.84658167  0.33983040  0.12567813  1
  Cu  Cu11  1  0.08343772  0.85612263  0.35540009  1
  Cu  Cu12  1  0.06284281  0.67482441  0.61443511  1
  Cu  Cu13  1  0.99404093  0.77321464  0.87708745  1
  Cu  Cu14  1  0.57847169  0.77264378  0.09834847  1
  Cu  Cu15  1  0.75042418  0.55018834  0.43025248  1
  Cu  Cu16  1  0.66153147  0.54201390  0.80388470  1
  Cu  Cu17  1  0.42948815  0.33869444  0.57056781  1
  Cu  Cu18  1  0.33682540  0.30155139  0.89688315  1
  Cu  Cu19  1  0.09404601  0.17097859  0.43138626  1
  Cu  Cu20  1  0.11950189  0.09924948  0.72735630  1
  Cu  Cu21  1  0.91113295  0.03850674  0.01825797  1
