# generated using pymatgen
data_CuNiC21
_symmetry_space_group_name_H-M   'P 1'
_cell_length_a   5.00106037
_cell_length_b   10.91777809
_cell_length_c   11.00754566
_cell_angle_alpha   80.61976892
_cell_angle_beta   102.00291822
_cell_angle_gamma   77.58829018
_symmetry_Int_Tables_number   1
_chemical_formula_structural   CuNiC21
_chemical_formula_sum   'Cu2 Ni2 C42'
_cell_volume   560.40469252
_cell_formula_units_Z   2
loop_
 _symmetry_equiv_pos_site_id
 _symmetry_equiv_pos_as_xyz
  1  'x, y, z'
loop_
 _atom_site_type_symbol
 _atom_site_label
 _atom_site_symmetry_multiplicity
 _atom_site_fract_x
 _atom_site_fract_y
 _atom_site_fract_z
 _atom_site_occupancy
  C  C0  1  0.17194300  0.59547500  0.25801400  1
  C  C1  1  0.17844100  0.09323900  0.76056700  1
  C  C2  1  0.27388200  0.53244300  0.62797400  1
  C  C3  1  0.27883400  0.03309700  0.12767700  1
  C  C4  1  0.82122000  0.50621700  0.84933600  1
  C  C5  1  0.82386900  0.00575100  0.34836300  1
  Ni  Ni6  1  0.21208400  0.88999100  0.61439100  1
  Ni  Ni7  1  0.21304000  0.38982200  0.11502500  1
  Cu  Cu8  1  0.79725700  0.35607400  0.63131900  1
  Cu  Cu9  1  0.79811700  0.85518400  0.12973300  1
  C  C10  1  0.39106200  0.32962800  0.85410000  1
  C  C11  1  0.39193700  0.82927000  0.35267000  1
  C  C12  1  0.21638500  0.85185700  0.93306200  1
  C  C13  1  0.22112700  0.35038300  0.43345700  1
  C  C14  1  0.78959400  0.19027400  0.10266200  1
  C  C15  1  0.78785000  0.69117800  0.60194800  1
  C  C16  1  0.60054500  0.60129000  0.07945400  1
  C  C17  1  0.60549400  0.10084000  0.58076900  1
  C  C18  1  0.06898200  0.22849300  0.10249400  1
  C  C19  1  0.06950700  0.72669600  0.60269400  1
  C  C20  1  0.16197900  0.40497800  0.28988600  1
  C  C21  1  0.15548400  0.90515500  0.78957300  1
  C  C22  1  0.19589800  0.26988800  0.77073300  1
  C  C23  1  0.20039400  0.76805100  0.27004200  1
  C  C24  1  0.22872400  0.41174600  0.93028600  1
  C  C25  1  0.23140100  0.91259300  0.42798700  1
  C  C26  1  0.38300700  0.54154300  0.13125000  1
  C  C27  1  0.39001800  0.04098800  0.63332600  1
  C  C28  1  0.60113800  0.26327700  0.17262900  1
  C  C29  1  0.59998700  0.76852800  0.67017500  1
  C  C30  1  0.62169100  0.20976000  0.95488500  1
  C  C31  1  0.62141200  0.70937000  0.45511300  1
  C  C32  1  0.42583600  0.70886600  0.95241700  1
  C  C33  1  0.43361100  0.20772800  0.45290300  1
  C  C34  1  0.37835600  0.93330900  0.00671500  1
  C  C35  1  0.38501800  0.43148200  0.50803300  1
  C  C36  1  0.54944900  0.40912500  0.78084500  1
  C  C37  1  0.55517000  0.90679400  0.27959300  1
  C  C38  1  0.75513600  0.66542800  0.17440600  1
  C  C39  1  0.76235000  0.16498900  0.67473800  1
  C  C40  1  0.80401300  0.50682100  0.02895200  1
  C  C41  1  0.80987600  0.00452700  0.53092800  1
  C  C42  1  0.86285600  0.54587000  0.65706900  1
  C  C43  1  0.87146500  0.04440600  0.15565200  1
  C  C44  1  0.95559100  0.83732000  0.97688800  1
  C  C45  1  0.96054900  0.33503400  0.47583100  1
