# generated using pymatgen
data_Cu2NiC5
_symmetry_space_group_name_H-M   'P 1'
_cell_length_a   7.35210200
_cell_length_b   7.97373000
_cell_length_c   11.65488900
_cell_angle_alpha   90.00000000
_cell_angle_beta   90.00000000
_cell_angle_gamma   90.00000000
_symmetry_Int_Tables_number   1
_chemical_formula_structural   Cu2NiC5
_chemical_formula_sum   'Cu8 Ni4 C20'
_cell_volume   683.25243982
_cell_formula_units_Z   4
loop_
 _symmetry_equiv_pos_site_id
 _symmetry_equiv_pos_as_xyz
  1  'x, y, z'
loop_
 _atom_site_type_symbol
 _atom_site_label
 _atom_site_symmetry_multiplicity
 _atom_site_fract_x
 _atom_site_fract_y
 _atom_site_fract_z
 _atom_site_occupancy
  Ni  Ni0  1  0.46933200  0.00172200  0.82356900  1
  Ni  Ni1  1  0.53066800  0.50172200  0.17643100  1
  Ni  Ni2  1  0.96933200  0.50172200  0.67643100  1
  Ni  Ni3  1  0.03066800  0.00172200  0.32356900  1
  Cu  Cu4  1  0.57468000  0.24911200  0.49164200  1
  Cu  Cu5  1  0.92532000  0.24911200  0.99164200  1
  Cu  Cu6  1  0.42532000  0.74911200  0.50835800  1
  Cu  Cu7  1  0.07468000  0.74911200  0.00835800  1
  Cu  Cu8  1  0.02658200  0.49852900  0.32127800  1
  Cu  Cu9  1  0.97341800  0.99852900  0.67872200  1
  Cu  Cu10  1  0.52658200  0.99852900  0.17872200  1
  Cu  Cu11  1  0.47341800  0.49852900  0.82127800  1
  C  C12  1  0.96059700  0.24941200  0.49946600  1
  C  C13  1  0.53940300  0.24941200  0.99946600  1
  C  C14  1  0.03940300  0.74941200  0.50053400  1
  C  C15  1  0.46059700  0.74941200  0.00053400  1
  C  C16  1  0.32679100  0.04571900  0.59322600  1
  C  C17  1  0.16518700  0.45542900  0.09671700  1
  C  C18  1  0.67320900  0.54571900  0.40677400  1
  C  C19  1  0.83481300  0.95542900  0.90328300  1
  C  C20  1  0.66518700  0.95542900  0.40328300  1
  C  C21  1  0.82679100  0.54571900  0.90677400  1
  C  C22  1  0.33481300  0.45542900  0.59671700  1
  C  C23  1  0.17320900  0.04571900  0.09322600  1
  C  C24  1  0.69522300  0.24965900  0.71740900  1
  C  C25  1  0.80477700  0.24965900  0.21740900  1
  C  C26  1  0.30477700  0.74965900  0.28259100  1
  C  C27  1  0.19522300  0.74965900  0.78259100  1
  C  C28  1  0.33471500  0.25040300  0.31023200  1
  C  C29  1  0.16528500  0.25040300  0.81023200  1
  C  C30  1  0.66528500  0.75040300  0.68976800  1
  C  C31  1  0.83471500  0.75040300  0.18976800  1
