# generated using pymatgen
data_Cu3NiC3
_symmetry_space_group_name_H-M   'P 1'
_cell_length_a   4.52391800
_cell_length_b   12.96918800
_cell_length_c   14.34802500
_cell_angle_alpha   90.00000000
_cell_angle_beta   90.00000000
_cell_angle_gamma   90.00000000
_symmetry_Int_Tables_number   1
_chemical_formula_structural   Cu3NiC3
_chemical_formula_sum   'Cu12 Ni4 C12'
_cell_volume   841.82076631
_cell_formula_units_Z   4
loop_
 _symmetry_equiv_pos_site_id
 _symmetry_equiv_pos_as_xyz
  1  'x, y, z'
loop_
 _atom_site_type_symbol
 _atom_site_label
 _atom_site_symmetry_multiplicity
 _atom_site_fract_x
 _atom_site_fract_y
 _atom_site_fract_z
 _atom_site_occupancy
  C  C0  1  0.25000000  0.05812200  0.88791800  1
  C  C1  1  0.75000000  0.94187800  0.11208200  1
  C  C2  1  0.25000000  0.55812200  0.61208200  1
  C  C3  1  0.75000000  0.44187800  0.38791800  1
  C  C4  1  0.25000000  0.84997800  0.49665800  1
  C  C5  1  0.75000000  0.15002200  0.50334200  1
  C  C6  1  0.25000000  0.34997800  0.00334200  1
  C  C7  1  0.75000000  0.65002200  0.99665800  1
  C  C8  1  0.75000000  0.22756400  0.22070200  1
  C  C9  1  0.25000000  0.77243600  0.77929800  1
  C  C10  1  0.75000000  0.72756400  0.27929800  1
  C  C11  1  0.25000000  0.27243600  0.72070200  1
  Ni  Ni12  1  0.25000000  0.06785900  0.29659900  1
  Ni  Ni13  1  0.75000000  0.93214100  0.70340100  1
  Ni  Ni14  1  0.25000000  0.56785900  0.20340100  1
  Ni  Ni15  1  0.75000000  0.43214100  0.79659900  1
  Cu  Cu16  1  0.25000000  0.25660800  0.38146600  1
  Cu  Cu17  1  0.75000000  0.74339200  0.61853400  1
  Cu  Cu18  1  0.25000000  0.75660800  0.11853400  1
  Cu  Cu19  1  0.75000000  0.24339200  0.88146600  1
  Cu  Cu20  1  0.25000000  0.11418300  0.10927300  1
  Cu  Cu21  1  0.75000000  0.88581700  0.89072700  1
  Cu  Cu22  1  0.25000000  0.61418300  0.39072700  1
  Cu  Cu23  1  0.75000000  0.38581700  0.60927300  1
  Cu  Cu24  1  0.25000000  0.04009400  0.64958200  1
  Cu  Cu25  1  0.75000000  0.95990600  0.35041800  1
  Cu  Cu26  1  0.25000000  0.54009400  0.85041800  1
  Cu  Cu27  1  0.75000000  0.45990600  0.14958200  1
