# generated using pymatgen
data_CuNi3C2
_symmetry_space_group_name_H-M   'P 1'
_cell_length_a   3.45780837
_cell_length_b   3.45780837
_cell_length_c   38.94991700
_cell_angle_alpha   90.00000000
_cell_angle_beta   90.00000000
_cell_angle_gamma   120.00000713
_symmetry_Int_Tables_number   1
_chemical_formula_structural   CuNi3C2
_chemical_formula_sum   'Cu2 Ni6 C4'
_cell_volume   403.30999053
_cell_formula_units_Z   2
loop_
 _symmetry_equiv_pos_site_id
 _symmetry_equiv_pos_as_xyz
  1  'x, y, z'
loop_
 _atom_site_type_symbol
 _atom_site_label
 _atom_site_symmetry_multiplicity
 _atom_site_fract_x
 _atom_site_fract_y
 _atom_site_fract_z
 _atom_site_occupancy
  Ni  Ni0  1  0.33333300  0.66666700  0.70539300  1
  Ni  Ni1  1  0.66666700  0.33333300  0.04609000  1
  Ni  Ni2  1  0.66666700  0.33333300  0.42205000  1
  Ni  Ni3  1  0.66666700  0.33333300  0.14153400  1
  Ni  Ni4  1  0.66666700  0.33333300  0.51696800  1
  Ni  Ni5  1  0.33333300  0.66666700  0.60998400  1
  C  C6  1  0.33333300  0.66666700  0.46951700  1
  C  C7  1  0.66666700  0.33333300  0.28189400  1
  C  C8  1  0.33333300  0.66666700  0.09378500  1
  C  C9  1  0.66666700  0.33333300  0.65772600  1
  Cu  Cu10  1  0.33333300  0.66666700  0.32011600  1
  Cu  Cu11  1  0.33333300  0.66666700  0.24369200  1
