# generated using pymatgen
data_Cu2NiC9
_symmetry_space_group_name_H-M   'P 1'
_cell_length_a   5.12191622
_cell_length_b   5.67213800
_cell_length_c   9.27605490
_cell_angle_alpha   89.99957436
_cell_angle_beta   91.47111537
_cell_angle_gamma   89.99919062
_symmetry_Int_Tables_number   1
_chemical_formula_structural   Cu2NiC9
_chemical_formula_sum   'Cu4 Ni2 C18'
_cell_volume   269.40112184
_cell_formula_units_Z   2
loop_
 _symmetry_equiv_pos_site_id
 _symmetry_equiv_pos_as_xyz
  1  'x, y, z'
loop_
 _atom_site_type_symbol
 _atom_site_label
 _atom_site_symmetry_multiplicity
 _atom_site_fract_x
 _atom_site_fract_y
 _atom_site_fract_z
 _atom_site_occupancy
  Ni  Ni0  1  0.25133000  0.65106500  0.74761800  1
  Ni  Ni1  1  0.75136400  0.34893600  0.24762700  1
  C  C2  1  0.24781700  0.65723900  0.24507800  1
  C  C3  1  0.74777700  0.34276000  0.74508100  1
  Cu  Cu4  1  0.24169200  0.16199600  0.99601400  1
  Cu  Cu5  1  0.74169600  0.83799700  0.49602600  1
  Cu  Cu6  1  0.74614400  0.82925100  0.00110800  1
  Cu  Cu7  1  0.24614500  0.17074200  0.50111900  1
  C  C8  1  0.37805700  0.39174500  0.12419900  1
  C  C9  1  0.12748000  0.39639500  0.36841000  1
  C  C10  1  0.62742500  0.60365400  0.86841100  1
  C  C11  1  0.87803300  0.60822800  0.62420200  1
  C  C12  1  0.43320400  0.88997600  0.60829400  1
  C  C13  1  0.08664000  0.88346800  0.89318100  1
  C  C14  1  0.58662200  0.11651600  0.39316700  1
  C  C15  1  0.93321000  0.11003100  0.10829700  1
  C  C16  1  0.93358800  0.63905200  0.14502100  1
  C  C17  1  0.56558300  0.64412600  0.36210700  1
  C  C18  1  0.06554400  0.35586100  0.86211100  1
  C  C19  1  0.43356200  0.36097400  0.64500900  1
  C  C20  1  0.41807700  0.88361800  0.11924000  1
  C  C21  1  0.57046300  0.11987500  0.88971600  1
  C  C22  1  0.07046400  0.88013700  0.38972100  1
  C  C23  1  0.91807800  0.11635800  0.61924300  1
