# generated using pymatgen
data_Cu18(NiC)5
_symmetry_space_group_name_H-M   'P 1'
_cell_length_a   7.05375898
_cell_length_b   7.05375898
_cell_length_c   34.54817709
_cell_angle_alpha   86.86073861
_cell_angle_beta   86.86073861
_cell_angle_gamma   93.67288088
_symmetry_Int_Tables_number   1
_chemical_formula_structural   Cu18(NiC)5
_chemical_formula_sum   'Cu36 Ni10 C10'
_cell_volume   1709.92619433
_cell_formula_units_Z   2
loop_
 _symmetry_equiv_pos_site_id
 _symmetry_equiv_pos_as_xyz
  1  'x, y, z'
loop_
 _atom_site_type_symbol
 _atom_site_label
 _atom_site_symmetry_multiplicity
 _atom_site_fract_x
 _atom_site_fract_y
 _atom_site_fract_z
 _atom_site_occupancy
  C  C0  1  0.71407200  0.52454700  0.86371000  1
  C  C1  1  0.52454700  0.71407200  0.36371000  1
  C  C2  1  0.21956400  0.00297500  0.56809700  1
  C  C3  1  0.00297500  0.21956400  0.06809700  1
  C  C4  1  0.33959900  0.06059900  0.75460900  1
  C  C5  1  0.06059900  0.33959900  0.25460900  1
  C  C6  1  0.64893800  0.47448600  0.65452400  1
  C  C7  1  0.47448600  0.64893800  0.15452400  1
  C  C8  1  0.46121900  0.87664400  0.96363600  1
  C  C9  1  0.87664400  0.46121900  0.46363600  1
  Ni  Ni10  1  0.84174900  0.35242300  0.73735300  1
  Ni  Ni11  1  0.35242300  0.84174900  0.23735300  1
  Ni  Ni12  1  0.19519500  0.56918900  0.67391600  1
  Ni  Ni13  1  0.56918900  0.19519500  0.17391600  1
  Ni  Ni14  1  0.73777900  0.44023600  0.55868000  1
  Ni  Ni15  1  0.44023600  0.73777900  0.05868000  1
  Ni  Ni16  1  0.24999100  0.81064000  0.88067000  1
  Ni  Ni17  1  0.81064000  0.24999100  0.38067000  1
  Ni  Ni18  1  0.92728400  0.99253500  0.94457100  1
  Ni  Ni19  1  0.99253500  0.92728400  0.44457100  1
  Cu  Cu20  1  0.11502400  0.51815000  0.73441200  1
  Cu  Cu21  1  0.51815000  0.11502400  0.23441200  1
  Cu  Cu22  1  0.84078200  0.20673600  0.78797000  1
  Cu  Cu23  1  0.20673600  0.84078200  0.28797000  1
  Cu  Cu24  1  0.82353900  0.19825400  0.68909700  1
  Cu  Cu25  1  0.19825400  0.82353900  0.18909700  1
  Cu  Cu26  1  0.29842600  0.32332700  0.65466500  1
  Cu  Cu27  1  0.32332700  0.29842600  0.15466500  1
  Cu  Cu28  1  0.41915700  0.76723700  0.66984200  1
  Cu  Cu29  1  0.76723700  0.41915700  0.16984200  1
  Cu  Cu30  1  0.73067400  0.22729900  0.60205500  1
  Cu  Cu31  1  0.22729900  0.73067400  0.10205500  1
  Cu  Cu32  1  0.00545900  0.50941800  0.53366200  1
  Cu  Cu33  1  0.50941800  0.00545900  0.03366200  1
  Cu  Cu34  1  0.48067500  0.99054400  0.88933300  1
  Cu  Cu35  1  0.99054400  0.48067500  0.38933300  1
  Cu  Cu36  1  0.64056300  0.54323700  0.72885700  1
  Cu  Cu37  1  0.54323700  0.64056300  0.22885700  1
  Cu  Cu38  1  0.72586400  0.18425300  0.94941100  1
  Cu  Cu39  1  0.18425300  0.72586400  0.44941100  1
  Cu  Cu40  1  0.58569200  0.36025400  0.51258400  1
  Cu  Cu41  1  0.36025400  0.58569200  0.01258400  1
  Cu  Cu42  1  0.24757100  0.62619100  0.92842400  1
  Cu  Cu43  1  0.62619100  0.24757100  0.42842400  1
  Cu  Cu44  1  0.79593100  0.73531300  0.96427400  1
  Cu  Cu45  1  0.73531300  0.79593100  0.46427400  1
  Cu  Cu46  1  0.08035200  0.15931600  0.47352700  1
  Cu  Cu47  1  0.15931600  0.08035200  0.97352700  1
  Cu  Cu48  1  0.62370000  0.65864000  0.58728600  1
  Cu  Cu49  1  0.65864000  0.62370000  0.08728600  1
  Cu  Cu50  1  0.97981800  0.67336300  0.64391100  1
  Cu  Cu51  1  0.67336300  0.97981800  0.14391100  1
  Cu  Cu52  1  0.00158100  0.97684500  0.88374800  1
  Cu  Cu53  1  0.97684500  0.00158100  0.38374800  1
  Cu  Cu54  1  0.23185300  0.69387700  0.82990800  1
  Cu  Cu55  1  0.69387700  0.23185300  0.32990800  1
