# generated using pymatgen
data_Cu5Ni2C3
_symmetry_space_group_name_H-M   'P 1'
_cell_length_a   9.48097700
_cell_length_b   9.50314958
_cell_length_c   12.65389862
_cell_angle_alpha   84.46159397
_cell_angle_beta   84.50367745
_cell_angle_gamma   82.38835939
_symmetry_Int_Tables_number   1
_chemical_formula_structural   Cu5Ni2C3
_chemical_formula_sum   'Cu20 Ni8 C12'
_cell_volume   1120.79666300
_cell_formula_units_Z   4
loop_
 _symmetry_equiv_pos_site_id
 _symmetry_equiv_pos_as_xyz
  1  'x, y, z'
loop_
 _atom_site_type_symbol
 _atom_site_label
 _atom_site_symmetry_multiplicity
 _atom_site_fract_x
 _atom_site_fract_y
 _atom_site_fract_z
 _atom_site_occupancy
  C  C0  1  0.01441400  0.00747900  0.85170100  1
  C  C1  1  0.08604900  0.16499000  0.99558800  1
  C  C2  1  0.17926600  0.89232900  0.00096300  1
  C  C3  1  0.31771000  0.52100000  0.57142800  1
  C  C4  1  0.42883600  0.43879500  0.38212300  1
  C  C5  1  0.47124000  0.68694600  0.44156300  1
  C  C6  1  0.53155100  0.31065600  0.55966500  1
  C  C7  1  0.57368100  0.55895100  0.61839400  1
  C  C8  1  0.68415200  0.47697200  0.42949300  1
  C  C9  1  0.82019200  0.10534300  0.00096700  1
  C  C10  1  0.91494700  0.83277100  0.00635700  1
  C  C11  1  0.98624800  0.98960900  0.14927300  1
  Ni  Ni12  1  0.24151400  0.05075500  0.13768000  1
  Ni  Ni13  1  0.10363700  0.74752100  0.86080500  1
  Ni  Ni14  1  0.36461200  0.75698400  0.62465800  1
  Ni  Ni15  1  0.42252600  0.40070900  0.73640200  1
  Ni  Ni16  1  0.57621900  0.59940000  0.26261300  1
  Ni  Ni17  1  0.63322600  0.24296100  0.37502100  1
  Ni  Ni18  1  0.72956100  0.93590000  0.14813500  1
  Ni  Ni19  1  0.77403900  0.35355900  0.60156900  1
  Cu  Cu20  1  0.02900900  0.02756500  0.66706500  1
  Cu  Cu21  1  0.07510400  0.73417300  0.14503600  1
  Cu  Cu22  1  0.07966800  0.54326300  0.64972200  1
  Cu  Cu23  1  0.23263300  0.64877400  0.39895200  1
  Cu  Cu24  1  0.18771100  0.37570500  0.98329600  1
  Cu  Cu25  1  0.28407900  0.28250300  0.51079100  1
  Cu  Cu26  1  0.26084700  0.06411200  0.85527800  1
  Cu  Cu27  1  0.32297600  0.36671600  0.23851200  1
  Cu  Cu28  1  0.40389100  0.75745000  0.00202500  1
  Cu  Cu29  1  0.43253400  0.92785100  0.36614800  1
  Cu  Cu30  1  0.56348100  0.06914800  0.63552000  1
  Cu  Cu31  1  0.59890800  0.24287000  0.99570400  1
  Cu  Cu32  1  0.67487200  0.63928000  0.76263600  1
  Cu  Cu33  1  0.71005100  0.72117000  0.48603500  1
  Cu  Cu34  1  0.81078200  0.62230200  0.01576700  1
  Cu  Cu35  1  0.89924900  0.24633700  0.13394400  1
  Cu  Cu36  1  0.76607800  0.95219500  0.86584400  1
  Cu  Cu37  1  0.92175700  0.45771300  0.34441200  1
  Cu  Cu38  1  0.92277300  0.27126800  0.85341200  1
  Cu  Cu39  1  0.96997700  0.97597200  0.33550200  1
