# generated using pymatgen
data_Cu3NiC36
_symmetry_space_group_name_H-M   'P 1'
_cell_length_a   8.68540200
_cell_length_b   8.69567846
_cell_length_c   15.13626564
_cell_angle_alpha   73.40965982
_cell_angle_beta   74.17250423
_cell_angle_gamma   61.62674655
_symmetry_Int_Tables_number   1
_chemical_formula_structural   Cu3NiC36
_chemical_formula_sum   'Cu6 Ni2 C72'
_cell_volume   951.15399898
_cell_formula_units_Z   2
loop_
 _symmetry_equiv_pos_site_id
 _symmetry_equiv_pos_as_xyz
  1  'x, y, z'
loop_
 _atom_site_type_symbol
 _atom_site_label
 _atom_site_symmetry_multiplicity
 _atom_site_fract_x
 _atom_site_fract_y
 _atom_site_fract_z
 _atom_site_occupancy
  C  C0  1  0.29747200  0.43539900  0.32182200  1
  C  C1  1  0.18389900  0.16045300  0.55372800  1
  C  C2  1  0.68204100  0.66795800  0.05070600  1
  C  C3  1  0.16660400  0.06627000  0.18850200  1
  C  C4  1  0.21269400  0.84966100  0.82766900  1
  C  C5  1  0.71332000  0.35006100  0.32850400  1
  C  C6  1  0.26831000  0.58002600  0.63261800  1
  C  C7  1  0.76593000  0.08414900  0.13273600  1
  C  C8  1  0.79952800  0.92975400  0.82123000  1
  C  C9  1  0.67482700  0.56288700  0.68838300  1
  C  C10  1  0.35996100  0.19888200  0.97809200  1
  C  C11  1  0.86237400  0.69996300  0.47989600  1
  Ni  Ni12  1  0.78636200  0.28123600  0.57383700  1
  Ni  Ni13  1  0.47763200  0.96143900  0.67596800  1
  Cu  Cu14  1  0.28604100  0.78373600  0.07340200  1
  Cu  Cu15  1  0.03181900  0.53426700  0.82082000  1
  Cu  Cu16  1  0.53379900  0.03988800  0.32004900  1
  Cu  Cu17  1  0.21659400  0.72080100  0.42456000  1
  Cu  Cu18  1  0.97235000  0.46109200  0.17924600  1
  Cu  Cu19  1  0.71596500  0.21476400  0.92358300  1
  C  C20  1  0.01306200  0.21680500  0.73553500  1
  C  C21  1  0.51666500  0.71934900  0.23667600  1
  C  C22  1  0.02272400  0.22744100  0.02300900  1
  C  C23  1  0.09830100  0.16652700  0.37543000  1
  C  C24  1  0.40389500  0.33114000  0.12404600  1
  C  C25  1  0.47694700  0.28006000  0.47640300  1
  C  C26  1  0.52179300  0.73847700  0.52412900  1
  C  C27  1  0.59710000  0.66255100  0.87575900  1
  C  C28  1  0.90685100  0.82436000  0.62617500  1
  C  C29  1  0.97466500  0.77444200  0.97701400  1
  C  C30  1  0.48675700  0.27263900  0.76090900  1
  C  C31  1  0.98722700  0.77830100  0.26251900  1
  C  C32  1  0.02237400  0.60278500  0.23840500  1
  C  C33  1  0.46506200  0.78078800  0.13746800  1
  C  C34  1  0.39923900  0.63651700  0.30930400  1
  C  C35  1  0.00708000  0.21153800  0.47375700  1
  C  C36  1  0.30104500  0.45218900  0.46666100  1
  C  C37  1  0.35725500  0.52394500  0.12281500  1
  C  C38  1  0.23529300  0.29832600  0.14566200  1
  C  C39  1  0.26504700  0.20227400  0.35237800  1
  C  C40  1  0.20336200  0.06711100  0.72638900  1
  C  C41  1  0.70709400  0.56610900  0.22973700  1
  C  C42  1  0.20602700  0.06257200  0.03480000  1
  C  C43  1  0.15222000  0.97264000  0.36999800  1
  C  C44  1  0.10859100  0.85933000  0.19091200  1
  C  C45  1  0.01344300  0.75999700  0.53270000  1
  C  C46  1  0.11836900  0.81254500  0.99532100  1
  C  C47  1  0.42413900  0.14632800  0.55297500  1
  C  C48  1  0.50884900  0.26229500  0.03168200  1
  C  C49  1  0.03056600  0.70589500  0.70089500  1
  C  C50  1  0.05229400  0.71411300  0.87962300  1
  C  C51  1  0.62548400  0.31296500  0.49450300  1
  C  C52  1  0.92611200  0.63741000  0.05473700  1
  C  C53  1  0.02969300  0.72491700  0.36314500  1
  C  C54  1  0.52682900  0.21623500  0.19932500  1
  C  C55  1  0.55273600  0.22234700  0.37831600  1
  C  C56  1  0.52423800  0.09476900  0.73772000  1
  C  C57  1  0.49729800  0.88439900  0.26353200  1
  C  C58  1  0.43503700  0.81467700  0.61779200  1
  C  C59  1  0.94485500  0.29627700  0.11714100  1
  C  C60  1  0.95717800  0.28248400  0.63600400  1
  C  C61  1  0.46859200  0.77547600  0.80438100  1
  C  C62  1  0.07034800  0.36057300  0.94183300  1
  C  C63  1  0.38159200  0.68958200  0.51100300  1
  C  C64  1  0.97092600  0.28170000  0.30281400  1
  C  C65  1  0.56668800  0.87199000  0.44229800  1
  C  C66  1  0.88262300  0.18038900  0.00778400  1
  C  C67  1  0.89680800  0.13215900  0.80804600  1
  C  C68  1  0.50743100  0.70885800  0.97404800  1
  C  C69  1  0.79606200  0.94354300  0.96723700  1
  C  C70  1  0.86024400  0.01508000  0.62670300  1
  C  C71  1  0.29605200  0.41602600  0.75779900  1
  C  C72  1  0.79712700  0.92478500  0.25789700  1
  C  C73  1  0.74007600  0.78875800  0.64565700  1
  C  C74  1  0.76445400  0.69854100  0.85231600  1
  C  C75  1  0.70204700  0.57641800  0.53899000  1
  C  C76  1  0.65398500  0.46714000  0.87169700  1
  C  C77  1  0.60491800  0.35765800  0.68895300  1
  C  C78  1  0.53183900  0.21793400  0.86121300  1
  C  C79  1  0.99087000  0.38366100  0.76168100  1
