# generated using pymatgen
data_CuNiC8
_symmetry_space_group_name_H-M   'P 1'
_cell_length_a   5.26655878
_cell_length_b   7.98431164
_cell_length_c   5.30538960
_cell_angle_alpha   88.36713515
_cell_angle_beta   90.06171702
_cell_angle_gamma   89.99395221
_symmetry_Int_Tables_number   1
_chemical_formula_structural   CuNiC8
_chemical_formula_sum   'Cu2 Ni2 C16'
_cell_volume   223.00009746
_cell_formula_units_Z   2
loop_
 _symmetry_equiv_pos_site_id
 _symmetry_equiv_pos_as_xyz
  1  'x, y, z'
loop_
 _atom_site_type_symbol
 _atom_site_label
 _atom_site_symmetry_multiplicity
 _atom_site_fract_x
 _atom_site_fract_y
 _atom_site_fract_z
 _atom_site_occupancy
  C  C0  1  0.02124900  0.26145400  0.01660100  1
  C  C1  1  0.52145300  0.23858100  0.48348700  1
  C  C2  1  0.97875300  0.73854500  0.98340100  1
  C  C3  1  0.47854600  0.76141800  0.51651200  1
  Ni  Ni4  1  0.50000000  0.50001500  0.99999200  1
  Ni  Ni5  1  0.99999700  0.99999500  0.50000400  1
  Cu  Cu6  1  0.00000200  0.49999800  0.50000000  1
  Cu  Cu7  1  0.49999800  0.00000300  0.00000100  1
  C  C8  1  0.31018500  0.41273300  0.64638000  1
  C  C9  1  0.80977600  0.08737000  0.85387700  1
  C  C10  1  0.68981400  0.58726700  0.35362000  1
  C  C11  1  0.19022500  0.91262800  0.14612400  1
  C  C12  1  0.16738600  0.55065800  0.17925400  1
  C  C13  1  0.66748800  0.94935600  0.32116000  1
  C  C14  1  0.83261500  0.44934100  0.82074600  1
  C  C15  1  0.33251100  0.05064100  0.67884200  1
  C  C16  1  0.39729700  0.22718500  0.11547900  1
  C  C17  1  0.89740800  0.27279200  0.38451800  1
  C  C18  1  0.10259200  0.72720800  0.61548400  1
  C  C19  1  0.60270400  0.77281100  0.88452000  1
