# generated using pymatgen
data_Cu3Ni5C32
_symmetry_space_group_name_H-M   'P 1'
_cell_length_a   7.84144100
_cell_length_b   7.84144100
_cell_length_c   7.84139500
_cell_angle_alpha   90.00000000
_cell_angle_beta   90.00000000
_cell_angle_gamma   90.00000000
_symmetry_Int_Tables_number   1
_chemical_formula_structural   Cu3Ni5C32
_chemical_formula_sum   'Cu3 Ni5 C32'
_cell_volume   482.15324017
_cell_formula_units_Z   1
loop_
 _symmetry_equiv_pos_site_id
 _symmetry_equiv_pos_as_xyz
  1  'x, y, z'
loop_
 _atom_site_type_symbol
 _atom_site_label
 _atom_site_symmetry_multiplicity
 _atom_site_fract_x
 _atom_site_fract_y
 _atom_site_fract_z
 _atom_site_occupancy
  Ni  Ni0  1  0.00000000  0.50000000  0.00000000  1
  Ni  Ni1  1  0.50000000  0.50000000  0.00000000  1
  Ni  Ni2  1  0.00000000  0.00000000  0.00000000  1
  Ni  Ni3  1  0.50000000  0.00000000  0.00000000  1
  Ni  Ni4  1  0.00000000  0.00000000  0.50000000  1
  Cu  Cu5  1  0.00000000  0.50000000  0.50000000  1
  Cu  Cu6  1  0.50000000  0.50000000  0.50000000  1
  Cu  Cu7  1  0.50000000  0.00000000  0.50000000  1
  C  C8  1  0.74979000  0.25021000  0.74935200  1
  C  C9  1  0.25021000  0.25021000  0.74935200  1
  C  C10  1  0.74979000  0.74979000  0.74935200  1
  C  C11  1  0.25021000  0.74979000  0.74935200  1
  C  C12  1  0.74979000  0.25021000  0.25064800  1
  C  C13  1  0.25021000  0.25021000  0.25064800  1
  C  C14  1  0.74979000  0.74979000  0.25064800  1
  C  C15  1  0.25021000  0.74979000  0.25064800  1
  C  C16  1  0.74998300  0.25001700  0.00000000  1
  C  C17  1  0.25001700  0.25001700  0.00000000  1
  C  C18  1  0.74998300  0.74998300  0.00000000  1
  C  C19  1  0.25001700  0.74998300  0.00000000  1
  C  C20  1  0.74890900  0.25109100  0.50000000  1
  C  C21  1  0.25109100  0.25109100  0.50000000  1
  C  C22  1  0.74890900  0.74890900  0.50000000  1
  C  C23  1  0.25109100  0.74890900  0.50000000  1
  C  C24  1  0.74997800  0.50000000  0.74779600  1
  C  C25  1  0.25002200  0.50000000  0.74779600  1
  C  C26  1  0.74889500  0.00000000  0.74887000  1
  C  C27  1  0.25110500  0.00000000  0.74887000  1
  C  C28  1  0.74997800  0.50000000  0.25220400  1
  C  C29  1  0.25002200  0.50000000  0.25220400  1
  C  C30  1  0.74889500  0.00000000  0.25113000  1
  C  C31  1  0.25110500  0.00000000  0.25113000  1
  C  C32  1  0.00000000  0.25110500  0.74887000  1
  C  C33  1  0.50000000  0.25002200  0.74779600  1
  C  C34  1  0.00000000  0.74889500  0.74887000  1
  C  C35  1  0.50000000  0.74997800  0.74779600  1
  C  C36  1  0.00000000  0.25110500  0.25113000  1
  C  C37  1  0.50000000  0.25002200  0.25220400  1
  C  C38  1  0.00000000  0.74889500  0.25113000  1
  C  C39  1  0.50000000  0.74997800  0.25220400  1
