# generated using pymatgen
data_Cu3NiC20
_symmetry_space_group_name_H-M   'P 1'
_cell_length_a   7.24798200
_cell_length_b   12.98214247
_cell_length_c   14.47143581
_cell_angle_alpha   98.46661856
_cell_angle_beta   92.63627446
_cell_angle_gamma   105.73506713
_symmetry_Int_Tables_number   1
_chemical_formula_structural   Cu3NiC20
_chemical_formula_sum   'Cu6 Ni2 C40'
_cell_volume   1291.07814239
_cell_formula_units_Z   2
loop_
 _symmetry_equiv_pos_site_id
 _symmetry_equiv_pos_as_xyz
  1  'x, y, z'
loop_
 _atom_site_type_symbol
 _atom_site_label
 _atom_site_symmetry_multiplicity
 _atom_site_fract_x
 _atom_site_fract_y
 _atom_site_fract_z
 _atom_site_occupancy
  C  C0  1  0.24825700  0.80955400  0.72872400  1
  C  C1  1  0.75174300  0.19044600  0.27127600  1
  C  C2  1  0.34794300  0.55827700  0.70642000  1
  C  C3  1  0.65205700  0.44172300  0.29358000  1
  C  C4  1  0.39717500  0.71898100  0.92932000  1
  C  C5  1  0.60282500  0.28101900  0.07068000  1
  C  C6  1  0.94533400  0.60381400  0.62081900  1
  C  C7  1  0.05466600  0.39618600  0.37918100  1
  C  C8  1  0.17860000  0.47194700  0.90374600  1
  C  C9  1  0.82140000  0.52805300  0.09625400  1
  C  C10  1  0.06392700  0.83298800  0.94342800  1
  C  C11  1  0.93607200  0.16701200  0.05657200  1
  C  C12  1  0.95640700  0.19445800  0.63596100  1
  C  C13  1  0.04359300  0.80554200  0.36403900  1
  C  C14  1  0.75540800  0.07106000  0.63172600  1
  C  C15  1  0.24459200  0.92894000  0.36827400  1
  C  C16  1  0.91324200  0.12239700  0.70734700  1
  C  C17  1  0.08675800  0.87760300  0.29265300  1
  C  C18  1  0.75735700  0.16969000  0.59042200  1
  C  C19  1  0.24264300  0.83031000  0.40957800  1
  C  C20  1  0.42909600  0.72408600  0.60427800  1
  C  C21  1  0.57090400  0.27591400  0.39572200  1
  C  C22  1  0.51668900  0.90535500  0.86797600  1
  C  C23  1  0.48331100  0.09464500  0.13202400  1
  C  C24  1  0.63211700  0.61295900  0.86037500  1
  C  C25  1  0.36788300  0.38704100  0.13962500  1
  Ni  Ni26  1  0.76447600  0.18972900  0.69854800  1
  Ni  Ni27  1  0.23552400  0.81027100  0.30145200  1
  Cu  Cu28  1  0.20759500  0.96490000  0.67261800  1
  Cu  Cu29  1  0.79240500  0.03510000  0.32738200  1
  Cu  Cu30  1  0.42962000  0.41153000  0.60914700  1
  Cu  Cu31  1  0.57038000  0.58847000  0.39085300  1
  Cu  Cu32  1  0.56194200  0.76447000  0.08408900  1
  Cu  Cu33  1  0.43805800  0.23553000  0.91591100  1
  C  C34  1  0.95512100  0.69736100  0.64076100  1
  C  C35  1  0.04487900  0.30263900  0.35923900  1
  C  C36  1  0.93968100  0.51235500  0.60263400  1
  C  C37  1  0.06031900  0.48764500  0.39736600  1
  C  C38  1  0.13886900  0.39903700  0.84187500  1
  C  C39  1  0.86113100  0.60096300  0.15812500  1
  C  C40  1  0.21723400  0.54677200  0.96649300  1
  C  C41  1  0.78276600  0.45322800  0.03350700  1
  C  C42  1  0.13439100  0.78685200  0.99361000  1
  C  C43  1  0.86560900  0.21314800  0.00639000  1
  C  C44  1  0.99883300  0.87859100  0.89240300  1
  C  C45  1  0.00116700  0.12140900  0.10759700  1
  C  C46  1  0.23205100  0.67365100  0.79808500  1
  C  C47  1  0.76794900  0.32634900  0.20191500  1
