# generated using pymatgen
data_Cu(NiC5)2
_symmetry_space_group_name_H-M   'P 1'
_cell_length_a   6.28079400
_cell_length_b   7.16509265
_cell_length_c   9.60896235
_cell_angle_alpha   81.76450128
_cell_angle_beta   70.92415006
_cell_angle_gamma   64.00509680
_symmetry_Int_Tables_number   1
_chemical_formula_structural   Cu(NiC5)2
_chemical_formula_sum   'Cu2 Ni4 C20'
_cell_volume   367.33605185
_cell_formula_units_Z   2
loop_
 _symmetry_equiv_pos_site_id
 _symmetry_equiv_pos_as_xyz
  1  'x, y, z'
loop_
 _atom_site_type_symbol
 _atom_site_label
 _atom_site_symmetry_multiplicity
 _atom_site_fract_x
 _atom_site_fract_y
 _atom_site_fract_z
 _atom_site_occupancy
  C  C0  1  0.10356800  0.32775900  0.17049400  1
  C  C1  1  0.60182100  0.67224100  0.82950600  1
  C  C2  1  0.18132700  0.17224100  0.67049400  1
  C  C3  1  0.02406200  0.82775900  0.32950600  1
  C  C4  1  0.32395800  0.41028100  0.03782600  1
  C  C5  1  0.77206500  0.58971900  0.96217400  1
  C  C6  1  0.48423900  0.08971900  0.53782600  1
  C  C7  1  0.11178300  0.91028100  0.46217400  1
  C  C8  1  0.21908000  0.24269300  0.98263700  1
  C  C9  1  0.44441000  0.75730700  0.01736300  1
  C  C10  1  0.21177300  0.25730700  0.48263700  1
  C  C11  1  0.95171800  0.74269300  0.51736300  1
  Ni  Ni12  1  0.26330100  0.28448000  0.07194800  1
  Ni  Ni13  1  0.61972900  0.71552000  0.92805200  1
  Ni  Ni14  1  0.29778100  0.21552000  0.57194800  1
  Ni  Ni15  1  0.08524900  0.78448000  0.42805200  1
  Cu  Cu16  1  0.72226300  0.00000000  0.00000000  1
  Cu  Cu17  1  0.47226300  0.50000000  0.50000000  1
  C  C18  1  0.79617000  0.15605100  0.91767600  1
  C  C19  1  0.86989600  0.84394900  0.08232400  1
  C  C20  1  0.70222100  0.34394900  0.41767600  1
  C  C21  1  0.46384600  0.65605100  0.58232400  1
  C  C22  1  0.45551700  0.10290300  0.11700100  1
  C  C23  1  0.67542100  0.89709700  0.88299900  1
  C  C24  1  0.30841900  0.39709700  0.61700100  1
  C  C25  1  0.32251800  0.60290300  0.38299900  1
