# generated using pymatgen
data_Cu3NiC8
_symmetry_space_group_name_H-M   'P 1'
_cell_length_a   3.34474736
_cell_length_b   3.34474736
_cell_length_c   38.10734300
_cell_angle_alpha   90.00000000
_cell_angle_beta   90.00000000
_cell_angle_gamma   119.99998737
_symmetry_Int_Tables_number   1
_chemical_formula_structural   Cu3NiC8
_chemical_formula_sum   'Cu3 Ni1 C8'
_cell_volume   369.20365830
_cell_formula_units_Z   1
loop_
 _symmetry_equiv_pos_site_id
 _symmetry_equiv_pos_as_xyz
  1  'x, y, z'
loop_
 _atom_site_type_symbol
 _atom_site_label
 _atom_site_symmetry_multiplicity
 _atom_site_fract_x
 _atom_site_fract_y
 _atom_site_fract_z
 _atom_site_occupancy
  C  C0  1  0.66666700  0.33333300  0.41954900  1
  C  C1  1  0.66666700  0.33333300  0.51969300  1
  Ni  Ni2  1  0.66666700  0.33333300  0.28178800  1
  Cu  Cu3  1  0.33333300  0.66666700  0.09391700  1
  Cu  Cu4  1  0.33333300  0.66666700  0.46962700  1
  Cu  Cu5  1  0.66666700  0.33333300  0.65758600  1
  C  C6  1  0.33333300  0.66666700  0.70148900  1
  C  C7  1  0.66666700  0.33333300  0.05000600  1
  C  C8  1  0.66666700  0.33333300  0.13784400  1
  C  C9  1  0.33333300  0.66666700  0.61365800  1
  C  C10  1  0.33333300  0.66666700  0.32160900  1
  C  C11  1  0.33333300  0.66666700  0.24198200  1
