# generated using pymatgen
data_CuNi3C16
_symmetry_space_group_name_H-M   'P 1'
_cell_length_a   9.87996803
_cell_length_b   9.87996803
_cell_length_c   9.87996753
_cell_angle_alpha   33.55683996
_cell_angle_beta   33.55683996
_cell_angle_gamma   33.55683611
_symmetry_Int_Tables_number   1
_chemical_formula_structural   CuNi3C16
_chemical_formula_sum   'Cu1 Ni3 C16'
_cell_volume   262.47540132
_cell_formula_units_Z   1
loop_
 _symmetry_equiv_pos_site_id
 _symmetry_equiv_pos_as_xyz
  1  'x, y, z'
loop_
 _atom_site_type_symbol
 _atom_site_label
 _atom_site_symmetry_multiplicity
 _atom_site_fract_x
 _atom_site_fract_y
 _atom_site_fract_z
 _atom_site_occupancy
  C  C0  1  0.37501400  0.37501400  0.37501400  1
  C  C1  1  0.12501400  0.12501400  0.12501400  1
  C  C2  1  0.87498600  0.87498600  0.87498600  1
  C  C3  1  0.62498600  0.62498600  0.62498600  1
  Ni  Ni4  1  0.25018500  0.25018500  0.25018500  1
  Ni  Ni5  1  0.00000000  0.00000000  0.00000000  1
  Ni  Ni6  1  0.74981500  0.74981500  0.74981500  1
  Cu  Cu7  1  0.50000000  0.50000000  0.50000000  1
  C  C8  1  0.12492900  0.62520600  0.12492900  1
  C  C9  1  0.87507100  0.37479400  0.87507100  1
  C  C10  1  0.62555500  0.12334400  0.62555500  1
  C  C11  1  0.37444500  0.87665600  0.37444500  1
  C  C12  1  0.87507100  0.87507100  0.37479400  1
  C  C13  1  0.62555500  0.62555500  0.12334400  1
  C  C14  1  0.37444500  0.37444500  0.87665600  1
  C  C15  1  0.12492900  0.12492900  0.62520600  1
  C  C16  1  0.37479400  0.87507100  0.87507100  1
  C  C17  1  0.12334400  0.62555500  0.62555500  1
  C  C18  1  0.87665600  0.37444500  0.37444500  1
  C  C19  1  0.62520600  0.12492900  0.12492900  1
