# generated using pymatgen
data_Cu3Ni2C11
_symmetry_space_group_name_H-M   'P 1'
_cell_length_a   10.75819725
_cell_length_b   10.75819725
_cell_length_c   10.75819725
_cell_angle_alpha   113.89563647
_cell_angle_beta   113.89563647
_cell_angle_gamma   100.94438557
_symmetry_Int_Tables_number   1
_chemical_formula_structural   Cu3Ni2C11
_chemical_formula_sum   'Cu12 Ni8 C44'
_cell_volume   942.92908929
_cell_formula_units_Z   4
loop_
 _symmetry_equiv_pos_site_id
 _symmetry_equiv_pos_as_xyz
  1  'x, y, z'
loop_
 _atom_site_type_symbol
 _atom_site_label
 _atom_site_symmetry_multiplicity
 _atom_site_fract_x
 _atom_site_fract_y
 _atom_site_fract_z
 _atom_site_occupancy
  C  C0  1  0.42219800  0.92219800  0.84439500  1
  C  C1  1  0.67219800  0.32780200  0.00000000  1
  C  C2  1  0.32780200  0.67219800  0.00000000  1
  C  C3  1  0.07780200  0.57780200  0.15560500  1
  C  C4  1  0.32780200  0.32780200  0.65560500  1
  C  C5  1  0.07780200  0.92219800  0.50000000  1
  C  C6  1  0.42219800  0.57780200  0.50000000  1
  C  C7  1  0.67219800  0.67219800  0.34439500  1
  C  C8  1  0.03338400  0.79766200  0.76427800  1
  C  C9  1  0.03338400  0.26910600  0.23572200  1
  C  C10  1  0.20233800  0.96661600  0.23572200  1
  C  C11  1  0.01910600  0.28338400  0.73572200  1
  C  C12  1  0.54766200  0.28338400  0.26427800  1
  C  C13  1  0.71661600  0.98089400  0.26427800  1
  C  C14  1  0.71661600  0.45233800  0.73572200  1
  C  C15  1  0.73089400  0.96661600  0.76427800  1
  Ni  Ni16  1  0.27895200  0.40400800  0.12505500  1
  Ni  Ni17  1  0.27895200  0.15389700  0.87494500  1
  Ni  Ni18  1  0.59599200  0.72104800  0.87494500  1
  Ni  Ni19  1  0.90389700  0.52895200  0.37494500  1
  Ni  Ni20  1  0.15400800  0.52895200  0.62505500  1
  Ni  Ni21  1  0.47104800  0.09610300  0.62505500  1
  Ni  Ni22  1  0.47104800  0.84599200  0.37494500  1
  Ni  Ni23  1  0.84610300  0.72104800  0.12505500  1
  Cu  Cu24  1  0.50000000  0.50000000  0.00000000  1
  Cu  Cu25  1  0.25000000  0.75000000  0.50000000  1
  Cu  Cu26  1  0.75000000  0.25000000  0.50000000  1
  Cu  Cu27  1  0.00000000  0.00000000  0.00000000  1
  Cu  Cu28  1  0.87500000  0.97873300  0.60373300  1
  Cu  Cu29  1  0.72873300  0.62500000  0.60373300  1
  Cu  Cu30  1  0.02126700  0.12500000  0.39626700  1
  Cu  Cu31  1  0.37500000  0.27126700  0.39626700  1
  Cu  Cu32  1  0.87500000  0.27126700  0.89626700  1
  Cu  Cu33  1  0.02126700  0.62500000  0.89626700  1
  Cu  Cu34  1  0.72873300  0.12500000  0.10373300  1
  Cu  Cu35  1  0.37500000  0.97873300  0.10373300  1
  C  C36  1  0.77430000  0.77430000  0.00000000  1
  C  C37  1  0.52430000  0.02430000  0.50000000  1
  C  C38  1  0.97570000  0.47570000  0.50000000  1
  C  C39  1  0.22570000  0.22570000  0.00000000  1
  C  C40  1  0.20082400  0.96826700  0.76744300  1
  C  C41  1  0.20082400  0.43338200  0.23255700  1
  C  C42  1  0.03173300  0.79917600  0.23255700  1
  C  C43  1  0.18338200  0.45082400  0.73255700  1
  C  C44  1  0.71826700  0.45082400  0.26744300  1
  C  C45  1  0.54917600  0.81661800  0.26744300  1
  C  C46  1  0.54917600  0.28173300  0.73255700  1
  C  C47  1  0.56661800  0.79917600  0.76744300  1
  C  C48  1  0.29328200  0.05793500  0.51792000  1
  C  C49  1  0.54001500  0.77536200  0.48208000  1
  C  C50  1  0.94206500  0.70671800  0.48208000  1
  C  C51  1  0.52536200  0.54328200  0.73534700  1
  C  C52  1  0.80793500  0.79001500  0.26465300  1
  C  C53  1  0.45671800  0.47463800  0.26465300  1
  C  C54  1  0.20998500  0.19206500  0.73534700  1
  C  C55  1  0.22463800  0.45998500  0.51792000  1
  C  C56  1  0.45671800  0.19206500  0.98208000  1
  C  C57  1  0.20998500  0.47463800  0.01792000  1
  C  C58  1  0.80793500  0.54328200  0.01792000  1
  C  C59  1  0.22463800  0.70671800  0.76465300  1
  C  C60  1  0.94206500  0.45998500  0.23534700  1
  C  C61  1  0.29328200  0.77536200  0.23534700  1
  C  C62  1  0.54001500  0.05793500  0.76465300  1
  C  C63  1  0.52536200  0.79001500  0.98208000  1
