# generated using pymatgen
data_CuNiC8
_symmetry_space_group_name_H-M   'P 1'
_cell_length_a   5.22209697
_cell_length_b   5.22837503
_cell_length_c   7.72076656
_cell_angle_alpha   90.00238706
_cell_angle_beta   90.22850544
_cell_angle_gamma   90.01262827
_symmetry_Int_Tables_number   1
_chemical_formula_structural   CuNiC8
_chemical_formula_sum   'Cu2 Ni2 C16'
_cell_volume   210.79903629
_cell_formula_units_Z   2
loop_
 _symmetry_equiv_pos_site_id
 _symmetry_equiv_pos_as_xyz
  1  'x, y, z'
loop_
 _atom_site_type_symbol
 _atom_site_label
 _atom_site_symmetry_multiplicity
 _atom_site_fract_x
 _atom_site_fract_y
 _atom_site_fract_z
 _atom_site_occupancy
  C  C0  1  0.99191200  0.96754900  0.24634400  1
  C  C1  1  0.50798600  0.46733400  0.25365700  1
  C  C2  1  0.49200800  0.53266800  0.74634500  1
  C  C3  1  0.00809600  0.03245300  0.75365700  1
  Ni  Ni4  1  0.00000300  0.49998700  0.00000100  1
  Ni  Ni5  1  0.50001900  0.99999600  0.49996800  1
  Cu  Cu6  1  0.99999300  0.50000200  0.50000400  1
  Cu  Cu7  1  0.50000900  0.00000000  0.99999500  1
  C  C8  1  0.11800000  0.41433600  0.74369500  1
  C  C9  1  0.17612400  0.17408200  0.06195600  1
  C  C10  1  0.16867500  0.17947500  0.43091800  1
  C  C11  1  0.33141800  0.67936000  0.06911300  1
  C  C12  1  0.32388300  0.67420700  0.43814800  1
  C  C13  1  0.38199500  0.91432900  0.75622700  1
  C  C14  1  0.61800600  0.08567200  0.24377600  1
  C  C15  1  0.67612100  0.32579200  0.56185300  1
  C  C16  1  0.66856600  0.32063900  0.93089500  1
  C  C17  1  0.82386100  0.82593300  0.93805200  1
  C  C18  1  0.83133100  0.82051800  0.56908500  1
  C  C19  1  0.88199400  0.58566800  0.25630900  1
