# generated using pymatgen
data_Cu3Ni2
_symmetry_space_group_name_H-M   'P 1'
_cell_length_a   5.99284199
_cell_length_b   5.99284199
_cell_length_c   17.81354383
_cell_angle_alpha   88.24560397
_cell_angle_beta   88.24560397
_cell_angle_gamma   34.76753498
_symmetry_Int_Tables_number   1
_chemical_formula_structural   Cu3Ni2
_chemical_formula_sum   'Cu12 Ni8'
_cell_volume   364.63328179
_cell_formula_units_Z   4
loop_
 _symmetry_equiv_pos_site_id
 _symmetry_equiv_pos_as_xyz
  1  'x, y, z'
loop_
 _atom_site_type_symbol
 _atom_site_label
 _atom_site_symmetry_multiplicity
 _atom_site_fract_x
 _atom_site_fract_y
 _atom_site_fract_z
 _atom_site_occupancy
  Ni  Ni0  1  0.97903500  0.97903500  0.80150100  1
  Ni  Ni1  1  0.02096500  0.02096500  0.19849900  1
  Ni  Ni2  1  0.34079900  0.34079900  0.94845600  1
  Ni  Ni3  1  0.65920100  0.65920100  0.05154400  1
  Ni  Ni4  1  0.32984400  0.32984400  0.29611800  1
  Ni  Ni5  1  0.67015600  0.67015600  0.70388200  1
  Ni  Ni6  1  0.18196300  0.18196300  0.44456000  1
  Ni  Ni7  1  0.81803700  0.81803700  0.55544000  1
  Cu  Cu8  1  0.07303400  0.07303400  0.94837500  1
  Cu  Cu9  1  0.92696600  0.92696600  0.05162500  1
  Cu  Cu10  1  0.65316600  0.65316600  0.85933300  1
  Cu  Cu11  1  0.34683400  0.34683400  0.14066700  1
  Cu  Cu12  1  0.63373600  0.63373600  0.32285300  1
  Cu  Cu13  1  0.36626400  0.36626400  0.67714700  1
  Cu  Cu14  1  0.42672000  0.42672000  0.45012000  1
  Cu  Cu15  1  0.57328000  0.57328000  0.54988000  1
  Cu  Cu16  1  0.98582900  0.98582900  0.35756300  1
  Cu  Cu17  1  0.01417100  0.01417100  0.64243700  1
  Cu  Cu18  1  0.28362300  0.28362300  0.80519400  1
  Cu  Cu19  1  0.71637700  0.71637700  0.19480600  1
