# generated using pymatgen
data_Cu5NiC3
_symmetry_space_group_name_H-M   'P 1'
_cell_length_a   5.45177200
_cell_length_b   13.18105400
_cell_length_c   13.18105400
_cell_angle_alpha   90.00000000
_cell_angle_beta   90.00000000
_cell_angle_gamma   90.00000000
_symmetry_Int_Tables_number   1
_chemical_formula_structural   Cu5NiC3
_chemical_formula_sum   'Cu40 Ni8 C24'
_cell_volume   947.19187341
_cell_formula_units_Z   8
loop_
 _symmetry_equiv_pos_site_id
 _symmetry_equiv_pos_as_xyz
  1  'x, y, z'
loop_
 _atom_site_type_symbol
 _atom_site_label
 _atom_site_symmetry_multiplicity
 _atom_site_fract_x
 _atom_site_fract_y
 _atom_site_fract_z
 _atom_site_occupancy
  C  C0  1  0.00000000  0.41250200  0.10090100  1
  C  C1  1  0.00000000  0.58749800  0.89909900  1
  C  C2  1  0.00000000  0.89909900  0.41250200  1
  C  C3  1  0.50000000  0.58749800  0.10090100  1
  C  C4  1  0.00000000  0.10090100  0.58749800  1
  C  C5  1  0.50000000  0.41250200  0.89909900  1
  C  C6  1  0.50000000  0.10090100  0.41250200  1
  C  C7  1  0.50000000  0.89909900  0.58749800  1
  C  C8  1  0.25000000  0.15717400  0.15717400  1
  C  C9  1  0.75000000  0.84282600  0.84282600  1
  C  C10  1  0.25000000  0.84282600  0.84282600  1
  C  C11  1  0.25000000  0.84282600  0.15717400  1
  C  C12  1  0.75000000  0.15717400  0.15717400  1
  C  C13  1  0.75000000  0.15717400  0.84282600  1
  C  C14  1  0.25000000  0.15717400  0.84282600  1
  C  C15  1  0.75000000  0.84282600  0.15717400  1
  C  C16  1  0.00000000  0.11852000  0.02677800  1
  C  C17  1  0.00000000  0.88148000  0.97322200  1
  C  C18  1  0.00000000  0.97322200  0.11852000  1
  C  C19  1  0.50000000  0.88148000  0.02677800  1
  C  C20  1  0.00000000  0.02677800  0.88148000  1
  C  C21  1  0.50000000  0.11852000  0.97322200  1
  C  C22  1  0.50000000  0.02677800  0.11852000  1
  C  C23  1  0.50000000  0.97322200  0.88148000  1
  Ni  Ni24  1  0.00000000  0.11901800  0.32439300  1
  Ni  Ni25  1  0.00000000  0.88098200  0.67560700  1
  Ni  Ni26  1  0.00000000  0.67560700  0.11901800  1
  Ni  Ni27  1  0.50000000  0.88098200  0.32439300  1
  Ni  Ni28  1  0.00000000  0.32439300  0.88098200  1
  Ni  Ni29  1  0.50000000  0.11901800  0.67560700  1
  Ni  Ni30  1  0.50000000  0.32439300  0.11901800  1
  Ni  Ni31  1  0.50000000  0.67560700  0.88098200  1
  Cu  Cu32  1  0.00000000  0.08370200  0.41456200  1
  Cu  Cu33  1  0.00000000  0.91629800  0.58543800  1
  Cu  Cu34  1  0.00000000  0.58543800  0.08370200  1
  Cu  Cu35  1  0.50000000  0.91629800  0.41456200  1
  Cu  Cu36  1  0.00000000  0.41456200  0.91629800  1
  Cu  Cu37  1  0.50000000  0.08370200  0.58543800  1
  Cu  Cu38  1  0.50000000  0.41456200  0.08370200  1
  Cu  Cu39  1  0.50000000  0.58543800  0.91629800  1
  Cu  Cu40  1  0.20823400  0.13621500  0.27875700  1
  Cu  Cu41  1  0.79176600  0.86378500  0.72124300  1
  Cu  Cu42  1  0.20823400  0.86378500  0.72124300  1
  Cu  Cu43  1  0.20823400  0.72124300  0.13621500  1
  Cu  Cu44  1  0.29176600  0.86378500  0.27875700  1
  Cu  Cu45  1  0.79176600  0.13621500  0.27875700  1
  Cu  Cu46  1  0.79176600  0.27875700  0.86378500  1
  Cu  Cu47  1  0.70823400  0.13621500  0.72124300  1
  Cu  Cu48  1  0.20823400  0.27875700  0.86378500  1
  Cu  Cu49  1  0.29176600  0.13621500  0.72124300  1
  Cu  Cu50  1  0.79176600  0.72124300  0.13621500  1
  Cu  Cu51  1  0.70823400  0.86378500  0.27875700  1
  Cu  Cu52  1  0.29176600  0.27875700  0.13621500  1
  Cu  Cu53  1  0.70823400  0.72124300  0.86378500  1
  Cu  Cu54  1  0.29176600  0.72124300  0.86378500  1
  Cu  Cu55  1  0.70823400  0.27875700  0.13621500  1
  Cu  Cu56  1  0.00000000  0.42231400  0.29134300  1
  Cu  Cu57  1  0.00000000  0.57768600  0.70865700  1
  Cu  Cu58  1  0.00000000  0.70865700  0.42231400  1
  Cu  Cu59  1  0.50000000  0.57768600  0.29134300  1
  Cu  Cu60  1  0.00000000  0.29134300  0.57768600  1
  Cu  Cu61  1  0.50000000  0.42231400  0.70865700  1
  Cu  Cu62  1  0.50000000  0.29134300  0.42231400  1
  Cu  Cu63  1  0.50000000  0.70865700  0.57768600  1
  Cu  Cu64  1  0.00000000  0.11622700  0.10178400  1
  Cu  Cu65  1  0.00000000  0.88377300  0.89821600  1
  Cu  Cu66  1  0.00000000  0.89821600  0.11622700  1
  Cu  Cu67  1  0.50000000  0.88377300  0.10178400  1
  Cu  Cu68  1  0.00000000  0.10178400  0.88377300  1
  Cu  Cu69  1  0.50000000  0.11622700  0.89821600  1
  Cu  Cu70  1  0.50000000  0.10178400  0.11622700  1
  Cu  Cu71  1  0.50000000  0.89821600  0.88377300  1
