# generated using pymatgen
data_Cu3Ni5C28
_symmetry_space_group_name_H-M   'P 1'
_cell_length_a   11.03760507
_cell_length_b   11.16738907
_cell_length_c   17.65741270
_cell_angle_alpha   108.44489179
_cell_angle_beta   108.29048084
_cell_angle_gamma   90.00394755
_symmetry_Int_Tables_number   1
_chemical_formula_structural   Cu3Ni5C28
_chemical_formula_sum   'Cu12 Ni20 C112'
_cell_volume   1948.38827880
_cell_formula_units_Z   4
loop_
 _symmetry_equiv_pos_site_id
 _symmetry_equiv_pos_as_xyz
  1  'x, y, z'
loop_
 _atom_site_type_symbol
 _atom_site_label
 _atom_site_symmetry_multiplicity
 _atom_site_fract_x
 _atom_site_fract_y
 _atom_site_fract_z
 _atom_site_occupancy
  C  C0  1  0.30801100  0.55969100  0.61103200  1
  C  C1  1  0.80701100  0.05743800  0.60867700  1
  C  C2  1  0.81017700  0.55931900  0.61057800  1
  C  C3  1  0.19512800  0.43871400  0.38620000  1
  C  C4  1  0.19919000  0.44304200  0.89349900  1
  C  C5  1  0.69694200  0.43972300  0.38677200  1
  C  C6  1  0.69785900  0.93819000  0.38701300  1
  C  C7  1  0.69982200  0.94049100  0.89247400  1
  C  C8  1  0.06086100  0.30003000  0.61037600  1
  C  C9  1  0.05912500  0.80163300  0.61027300  1
  C  C10  1  0.55825800  0.30096300  0.61032800  1
  C  C11  1  0.55685200  0.80110400  0.60887500  1
  C  C12  1  0.44588700  0.19799100  0.38726200  1
  C  C13  1  0.44998800  0.19989100  0.89074600  1
  C  C14  1  0.94844700  0.19697100  0.38632300  1
  C  C15  1  0.94815700  0.20027800  0.89173100  1
  C  C16  1  0.30520500  0.06293200  0.10591200  1
  C  C17  1  0.30615800  0.05984200  0.60437800  1
  C  C18  1  0.30727500  0.56484200  0.10870800  1
  C  C19  1  0.80478600  0.06296500  0.10534800  1
  C  C20  1  0.80689100  0.56308200  0.10739900  1
  C  C21  1  0.19954100  0.93688200  0.39201400  1
  C  C22  1  0.20270100  0.93760400  0.89716000  1
  C  C23  1  0.70231200  0.44144900  0.89754000  1
  C  C24  1  0.05543300  0.29341900  0.10676000  1
  C  C25  1  0.05617200  0.79292600  0.10639100  1
  C  C26  1  0.55486700  0.29300100  0.10530100  1
  C  C27  1  0.55497100  0.79257900  0.10500200  1
  C  C28  1  0.44845700  0.70479200  0.39266200  1
  C  C29  1  0.45099400  0.70701200  0.89663500  1
  C  C30  1  0.94865400  0.70474000  0.39096300  1
  C  C31  1  0.95125800  0.70745800  0.89759200  1
  Ni  Ni32  1  0.00506500  0.99943700  0.49897500  1
  Ni  Ni33  1  0.00235800  0.49940100  0.49741700  1
  Ni  Ni34  1  0.25678500  0.25141700  0.00368900  1
  Ni  Ni35  1  0.25225000  0.24825600  0.49802200  1
  Ni  Ni36  1  0.10707200  0.08999800  0.24490500  1
  Ni  Ni37  1  0.11749500  0.09518800  0.75460000  1
  Ni  Ni38  1  0.10901400  0.60080600  0.24750200  1
  Ni  Ni39  1  0.11401900  0.60398300  0.75557600  1
  Ni  Ni40  1  0.60765600  0.09285300  0.24530600  1
  Ni  Ni41  1  0.60916300  0.10023100  0.74983400  1
  Ni  Ni42  1  0.60766200  0.59642700  0.24654600  1
  Ni  Ni43  1  0.61241600  0.59778500  0.75463300  1
  Ni  Ni44  1  0.35842400  0.40589400  0.24622400  1
  Ni  Ni45  1  0.36599700  0.40459300  0.75476500  1
  Ni  Ni46  1  0.35539900  0.89720300  0.24718300  1
  Ni  Ni47  1  0.36017000  0.90153100  0.75126900  1
  Ni  Ni48  1  0.85745100  0.40548300  0.24486200  1
  Ni  Ni49  1  0.86120500  0.40811100  0.75495900  1
  Ni  Ni50  1  0.85982600  0.89562000  0.24409800  1
  Ni  Ni51  1  0.86636000  0.89957700  0.75161600  1
  Cu  Cu52  1  0.00810700  0.00150100  0.00364500  1
  Cu  Cu53  1  0.00635500  0.50199100  0.00362000  1
  Cu  Cu54  1  0.50603600  0.00134100  0.00342800  1
  Cu  Cu55  1  0.50159100  0.99909900  0.49790100  1
  Cu  Cu56  1  0.50665300  0.50166400  0.00290500  1
  Cu  Cu57  1  0.50133300  0.49837300  0.49647100  1
  Cu  Cu58  1  0.25648400  0.75213100  0.00280500  1
  Cu  Cu59  1  0.25116000  0.74937900  0.49725400  1
  Cu  Cu60  1  0.75698200  0.25350900  0.00467600  1
  Cu  Cu61  1  0.75388800  0.24977600  0.49865900  1
  Cu  Cu62  1  0.75633600  0.74992100  0.00208600  1
  Cu  Cu63  1  0.75304100  0.74766100  0.49655600  1
  C  C64  1  0.12768100  0.11737800  0.49137100  1
  C  C65  1  0.13002100  0.12219400  0.99320000  1
  C  C66  1  0.11888500  0.62228800  0.48939400  1
  C  C67  1  0.12334300  0.62513400  0.99319800  1
  C  C68  1  0.62441100  0.12275300  0.49339900  1
  C  C69  1  0.62557300  0.12436200  0.99594900  1
  C  C70  1  0.62166200  0.62282500  0.49056200  1
  C  C71  1  0.62474000  0.62080200  0.99009100  1
  C  C72  1  0.13817000  0.37977100  0.01549800  1
  C  C73  1  0.13120900  0.37675600  0.50558000  1
  C  C74  1  0.13589900  0.88044500  0.01184600  1
  C  C75  1  0.13083300  0.87963300  0.50356000  1
  C  C76  1  0.63708400  0.38332900  0.01521000  1
  C  C77  1  0.63103000  0.37725800  0.50472300  1
  C  C78  1  0.63387500  0.87817900  0.01293400  1
  C  C79  1  0.62757400  0.87350400  0.50133800  1
  C  C80  1  0.37002600  0.11931500  0.49192100  1
  C  C81  1  0.37202100  0.11975000  0.99288600  1
  C  C82  1  0.37407100  0.62214400  0.49101500  1
  C  C83  1  0.37823400  0.62353400  0.99353800  1
  C  C84  1  0.87807000  0.12055300  0.49481800  1
  C  C85  1  0.87747900  0.12097100  0.99460600  1
  C  C86  1  0.87630300  0.62096500  0.49166400  1
  C  C87  1  0.87437700  0.61848000  0.98980400  1
  C  C88  1  0.38444900  0.38213900  0.01454900  1
  C  C89  1  0.37861900  0.37599600  0.50468400  1
  C  C90  1  0.38538800  0.88434800  0.01324400  1
  C  C91  1  0.37713500  0.88182200  0.50544600  1
  C  C92  1  0.88493400  0.38490500  0.01332700  1
  C  C93  1  0.88123100  0.37868900  0.50354900  1
  C  C94  1  0.88793000  0.88156200  0.01382200  1
  C  C95  1  0.88238900  0.87682000  0.50228100  1
  C  C96  1  0.08640600  0.09405200  0.13413600  1
  C  C97  1  0.08490000  0.08039600  0.63992300  1
  C  C98  1  0.07842400  0.59688900  0.13437700  1
  C  C99  1  0.07324200  0.58526700  0.64034400  1
  C  C100  1  0.58008700  0.09598700  0.13496300  1
  C  C101  1  0.57437300  0.08168200  0.63388400  1
  C  C102  1  0.57643500  0.59660500  0.13455500  1
  C  C103  1  0.57324800  0.58054400  0.63782300  1
  C  C104  1  0.43640900  0.41383500  0.36326200  1
  C  C105  1  0.44578400  0.41307800  0.86897600  1
  C  C106  1  0.43570100  0.91217200  0.36307000  1
  C  C107  1  0.44415400  0.91112700  0.86658000  1
  C  C108  1  0.93295600  0.41325200  0.35765000  1
  C  C109  1  0.94335600  0.41238400  0.86753000  1
  C  C110  1  0.93956600  0.90975200  0.35838100  1
  C  C111  1  0.94682000  0.90864800  0.86698700  1
  C  C112  1  0.33098800  0.28870200  0.13180600  1
  C  C113  1  0.32775400  0.29896100  0.64065300  1
  C  C114  1  0.32724000  0.78906600  0.13478100  1
  C  C115  1  0.31887800  0.80017100  0.63486100  1
  C  C116  1  0.83416100  0.29067900  0.13439700  1
  C  C117  1  0.82602400  0.30826000  0.63822500  1
  C  C118  1  0.83156300  0.78501800  0.13254800  1
  C  C119  1  0.82448000  0.80249000  0.63429200  1
  C  C120  1  0.18160000  0.19192800  0.35877000  1
  C  C121  1  0.19329800  0.20612100  0.87089400  1
  C  C122  1  0.19105800  0.70247700  0.36374900  1
  C  C123  1  0.20037400  0.71037400  0.86955000  1
  C  C124  1  0.68731100  0.19077600  0.36222300  1
  C  C125  1  0.68623300  0.20735900  0.86585100  1
  C  C126  1  0.69477500  0.69341300  0.36247100  1
  C  C127  1  0.69842100  0.70455500  0.86692000  1
  C  C128  1  0.42971600  0.05955800  0.24075700  1
  C  C129  1  0.42998400  0.06410700  0.74376100  1
  C  C130  1  0.43033600  0.57795600  0.24901900  1
  C  C131  1  0.44022000  0.57666800  0.75958700  1
  C  C132  1  0.92830200  0.06112000  0.23885700  1
  C  C133  1  0.94084700  0.06350200  0.75074000  1
  C  C134  1  0.92819000  0.57510800  0.24810100  1
  C  C135  1  0.93991900  0.57585100  0.76078900  1
  C  C136  1  0.17478100  0.43222300  0.24017000  1
  C  C137  1  0.19214900  0.44023800  0.75284800  1
  C  C138  1  0.17901200  0.92192900  0.24739700  1
  C  C139  1  0.18919300  0.93052100  0.76027600  1
  C  C140  1  0.67669400  0.42670700  0.23907200  1
  C  C141  1  0.68709000  0.43282400  0.75929500  1
  C  C142  1  0.68182100  0.92534200  0.23977300  1
  C  C143  1  0.69193800  0.94058500  0.75221100  1
