# generated using pymatgen
data_Cu3Ni5C2
_symmetry_space_group_name_H-M   'P 1'
_cell_length_a   8.48215368
_cell_length_b   8.48215368
_cell_length_c   8.48215368
_cell_angle_alpha   137.94199543
_cell_angle_beta   106.22018043
_cell_angle_gamma   88.75106194
_symmetry_Int_Tables_number   1
_chemical_formula_structural   Cu3Ni5C2
_chemical_formula_sum   'Cu6 Ni10 C4'
_cell_volume   375.83777015
_cell_formula_units_Z   2
loop_
 _symmetry_equiv_pos_site_id
 _symmetry_equiv_pos_as_xyz
  1  'x, y, z'
loop_
 _atom_site_type_symbol
 _atom_site_label
 _atom_site_symmetry_multiplicity
 _atom_site_fract_x
 _atom_site_fract_y
 _atom_site_fract_z
 _atom_site_occupancy
  C  C0  1  0.59753500  0.86646500  0.73107000  1
  C  C1  1  0.13539500  0.36646500  0.76893000  1
  C  C2  1  0.40246500  0.13353500  0.26893000  1
  C  C3  1  0.86460500  0.63353500  0.23107000  1
  Ni  Ni4  1  0.50000000  0.25000000  0.75000000  1
  Ni  Ni5  1  0.50000000  0.75000000  0.25000000  1
  Ni  Ni6  1  0.25894800  0.59886700  0.66008100  1
  Ni  Ni7  1  0.93878500  0.09886700  0.83991900  1
  Ni  Ni8  1  0.74105200  0.40113300  0.33991900  1
  Ni  Ni9  1  0.06121500  0.90113300  0.16008100  1
  Ni  Ni10  1  0.22241000  0.97241000  0.75000000  1
  Ni  Ni11  1  0.22241000  0.47241000  0.25000000  1
  Ni  Ni12  1  0.77759000  0.52759000  0.75000000  1
  Ni  Ni13  1  0.77759000  0.02759000  0.25000000  1
  Cu  Cu14  1  0.00000000  0.25000000  0.25000000  1
  Cu  Cu15  1  0.74673600  0.14027900  0.60645700  1
  Cu  Cu16  1  0.46617800  0.35972100  0.10645700  1
  Cu  Cu17  1  0.25326400  0.85972100  0.39354300  1
  Cu  Cu18  1  0.00000000  0.75000000  0.75000000  1
  Cu  Cu19  1  0.53382200  0.64027900  0.89354300  1
