# generated using pymatgen
data_Cu2Ni5C2
_symmetry_space_group_name_H-M   'P 1'
_cell_length_a   7.21441800
_cell_length_b   10.50928000
_cell_length_c   15.25665300
_cell_angle_alpha   90.00000000
_cell_angle_beta   90.00000000
_cell_angle_gamma   90.00000000
_symmetry_Int_Tables_number   1
_chemical_formula_structural   Cu2Ni5C2
_chemical_formula_sum   'Cu8 Ni20 C8'
_cell_volume   1156.73408609
_cell_formula_units_Z   4
loop_
 _symmetry_equiv_pos_site_id
 _symmetry_equiv_pos_as_xyz
  1  'x, y, z'
loop_
 _atom_site_type_symbol
 _atom_site_label
 _atom_site_symmetry_multiplicity
 _atom_site_fract_x
 _atom_site_fract_y
 _atom_site_fract_z
 _atom_site_occupancy
  C  C0  1  0.81710600  0.75000000  0.08439400  1
  C  C1  1  0.68289400  0.75000000  0.58439400  1
  C  C2  1  0.18289400  0.25000000  0.91560600  1
  C  C3  1  0.31710600  0.25000000  0.41560600  1
  Ni  Ni4  1  0.80992400  0.98423600  0.10473700  1
  Ni  Ni5  1  0.69007600  0.51576400  0.60473700  1
  Ni  Ni6  1  0.19007600  0.48423600  0.89526300  1
  Ni  Ni7  1  0.30992400  0.01576400  0.39526300  1
  Ni  Ni8  1  0.19007600  0.01576400  0.89526300  1
  Ni  Ni9  1  0.30992400  0.48423600  0.39526300  1
  Ni  Ni10  1  0.80992400  0.51576400  0.10473700  1
  Ni  Ni11  1  0.69007600  0.98423600  0.60473700  1
  Ni  Ni12  1  0.52289300  0.75000000  0.00621100  1
  Ni  Ni13  1  0.97710700  0.75000000  0.50621100  1
  Ni  Ni14  1  0.47710700  0.25000000  0.99378900  1
  Ni  Ni15  1  0.02289300  0.25000000  0.49378900  1
  Ni  Ni16  1  0.02346400  0.75000000  0.22702900  1
  Ni  Ni17  1  0.47653600  0.75000000  0.72702900  1
  Ni  Ni18  1  0.97653600  0.25000000  0.77297100  1
  Ni  Ni19  1  0.52346400  0.25000000  0.27297100  1
  Ni  Ni20  1  0.62940000  0.75000000  0.25277400  1
  Ni  Ni21  1  0.87060000  0.75000000  0.75277400  1
  Ni  Ni22  1  0.37060000  0.25000000  0.74722600  1
  Ni  Ni23  1  0.12940000  0.25000000  0.24722600  1
  Cu  Cu24  1  0.84403800  0.49797200  0.35578000  1
  Cu  Cu25  1  0.65596200  0.00202800  0.85578000  1
  Cu  Cu26  1  0.15596200  0.99797200  0.64422000  1
  Cu  Cu27  1  0.34403800  0.50202800  0.14422000  1
  Cu  Cu28  1  0.15596200  0.50202800  0.64422000  1
  Cu  Cu29  1  0.34403800  0.99797200  0.14422000  1
  Cu  Cu30  1  0.84403800  0.00202800  0.35578000  1
  Cu  Cu31  1  0.65596200  0.49797200  0.85578000  1
  C  C32  1  0.98323500  0.75000000  0.00544300  1
  C  C33  1  0.51676500  0.75000000  0.50544300  1
  C  C34  1  0.01676500  0.25000000  0.99455700  1
  C  C35  1  0.48323500  0.25000000  0.49455700  1
