# generated using pymatgen
data_Cu9Ni13C60
_symmetry_space_group_name_H-M   'P 1'
_cell_length_a   10.16935504
_cell_length_b   18.48203644
_cell_length_c   19.82100283
_cell_angle_alpha   90.00000000
_cell_angle_beta   90.00000000
_cell_angle_gamma   93.74047183
_symmetry_Int_Tables_number   1
_chemical_formula_structural   Cu9Ni13C60
_chemical_formula_sum   'Cu36 Ni52 C240'
_cell_volume   3717.42939329
_cell_formula_units_Z   4
loop_
 _symmetry_equiv_pos_site_id
 _symmetry_equiv_pos_as_xyz
  1  'x, y, z'
loop_
 _atom_site_type_symbol
 _atom_site_label
 _atom_site_symmetry_multiplicity
 _atom_site_fract_x
 _atom_site_fract_y
 _atom_site_fract_z
 _atom_site_occupancy
  C  C0  1  0.76889006  0.22490562  0.91155862  1
  C  C1  1  0.23110994  0.27509438  0.41155862  1
  C  C2  1  0.23110994  0.77509438  0.08844138  1
  C  C3  1  0.76889006  0.72490562  0.58844138  1
  C  C4  1  0.95255290  0.05910148  0.69660245  1
  C  C5  1  0.04744710  0.44089852  0.19660245  1
  C  C6  1  0.04744710  0.94089852  0.30339755  1
  C  C7  1  0.95255290  0.55910148  0.80339755  1
  C  C8  1  0.91549772  0.97626042  0.64966175  1
  C  C9  1  0.08450228  0.52373958  0.14966175  1
  C  C10  1  0.08450228  0.02373958  0.35033825  1
  C  C11  1  0.91549772  0.47626042  0.85033825  1
  C  C12  1  0.96120730  0.05836442  0.60562520  1
  C  C13  1  0.03879270  0.44163558  0.10562520  1
  C  C14  1  0.03879270  0.94163558  0.39437480  1
  C  C15  1  0.96120730  0.55836442  0.89437480  1
  C  C16  1  0.76533108  0.03545054  0.54029292  1
  C  C17  1  0.23466892  0.46454946  0.04029292  1
  C  C18  1  0.23466892  0.96454946  0.45970708  1
  C  C19  1  0.76533108  0.53545054  0.95970708  1
  C  C20  1  0.71248981  0.95732361  0.58977484  1
  C  C21  1  0.28751019  0.54267639  0.08977484  1
  C  C22  1  0.28751019  0.04267639  0.41022516  1
  C  C23  1  0.71248981  0.45732361  0.91022516  1
  C  C24  1  0.60631589  0.03110129  0.58042375  1
  C  C25  1  0.39368411  0.46889871  0.08042375  1
  C  C26  1  0.39368411  0.96889871  0.41957625  1
  C  C27  1  0.60631589  0.53110129  0.91957625  1
  C  C28  1  0.81383533  0.15227609  0.59735664  1
  C  C29  1  0.18616467  0.34772391  0.09735664  1
  C  C30  1  0.18616467  0.84772391  0.40264336  1
  C  C31  1  0.81383533  0.65227609  0.90264336  1
  C  C32  1  0.65428404  0.14265215  0.63624153  1
  C  C33  1  0.34571596  0.35734785  0.13624153  1
  C  C34  1  0.34571596  0.85734785  0.36375847  1
  C  C35  1  0.65428404  0.64265215  0.86375847  1
  C  C36  1  0.79845553  0.15693329  0.68800982  1
  C  C37  1  0.20154447  0.34306671  0.18800982  1
  C  C38  1  0.20154447  0.84306671  0.31199018  1
  C  C39  1  0.79845553  0.65693329  0.81199018  1
  C  C40  1  0.59116204  0.03153161  0.69975011  1
  C  C41  1  0.40883796  0.46846839  0.19975011  1
  C  C42  1  0.40883796  0.96846839  0.30024989  1
  C  C43  1  0.59116204  0.53153161  0.80024989  1
  C  C44  1  0.71236877  0.96663635  0.71368963  1
  C  C45  1  0.28763123  0.53336365  0.21368963  1
  C  C46  1  0.28763123  0.03336365  0.28631037  1
  C  C47  1  0.71236877  0.46663635  0.78631037  1
  C  C48  1  0.73315986  0.05571268  0.75069628  1
  C  C49  1  0.26684014  0.44428732  0.25069628  1
  C  C50  1  0.26684014  0.94428732  0.24930372  1
  C  C51  1  0.73315986  0.55571268  0.74930372  1
  C  C52  1  0.14010414  0.08153613  0.95125454  1
  C  C53  1  0.85989586  0.41846387  0.45125454  1
  C  C54  1  0.85989586  0.91846387  0.04874546  1
  C  C55  1  0.14010414  0.58153613  0.54874546  1
  C  C56  1  0.30106358  0.12358067  0.93485608  1
  C  C57  1  0.69893642  0.37641933  0.43485608  1
  C  C58  1  0.69893642  0.87641933  0.06514392  1
  C  C59  1  0.30106358  0.62358067  0.56514392  1
  C  C60  1  0.28283337  0.02988714  0.95898853  1
  C  C61  1  0.71716663  0.47011286  0.45898853  1
  C  C62  1  0.71716663  0.97011286  0.04101147  1
  C  C63  1  0.28283337  0.52988714  0.54101147  1
  C  C64  1  0.06747046  0.05894625  0.06504679  1
  C  C65  1  0.93252954  0.44105375  0.56504679  1
  C  C66  1  0.93252954  0.94105375  0.93495321  1
  C  C67  1  0.06747046  0.55894625  0.43495321  1
  C  C68  1  0.19944282  0.99869484  0.07206038  1
  C  C69  1  0.80055718  0.50130516  0.57206038  1
  C  C70  1  0.80055718  0.00130516  0.92793962  1
  C  C71  1  0.19944282  0.49869484  0.42793962  1
  C  C72  1  0.18401921  0.06975850  0.13287630  1
  C  C73  1  0.81598079  0.43024150  0.63287630  1
  C  C74  1  0.81598079  0.93024150  0.86712370  1
  C  C75  1  0.18401921  0.56975850  0.36712370  1
  C  C76  1  0.21526928  0.19322344  0.10007435  1
  C  C77  1  0.78473072  0.30677656  0.60007435  1
  C  C78  1  0.78473072  0.80677656  0.89992565  1
  C  C79  1  0.21526928  0.69322344  0.39992565  1
  C  C80  1  0.28314541  0.21761429  0.01876052  1
  C  C81  1  0.71685459  0.28238571  0.51876052  1
  C  C82  1  0.71685459  0.78238571  0.98123948  1
  C  C83  1  0.28314541  0.71761429  0.48123948  1
  C  C84  1  0.11423030  0.18290764  0.02560714  1
  C  C85  1  0.88576970  0.31709236  0.52560714  1
  C  C86  1  0.88576970  0.81709236  0.97439286  1
  C  C87  1  0.11423030  0.68290764  0.47439286  1
  C  C88  1  0.42465427  0.04605674  0.05491540  1
  C  C89  1  0.57534573  0.45394326  0.55491540  1
  C  C90  1  0.57534573  0.95394326  0.94508460  1
  C  C91  1  0.42465427  0.54605674  0.44508460  1
  C  C92  1  0.45868378  0.13852429  0.02808323  1
  C  C93  1  0.54131622  0.36147571  0.52808323  1
  C  C94  1  0.54131622  0.86147571  0.97191677  1
  C  C95  1  0.45868378  0.63852429  0.47191677  1
  C  C96  1  0.40326189  0.11885450  0.11277073  1
  C  C97  1  0.59673811  0.38114550  0.61277073  1
  C  C98  1  0.59673811  0.88114550  0.88722927  1
  C  C99  1  0.40326189  0.61885450  0.38722927  1
  C  C100  1  0.66280999  0.07970859  0.19724168  1
  C  C101  1  0.33719001  0.42029141  0.69724168  1
  C  C102  1  0.33719001  0.92029141  0.80275832  1
  C  C103  1  0.66280999  0.57970859  0.30275832  1
  C  C104  1  0.65418700  0.03385621  0.27722601  1
  C  C105  1  0.34581300  0.46614379  0.77722601  1
  C  C106  1  0.34581300  0.96614379  0.72277399  1
  C  C107  1  0.65418700  0.53385621  0.22277399  1
  C  C108  1  0.53749156  0.09966489  0.25725926  1
  C  C109  1  0.46250844  0.40033511  0.75725926  1
  C  C110  1  0.46250844  0.90033511  0.74274074  1
  C  C111  1  0.53749156  0.59966489  0.24274074  1
  C  C112  1  0.59732690  0.16031619  0.36077645  1
  C  C113  1  0.40267310  0.33968381  0.86077645  1
  C  C114  1  0.40267310  0.83968381  0.63922355  1
  C  C115  1  0.59732690  0.66031619  0.13922355  1
  C  C116  1  0.72509262  0.10029569  0.37985909  1
  C  C117  1  0.27490738  0.39970431  0.87985909  1
  C  C118  1  0.27490738  0.89970431  0.62014091  1
  C  C119  1  0.72509262  0.60029569  0.12014091  1
  C  C120  1  0.76347990  0.19646965  0.37397676  1
  C  C121  1  0.23652010  0.30353035  0.87397676  1
  C  C122  1  0.23652010  0.80353035  0.62602324  1
  C  C123  1  0.76347990  0.69646965  0.12602324  1
  C  C124  1  0.93259647  0.16900169  0.29588909  1
  C  C125  1  0.06740353  0.33099831  0.79588909  1
  C  C126  1  0.06740353  0.83099831  0.70411091  1
  C  C127  1  0.93259647  0.66900169  0.20411091  1
  C  C128  1  0.88423997  0.07414300  0.29300034  1
  C  C129  1  0.11576003  0.42585700  0.79300034  1
  C  C130  1  0.11576003  0.92585700  0.70699966  1
  C  C131  1  0.88423997  0.57414300  0.20699966  1
  C  C132  1  0.88954508  0.12625979  0.21634547  1
  C  C133  1  0.11045492  0.37374021  0.71634547  1
  C  C134  1  0.11045492  0.87374021  0.78365453  1
  C  C135  1  0.88954508  0.62625979  0.28365453  1
  C  C136  1  0.71612794  0.20597443  0.19202643  1
  C  C137  1  0.28387206  0.29402557  0.69202643  1
  C  C138  1  0.28387206  0.79402557  0.80797357  1
  C  C139  1  0.71612794  0.70597443  0.30797357  1
  C  C140  1  0.60595977  0.22854206  0.25894735  1
  C  C141  1  0.39404023  0.27145794  0.75894735  1
  C  C142  1  0.39404023  0.77145794  0.74105265  1
  C  C143  1  0.60595977  0.72854206  0.24105265  1
  C  C144  1  0.77840748  0.25527677  0.26514785  1
  C  C145  1  0.22159252  0.24472323  0.76514785  1
  C  C146  1  0.22159252  0.74472323  0.73485215  1
  C  C147  1  0.77840748  0.75527677  0.23485215  1
  C  C148  1  0.62070301  0.33246674  0.14880932  1
  C  C149  1  0.37929699  0.16753326  0.64880932  1
  C  C150  1  0.37929699  0.66753326  0.85119068  1
  C  C151  1  0.62070301  0.83246674  0.35119068  1
  C  C152  1  0.79042024  0.36182592  0.13825506  1
  C  C153  1  0.20957976  0.13817408  0.63825506  1
  C  C154  1  0.20957976  0.63817408  0.86174494  1
  C  C155  1  0.79042024  0.86182592  0.36174494  1
  C  C156  1  0.69740156  0.39690394  0.20611560  1
  C  C157  1  0.30259844  0.10309606  0.70611560  1
  C  C158  1  0.30259844  0.60309606  0.79388440  1
  C  C159  1  0.69740156  0.89690394  0.29388440  1
  C  C160  1  0.65168444  0.42176048  0.06678884  1
  C  C161  1  0.34831556  0.07823952  0.56678884  1
  C  C162  1  0.34831556  0.57823952  0.93321116  1
  C  C163  1  0.65168444  0.92176048  0.43321116  1
  Ni  Ni164  1  0.91054805  0.03526235  0.65014638  1
  Ni  Ni165  1  0.08945195  0.46473765  0.15014638  1
  Ni  Ni166  1  0.08945195  0.96473765  0.34985362  1
  Ni  Ni167  1  0.91054805  0.53526235  0.84985362  1
  Ni  Ni168  1  0.70839124  0.01606779  0.58425819  1
  Ni  Ni169  1  0.29160876  0.48393221  0.08425819  1
  Ni  Ni170  1  0.29160876  0.98393221  0.41574181  1
  Ni  Ni171  1  0.70839124  0.51606779  0.91574181  1
  Ni  Ni172  1  0.75839794  0.13217266  0.64156536  1
  Ni  Ni173  1  0.24160206  0.36782734  0.14156536  1
  Ni  Ni174  1  0.24160206  0.86782734  0.35843464  1
  Ni  Ni175  1  0.75839794  0.63217266  0.85843464  1
  Ni  Ni176  1  0.69604145  0.02416386  0.70722037  1
  Ni  Ni177  1  0.30395855  0.47583614  0.20722037  1
  Ni  Ni178  1  0.30395855  0.97583614  0.29277963  1
  Ni  Ni179  1  0.69604145  0.52416386  0.79277963  1
  Ni  Ni180  1  0.24423453  0.08330965  0.96524607  1
  Ni  Ni181  1  0.75576547  0.41669035  0.46524607  1
  Ni  Ni182  1  0.75576547  0.91669035  0.03475393  1
  Ni  Ni183  1  0.24423453  0.58330965  0.53475393  1
  Ni  Ni184  1  0.17009036  0.05395095  0.08004873  1
  Ni  Ni185  1  0.82990964  0.44604905  0.58004873  1
  Ni  Ni186  1  0.82990964  0.94604905  0.91995127  1
  Ni  Ni187  1  0.17009036  0.55395095  0.41995127  1
  Ni  Ni188  1  0.21375021  0.18054928  0.04612863  1
  Ni  Ni189  1  0.78624979  0.31945072  0.54612863  1
  Ni  Ni190  1  0.78624979  0.81945072  0.95387137  1
  Ni  Ni191  1  0.21375021  0.68054928  0.45387137  1
  Ni  Ni192  1  0.39670481  0.10198217  0.05993833  1
  Ni  Ni193  1  0.60329519  0.39801783  0.55993833  1
  Ni  Ni194  1  0.60329519  0.89801783  0.94006167  1
  Ni  Ni195  1  0.39670481  0.60198217  0.44006167  1
  Ni  Ni196  1  0.63903626  0.08456506  0.25078608  1
  Ni  Ni197  1  0.36096374  0.41543494  0.75078608  1
  Ni  Ni198  1  0.36096374  0.91543494  0.74921392  1
  Ni  Ni199  1  0.63903626  0.58456506  0.24921392  1
  Ni  Ni200  1  0.70150847  0.15047383  0.35460808  1
  Ni  Ni201  1  0.29849153  0.34952617  0.85460808  1
  Ni  Ni202  1  0.29849153  0.84952617  0.64539192  1
  Ni  Ni203  1  0.70150847  0.65047383  0.14539192  1
  Ni  Ni204  1  0.86966435  0.12706633  0.27056122  1
  Ni  Ni205  1  0.13033565  0.37293367  0.77056122  1
  Ni  Ni206  1  0.13033565  0.87293367  0.72943878  1
  Ni  Ni207  1  0.86966435  0.62706633  0.22943878  1
  Ni  Ni208  1  0.70559963  0.21376322  0.24647728  1
  Ni  Ni209  1  0.29440037  0.28623678  0.74647728  1
  Ni  Ni210  1  0.29440037  0.78623678  0.75352272  1
  Ni  Ni211  1  0.70559963  0.71376322  0.25352272  1
  Ni  Ni212  1  0.69310786  0.37928534  0.15327940  1
  Ni  Ni213  1  0.30689214  0.12071466  0.65327940  1
  Ni  Ni214  1  0.30689214  0.62071466  0.84672060  1
  Ni  Ni215  1  0.69310786  0.87928534  0.34672060  1
  Cu  Cu216  1  0.76857777  0.05185295  0.64579341  1
  Cu  Cu217  1  0.23142223  0.44814705  0.14579341  1
  Cu  Cu218  1  0.23142223  0.94814705  0.35420659  1
  Cu  Cu219  1  0.76857777  0.55185295  0.85420659  1
  Cu  Cu220  1  0.25622167  0.10492605  0.03786254  1
  Cu  Cu221  1  0.74377833  0.39507395  0.53786254  1
  Cu  Cu222  1  0.74377833  0.89507395  0.96213746  1
  Cu  Cu223  1  0.25622167  0.60492605  0.46213746  1
  Cu  Cu224  1  0.72889315  0.14354293  0.28069919  1
  Cu  Cu225  1  0.27110685  0.35645707  0.78069919  1
  Cu  Cu226  1  0.27110685  0.85645707  0.71930081  1
  Cu  Cu227  1  0.72889315  0.64354293  0.21930081  1
  Cu  Cu228  1  0.99195130  0.14764737  0.83703031  1
  Cu  Cu229  1  0.00804870  0.35235263  0.33703031  1
  Cu  Cu230  1  0.00804870  0.85235263  0.16296969  1
  Cu  Cu231  1  0.99195130  0.64764737  0.66296969  1
  Cu  Cu232  1  0.97228609  0.34755986  0.95846757  1
  Cu  Cu233  1  0.02771391  0.15244014  0.45846757  1
  Cu  Cu234  1  0.02771391  0.65244014  0.04153243  1
  Cu  Cu235  1  0.97228609  0.84755986  0.54153243  1
  Cu  Cu236  1  0.54297602  0.30715714  0.98113320  1
  Cu  Cu237  1  0.45702398  0.19284286  0.48113320  1
  Cu  Cu238  1  0.45702398  0.69284286  0.01886680  1
  Cu  Cu239  1  0.54297602  0.80715714  0.51886680  1
  Cu  Cu240  1  0.56569111  0.10399053  0.86056326  1
  Cu  Cu241  1  0.43430889  0.39600947  0.36056326  1
  Cu  Cu242  1  0.43430889  0.89600947  0.13943674  1
  Cu  Cu243  1  0.56569111  0.60399053  0.63943674  1
  Cu  Cu244  1  0.72471137  0.30839286  0.77653173  1
  Cu  Cu245  1  0.27528863  0.19160714  0.27653173  1
  Cu  Cu246  1  0.27528863  0.69160714  0.22346827  1
  Cu  Cu247  1  0.72471137  0.80839286  0.72346827  1
  Cu  Cu248  1  0.80861979  0.13821164  0.04378994  1
  Cu  Cu249  1  0.19138021  0.36178836  0.54378994  1
  Cu  Cu250  1  0.19138021  0.86178836  0.95621006  1
  Cu  Cu251  1  0.80861979  0.63821164  0.45621006  1
  C  C252  1  0.87251766  0.12050161  0.83843780  1
  C  C253  1  0.12748234  0.37949839  0.33843780  1
  C  C254  1  0.12748234  0.87949839  0.16156220  1
  C  C255  1  0.87251766  0.62050161  0.66156220  1
  C  C256  1  0.07831141  0.11953105  0.80322122  1
  C  C257  1  0.92168859  0.38046895  0.30322122  1
  C  C258  1  0.92168859  0.88046895  0.19677878  1
  C  C259  1  0.07831141  0.61953105  0.69677878  1
  C  C260  1  0.01802566  0.20524829  0.87201527  1
  C  C261  1  0.98197434  0.29475171  0.37201527  1
  C  C262  1  0.98197434  0.79475171  0.12798473  1
  C  C263  1  0.01802566  0.70524829  0.62798473  1
  C  C264  1  0.91149082  0.34986351  0.90166035  1
  C  C265  1  0.08850918  0.15013649  0.40166035  1
  C  C266  1  0.08850918  0.65013649  0.09833965  1
  C  C267  1  0.91149082  0.84986351  0.59833965  1
  C  C268  1  0.05263867  0.39781829  0.97621892  1
  C  C269  1  0.94736133  0.10218171  0.47621892  1
  C  C270  1  0.94736133  0.60218171  0.02378108  1
  C  C271  1  0.05263867  0.89781829  0.52378108  1
  C  C272  1  0.94659328  0.29176437  0.99538648  1
  C  C273  1  0.05340672  0.20823563  0.49538648  1
  C  C274  1  0.05340672  0.70823563  0.00461352  1
  C  C275  1  0.94659328  0.79176437  0.50461352  1
  C  C276  1  0.66216161  0.33424287  0.98366840  1
  C  C277  1  0.33783839  0.16575713  0.48366840  1
  C  C278  1  0.33783839  0.66575713  0.01633160  1
  C  C279  1  0.66216161  0.83424287  0.51633160  1
  C  C280  1  0.45108773  0.33810452  0.00814207  1
  C  C281  1  0.54891227  0.16189548  0.50814207  1
  C  C282  1  0.54891227  0.66189548  0.99185793  1
  C  C283  1  0.45108773  0.83810452  0.49185793  1
  C  C284  1  0.52184665  0.24709536  0.94941625  1
  C  C285  1  0.47815335  0.25290464  0.44941625  1
  C  C286  1  0.47815335  0.75290464  0.05058375  1
  C  C287  1  0.52184665  0.74709536  0.55058375  1
  C  C288  1  0.62051473  0.09992355  0.91883151  1
  C  C289  1  0.37948527  0.40007645  0.41883151  1
  C  C290  1  0.37948527  0.90007645  0.08116849  1
  C  C291  1  0.62051473  0.59992355  0.58116849  1
  C  C292  1  0.48894772  0.05411424  0.83888009  1
  C  C293  1  0.51105228  0.44588576  0.33888009  1
  C  C294  1  0.51105228  0.94588576  0.16111991  1
  C  C295  1  0.48894772  0.55411424  0.66111991  1
  C  C296  1  0.59426500  0.16141766  0.82604346  1
  C  C297  1  0.40573500  0.33858234  0.32604346  1
  C  C298  1  0.40573500  0.83858234  0.17395654  1
  C  C299  1  0.59426500  0.66141766  0.67395654  1
  C  C300  1  0.65758002  0.32093294  0.82951259  1
  C  C301  1  0.34241998  0.17906706  0.32951259  1
  C  C302  1  0.34241998  0.67906706  0.17048741  1
  C  C303  1  0.65758002  0.82093294  0.67048741  1
  C  C304  1  0.70411523  0.34020205  0.72210176  1
  C  C305  1  0.29588477  0.15979795  0.22210176  1
  C  C306  1  0.29588477  0.65979795  0.27789824  1
  C  C307  1  0.70411523  0.84020205  0.77789824  1
  C  C308  1  0.81304708  0.26274755  0.78149934  1
  C  C309  1  0.18695292  0.23725245  0.28149934  1
  C  C310  1  0.18695292  0.73725245  0.21850066  1
  C  C311  1  0.81304708  0.76274755  0.71850066  1
  C  C312  1  0.87852539  0.12865604  0.99091708  1
  C  C313  1  0.12147461  0.37134396  0.49091708  1
  C  C314  1  0.12147461  0.87134396  0.00908292  1
  C  C315  1  0.87852539  0.62865604  0.50908292  1
  C  C316  1  0.82471024  0.10244054  0.09630441  1
  C  C317  1  0.17528976  0.39755946  0.59630441  1
  C  C318  1  0.17528976  0.89755946  0.90369559  1
  C  C319  1  0.82471024  0.60244054  0.40369559  1
  C  C320  1  0.72250917  0.18533344  0.04023309  1
  C  C321  1  0.27749083  0.31466656  0.54023309  1
  C  C322  1  0.27749083  0.81466656  0.95976691  1
  C  C323  1  0.72250917  0.68533344  0.45976691  1
  C  C324  1  0.65544317  0.43920382  0.11341645  1
  C  C325  1  0.34455683  0.06079618  0.61341645  1
  C  C326  1  0.34455683  0.56079618  0.88658355  1
  C  C327  1  0.65544317  0.93920382  0.38658355  1
