# generated using pymatgen
data_Cu3Ni3C16
_symmetry_space_group_name_H-M   'P 1'
_cell_length_a   5.28820384
_cell_length_b   15.39972098
_cell_length_c   16.49417115
_cell_angle_alpha   90.00000000
_cell_angle_beta   90.00000000
_cell_angle_gamma   90.00000000
_symmetry_Int_Tables_number   1
_chemical_formula_structural   Cu3Ni3C16
_chemical_formula_sum   'Cu12 Ni12 C64'
_cell_volume   1343.23356649
_cell_formula_units_Z   4
loop_
 _symmetry_equiv_pos_site_id
 _symmetry_equiv_pos_as_xyz
  1  'x, y, z'
loop_
 _atom_site_type_symbol
 _atom_site_label
 _atom_site_symmetry_multiplicity
 _atom_site_fract_x
 _atom_site_fract_y
 _atom_site_fract_z
 _atom_site_occupancy
  C  C0  1  0.47032736  0.25128001  0.58843553  1
  C  C1  1  0.97032736  0.74871999  0.41156447  1
  C  C2  1  0.97032736  0.75128001  0.91156447  1
  C  C3  1  0.47032736  0.24871999  0.08843553  1
  C  C4  1  0.97014140  0.25298873  0.91671179  1
  C  C5  1  0.47014140  0.74701127  0.08328821  1
  C  C6  1  0.47014140  0.75298873  0.58328821  1
  C  C7  1  0.97014140  0.24701127  0.41671179  1
  Ni  Ni8  1  0.99247558  0.24755025  0.70108220  1
  Ni  Ni9  1  0.49247558  0.75244975  0.29891780  1
  Ni  Ni10  1  0.49247558  0.74755025  0.79891780  1
  Ni  Ni11  1  0.99247558  0.25244975  0.20108220  1
  Ni  Ni12  1  0.50923926  0.39341382  0.95025839  1
  Ni  Ni13  1  0.00923926  0.60658618  0.04974161  1
  Ni  Ni14  1  0.00923926  0.89341382  0.54974161  1
  Ni  Ni15  1  0.50923926  0.10658618  0.45025839  1
  Ni  Ni16  1  0.50700244  0.10097768  0.94742378  1
  Ni  Ni17  1  0.00700244  0.89902232  0.05257622  1
  Ni  Ni18  1  0.00700244  0.60097768  0.55257622  1
  Ni  Ni19  1  0.50700244  0.39902232  0.44742378  1
  Cu  Cu20  1  0.01037880  0.38842225  0.55316800  1
  Cu  Cu21  1  0.51037880  0.61157775  0.44683200  1
  Cu  Cu22  1  0.51037880  0.88842225  0.94683200  1
  Cu  Cu23  1  0.01037880  0.11157775  0.05316800  1
  Cu  Cu24  1  0.00728688  0.10626561  0.55773062  1
  Cu  Cu25  1  0.50728688  0.89373439  0.44226938  1
  Cu  Cu26  1  0.50728688  0.60626561  0.94226938  1
  Cu  Cu27  1  0.00728688  0.39373439  0.05773062  1
  Cu  Cu28  1  0.49072375  0.24945909  0.80582538  1
  Cu  Cu29  1  0.99072375  0.75054091  0.19417462  1
  Cu  Cu30  1  0.99072375  0.74945909  0.69417462  1
  Cu  Cu31  1  0.49072375  0.25054091  0.30582538  1
  C  C32  1  0.28793247  0.97015314  0.75072557  1
  C  C33  1  0.78793247  0.02984686  0.24927443  1
  C  C34  1  0.78793247  0.47015314  0.74927443  1
  C  C35  1  0.28793247  0.52984686  0.25072557  1
  C  C36  1  0.73289835  0.35835483  0.51780127  1
  C  C37  1  0.23289835  0.64164517  0.48219873  1
  C  C38  1  0.23289835  0.85835483  0.98219873  1
  C  C39  1  0.73289835  0.14164517  0.01780127  1
  C  C40  1  0.21856447  0.35847310  0.48416700  1
  C  C41  1  0.71856447  0.64152690  0.51583300  1
  C  C42  1  0.71856447  0.85847310  0.01583300  1
  C  C43  1  0.21856447  0.14152690  0.98416700  1
  C  C44  1  0.73158678  0.13967157  0.52442356  1
  C  C45  1  0.23158678  0.86032843  0.47557644  1
  C  C46  1  0.23158678  0.63967157  0.97557644  1
  C  C47  1  0.73158678  0.36032843  0.02442356  1
  C  C48  1  0.21595182  0.14113646  0.49081265  1
  C  C49  1  0.71595182  0.85886354  0.50918735  1
  C  C50  1  0.71595182  0.64113646  0.00918735  1
  C  C51  1  0.21595182  0.35886354  0.99081265  1
  C  C52  1  0.02607360  0.49126330  0.57042797  1
  C  C53  1  0.52607360  0.50873670  0.42957203  1
  C  C54  1  0.52607360  0.99126330  0.92957203  1
  C  C55  1  0.02607360  0.00873670  0.07042797  1
  C  C56  1  0.02029145  0.00294466  0.57090475  1
  C  C57  1  0.52029145  0.99705534  0.42909525  1
  C  C58  1  0.52029145  0.50294466  0.92909525  1
  C  C59  1  0.02029145  0.49705534  0.07090475  1
  C  C60  1  0.07670584  0.15635159  0.64275992  1
  C  C61  1  0.57670584  0.84364841  0.35724008  1
  C  C62  1  0.57670584  0.65635159  0.85724008  1
  C  C63  1  0.07670584  0.34364841  0.14275992  1
  C  C64  1  0.07432590  0.33223195  0.63470620  1
  C  C65  1  0.57432590  0.66776805  0.36529380  1
  C  C66  1  0.57432590  0.83223195  0.86529380  1
  C  C67  1  0.07432590  0.16776805  0.13470620  1
  C  C68  1  0.66305839  0.24790455  0.72254438  1
  C  C69  1  0.16305839  0.75209545  0.27745562  1
  C  C70  1  0.16305839  0.74790455  0.77745562  1
  C  C71  1  0.66305839  0.25209545  0.22254438  1
  C  C72  1  0.18771754  0.25198302  0.78799670  1
  C  C73  1  0.68771754  0.74801698  0.21200330  1
  C  C74  1  0.68771754  0.75198302  0.71200330  1
  C  C75  1  0.18771754  0.24801698  0.28799670  1
  C  C76  1  0.57801134  0.32803050  0.86529558  1
  C  C77  1  0.07801134  0.67196950  0.13470442  1
  C  C78  1  0.07801134  0.82803050  0.63470442  1
  C  C79  1  0.57801134  0.17196950  0.36529558  1
  C  C80  1  0.56843736  0.15982835  0.85625813  1
  C  C81  1  0.06843736  0.84017165  0.14374187  1
  C  C82  1  0.06843736  0.65982835  0.64374187  1
  C  C83  1  0.56843736  0.34017165  0.35625813  1
  C  C84  1  0.75316924  0.09285980  0.75877971  1
  C  C85  1  0.25316924  0.90714020  0.24122029  1
  C  C86  1  0.25316924  0.59285980  0.74122029  1
  C  C87  1  0.75316924  0.40714020  0.25877971  1
