# generated using pymatgen
data_Cu4Ni4C15
_symmetry_space_group_name_H-M   'P 1'
_cell_length_a   7.57361800
_cell_length_b   8.05340130
_cell_length_c   9.90869502
_cell_angle_alpha   113.23129118
_cell_angle_beta   85.21804757
_cell_angle_gamma   112.48295755
_symmetry_Int_Tables_number   1
_chemical_formula_structural   Cu4Ni4C15
_chemical_formula_sum   'Cu4 Ni4 C15'
_cell_volume   511.52878278
_cell_formula_units_Z   1
loop_
 _symmetry_equiv_pos_site_id
 _symmetry_equiv_pos_as_xyz
  1  'x, y, z'
loop_
 _atom_site_type_symbol
 _atom_site_label
 _atom_site_symmetry_multiplicity
 _atom_site_fract_x
 _atom_site_fract_y
 _atom_site_fract_z
 _atom_site_occupancy
  C  C0  1  0.50000000  0.50000000  0.50000000  1
  Ni  Ni1  1  0.85831900  0.52087900  0.10641900  1
  Ni  Ni2  1  0.14168100  0.47912100  0.89358100  1
  Ni  Ni3  1  0.78620200  0.95580100  0.90147200  1
  Ni  Ni4  1  0.21379800  0.04419900  0.09852800  1
  Cu  Cu5  1  0.72065600  0.10190200  0.31733700  1
  Cu  Cu6  1  0.27934400  0.89809800  0.68266300  1
  Cu  Cu7  1  0.82726500  0.27483600  0.56034200  1
  Cu  Cu8  1  0.17273500  0.72516400  0.43965800  1
  C  C9  1  0.79324200  0.18338900  0.44417000  1
  C  C10  1  0.20675800  0.81661100  0.55583000  1
  C  C11  1  0.87377600  0.06998500  0.27215300  1
  C  C12  1  0.12622400  0.93001500  0.72784700  1
  C  C13  1  0.00711900  0.56391600  0.16523500  1
  C  C14  1  0.99288100  0.43608400  0.83476500  1
  C  C15  1  0.62828000  0.89024900  0.92497900  1
  C  C16  1  0.37172000  0.10975100  0.07502100  1
  C  C17  1  0.65585300  0.31360000  0.57861000  1
  C  C18  1  0.34414700  0.68640000  0.42139000  1
  C  C19  1  0.57973900  0.61729500  0.29019500  1
  C  C20  1  0.42026100  0.38270500  0.70980500  1
  C  C21  1  0.42741000  0.46216100  0.31159300  1
  C  C22  1  0.57259000  0.53783900  0.68840700  1
