# generated using pymatgen
data_Cu2Ni2C
_symmetry_space_group_name_H-M   'P 1'
_cell_length_a   2.86369801
_cell_length_b   2.86369801
_cell_length_c   11.82780018
_cell_angle_alpha   85.51184398
_cell_angle_beta   85.51184398
_cell_angle_gamma   110.70707454
_symmetry_Int_Tables_number   1
_chemical_formula_structural   Cu2Ni2C
_chemical_formula_sum   'Cu2 Ni2 C1'
_cell_volume   89.86743533
_cell_formula_units_Z   1
loop_
 _symmetry_equiv_pos_site_id
 _symmetry_equiv_pos_as_xyz
  1  'x, y, z'
loop_
 _atom_site_type_symbol
 _atom_site_label
 _atom_site_symmetry_multiplicity
 _atom_site_fract_x
 _atom_site_fract_y
 _atom_site_fract_z
 _atom_site_occupancy
  C  C0  1  0.99421100  0.99421100  0.01157900  1
  Ni  Ni1  1  0.20637900  0.20637900  0.58724100  1
  Ni  Ni2  1  0.60567200  0.60567200  0.78865600  1
  Cu  Cu3  1  0.39151400  0.39151400  0.21697200  1
  Cu  Cu4  1  0.80222400  0.80222400  0.39555200  1
