# generated using pymatgen
data_Cu2Ni4C11
_symmetry_space_group_name_H-M   'P 1'
_cell_length_a   9.06785037
_cell_length_b   9.03654763
_cell_length_c   5.92674329
_cell_angle_alpha   71.17727849
_cell_angle_beta   70.60539670
_cell_angle_gamma   38.21732481
_symmetry_Int_Tables_number   1
_chemical_formula_structural   Cu2Ni4C11
_chemical_formula_sum   'Cu2 Ni4 C11'
_cell_volume   281.80532450
_cell_formula_units_Z   1
loop_
 _symmetry_equiv_pos_site_id
 _symmetry_equiv_pos_as_xyz
  1  'x, y, z'
loop_
 _atom_site_type_symbol
 _atom_site_label
 _atom_site_symmetry_multiplicity
 _atom_site_fract_x
 _atom_site_fract_y
 _atom_site_fract_z
 _atom_site_occupancy
  Ni  Ni0  1  0.87796500  0.38824000  0.12203500  1
  Ni  Ni1  1  0.38824000  0.87796500  0.61176000  1
  Ni  Ni2  1  0.61176000  0.12203500  0.38824000  1
  Ni  Ni3  1  0.12203500  0.61176000  0.87796500  1
  Cu  Cu4  1  0.50000000  0.00000000  0.00000000  1
  Cu  Cu5  1  0.00000000  0.50000000  0.50000000  1
  C  C6  1  0.72651600  0.27348400  0.72651600  1
  C  C7  1  0.27348400  0.72651600  0.27348400  1
  C  C8  1  0.87480400  0.34902300  0.65097700  1
  C  C9  1  0.34902300  0.87480400  0.12519600  1
  C  C10  1  0.65097700  0.12519600  0.87480400  1
  C  C11  1  0.12519600  0.65097700  0.34902300  1
  C  C12  1  0.74760200  0.74760200  0.25239800  1
  C  C13  1  0.25239800  0.25239800  0.74760200  1
  C  C14  1  0.25000000  0.25000000  0.25000000  1
  C  C15  1  0.75000000  0.75000000  0.75000000  1
  C  C16  1  0.50000000  0.50000000  0.50000000  1
