# generated using pymatgen
data_CuNiC9
_symmetry_space_group_name_H-M   'P 1'
_cell_length_a   6.13542791
_cell_length_b   6.04325113
_cell_length_c   6.13542733
_cell_angle_alpha   60.49575372
_cell_angle_beta   57.54238383
_cell_angle_gamma   60.49574683
_symmetry_Int_Tables_number   1
_chemical_formula_structural   CuNiC9
_chemical_formula_sum   'Cu1 Ni1 C9'
_cell_volume   158.79082803
_cell_formula_units_Z   1
loop_
 _symmetry_equiv_pos_site_id
 _symmetry_equiv_pos_as_xyz
  1  'x, y, z'
loop_
 _atom_site_type_symbol
 _atom_site_label
 _atom_site_symmetry_multiplicity
 _atom_site_fract_x
 _atom_site_fract_y
 _atom_site_fract_z
 _atom_site_occupancy
  C  C0  1  0.29432500  0.20567500  0.29432500  1
  C  C1  1  0.70567500  0.79432500  0.70567500  1
  Ni  Ni2  1  0.00000000  0.50000000  0.00000000  1
  Cu  Cu3  1  0.50000000  0.50000000  0.50000000  1
  C  C4  1  0.00000000  0.00000000  0.00000000  1
  C  C5  1  0.23032400  0.74975700  0.76967600  1
  C  C6  1  0.23243300  0.76756700  0.23243300  1
  C  C7  1  0.76756700  0.23243300  0.76756700  1
  C  C8  1  0.23032400  0.25024300  0.76967600  1
  C  C9  1  0.76967600  0.25024300  0.23032400  1
  C  C10  1  0.76967600  0.74975700  0.23032400  1
