# generated using pymatgen
data_Cu2NiC42
_symmetry_space_group_name_H-M   'P 1'
_cell_length_a   7.65860124
_cell_length_b   15.24643176
_cell_length_c   13.15986452
_cell_angle_alpha   30.16466185
_cell_angle_beta   54.55941827
_cell_angle_gamma   59.75689406
_symmetry_Int_Tables_number   1
_chemical_formula_structural   Cu2NiC42
_chemical_formula_sum   'Cu2 Ni1 C42'
_cell_volume   629.06225220
_cell_formula_units_Z   1
loop_
 _symmetry_equiv_pos_site_id
 _symmetry_equiv_pos_as_xyz
  1  'x, y, z'
loop_
 _atom_site_type_symbol
 _atom_site_label
 _atom_site_symmetry_multiplicity
 _atom_site_fract_x
 _atom_site_fract_y
 _atom_site_fract_z
 _atom_site_occupancy
  C  C0  1  0.04336700  0.04177900  0.95296900  1
  C  C1  1  0.99692600  0.49064900  0.00593300  1
  C  C2  1  0.50880200  0.04139200  0.94922100  1
  C  C3  1  0.50462900  0.26294300  0.96802200  1
  C  C4  1  0.50749000  0.49900600  0.99818600  1
  C  C5  1  0.49789800  0.27484300  0.46642800  1
  C  C6  1  0.01863500  0.23675000  0.01766200  1
  C  C7  1  0.49736800  0.73639900  0.03176900  1
  C  C8  1  0.99827100  0.00373600  0.49835500  1
  C  C9  1  0.49296600  0.75050100  0.52494700  1
  C  C10  1  0.02265400  0.76963000  0.95834600  1
  C  C11  1  0.03622100  0.23681900  0.49279300  1
  C  C12  1  0.03784100  0.50054500  0.50877000  1
  C  C13  1  0.96600500  0.76389400  0.50440100  1
  Ni  Ni14  1  0.77692600  0.77869000  0.22476700  1
  Cu  Cu15  1  0.49991400  0.49956100  0.50056900  1
  Cu  Cu16  1  0.49968300  0.99848600  0.50117200  1
  C  C17  1  0.14660200  0.23350000  0.13655600  1
  C  C18  1  0.13581900  0.50851300  0.12343000  1
  C  C19  1  0.12594700  0.27993600  0.58687300  1
  C  C20  1  0.43635800  0.21988100  0.36838700  1
  C  C21  1  0.09058500  0.70973600  0.16598000  1
  C  C22  1  0.60816800  0.51921700  0.10816700  1
  C  C23  1  0.14708100  0.98928800  0.14015800  1
  C  C24  1  0.40582100  0.01800600  0.84222900  1
  C  C25  1  0.22362300  0.58036300  0.52901000  1
  C  C26  1  0.39807000  0.48489300  0.40153700  1
  C  C27  1  0.62915200  0.71929700  0.19433000  1
  C  C28  1  0.85229900  0.23497000  0.40009400  1
  C  C29  1  0.13546100  0.76386500  0.60636100  1
  C  C30  1  0.37500000  0.28149500  0.82860700  1
  C  C31  1  0.69874100  0.34072100  0.54875800  1
  C  C32  1  0.62121900  0.54418900  0.54805300  1
  C  C33  1  0.57543600  0.96353400  0.16505100  1
  C  C34  1  0.88082600  0.99961400  0.87192700  1
  C  C35  1  0.41985500  0.48196600  0.87730400  1
  C  C36  1  0.17446300  0.99237800  0.60082400  1
  C  C37  1  0.49280800  0.06778400  0.30078400  1
  C  C38  1  0.87816400  0.26504100  0.87112200  1
  C  C39  1  0.86250800  0.74548300  0.38753300  1
  C  C40  1  0.58623000  0.76558800  0.64295700  1
  C  C41  1  0.80905100  0.02562000  0.38327700  1
  C  C42  1  0.44221100  0.86800300  0.76398600  1
  C  C43  1  0.87106500  0.48405300  0.87851500  1
  C  C44  1  0.83969700  0.78577500  0.85857400  1
