# generated using pymatgen
data_Cu3Ni2C
_symmetry_space_group_name_H-M   'P 1'
_cell_length_a   8.63217933
_cell_length_b   8.63217933
_cell_length_c   10.05219703
_cell_angle_alpha   72.53398249
_cell_angle_beta   72.53398249
_cell_angle_gamma   27.63349720
_symmetry_Int_Tables_number   1
_chemical_formula_structural   Cu3Ni2C
_chemical_formula_sum   'Cu9 Ni6 C3'
_cell_volume   330.40168895
_cell_formula_units_Z   3
loop_
 _symmetry_equiv_pos_site_id
 _symmetry_equiv_pos_as_xyz
  1  'x, y, z'
loop_
 _atom_site_type_symbol
 _atom_site_label
 _atom_site_symmetry_multiplicity
 _atom_site_fract_x
 _atom_site_fract_y
 _atom_site_fract_z
 _atom_site_occupancy
  C  C0  1  0.84556600  0.84556600  0.70051300  1
  C  C1  1  0.15443400  0.15443400  0.29948700  1
  C  C2  1  0.00000000  0.00000000  0.00000000  1
  Ni  Ni3  1  0.80085000  0.80085000  0.13126300  1
  Ni  Ni4  1  0.19915000  0.19915000  0.86873700  1
  Ni  Ni5  1  0.53933300  0.53933300  0.21323700  1
  Ni  Ni6  1  0.46066700  0.46066700  0.78676300  1
  Ni  Ni7  1  0.63611300  0.63611300  0.54584700  1
  Ni  Ni8  1  0.36388700  0.36388700  0.45415300  1
  Cu  Cu9  1  0.95743200  0.95743200  0.33148000  1
  Cu  Cu10  1  0.04256800  0.04256800  0.66852000  1
  Cu  Cu11  1  0.77894900  0.77894900  0.39034000  1
  Cu  Cu12  1  0.22105100  0.22105100  0.60966000  1
  Cu  Cu13  1  0.37800800  0.37800800  0.19877600  1
  Cu  Cu14  1  0.62199200  0.62199200  0.80122400  1
  Cu  Cu15  1  0.50000000  0.50000000  0.50000000  1
  Cu  Cu16  1  0.68004900  0.68004900  0.03323800  1
  Cu  Cu17  1  0.31995100  0.31995100  0.96676200  1
