# generated using pymatgen
data_Cu3NiC19
_symmetry_space_group_name_H-M   'P 1'
_cell_length_a   7.59352300
_cell_length_b   14.16842300
_cell_length_c   10.91194561
_cell_angle_alpha   90.00000000
_cell_angle_beta   119.04113661
_cell_angle_gamma   90.00000000
_symmetry_Int_Tables_number   1
_chemical_formula_structural   Cu3NiC19
_chemical_formula_sum   'Cu12 Ni4 C76'
_cell_volume   1026.39208129
_cell_formula_units_Z   4
loop_
 _symmetry_equiv_pos_site_id
 _symmetry_equiv_pos_as_xyz
  1  'x, y, z'
loop_
 _atom_site_type_symbol
 _atom_site_label
 _atom_site_symmetry_multiplicity
 _atom_site_fract_x
 _atom_site_fract_y
 _atom_site_fract_z
 _atom_site_occupancy
  C  C0  1  0.22612800  0.55602600  0.33051500  1
  C  C1  1  0.22612800  0.94397400  0.83051500  1
  C  C2  1  0.77387200  0.44397400  0.66948500  1
  C  C3  1  0.77387200  0.05602600  0.16948500  1
  C  C4  1  0.29804900  0.59761300  0.49714900  1
  C  C5  1  0.29804900  0.90238700  0.99714900  1
  C  C6  1  0.70195100  0.40238700  0.50285100  1
  C  C7  1  0.70195100  0.09761300  0.00285100  1
  C  C8  1  0.00570200  0.45545800  0.24463600  1
  C  C9  1  0.00570200  0.04454200  0.74463600  1
  C  C10  1  0.99429800  0.54454200  0.75536400  1
  C  C11  1  0.99429800  0.95545800  0.25536400  1
  C  C12  1  0.85298200  0.50495800  0.07417800  1
  C  C13  1  0.85298200  0.99504200  0.57417800  1
  C  C14  1  0.14701800  0.49504200  0.92582200  1
  C  C15  1  0.14701800  0.00495800  0.42582200  1
  C  C16  1  0.73742400  0.44331500  0.15958200  1
  C  C17  1  0.73742400  0.05668500  0.65958200  1
  C  C18  1  0.26257600  0.55668500  0.84041800  1
  C  C19  1  0.26257600  0.94331500  0.34041800  1
  C  C20  1  0.52859100  0.59083100  0.15860400  1
  C  C21  1  0.52859100  0.90916900  0.65860400  1
  C  C22  1  0.47140900  0.40916900  0.84139600  1
  C  C23  1  0.47140900  0.09083100  0.34139600  1
  C  C24  1  0.62372400  0.62824400  0.04459600  1
  C  C25  1  0.62372400  0.87175600  0.54459600  1
  C  C26  1  0.37627600  0.37175600  0.95540400  1
  C  C27  1  0.37627600  0.12824400  0.45540400  1
  C  C28  1  0.66181100  0.70089300  0.18942500  1
  C  C29  1  0.66181100  0.79910700  0.68942500  1
  C  C30  1  0.33818900  0.29910700  0.81057500  1
  C  C31  1  0.33818900  0.20089300  0.31057500  1
  C  C32  1  0.18164800  0.72028900  0.63246200  1
  C  C33  1  0.18164800  0.77971100  0.13246200  1
  C  C34  1  0.81835200  0.27971100  0.36753800  1
  C  C35  1  0.81835200  0.22028900  0.86753800  1
  C  C36  1  0.02561400  0.81256000  0.51977700  1
  C  C37  1  0.02561400  0.68744000  0.01977700  1
  C  C38  1  0.97438600  0.18744000  0.48022300  1
  C  C39  1  0.97438600  0.31256000  0.98022300  1
  C  C40  1  0.21372800  0.75939500  0.48858600  1
  C  C41  1  0.21372800  0.74060500  0.98858600  1
  C  C42  1  0.78627200  0.24060500  0.51141400  1
  C  C43  1  0.78627200  0.25939500  0.01141400  1
  C  C44  1  0.69662400  0.60321800  0.40133000  1
  C  C45  1  0.69662400  0.89678200  0.90133000  1
  C  C46  1  0.30337600  0.39678200  0.59867000  1
  C  C47  1  0.30337600  0.10321800  0.09867000  1
  C  C48  1  0.67408300  0.72967600  0.39955200  1
  C  C49  1  0.67408300  0.77032400  0.89955200  1
  C  C50  1  0.32591700  0.27032400  0.60044800  1
  C  C51  1  0.32591700  0.22967600  0.10044800  1
  C  C52  1  0.82360800  0.66792600  0.56050300  1
  C  C53  1  0.82360800  0.83207400  0.06050300  1
  C  C54  1  0.17639200  0.33207400  0.43949700  1
  C  C55  1  0.17639200  0.16792600  0.93949700  1
  C  C56  1  0.99607000  0.61654900  0.35409100  1
  C  C57  1  0.99607000  0.88345100  0.85409100  1
  C  C58  1  0.00393000  0.38345100  0.64590900  1
  C  C59  1  0.00393000  0.11654900  0.14590900  1
  C  C60  1  0.86240300  0.49039600  0.17622700  1
  C  C61  1  0.86240300  0.00960400  0.67622700  1
  C  C62  1  0.13759700  0.50960400  0.82377300  1
  C  C63  1  0.13759700  0.99039600  0.32377300  1
  C  C64  1  0.65232100  0.62784600  0.15362300  1
  C  C65  1  0.65232100  0.87215400  0.65362300  1
  C  C66  1  0.34767900  0.37215400  0.84637700  1
  C  C67  1  0.34767900  0.12784600  0.34637700  1
  C  C68  1  0.10327900  0.74622500  0.52375900  1
  C  C69  1  0.10327900  0.75377500  0.02375900  1
  C  C70  1  0.89672100  0.25377500  0.47624100  1
  C  C71  1  0.89672100  0.24622500  0.97624100  1
  C  C72  1  0.77582200  0.66936100  0.44787800  1
  C  C73  1  0.77582200  0.83063900  0.94787800  1
  C  C74  1  0.22417800  0.33063900  0.55212200  1
  C  C75  1  0.22417800  0.16936100  0.05212200  1
  Ni  Ni76  1  0.40898300  0.07974500  0.76984600  1
  Ni  Ni77  1  0.40898300  0.42025500  0.26984600  1
  Ni  Ni78  1  0.59101700  0.92025500  0.23015400  1
  Ni  Ni79  1  0.59101700  0.57974500  0.73015400  1
  Cu  Cu80  1  0.18941700  0.59625300  0.39272000  1
  Cu  Cu81  1  0.18941700  0.90374700  0.89272000  1
  Cu  Cu82  1  0.81058300  0.40374700  0.60728000  1
  Cu  Cu83  1  0.81058300  0.09625300  0.10728000  1
  Cu  Cu84  1  0.84298300  0.57821200  0.23822100  1
  Cu  Cu85  1  0.84298300  0.92178800  0.73822100  1
  Cu  Cu86  1  0.15701700  0.42178800  0.76177900  1
  Cu  Cu87  1  0.15701700  0.07821200  0.26177900  1
  Cu  Cu88  1  0.95463800  0.67823000  0.43093100  1
  Cu  Cu89  1  0.95463800  0.82177000  0.93093100  1
  Cu  Cu90  1  0.04536200  0.32177000  0.56906900  1
  Cu  Cu91  1  0.04536200  0.17823000  0.06906900  1
