# generated using pymatgen
data_Cu3Ni3C5
_symmetry_space_group_name_H-M   'P 1'
_cell_length_a   5.67364029
_cell_length_b   6.73430575
_cell_length_c   8.26642304
_cell_angle_alpha   108.52779741
_cell_angle_beta   104.50621106
_cell_angle_gamma   94.83784276
_symmetry_Int_Tables_number   1
_chemical_formula_structural   Cu3Ni3C5
_chemical_formula_sum   'Cu6 Ni6 C10'
_cell_volume   285.26561079
_cell_formula_units_Z   2
loop_
 _symmetry_equiv_pos_site_id
 _symmetry_equiv_pos_as_xyz
  1  'x, y, z'
loop_
 _atom_site_type_symbol
 _atom_site_label
 _atom_site_symmetry_multiplicity
 _atom_site_fract_x
 _atom_site_fract_y
 _atom_site_fract_z
 _atom_site_occupancy
  Ni  Ni0  1  0.85435500  0.42232400  0.61116400  1
  Ni  Ni1  1  0.14564500  0.57767600  0.38883600  1
  Ni  Ni2  1  0.72094900  0.88520400  0.94896600  1
  Ni  Ni3  1  0.27905100  0.11479600  0.05103400  1
  Ni  Ni4  1  0.58783000  0.51503600  0.24689800  1
  Ni  Ni5  1  0.41217000  0.48496400  0.75310200  1
  Cu  Cu6  1  0.86963700  0.31175600  0.96846100  1
  Cu  Cu7  1  0.13036300  0.68824400  0.03153900  1
  Cu  Cu8  1  0.69304200  0.92232300  0.57811300  1
  Cu  Cu9  1  0.30695800  0.07767700  0.42188700  1
  Cu  Cu10  1  0.14194700  0.85477400  0.70294800  1
  Cu  Cu11  1  0.85805300  0.14522600  0.29705200  1
  C  C12  1  0.93047600  0.03829500  0.82125900  1
  C  C13  1  0.06952400  0.96170500  0.17874100  1
  C  C14  1  0.83527400  0.66384700  0.49451800  1
  C  C15  1  0.16472600  0.33615300  0.50548200  1
  C  C16  1  0.78885900  0.52818800  0.86067000  1
  C  C17  1  0.21114100  0.47181200  0.13933000  1
  C  C18  1  0.34347400  0.88401600  0.55684400  1
  C  C19  1  0.65652600  0.11598400  0.44315500  1
  C  C20  1  0.33330400  0.77089100  0.89558400  1
  C  C21  1  0.66669600  0.22910900  0.10441600  1
