# generated using pymatgen
data_Cu4(NiC7)3
_symmetry_space_group_name_H-M   'P 1'
_cell_length_a   4.94164700
_cell_length_b   6.53799277
_cell_length_c   11.26970958
_cell_angle_alpha   88.43114781
_cell_angle_beta   89.26196856
_cell_angle_gamma   88.97961910
_symmetry_Int_Tables_number   1
_chemical_formula_structural   Cu4(NiC7)3
_chemical_formula_sum   'Cu4 Ni3 C21'
_cell_volume   363.88469369
_cell_formula_units_Z   1
loop_
 _symmetry_equiv_pos_site_id
 _symmetry_equiv_pos_as_xyz
  1  'x, y, z'
loop_
 _atom_site_type_symbol
 _atom_site_label
 _atom_site_symmetry_multiplicity
 _atom_site_fract_x
 _atom_site_fract_y
 _atom_site_fract_z
 _atom_site_occupancy
  C  C0  1  0.50000000  0.00000000  0.50000000  1
  C  C1  1  0.48094400  0.25349200  0.77994600  1
  C  C2  1  0.02060100  0.25330700  0.27398000  1
  C  C3  1  0.51905600  0.74650800  0.22005400  1
  C  C4  1  0.97939900  0.74669300  0.72602000  1
  Ni  Ni5  1  0.00000000  0.50000000  0.00000000  1
  Ni  Ni6  1  0.50000000  0.50000000  0.50000000  1
  Ni  Ni7  1  0.00000000  0.00000000  0.00000000  1
  Cu  Cu8  1  0.91877200  0.26606300  0.58772700  1
  Cu  Cu9  1  0.58906300  0.25114000  0.08218100  1
  Cu  Cu10  1  0.08122800  0.73393700  0.41227300  1
  Cu  Cu11  1  0.41093700  0.74886000  0.91781900  1
  C  C12  1  0.24931500  0.26701100  0.58652900  1
  C  C13  1  0.25581900  0.25337000  0.07894600  1
  C  C14  1  0.75068500  0.73298900  0.41347100  1
  C  C15  1  0.74418100  0.74663000  0.92105400  1
  C  C16  1  0.79842900  0.05822400  0.65661700  1
  C  C17  1  0.71926600  0.45071000  0.14700400  1
  C  C18  1  0.23323300  0.53808400  0.34753500  1
  C  C19  1  0.27757300  0.95428300  0.84989600  1
  C  C20  1  0.20157100  0.94177600  0.34338300  1
  C  C21  1  0.28073400  0.54929000  0.85299600  1
  C  C22  1  0.76676700  0.46191600  0.65246500  1
  C  C23  1  0.72242700  0.04571700  0.15010400  1
  C  C24  1  0.74641300  0.25167900  0.94969300  1
  C  C25  1  0.78243400  0.26924300  0.45247700  1
  C  C26  1  0.25358700  0.74832100  0.05030700  1
  C  C27  1  0.21756600  0.73075700  0.54752300  1
