# generated using pymatgen
data_Cu14NiC
_symmetry_space_group_name_H-M   'P 1'
_cell_length_a   6.36095458
_cell_length_b   6.36095407
_cell_length_c   10.39674798
_cell_angle_alpha   90.00000000
_cell_angle_beta   90.00000000
_cell_angle_gamma   120.00000265
_symmetry_Int_Tables_number   1
_chemical_formula_structural   Cu14NiC
_chemical_formula_sum   'Cu14 Ni1 C1'
_cell_volume   364.31134102
_cell_formula_units_Z   1
loop_
 _symmetry_equiv_pos_site_id
 _symmetry_equiv_pos_as_xyz
  1  'x, y, z'
loop_
 _atom_site_type_symbol
 _atom_site_label
 _atom_site_symmetry_multiplicity
 _atom_site_fract_x
 _atom_site_fract_y
 _atom_site_fract_z
 _atom_site_occupancy
  Ni  Ni0  1  0.16666700  0.33333300  0.62500000  1
  Cu  Cu1  1  0.16453366  0.83226633  0.12500000  1
  Cu  Cu2  1  0.17164138  0.83582019  0.62500000  1
  Cu  Cu3  1  0.66773367  0.33546634  0.12500000  1
  Cu  Cu4  1  0.66417981  0.32835862  0.62500000  1
  Cu  Cu5  1  0.66773367  0.83226633  0.12500000  1
  Cu  Cu6  1  0.66417981  0.83582019  0.62500000  1
  Cu  Cu7  1  0.32946409  0.17053591  0.37907308  1
  Cu  Cu8  1  0.32946409  0.17053591  0.87092692  1
  Cu  Cu9  1  0.32946409  0.65892919  0.37907308  1
  Cu  Cu10  1  0.32946409  0.65892919  0.87092692  1
  Cu  Cu11  1  0.84107081  0.17053591  0.37907308  1
  Cu  Cu12  1  0.84107081  0.17053591  0.87092692  1
  Cu  Cu13  1  0.83333300  0.66666700  0.38197996  1
  Cu  Cu14  1  0.83333300  0.66666700  0.86802004  1
  C  C15  1  0.16666700  0.33333300  0.12500000  1
