# generated using pymatgen
data_CuNiC17
_symmetry_space_group_name_H-M   'P 1'
_cell_length_a   10.02987030
_cell_length_b   10.02987030
_cell_length_c   10.02987017
_cell_angle_alpha   33.88997254
_cell_angle_beta   33.88997254
_cell_angle_gamma   33.88996847
_symmetry_Int_Tables_number   1
_chemical_formula_structural   CuNiC17
_chemical_formula_sum   'Cu1 Ni1 C17'
_cell_volume   279.58430189
_cell_formula_units_Z   1
loop_
 _symmetry_equiv_pos_site_id
 _symmetry_equiv_pos_as_xyz
  1  'x, y, z'
loop_
 _atom_site_type_symbol
 _atom_site_label
 _atom_site_symmetry_multiplicity
 _atom_site_fract_x
 _atom_site_fract_y
 _atom_site_fract_z
 _atom_site_occupancy
  C  C0  1  0.70809600  0.70809600  0.70809600  1
  C  C1  1  0.28933700  0.28933700  0.28933700  1
  C  C2  1  0.86897300  0.86897300  0.86897300  1
  C  C3  1  0.13473000  0.13473000  0.13473000  1
  C  C4  1  0.99840800  0.99840800  0.99840800  1
  Ni  Ni5  1  0.41954300  0.41954300  0.41954300  1
  Cu  Cu6  1  0.57936900  0.57936900  0.57936900  1
  C  C7  1  0.38564300  0.38564300  0.86493700  1
  C  C8  1  0.86493700  0.38564300  0.38564300  1
  C  C9  1  0.38564300  0.86493700  0.38564300  1
  C  C10  1  0.60849200  0.60849200  0.14361400  1
  C  C11  1  0.14361400  0.60849200  0.60849200  1
  C  C12  1  0.60849200  0.14361400  0.60849200  1
  C  C13  1  0.22009800  0.22009800  0.69121200  1
  C  C14  1  0.69121200  0.22009800  0.22009800  1
  C  C15  1  0.22009800  0.69121200  0.22009800  1
  C  C16  1  0.78499000  0.78499000  0.30333500  1
  C  C17  1  0.30333500  0.78499000  0.78499000  1
  C  C18  1  0.78499000  0.30333500  0.78499000  1
