# generated using pymatgen
data_Cu3NiC12
_symmetry_space_group_name_H-M   'P 1'
_cell_length_a   5.80568690
_cell_length_b   5.86895736
_cell_length_c   8.13338073
_cell_angle_alpha   89.66098324
_cell_angle_beta   90.00115028
_cell_angle_gamma   90.00337046
_symmetry_Int_Tables_number   1
_chemical_formula_structural   Cu3NiC12
_chemical_formula_sum   'Cu6 Ni2 C24'
_cell_volume   277.12650458
_cell_formula_units_Z   2
loop_
 _symmetry_equiv_pos_site_id
 _symmetry_equiv_pos_as_xyz
  1  'x, y, z'
loop_
 _atom_site_type_symbol
 _atom_site_label
 _atom_site_symmetry_multiplicity
 _atom_site_fract_x
 _atom_site_fract_y
 _atom_site_fract_z
 _atom_site_occupancy
  C  C0  1  0.25000300  0.25001100  0.25001100  1
  C  C1  1  0.75000700  0.74995200  0.75002900  1
  C  C2  1  0.25001200  0.74998900  0.74999500  1
  C  C3  1  0.75000500  0.24998700  0.25004600  1
  C  C4  1  0.00024900  0.99989700  0.50004500  1
  C  C5  1  0.49976600  0.50009700  0.00000100  1
  C  C6  1  0.99977100  0.49995500  0.00006900  1
  C  C7  1  0.50022800  0.00002600  0.50000100  1
  Ni  Ni8  1  0.24999800  0.25003200  0.75001100  1
  Ni  Ni9  1  0.74997200  0.75003600  0.25000700  1
  Cu  Cu10  1  0.74984700  0.25013300  0.74996600  1
  Cu  Cu11  1  0.00035700  0.49981500  0.49991500  1
  Cu  Cu12  1  0.49963000  0.00018400  0.99999100  1
  Cu  Cu13  1  0.24998700  0.74999300  0.25009700  1
  Cu  Cu14  1  0.99967200  0.99978200  0.99997300  1
  Cu  Cu15  1  0.50033800  0.50013300  0.50004100  1
  C  C16  1  0.24946600  0.74085100  0.01569300  1
  C  C17  1  0.75051200  0.24077000  0.51571000  1
  C  C18  1  0.25052800  0.75917800  0.48428200  1
  C  C19  1  0.74953900  0.25919200  0.98431400  1
  C  C20  1  0.24938100  0.21338200  0.99878500  1
  C  C21  1  0.75062200  0.71332700  0.49879400  1
  C  C22  1  0.25060200  0.28659700  0.50119900  1
  C  C23  1  0.74937100  0.78666200  0.00118200  1
  C  C24  1  0.01586000  0.52006100  0.26076300  1
  C  C25  1  0.51565700  0.02023100  0.76080800  1
  C  C26  1  0.48416600  0.98001600  0.23917400  1
  C  C27  1  0.98438000  0.47974400  0.73915600  1
  C  C28  1  0.01566300  0.97977700  0.23916000  1
  C  C29  1  0.51590400  0.47992800  0.73922400  1
  C  C30  1  0.48433100  0.52026900  0.26079900  1
  C  C31  1  0.98417700  0.01999300  0.76075700  1
