# generated using pymatgen
data_Cu4Ni10C39
_symmetry_space_group_name_H-M   'P 1'
_cell_length_a   8.98496300
_cell_length_b   9.02243361
_cell_length_c   10.30161913
_cell_angle_alpha   110.58138114
_cell_angle_beta   102.45125389
_cell_angle_gamma   86.83287466
_symmetry_Int_Tables_number   1
_chemical_formula_structural   Cu4Ni10C39
_chemical_formula_sum   'Cu4 Ni10 C39'
_cell_volume   763.23014136
_cell_formula_units_Z   1
loop_
 _symmetry_equiv_pos_site_id
 _symmetry_equiv_pos_as_xyz
  1  'x, y, z'
loop_
 _atom_site_type_symbol
 _atom_site_label
 _atom_site_symmetry_multiplicity
 _atom_site_fract_x
 _atom_site_fract_y
 _atom_site_fract_z
 _atom_site_occupancy
  C  C0  1  0.00000000  0.50000000  0.50000000  1
  Ni  Ni1  1  0.98445700  0.16661800  0.74830300  1
  Ni  Ni2  1  0.01554300  0.83338200  0.25169700  1
  Ni  Ni3  1  0.50872200  0.69812400  0.82825300  1
  Ni  Ni4  1  0.49127800  0.30187600  0.17174700  1
  Ni  Ni5  1  0.61314500  0.60401300  0.50001300  1
  Ni  Ni6  1  0.38685500  0.39598700  0.49998700  1
  Ni  Ni7  1  0.62874500  0.31117700  0.83461400  1
  Ni  Ni8  1  0.37125500  0.68882300  0.16538600  1
  Ni  Ni9  1  0.37649300  0.05151000  0.74783400  1
  Ni  Ni10  1  0.62350700  0.94849000  0.25216600  1
  Cu  Cu11  1  0.85622100  0.54574600  0.84120900  1
  Cu  Cu12  1  0.14377900  0.45425400  0.15879100  1
  Cu  Cu13  1  0.16844700  0.87190900  0.83697600  1
  Cu  Cu14  1  0.83155300  0.12809100  0.16302400  1
  C  C15  1  0.72311100  0.92408100  0.76156500  1
  C  C16  1  0.27688900  0.07591900  0.23843500  1
  C  C17  1  0.27476600  0.43037500  0.78579700  1
  C  C18  1  0.72523400  0.56962500  0.21420300  1
  C  C19  1  0.17646700  0.06651100  0.79377000  1
  C  C20  1  0.82353300  0.93348900  0.20623000  1
  C  C21  1  0.90755300  0.99840000  0.81705000  1
  C  C22  1  0.09244700  0.00160000  0.18295000  1
  C  C23  1  0.70481700  0.80989800  0.86341000  1
  C  C24  1  0.29518300  0.19010200  0.13659000  1
  C  C25  1  0.38701000  0.87741000  0.82538000  1
  C  C26  1  0.61299000  0.12259000  0.17462000  1
  C  C27  1  0.83530700  0.32124400  0.82899500  1
  C  C28  1  0.16469300  0.67875600  0.17100500  1
  C  C29  1  0.60723100  0.08944500  0.81082500  1
  C  C30  1  0.39276900  0.91055500  0.18917500  1
  C  C31  1  0.63881900  0.52593900  0.85115200  1
  C  C32  1  0.36118100  0.47406100  0.14884800  1
  C  C33  1  0.47187000  0.59388100  0.60253400  1
  C  C34  1  0.52813000  0.40611900  0.39746600  1
  C  C35  1  0.34238700  0.62230400  0.88665500  1
  C  C36  1  0.65761300  0.37769600  0.11334500  1
  C  C37  1  0.11191600  0.39835600  0.83461900  1
  C  C38  1  0.88808400  0.60164400  0.16538100  1
  C  C39  1  0.23426500  0.40421100  0.60823000  1
  C  C40  1  0.76573500  0.59578900  0.39177000  1
  C  C41  1  0.09574500  0.73287800  0.65943100  1
  C  C42  1  0.90425500  0.26712200  0.34056900  1
  C  C43  1  0.65716100  0.82426300  0.58566500  1
  C  C44  1  0.34283900  0.17573700  0.41433500  1
  C  C45  1  0.41147900  0.29489900  0.81747700  1
  C  C46  1  0.58852100  0.70510100  0.18252300  1
  C  C47  1  0.32089900  0.96708000  0.55556000  1
  C  C48  1  0.67910100  0.03292000  0.44444000  1
  C  C49  1  0.93022600  0.10292800  0.55445100  1
  C  C50  1  0.06977400  0.89707200  0.44554900  1
  C  C51  1  0.83413800  0.51467900  0.65217900  1
  C  C52  1  0.16586200  0.48532100  0.34782100  1
