# generated using pymatgen
data_CuNiC8
_symmetry_space_group_name_H-M   'P 1'
_cell_length_a   5.56698700
_cell_length_b   5.56698700
_cell_length_c   7.93854200
_cell_angle_alpha   90.00000000
_cell_angle_beta   90.00000000
_cell_angle_gamma   90.00000000
_symmetry_Int_Tables_number   1
_chemical_formula_structural   CuNiC8
_chemical_formula_sum   'Cu2 Ni2 C16'
_cell_volume   246.02608803
_cell_formula_units_Z   2
loop_
 _symmetry_equiv_pos_site_id
 _symmetry_equiv_pos_as_xyz
  1  'x, y, z'
loop_
 _atom_site_type_symbol
 _atom_site_label
 _atom_site_symmetry_multiplicity
 _atom_site_fract_x
 _atom_site_fract_y
 _atom_site_fract_z
 _atom_site_occupancy
  Ni  Ni0  1  0.50000000  0.00000000  0.74913100  1
  Ni  Ni1  1  0.00000000  0.50000000  0.25086900  1
  Cu  Cu2  1  0.00000000  0.50000000  0.74581300  1
  Cu  Cu3  1  0.50000000  0.00000000  0.25418700  1
  C  C4  1  0.00000000  0.00000000  0.50000000  1
  C  C5  1  0.50000000  0.50000000  0.00000000  1
  C  C6  1  0.00000000  0.00000000  0.00000000  1
  C  C7  1  0.50000000  0.50000000  0.50000000  1
  C  C8  1  0.74452000  0.74452000  0.50000000  1
  C  C9  1  0.25548000  0.25548000  0.50000000  1
  C  C10  1  0.74978900  0.74978900  0.00000000  1
  C  C11  1  0.25021100  0.25021100  0.00000000  1
  C  C12  1  0.25548000  0.74452000  0.50000000  1
  C  C13  1  0.74452000  0.25548000  0.50000000  1
  C  C14  1  0.25021100  0.74978900  0.00000000  1
  C  C15  1  0.74978900  0.25021100  0.00000000  1
  C  C16  1  0.50000000  0.50000000  0.74727800  1
  C  C17  1  0.00000000  0.00000000  0.74844300  1
  C  C18  1  0.50000000  0.50000000  0.25272200  1
  C  C19  1  0.00000000  0.00000000  0.25155700  1
