# generated using pymatgen
data_Cu7Ni2C15
_symmetry_space_group_name_H-M   'P 1'
_cell_length_a   9.85918466
_cell_length_b   15.03873997
_cell_length_c   16.62620616
_cell_angle_alpha   90.00000000
_cell_angle_beta   90.00000000
_cell_angle_gamma   93.10666147
_symmetry_Int_Tables_number   1
_chemical_formula_structural   Cu7Ni2C15
_chemical_formula_sum   'Cu56 Ni16 C120'
_cell_volume   2461.53997631
_cell_formula_units_Z   8
loop_
 _symmetry_equiv_pos_site_id
 _symmetry_equiv_pos_as_xyz
  1  'x, y, z'
loop_
 _atom_site_type_symbol
 _atom_site_label
 _atom_site_symmetry_multiplicity
 _atom_site_fract_x
 _atom_site_fract_y
 _atom_site_fract_z
 _atom_site_occupancy
  C  C0  1  0.96287276  0.74675892  0.60309015  1
  C  C1  1  0.03712724  0.75324108  0.10309015  1
  C  C2  1  0.03712724  0.25324108  0.39690985  1
  C  C3  1  0.96287276  0.24675892  0.89690985  1
  C  C4  1  0.54595717  0.76711631  0.65181104  1
  C  C5  1  0.45404283  0.73288369  0.15181104  1
  C  C6  1  0.45404283  0.23288369  0.34818896  1
  C  C7  1  0.54595717  0.26711631  0.84818896  1
  C  C8  1  0.46255509  0.86517720  0.50143480  1
  C  C9  1  0.53744491  0.63482280  0.00143480  1
  C  C10  1  0.53744491  0.13482280  0.49856520  1
  C  C11  1  0.46255509  0.36517720  0.99856520  1
  C  C12  1  0.76613635  0.90501178  0.61759783  1
  C  C13  1  0.23386365  0.59498822  0.11759783  1
  C  C14  1  0.23386365  0.09498822  0.38240217  1
  C  C15  1  0.76613635  0.40501178  0.88240217  1
  C  C16  1  0.73395532  0.86613888  0.53203546  1
  C  C17  1  0.26604468  0.63386112  0.03203546  1
  C  C18  1  0.26604468  0.13386112  0.46796454  1
  C  C19  1  0.73395532  0.36613888  0.96796454  1
  C  C20  1  0.88701933  0.70188786  0.42805355  1
  C  C21  1  0.11298067  0.79811214  0.92805355  1
  C  C22  1  0.11298067  0.29811214  0.57194645  1
  C  C23  1  0.88701933  0.20188786  0.07194645  1
  C  C24  1  0.46898349  0.56413629  0.63793822  1
  C  C25  1  0.53101651  0.93586371  0.13793822  1
  C  C26  1  0.53101651  0.43586371  0.36206178  1
  C  C27  1  0.46898349  0.06413629  0.86206178  1
  C  C28  1  0.20050812  0.67647429  0.50922578  1
  C  C29  1  0.79949188  0.82352571  0.00922578  1
  C  C30  1  0.79949188  0.32352571  0.49077422  1
  C  C31  1  0.20050812  0.17647429  0.99077422  1
  C  C32  1  0.30997129  0.83452503  0.74860581  1
  C  C33  1  0.69002871  0.66547497  0.24860581  1
  C  C34  1  0.69002871  0.16547497  0.25139419  1
  C  C35  1  0.30997129  0.33452503  0.75139419  1
  C  C36  1  0.02959028  0.94933469  0.60700166  1
  C  C37  1  0.97040972  0.55066531  0.10700166  1
  C  C38  1  0.97040972  0.05066531  0.39299834  1
  C  C39  1  0.02959028  0.44933469  0.89299834  1
  C  C40  1  0.77863761  0.64459903  0.71977946  1
  C  C41  1  0.22136239  0.85540097  0.21977946  1
  C  C42  1  0.22136239  0.35540097  0.28022054  1
  C  C43  1  0.77863761  0.14459903  0.78022054  1
  C  C44  1  0.61938966  0.80165377  0.82969215  1
  C  C45  1  0.38061034  0.69834623  0.32969215  1
  C  C46  1  0.38061034  0.19834623  0.17030785  1
  C  C47  1  0.61938966  0.30165377  0.67030785  1
  C  C48  1  0.73806284  0.60905140  0.63425143  1
  C  C49  1  0.26193716  0.89094860  0.13425143  1
  C  C50  1  0.26193716  0.39094860  0.36574857  1
  C  C51  1  0.73806284  0.10905140  0.86574857  1
  C  C52  1  0.38184397  0.90779941  0.57111047  1
  C  C53  1  0.61815603  0.59220059  0.07111047  1
  C  C54  1  0.61815603  0.09220059  0.42888953  1
  C  C55  1  0.38184397  0.40779941  0.92888953  1
  C  C56  1  0.52164953  0.97125149  0.68144457  1
  C  C57  1  0.47835047  0.52874851  0.18144457  1
  C  C58  1  0.47835047  0.02874851  0.31855543  1
  C  C59  1  0.52164953  0.47125149  0.81855543  1
  C  C60  1  0.03806973  0.65249548  0.75739236  1
  C  C61  1  0.96193027  0.84750452  0.25739236  1
  C  C62  1  0.96193027  0.34750452  0.24260764  1
  C  C63  1  0.03806973  0.15249548  0.74260764  1
  C  C64  1  0.12070565  0.60607087  0.69125081  1
  C  C65  1  0.87929435  0.89392913  0.19125081  1
  C  C66  1  0.87929435  0.39392913  0.30874919  1
  C  C67  1  0.12070565  0.10607087  0.80874919  1
  C  C68  1  0.52778523  0.65153454  0.49226744  1
  C  C69  1  0.47221477  0.84846546  0.99226744  1
  C  C70  1  0.47221477  0.34846546  0.50773256  1
  C  C71  1  0.52778523  0.15153454  0.00773256  1
  C  C72  1  0.25003479  0.74280681  0.71437478  1
  C  C73  1  0.74996521  0.75719319  0.21437478  1
  C  C74  1  0.74996521  0.25719319  0.28562522  1
  C  C75  1  0.25003479  0.24280681  0.78562522  1
  C  C76  1  0.99133064  0.54127598  0.58155315  1
  C  C77  1  0.00866936  0.95872402  0.08155315  1
  C  C78  1  0.00866936  0.45872402  0.41844685  1
  C  C79  1  0.99133064  0.04127598  0.91844685  1
  C  C80  1  0.89828770  0.56632731  0.50875066  1
  C  C81  1  0.10171230  0.93367269  0.00875066  1
  C  C82  1  0.10171230  0.43367269  0.49124934  1
  C  C83  1  0.89828770  0.06632731  0.99124934  1
  C  C84  1  0.26059390  0.76901484  0.54311670  1
  C  C85  1  0.73940610  0.73098516  0.04311670  1
  C  C86  1  0.73940610  0.23098516  0.45688330  1
  C  C87  1  0.26059390  0.26901484  0.95688330  1
  C  C88  1  0.92211064  0.80471534  0.43273164  1
  C  C89  1  0.07788936  0.69528466  0.93273164  1
  C  C90  1  0.07788936  0.19528466  0.56726836  1
  C  C91  1  0.92211064  0.30471534  0.06726836  1
  C  C92  1  0.84036325  0.80397264  0.76576875  1
  C  C93  1  0.15963675  0.69602736  0.26576875  1
  C  C94  1  0.15963675  0.19602736  0.23423125  1
  C  C95  1  0.84036325  0.30397264  0.73423125  1
  C  C96  1  0.98282709  0.85732261  0.76421080  1
  C  C97  1  0.01717291  0.64267739  0.26421080  1
  C  C98  1  0.01717291  0.14267739  0.23578920  1
  C  C99  1  0.98282709  0.35732261  0.73578920  1
  C  C100  1  0.61576298  0.69787038  0.81828538  1
  C  C101  1  0.38423702  0.80212962  0.31828538  1
  C  C102  1  0.38423702  0.30212962  0.18171462  1
  C  C103  1  0.61576298  0.19787038  0.68171462  1
  C  C104  1  0.59102287  0.93647349  0.76077715  1
  C  C105  1  0.40897713  0.56352651  0.26077715  1
  C  C106  1  0.40897713  0.06352651  0.23922285  1
  C  C107  1  0.59102287  0.43647349  0.73922285  1
  C  C108  1  0.10163382  0.91008087  0.53128936  1
  C  C109  1  0.89836618  0.58991913  0.03128936  1
  C  C110  1  0.89836618  0.08991913  0.46871064  1
  C  C111  1  0.10163382  0.41008087  0.96871064  1
  C  C112  1  0.39686238  0.59942525  0.71530520  1
  C  C113  1  0.60313762  0.90057475  0.21530520  1
  C  C114  1  0.60313762  0.40057475  0.28469480  1
  C  C115  1  0.39686238  0.09942525  0.78469480  1
  C  C116  1  0.65326402  0.71975179  0.48347601  1
  C  C117  1  0.34673598  0.78024821  0.98347601  1
  C  C118  1  0.34673598  0.28024821  0.51652399  1
  C  C119  1  0.65326402  0.21975179  0.01652399  1
  Ni  Ni120  1  0.87222315  0.08375572  0.63832618  1
  Ni  Ni121  1  0.12777685  0.41624428  0.13832618  1
  Ni  Ni122  1  0.12777685  0.91624428  0.36167382  1
  Ni  Ni123  1  0.87222315  0.58375572  0.86167382  1
  Ni  Ni124  1  0.64944182  0.93895433  0.91060589  1
  Ni  Ni125  1  0.35055818  0.56104567  0.41060589  1
  Ni  Ni126  1  0.35055818  0.06104567  0.08939411  1
  Ni  Ni127  1  0.64944182  0.43895433  0.58939411  1
  Ni  Ni128  1  0.84024857  0.06083168  0.15286330  1
  Ni  Ni129  1  0.15975143  0.43916832  0.65286330  1
  Ni  Ni130  1  0.15975143  0.93916832  0.84713670  1
  Ni  Ni131  1  0.84024857  0.56083168  0.34713670  1
  Ni  Ni132  1  0.62802095  0.42056960  0.10719624  1
  Ni  Ni133  1  0.37197905  0.07943040  0.60719624  1
  Ni  Ni134  1  0.37197905  0.57943040  0.89280376  1
  Ni  Ni135  1  0.62802095  0.92056960  0.39280376  1
  Cu  Cu136  1  0.75777199  0.66441994  0.66477471  1
  Cu  Cu137  1  0.24222801  0.83558006  0.16477471  1
  Cu  Cu138  1  0.24222801  0.33558006  0.33522529  1
  Cu  Cu139  1  0.75777199  0.16441994  0.83522529  1
  Cu  Cu140  1  0.75128355  0.84842291  0.58815678  1
  Cu  Cu141  1  0.24871645  0.65157709  0.08815678  1
  Cu  Cu142  1  0.24871645  0.15157709  0.41184322  1
  Cu  Cu143  1  0.75128355  0.34842291  0.91184322  1
  Cu  Cu144  1  0.56471110  0.91969491  0.70539998  1
  Cu  Cu145  1  0.43528890  0.58030509  0.20539998  1
  Cu  Cu146  1  0.43528890  0.08030509  0.29460002  1
  Cu  Cu147  1  0.56471110  0.41969491  0.79460002  1
  Cu  Cu148  1  0.41073265  0.84978272  0.55140914  1
  Cu  Cu149  1  0.58926735  0.65021728  0.05140914  1
  Cu  Cu150  1  0.58926735  0.15021728  0.44859086  1
  Cu  Cu151  1  0.41073265  0.34978272  0.94859086  1
  Cu  Cu152  1  0.18031466  0.72677052  0.54378403  1
  Cu  Cu153  1  0.81968534  0.77322948  0.04378403  1
  Cu  Cu154  1  0.81968534  0.27322948  0.45621597  1
  Cu  Cu155  1  0.18031466  0.22677052  0.95621597  1
  Cu  Cu156  1  0.44760589  0.61837253  0.66712863  1
  Cu  Cu157  1  0.55239411  0.88162747  0.16712863  1
  Cu  Cu158  1  0.55239411  0.38162747  0.33287137  1
  Cu  Cu159  1  0.44760589  0.11837253  0.83287137  1
  Cu  Cu160  1  0.33219640  0.78336630  0.71583524  1
  Cu  Cu161  1  0.66780360  0.71663370  0.21583524  1
  Cu  Cu162  1  0.66780360  0.21663370  0.28416476  1
  Cu  Cu163  1  0.33219640  0.28336630  0.78416476  1
  Cu  Cu164  1  0.91883316  0.81948979  0.73132371  1
  Cu  Cu165  1  0.08116684  0.68051021  0.23132371  1
  Cu  Cu166  1  0.08116684  0.18051021  0.26867629  1
  Cu  Cu167  1  0.91883316  0.31948979  0.76867629  1
  Cu  Cu168  1  0.58939353  0.69317201  0.52284757  1
  Cu  Cu169  1  0.41060647  0.80682799  0.02284757  1
  Cu  Cu170  1  0.41060647  0.30682799  0.47715243  1
  Cu  Cu171  1  0.58939353  0.19317201  0.97715243  1
  Cu  Cu172  1  0.95611188  0.59192572  0.55194746  1
  Cu  Cu173  1  0.04388812  0.90807428  0.05194746  1
  Cu  Cu174  1  0.04388812  0.40807428  0.44805254  1
  Cu  Cu175  1  0.95611188  0.09192572  0.94805254  1
  Cu  Cu176  1  0.06474175  0.89440579  0.58446697  1
  Cu  Cu177  1  0.93525825  0.60559421  0.08446697  1
  Cu  Cu178  1  0.93525825  0.10559421  0.41553303  1
  Cu  Cu179  1  0.06474175  0.39440579  0.91553303  1
  Cu  Cu180  1  0.87861262  0.75459026  0.46304522  1
  Cu  Cu181  1  0.12138738  0.74540974  0.96304522  1
  Cu  Cu182  1  0.12138738  0.24540974  0.53695478  1
  Cu  Cu183  1  0.87861262  0.25459026  0.03695478  1
  Cu  Cu184  1  0.09282766  0.66506331  0.70833333  1
  Cu  Cu185  1  0.90717234  0.83493669  0.20833333  1
  Cu  Cu186  1  0.90717234  0.33493669  0.29166667  1
  Cu  Cu187  1  0.09282766  0.16506331  0.79166667  1
  Cu  Cu188  1  0.63471601  0.75438711  0.79000342  1
  Cu  Cu189  1  0.36528399  0.74561289  0.29000342  1
  Cu  Cu190  1  0.36528399  0.24561289  0.20999658  1
  Cu  Cu191  1  0.63471601  0.25438711  0.70999658  1
