# generated using pymatgen
data_CuNiC15
_symmetry_space_group_name_H-M   'P 1'
_cell_length_a   8.77054200
_cell_length_b   8.77054200
_cell_length_c   12.09891500
_cell_angle_alpha   90.00000000
_cell_angle_beta   90.00000000
_cell_angle_gamma   90.00000000
_symmetry_Int_Tables_number   1
_chemical_formula_structural   CuNiC15
_chemical_formula_sum   'Cu4 Ni4 C60'
_cell_volume   930.67766357
_cell_formula_units_Z   4
loop_
 _symmetry_equiv_pos_site_id
 _symmetry_equiv_pos_as_xyz
  1  'x, y, z'
loop_
 _atom_site_type_symbol
 _atom_site_label
 _atom_site_symmetry_multiplicity
 _atom_site_fract_x
 _atom_site_fract_y
 _atom_site_fract_z
 _atom_site_occupancy
  Ni  Ni0  1  0.64246700  0.64246700  0.50000000  1
  Ni  Ni1  1  0.35753300  0.35753300  0.50000000  1
  Ni  Ni2  1  0.85753300  0.14246700  0.00000000  1
  Ni  Ni3  1  0.14246700  0.85753300  0.00000000  1
  Cu  Cu4  1  0.23134800  0.76865200  0.50000000  1
  Cu  Cu5  1  0.76865200  0.23134800  0.50000000  1
  Cu  Cu6  1  0.26865200  0.26865200  0.00000000  1
  Cu  Cu7  1  0.73134800  0.73134800  0.00000000  1
  C  C8  1  0.18270800  0.81729200  0.25429200  1
  C  C9  1  0.81729200  0.18270800  0.25429200  1
  C  C10  1  0.31729200  0.31729200  0.75429200  1
  C  C11  1  0.68270800  0.68270800  0.75429200  1
  C  C12  1  0.81729200  0.18270800  0.74570800  1
  C  C13  1  0.18270800  0.81729200  0.74570800  1
  C  C14  1  0.68270800  0.68270800  0.24570800  1
  C  C15  1  0.31729200  0.31729200  0.24570800  1
  C  C16  1  0.40202300  0.59797700  0.29442200  1
  C  C17  1  0.59797700  0.40202300  0.29442200  1
  C  C18  1  0.09797700  0.09797700  0.79442200  1
  C  C19  1  0.90202300  0.90202300  0.79442200  1
  C  C20  1  0.59797700  0.40202300  0.70557800  1
  C  C21  1  0.40202300  0.59797700  0.70557800  1
  C  C22  1  0.90202300  0.90202300  0.20557800  1
  C  C23  1  0.09797700  0.09797700  0.20557800  1
  C  C24  1  0.13944700  0.53652700  0.32364000  1
  C  C25  1  0.86055300  0.46347300  0.32364000  1
  C  C26  1  0.36055300  0.03652700  0.82364000  1
  C  C27  1  0.63944700  0.96347300  0.82364000  1
  C  C28  1  0.86055300  0.46347300  0.67636000  1
  C  C29  1  0.13944700  0.53652700  0.67636000  1
  C  C30  1  0.63944700  0.96347300  0.17636000  1
  C  C31  1  0.36055300  0.03652700  0.17636000  1
  C  C32  1  0.53652700  0.13944700  0.32364000  1
  C  C33  1  0.46347300  0.86055300  0.32364000  1
  C  C34  1  0.03652700  0.36055300  0.82364000  1
  C  C35  1  0.96347300  0.63944700  0.82364000  1
  C  C36  1  0.46347300  0.86055300  0.67636000  1
  C  C37  1  0.53652700  0.13944700  0.67636000  1
  C  C38  1  0.96347300  0.63944700  0.17636000  1
  C  C39  1  0.03652700  0.36055300  0.17636000  1
  C  C40  1  0.50000000  0.50000000  0.11390000  1
  C  C41  1  0.00000000  0.00000000  0.61390000  1
  C  C42  1  0.50000000  0.50000000  0.88610000  1
  C  C43  1  0.00000000  0.00000000  0.38610000  1
  C  C44  1  0.93310500  0.72458400  0.37259600  1
  C  C45  1  0.06689500  0.27541600  0.37259600  1
  C  C46  1  0.56689500  0.22458400  0.87259600  1
  C  C47  1  0.43310500  0.77541600  0.87259600  1
  C  C48  1  0.06689500  0.27541600  0.62740400  1
  C  C49  1  0.93310500  0.72458400  0.62740400  1
  C  C50  1  0.43310500  0.77541600  0.12740400  1
  C  C51  1  0.56689500  0.22458400  0.12740400  1
  C  C52  1  0.72458400  0.93310500  0.37259600  1
  C  C53  1  0.27541600  0.06689500  0.37259600  1
  C  C54  1  0.22458400  0.56689500  0.87259600  1
  C  C55  1  0.77541600  0.43310500  0.87259600  1
  C  C56  1  0.27541600  0.06689500  0.62740400  1
  C  C57  1  0.72458400  0.93310500  0.62740400  1
  C  C58  1  0.77541600  0.43310500  0.12740400  1
  C  C59  1  0.22458400  0.56689500  0.12740400  1
  C  C60  1  0.00000000  0.50000000  0.50000000  1
  C  C61  1  0.50000000  0.00000000  0.00000000  1
  C  C62  1  0.50000000  0.00000000  0.50000000  1
  C  C63  1  0.00000000  0.50000000  0.00000000  1
  C  C64  1  0.87607900  0.87607900  0.50000000  1
  C  C65  1  0.12392100  0.12392100  0.50000000  1
  C  C66  1  0.62392100  0.37607900  0.00000000  1
  C  C67  1  0.37607900  0.62392100  0.00000000  1
