# generated using pymatgen
data_Cu2Ni2C31
_symmetry_space_group_name_H-M   'P 1'
_cell_length_a   9.30070404
_cell_length_b   9.30070404
_cell_length_c   9.30070414
_cell_angle_alpha   55.32775658
_cell_angle_beta   55.32775658
_cell_angle_gamma   55.32775833
_symmetry_Int_Tables_number   1
_chemical_formula_structural   Cu2Ni2C31
_chemical_formula_sum   'Cu2 Ni2 C31'
_cell_volume   507.13570180
_cell_formula_units_Z   1
loop_
 _symmetry_equiv_pos_site_id
 _symmetry_equiv_pos_as_xyz
  1  'x, y, z'
loop_
 _atom_site_type_symbol
 _atom_site_label
 _atom_site_symmetry_multiplicity
 _atom_site_fract_x
 _atom_site_fract_y
 _atom_site_fract_z
 _atom_site_occupancy
  C  C0  1  0.49628100  0.49628100  0.49628100  1
  Ni  Ni1  1  0.64948700  0.64948700  0.64948700  1
  Ni  Ni2  1  0.14597500  0.14597500  0.14597500  1
  Cu  Cu3  1  0.34666600  0.34666600  0.34666600  1
  Cu  Cu4  1  0.85310400  0.85310400  0.85310400  1
  C  C5  1  0.97061200  0.53783100  0.24319900  1
  C  C6  1  0.24319900  0.97061200  0.53783100  1
  C  C7  1  0.53783100  0.24319900  0.97061200  1
  C  C8  1  0.74512100  0.03816300  0.47062500  1
  C  C9  1  0.47062500  0.74512100  0.03816300  1
  C  C10  1  0.03816300  0.47062500  0.74512100  1
  C  C11  1  0.13978900  0.51162400  0.25554300  1
  C  C12  1  0.25554300  0.13978900  0.51162400  1
  C  C13  1  0.51162400  0.25554300  0.13978900  1
  C  C14  1  0.74858300  0.01692600  0.64325300  1
  C  C15  1  0.64325300  0.74858300  0.01692600  1
  C  C16  1  0.01692600  0.64325300  0.74858300  1
  C  C17  1  0.86027300  0.49395100  0.74000500  1
  C  C18  1  0.74000500  0.86027300  0.49395100  1
  C  C19  1  0.49395100  0.74000500  0.86027300  1
  C  C20  1  0.24749300  0.98826200  0.35634700  1
  C  C21  1  0.35634700  0.24749300  0.98826200  1
  C  C22  1  0.98826200  0.35634700  0.24749300  1
  C  C23  1  0.21043800  0.42542900  0.57608200  1
  C  C24  1  0.57608200  0.21043800  0.42542900  1
  C  C25  1  0.42542900  0.57608200  0.21043800  1
  C  C26  1  0.07479500  0.92657000  0.70409000  1
  C  C27  1  0.70409000  0.07479500  0.92657000  1
  C  C28  1  0.92657000  0.70409000  0.07479500  1
  C  C29  1  0.79481600  0.56513700  0.42943600  1
  C  C30  1  0.42943600  0.79481600  0.56513700  1
  C  C31  1  0.56513700  0.42943600  0.79481600  1
  C  C32  1  0.93007900  0.06351300  0.30050200  1
  C  C33  1  0.30050200  0.93007900  0.06351300  1
  C  C34  1  0.06351300  0.30050200  0.93007900  1
