# generated using pymatgen
data_CuNi4C15
_symmetry_space_group_name_H-M   'P 1'
_cell_length_a   5.99698359
_cell_length_b   5.99698359
_cell_length_c   30.32924987
_cell_angle_alpha   88.81595844
_cell_angle_beta   88.81595844
_cell_angle_gamma   60.05976352
_symmetry_Int_Tables_number   1
_chemical_formula_structural   CuNi4C15
_chemical_formula_sum   'Cu3 Ni12 C45'
_cell_volume   944.92101432
_cell_formula_units_Z   3
loop_
 _symmetry_equiv_pos_site_id
 _symmetry_equiv_pos_as_xyz
  1  'x, y, z'
loop_
 _atom_site_type_symbol
 _atom_site_label
 _atom_site_symmetry_multiplicity
 _atom_site_fract_x
 _atom_site_fract_y
 _atom_site_fract_z
 _atom_site_occupancy
  Ni  Ni0  1  0.99874900  0.99874900  0.86902900  1
  Ni  Ni1  1  0.00125100  0.00125100  0.13097100  1
  Ni  Ni2  1  0.33412800  0.33412800  0.46417200  1
  Ni  Ni3  1  0.66587200  0.66587200  0.53582800  1
  Ni  Ni4  1  0.66901400  0.66901400  0.94593300  1
  Ni  Ni5  1  0.33098600  0.33098600  0.05406700  1
  Ni  Ni6  1  0.00294400  0.00294400  0.27878900  1
  Ni  Ni7  1  0.99705600  0.99705600  0.72121100  1
  Ni  Ni8  1  0.33781800  0.33781800  0.61305000  1
  Ni  Ni9  1  0.66218200  0.66218200  0.38695000  1
  Ni  Ni10  1  0.66586500  0.66586500  0.79763400  1
  Ni  Ni11  1  0.33413500  0.33413500  0.20236600  1
  Cu  Cu12  1  0.66768600  0.66768600  0.66692100  1
  Cu  Cu13  1  0.33231400  0.33231400  0.33307900  1
  Cu  Cu14  1  0.00000000  0.00000000  0.00000000  1
  C  C15  1  0.33275300  0.33275300  0.83334000  1
  C  C16  1  0.66724700  0.66724700  0.16666000  1
  C  C17  1  0.33915800  0.33915800  0.91764300  1
  C  C18  1  0.66084200  0.66084200  0.08235700  1
  C  C19  1  0.32703200  0.32703200  0.74885900  1
  C  C20  1  0.67296800  0.67296800  0.25114100  1
  C  C21  1  0.00790100  0.00790100  0.58462900  1
  C  C22  1  0.99209900  0.99209900  0.41537100  1
  C  C23  1  0.00000000  0.00000000  0.50000000  1
  C  C24  1  0.19005700  0.19005700  0.95714200  1
  C  C25  1  0.80994300  0.80994300  0.04285800  1
  C  C26  1  0.32713500  0.85906700  0.61671700  1
  C  C27  1  0.67286500  0.14093300  0.38328300  1
  C  C28  1  0.14093300  0.67286500  0.38328300  1
  C  C29  1  0.85906700  0.32713500  0.61671700  1
  C  C30  1  0.17571000  0.17571000  0.79472400  1
  C  C31  1  0.82429000  0.82429000  0.20527600  1
  C  C32  1  0.15681400  0.15681400  0.53751200  1
  C  C33  1  0.84318600  0.84318600  0.46248800  1
  C  C34  1  0.65572800  0.18809000  0.95099400  1
  C  C35  1  0.34427200  0.81191000  0.04900600  1
  C  C36  1  0.81191000  0.34427200  0.04900600  1
  C  C37  1  0.18809000  0.65572800  0.95099400  1
  C  C38  1  0.30635500  0.84051900  0.45709900  1
  C  C39  1  0.69364500  0.15948100  0.54290100  1
  C  C40  1  0.15948100  0.69364500  0.54290100  1
  C  C41  1  0.84051900  0.30635500  0.45709900  1
  C  C42  1  0.63966000  0.17690900  0.79081000  1
  C  C43  1  0.36034000  0.82309100  0.20919000  1
  C  C44  1  0.82309100  0.36034000  0.20919000  1
  C  C45  1  0.17690900  0.63966000  0.79081000  1
  C  C46  1  0.47789900  0.01041900  0.71563400  1
  C  C47  1  0.52210100  0.98958100  0.28436600  1
  C  C48  1  0.98958100  0.52210100  0.28436600  1
  C  C49  1  0.01041900  0.47789900  0.71563400  1
  C  C50  1  0.13828300  0.13828300  0.37514800  1
  C  C51  1  0.86171700  0.86171700  0.62485200  1
  C  C52  1  0.49034500  0.49034500  0.87177000  1
  C  C53  1  0.50965500  0.50965500  0.12823000  1
  C  C54  1  0.47615500  0.47615500  0.70899500  1
  C  C55  1  0.52384500  0.52384500  0.29100500  1
  C  C56  1  0.48885100  0.02600900  0.87578200  1
  C  C57  1  0.51114900  0.97399100  0.12421800  1
  C  C58  1  0.97399100  0.51114900  0.12421800  1
  C  C59  1  0.02600900  0.48885100  0.87578200  1
