# generated using pymatgen
data_Cu(Ni4C)3
_symmetry_space_group_name_H-M   'P 1'
_cell_length_a   9.71919200
_cell_length_b   9.71919200
_cell_length_c   19.36260900
_cell_angle_alpha   90.00000000
_cell_angle_beta   90.00000000
_cell_angle_gamma   90.00000000
_symmetry_Int_Tables_number   1
_chemical_formula_structural   Cu(Ni4C)3
_chemical_formula_sum   'Cu4 Ni48 C12'
_cell_volume   1829.04419222
_cell_formula_units_Z   4
loop_
 _symmetry_equiv_pos_site_id
 _symmetry_equiv_pos_as_xyz
  1  'x, y, z'
loop_
 _atom_site_type_symbol
 _atom_site_label
 _atom_site_symmetry_multiplicity
 _atom_site_fract_x
 _atom_site_fract_y
 _atom_site_fract_z
 _atom_site_occupancy
  C  C0  1  0.00000000  0.50000000  0.07916100  1
  C  C1  1  0.00000000  0.50000000  0.92083900  1
  C  C2  1  0.50000000  0.00000000  0.07916100  1
  C  C3  1  0.50000000  0.00000000  0.42083900  1
  C  C4  1  0.50000000  0.00000000  0.92083900  1
  C  C5  1  0.50000000  0.00000000  0.57916100  1
  C  C6  1  0.00000000  0.50000000  0.42083900  1
  C  C7  1  0.00000000  0.50000000  0.57916100  1
  C  C8  1  0.00000000  0.50000000  0.25000000  1
  C  C9  1  0.00000000  0.50000000  0.75000000  1
  C  C10  1  0.50000000  0.00000000  0.25000000  1
  C  C11  1  0.50000000  0.00000000  0.75000000  1
  Ni  Ni12  1  0.22176000  0.48073100  0.00000000  1
  Ni  Ni13  1  0.77824000  0.51926900  0.00000000  1
  Ni  Ni14  1  0.51926900  0.22176000  0.00000000  1
  Ni  Ni15  1  0.27824000  0.98073100  0.50000000  1
  Ni  Ni16  1  0.48073100  0.77824000  0.00000000  1
  Ni  Ni17  1  0.72176000  0.01926900  0.50000000  1
  Ni  Ni18  1  0.98073100  0.72176000  0.50000000  1
  Ni  Ni19  1  0.01926900  0.27824000  0.50000000  1
  Ni  Ni20  1  0.29012800  0.04853000  0.32845800  1
  Ni  Ni21  1  0.70987200  0.95147000  0.67154200  1
  Ni  Ni22  1  0.70987200  0.95147000  0.32845800  1
  Ni  Ni23  1  0.95147000  0.29012800  0.32845800  1
  Ni  Ni24  1  0.20987200  0.54853000  0.17154200  1
  Ni  Ni25  1  0.29012800  0.04853000  0.67154200  1
  Ni  Ni26  1  0.04853000  0.70987200  0.67154200  1
  Ni  Ni27  1  0.79012800  0.45147000  0.82845800  1
  Ni  Ni28  1  0.04853000  0.70987200  0.32845800  1
  Ni  Ni29  1  0.79012800  0.45147000  0.17154200  1
  Ni  Ni30  1  0.95147000  0.29012800  0.67154200  1
  Ni  Ni31  1  0.20987200  0.54853000  0.82845800  1
  Ni  Ni32  1  0.54853000  0.79012800  0.17154200  1
  Ni  Ni33  1  0.45147000  0.20987200  0.82845800  1
  Ni  Ni34  1  0.45147000  0.20987200  0.17154200  1
  Ni  Ni35  1  0.54853000  0.79012800  0.82845800  1
  Ni  Ni36  1  0.12307700  0.31592700  0.16010500  1
  Ni  Ni37  1  0.87692300  0.68407300  0.83989500  1
  Ni  Ni38  1  0.87692300  0.68407300  0.16010500  1
  Ni  Ni39  1  0.68407300  0.12307700  0.16010500  1
  Ni  Ni40  1  0.37692300  0.81592700  0.33989500  1
  Ni  Ni41  1  0.12307700  0.31592700  0.83989500  1
  Ni  Ni42  1  0.31592700  0.87692300  0.83989500  1
  Ni  Ni43  1  0.62307700  0.18407300  0.66010500  1
  Ni  Ni44  1  0.31592700  0.87692300  0.16010500  1
  Ni  Ni45  1  0.62307700  0.18407300  0.33989500  1
  Ni  Ni46  1  0.68407300  0.12307700  0.83989500  1
  Ni  Ni47  1  0.37692300  0.81592700  0.66010500  1
  Ni  Ni48  1  0.81592700  0.62307700  0.33989500  1
  Ni  Ni49  1  0.18407300  0.37692300  0.66010500  1
  Ni  Ni50  1  0.18407300  0.37692300  0.33989500  1
  Ni  Ni51  1  0.81592700  0.62307700  0.66010500  1
  Ni  Ni52  1  0.30322300  0.10585100  0.00000000  1
  Ni  Ni53  1  0.69677700  0.89414900  0.00000000  1
  Ni  Ni54  1  0.89414900  0.30322300  0.00000000  1
  Ni  Ni55  1  0.19677700  0.60585100  0.50000000  1
  Ni  Ni56  1  0.10585100  0.69677700  0.00000000  1
  Ni  Ni57  1  0.80322300  0.39414900  0.50000000  1
  Ni  Ni58  1  0.60585100  0.80322300  0.50000000  1
  Ni  Ni59  1  0.39414900  0.19677700  0.50000000  1
  Cu  Cu60  1  0.00000000  0.00000000  0.13019800  1
  Cu  Cu61  1  0.00000000  0.00000000  0.86980200  1
  Cu  Cu62  1  0.50000000  0.50000000  0.36980200  1
  Cu  Cu63  1  0.50000000  0.50000000  0.63019800  1
