# generated using pymatgen
data_CuNi14C
_symmetry_space_group_name_H-M   'P 1'
_cell_length_a   6.35696321
_cell_length_b   6.38307621
_cell_length_c   10.42352801
_cell_angle_alpha   90.00000000
_cell_angle_beta   90.00000000
_cell_angle_gamma   120.13598281
_symmetry_Int_Tables_number   1
_chemical_formula_structural   CuNi14C
_chemical_formula_sum   'Cu1 Ni14 C1'
_cell_volume   365.78708870
_cell_formula_units_Z   1
loop_
 _symmetry_equiv_pos_site_id
 _symmetry_equiv_pos_as_xyz
  1  'x, y, z'
loop_
 _atom_site_type_symbol
 _atom_site_label
 _atom_site_symmetry_multiplicity
 _atom_site_fract_x
 _atom_site_fract_y
 _atom_site_fract_z
 _atom_site_occupancy
  C  C0  1  0.16646836  0.83323368  0.12500000  1
  Ni  Ni1  1  0.16675219  0.33337559  0.62500000  1
  Ni  Ni2  1  0.16712702  0.83356301  0.62500000  1
  Ni  Ni3  1  0.66723342  0.33704790  0.12500000  1
  Ni  Ni4  1  0.66645510  0.33301970  0.62500000  1
  Ni  Ni5  1  0.66723342  0.83018452  0.12500000  1
  Ni  Ni6  1  0.66645510  0.83343440  0.62500000  1
  Ni  Ni7  1  0.33217434  0.17053517  0.37434256  1
  Ni  Ni8  1  0.33217434  0.17053517  0.87565744  1
  Ni  Ni9  1  0.33217434  0.66164017  0.37434256  1
  Ni  Ni10  1  0.33217434  0.66164017  0.87565744  1
  Ni  Ni11  1  0.83616686  0.16808393  0.37083167  1
  Ni  Ni12  1  0.83616686  0.16808393  0.87916833  1
  Ni  Ni13  1  0.82996997  0.66498548  0.37817370  1
  Ni  Ni14  1  0.82996997  0.66498548  0.87182630  1
  Cu  Cu15  1  0.17130437  0.33565169  0.12500000  1
