# generated using pymatgen
data_CuNiC4
_symmetry_space_group_name_H-M   'P 1'
_cell_length_a   3.28917500
_cell_length_b   5.70296000
_cell_length_c   6.64775420
_cell_angle_alpha   73.18882993
_cell_angle_beta   90.00000000
_cell_angle_gamma   90.00000000
_symmetry_Int_Tables_number   1
_chemical_formula_structural   CuNiC4
_chemical_formula_sum   'Cu1 Ni1 C4'
_cell_volume   119.36955962
_cell_formula_units_Z   1
loop_
 _symmetry_equiv_pos_site_id
 _symmetry_equiv_pos_as_xyz
  1  'x, y, z'
loop_
 _atom_site_type_symbol
 _atom_site_label
 _atom_site_symmetry_multiplicity
 _atom_site_fract_x
 _atom_site_fract_y
 _atom_site_fract_z
 _atom_site_occupancy
  Ni  Ni0  1  0.50000000  0.49510500  0.00094900  1
  Cu  Cu1  1  0.00000000  0.00289300  0.00077100  1
  C  C2  1  0.00000000  0.41200500  0.75327000  1
  C  C3  1  0.50000000  0.91954900  0.75930000  1
  C  C4  1  0.50000000  0.75713400  0.24199800  1
  C  C5  1  0.00000000  0.24531200  0.24771300  1
