# generated using pymatgen
data_Cu3NiC
_symmetry_space_group_name_H-M   'P 1'
_cell_length_a   3.93471900
_cell_length_b   7.92380800
_cell_length_c   16.25456800
_cell_angle_alpha   90.00000000
_cell_angle_beta   90.00000000
_cell_angle_gamma   90.00000000
_symmetry_Int_Tables_number   1
_chemical_formula_structural   Cu3NiC
_chemical_formula_sum   'Cu12 Ni4 C4'
_cell_volume   506.78423662
_cell_formula_units_Z   4
loop_
 _symmetry_equiv_pos_site_id
 _symmetry_equiv_pos_as_xyz
  1  'x, y, z'
loop_
 _atom_site_type_symbol
 _atom_site_label
 _atom_site_symmetry_multiplicity
 _atom_site_fract_x
 _atom_site_fract_y
 _atom_site_fract_z
 _atom_site_occupancy
  C  C0  1  0.25000000  0.76217300  0.45563700  1
  C  C1  1  0.25000000  0.26217300  0.04436300  1
  C  C2  1  0.75000000  0.23782700  0.54436300  1
  C  C3  1  0.75000000  0.73782700  0.95563700  1
  Ni  Ni4  1  0.25000000  0.24945500  0.82017700  1
  Ni  Ni5  1  0.25000000  0.74945500  0.67982300  1
  Ni  Ni6  1  0.75000000  0.75054500  0.17982300  1
  Ni  Ni7  1  0.75000000  0.25054500  0.32017700  1
  Cu  Cu8  1  0.25000000  0.00357600  0.59239600  1
  Cu  Cu9  1  0.25000000  0.50357600  0.90760400  1
  Cu  Cu10  1  0.75000000  0.99642400  0.40760400  1
  Cu  Cu11  1  0.75000000  0.49642400  0.09239600  1
  Cu  Cu12  1  0.25000000  0.23277000  0.22759700  1
  Cu  Cu13  1  0.25000000  0.73277000  0.27240300  1
  Cu  Cu14  1  0.75000000  0.76723000  0.77240300  1
  Cu  Cu15  1  0.75000000  0.26723000  0.72759700  1
  Cu  Cu16  1  0.25000000  0.39137400  0.42946200  1
  Cu  Cu17  1  0.25000000  0.89137400  0.07053800  1
  Cu  Cu18  1  0.75000000  0.60862600  0.57053800  1
  Cu  Cu19  1  0.75000000  0.10862600  0.92946200  1
