# generated using pymatgen
data_Cu3NiC
_symmetry_space_group_name_H-M   'P 1'
_cell_length_a   5.72471300
_cell_length_b   5.89740600
_cell_length_c   25.49637200
_cell_angle_alpha   90.00000000
_cell_angle_beta   90.00000000
_cell_angle_gamma   90.00000000
_symmetry_Int_Tables_number   1
_chemical_formula_structural   Cu3NiC
_chemical_formula_sum   'Cu24 Ni8 C8'
_cell_volume   860.78191351
_cell_formula_units_Z   8
loop_
 _symmetry_equiv_pos_site_id
 _symmetry_equiv_pos_as_xyz
  1  'x, y, z'
loop_
 _atom_site_type_symbol
 _atom_site_label
 _atom_site_symmetry_multiplicity
 _atom_site_fract_x
 _atom_site_fract_y
 _atom_site_fract_z
 _atom_site_occupancy
  C  C0  1  0.75418800  0.52367900  0.41041000  1
  C  C1  1  0.25418800  0.47632100  0.58959000  1
  C  C2  1  0.25418800  0.97632100  0.91041000  1
  C  C3  1  0.75418800  0.02367900  0.08959000  1
  C  C4  1  0.25268200  0.02390400  0.40209700  1
  C  C5  1  0.75268200  0.97609600  0.59790300  1
  C  C6  1  0.75268200  0.47609600  0.90209700  1
  C  C7  1  0.25268200  0.52390400  0.09790300  1
  Ni  Ni8  1  0.33647200  0.44442700  0.29465500  1
  Ni  Ni9  1  0.83647200  0.55557300  0.70534500  1
  Ni  Ni10  1  0.83647200  0.05557300  0.79465500  1
  Ni  Ni11  1  0.33647200  0.94442700  0.20534500  1
  Ni  Ni12  1  0.83411000  0.11552800  0.29102400  1
  Ni  Ni13  1  0.33411000  0.88447200  0.70897600  1
  Ni  Ni14  1  0.33411000  0.38447200  0.79102400  1
  Ni  Ni15  1  0.83411000  0.61552800  0.20897600  1
  Cu  Cu16  1  0.46373000  0.81590300  0.49727600  1
  Cu  Cu17  1  0.96373000  0.18409700  0.50272400  1
  Cu  Cu18  1  0.96373000  0.68409700  0.99727600  1
  Cu  Cu19  1  0.46373000  0.31590300  0.00272400  1
  Cu  Cu20  1  0.56174900  0.18737800  0.50152300  1
  Cu  Cu21  1  0.06174900  0.81262200  0.49847700  1
  Cu  Cu22  1  0.06174900  0.31262200  0.00152300  1
  Cu  Cu23  1  0.56174900  0.68737800  0.99847700  1
  Cu  Cu24  1  0.75063900  0.01673500  0.37271000  1
  Cu  Cu25  1  0.25063900  0.98326500  0.62729000  1
  Cu  Cu26  1  0.25063900  0.48326500  0.87271000  1
  Cu  Cu27  1  0.75063900  0.51673500  0.12729000  1
  Cu  Cu28  1  0.25181100  0.52757300  0.37670500  1
  Cu  Cu29  1  0.75181100  0.47242700  0.62329500  1
  Cu  Cu30  1  0.75181100  0.97242700  0.87670500  1
  Cu  Cu31  1  0.25181100  0.02757300  0.12329500  1
  Cu  Cu32  1  0.22621600  0.08259300  0.28431400  1
  Cu  Cu33  1  0.72621600  0.91740700  0.71568600  1
  Cu  Cu34  1  0.72621600  0.41740700  0.78431400  1
  Cu  Cu35  1  0.22621600  0.58259300  0.21568600  1
  Cu  Cu36  1  0.72840300  0.48102600  0.28919200  1
  Cu  Cu37  1  0.22840300  0.51897400  0.71080800  1
  Cu  Cu38  1  0.22840300  0.01897400  0.78919200  1
  Cu  Cu39  1  0.72840300  0.98102600  0.21080800  1
