# generated using pymatgen
data_CuNi4C5
_symmetry_space_group_name_H-M   'P 1'
_cell_length_a   11.75845351
_cell_length_b   11.75845351
_cell_length_c   12.91850824
_cell_angle_alpha   90.00000000
_cell_angle_beta   90.00000000
_cell_angle_gamma   90.00000000
_symmetry_Int_Tables_number   1
_chemical_formula_structural   CuNi4C5
_chemical_formula_sum   'Cu20 Ni80 C100'
_cell_volume   1786.12882542
_cell_formula_units_Z   20
loop_
 _symmetry_equiv_pos_site_id
 _symmetry_equiv_pos_as_xyz
  1  'x, y, z'
loop_
 _atom_site_type_symbol
 _atom_site_label
 _atom_site_symmetry_multiplicity
 _atom_site_fract_x
 _atom_site_fract_y
 _atom_site_fract_z
 _atom_site_occupancy
  C  C0  1  0.25000000  0.25000000  0.74646938  1
  C  C1  1  0.25000000  0.25000000  0.24646938  1
  C  C2  1  0.75000000  0.75000000  0.25353062  1
  C  C3  1  0.75000000  0.75000000  0.75353062  1
  C  C4  1  0.17450913  0.54279981  0.75326647  1
  C  C5  1  0.17450913  0.95720019  0.25326647  1
  C  C6  1  0.32549087  0.54279981  0.25326647  1
  C  C7  1  0.32549087  0.95720019  0.75326647  1
  C  C8  1  0.54279981  0.17450913  0.75326647  1
  C  C9  1  0.95720019  0.17450913  0.25326647  1
  C  C10  1  0.54279981  0.32549087  0.25326647  1
  C  C11  1  0.95720019  0.32549087  0.75326647  1
  C  C12  1  0.82549087  0.45720019  0.24673353  1
  C  C13  1  0.82549087  0.04279981  0.74673353  1
  C  C14  1  0.67450913  0.45720019  0.74673353  1
  C  C15  1  0.67450913  0.04279981  0.24673353  1
  C  C16  1  0.45720019  0.82549087  0.24673353  1
  C  C17  1  0.04279981  0.82549087  0.74673353  1
  C  C18  1  0.45720019  0.67450913  0.74673353  1
  C  C19  1  0.04279981  0.67450913  0.24673353  1
  Ni  Ni20  1  0.13412459  0.46713947  0.99740414  1
  Ni  Ni21  1  0.13412459  0.03286053  0.49740414  1
  Ni  Ni22  1  0.36587541  0.46713947  0.49740414  1
  Ni  Ni23  1  0.36587541  0.03286053  0.99740414  1
  Ni  Ni24  1  0.46713947  0.13412459  0.99740414  1
  Ni  Ni25  1  0.03286053  0.13412459  0.49740414  1
  Ni  Ni26  1  0.46713947  0.36587541  0.49740414  1
  Ni  Ni27  1  0.03286053  0.36587541  0.99740414  1
  Ni  Ni28  1  0.86587541  0.53286053  0.00259586  1
  Ni  Ni29  1  0.86587541  0.96713947  0.50259586  1
  Ni  Ni30  1  0.63412459  0.53286053  0.50259586  1
  Ni  Ni31  1  0.63412459  0.96713947  0.00259586  1
  Ni  Ni32  1  0.53286053  0.86587541  0.00259586  1
  Ni  Ni33  1  0.96713947  0.86587541  0.50259586  1
  Ni  Ni34  1  0.53286053  0.63412459  0.50259586  1
  Ni  Ni35  1  0.96713947  0.63412459  0.00259586  1
  Ni  Ni36  1  0.05826130  0.44173870  0.10796780  1
  Ni  Ni37  1  0.05826130  0.05826130  0.60796780  1
  Ni  Ni38  1  0.44173870  0.44173870  0.60796780  1
  Ni  Ni39  1  0.44173870  0.05826130  0.10796780  1
  Ni  Ni40  1  0.94173870  0.55826130  0.89203220  1
  Ni  Ni41  1  0.94173870  0.94173870  0.39203220  1
  Ni  Ni42  1  0.55826130  0.55826130  0.39203220  1
  Ni  Ni43  1  0.55826130  0.94173870  0.89203220  1
  Ni  Ni44  1  0.15436867  0.34563133  0.06553365  1
  Ni  Ni45  1  0.15436867  0.15436867  0.56553365  1
  Ni  Ni46  1  0.34563133  0.34563133  0.56553365  1
  Ni  Ni47  1  0.34563133  0.15436867  0.06553365  1
  Ni  Ni48  1  0.84563133  0.65436867  0.93446635  1
  Ni  Ni49  1  0.84563133  0.84563133  0.43446635  1
  Ni  Ni50  1  0.65436867  0.65436867  0.43446635  1
  Ni  Ni51  1  0.65436867  0.84563133  0.93446635  1
  Ni  Ni52  1  0.11158897  0.01065273  0.91616127  1
  Ni  Ni53  1  0.11158897  0.48934727  0.41616127  1
  Ni  Ni54  1  0.38841103  0.01065273  0.41616127  1
  Ni  Ni55  1  0.38841103  0.48934727  0.91616127  1
  Ni  Ni56  1  0.01065273  0.11158897  0.91616127  1
  Ni  Ni57  1  0.48934727  0.11158897  0.41616127  1
  Ni  Ni58  1  0.01065273  0.38841103  0.41616127  1
  Ni  Ni59  1  0.48934727  0.38841103  0.91616127  1
  Ni  Ni60  1  0.88841103  0.98934727  0.08383873  1
  Ni  Ni61  1  0.88841103  0.51065273  0.58383873  1
  Ni  Ni62  1  0.61158897  0.98934727  0.58383873  1
  Ni  Ni63  1  0.61158897  0.51065273  0.08383873  1
  Ni  Ni64  1  0.98934727  0.88841103  0.08383873  1
  Ni  Ni65  1  0.51065273  0.88841103  0.58383873  1
  Ni  Ni66  1  0.98934727  0.61158897  0.58383873  1
  Ni  Ni67  1  0.51065273  0.61158897  0.08383873  1
  Ni  Ni68  1  0.15002285  0.15002285  0.92218707  1
  Ni  Ni69  1  0.15002285  0.34997715  0.42218707  1
  Ni  Ni70  1  0.34997715  0.15002285  0.42218707  1
  Ni  Ni71  1  0.34997715  0.34997715  0.92218707  1
  Ni  Ni72  1  0.84997715  0.84997715  0.07781293  1
  Ni  Ni73  1  0.84997715  0.65002285  0.57781293  1
  Ni  Ni74  1  0.65002285  0.84997715  0.57781293  1
  Ni  Ni75  1  0.65002285  0.65002285  0.07781293  1
  Ni  Ni76  1  0.08577928  0.08577928  0.02394678  1
  Ni  Ni77  1  0.08577928  0.41422072  0.52394678  1
  Ni  Ni78  1  0.41422072  0.08577928  0.52394678  1
  Ni  Ni79  1  0.41422072  0.41422072  0.02394678  1
  Ni  Ni80  1  0.91422072  0.91422072  0.97605322  1
  Ni  Ni81  1  0.91422072  0.58577928  0.47605322  1
  Ni  Ni82  1  0.58577928  0.91422072  0.47605322  1
  Ni  Ni83  1  0.58577928  0.58577928  0.97605322  1
  Ni  Ni84  1  0.24887585  0.67773190  0.95428282  1
  Ni  Ni85  1  0.24887585  0.82226810  0.45428282  1
  Ni  Ni86  1  0.25112415  0.67773190  0.45428282  1
  Ni  Ni87  1  0.25112415  0.82226810  0.95428282  1
  Ni  Ni88  1  0.67773190  0.24887585  0.95428282  1
  Ni  Ni89  1  0.82226810  0.24887585  0.45428282  1
  Ni  Ni90  1  0.67773190  0.25112415  0.45428282  1
  Ni  Ni91  1  0.82226810  0.25112415  0.95428282  1
  Ni  Ni92  1  0.75112415  0.32226810  0.04571718  1
  Ni  Ni93  1  0.75112415  0.17773190  0.54571718  1
  Ni  Ni94  1  0.74887585  0.32226810  0.54571718  1
  Ni  Ni95  1  0.74887585  0.17773190  0.04571718  1
  Ni  Ni96  1  0.32226810  0.75112415  0.04571718  1
  Ni  Ni97  1  0.17773190  0.75112415  0.54571718  1
  Ni  Ni98  1  0.32226810  0.74887585  0.54571718  1
  Ni  Ni99  1  0.17773190  0.74887585  0.04571718  1
  Cu  Cu100  1  0.09403000  0.40597000  0.04285346  1
  Cu  Cu101  1  0.09403000  0.09403000  0.54285346  1
  Cu  Cu102  1  0.40597000  0.40597000  0.54285346  1
  Cu  Cu103  1  0.40597000  0.09403000  0.04285346  1
  Cu  Cu104  1  0.90597000  0.59403000  0.95714654  1
  Cu  Cu105  1  0.90597000  0.90597000  0.45714654  1
  Cu  Cu106  1  0.59403000  0.59403000  0.45714654  1
  Cu  Cu107  1  0.59403000  0.90597000  0.95714654  1
  Cu  Cu108  1  0.08985697  0.08985697  0.94408917  1
  Cu  Cu109  1  0.08985697  0.41014303  0.44408917  1
  Cu  Cu110  1  0.41014303  0.08985697  0.44408917  1
  Cu  Cu111  1  0.41014303  0.41014303  0.94408917  1
  Cu  Cu112  1  0.91014303  0.91014303  0.05591083  1
  Cu  Cu113  1  0.91014303  0.58985697  0.55591083  1
  Cu  Cu114  1  0.58985697  0.91014303  0.55591083  1
  Cu  Cu115  1  0.58985697  0.58985697  0.05591083  1
  Cu  Cu116  1  0.25000000  0.75000000  -0.00000000  1
  Cu  Cu117  1  0.25000000  0.75000000  0.50000000  1
  Cu  Cu118  1  0.75000000  0.25000000  -0.00000000  1
  Cu  Cu119  1  0.75000000  0.25000000  0.50000000  1
  C  C120  1  0.25000000  0.25000000  0.60698681  1
  C  C121  1  0.25000000  0.25000000  0.10698681  1
  C  C122  1  0.75000000  0.75000000  0.39301319  1
  C  C123  1  0.75000000  0.75000000  0.89301319  1
  C  C124  1  0.25000000  0.25000000  0.88530687  1
  C  C125  1  0.25000000  0.25000000  0.38530687  1
  C  C126  1  0.75000000  0.75000000  0.11469313  1
  C  C127  1  0.75000000  0.75000000  0.61469313  1
  C  C128  1  0.03372370  0.46627630  0.77570066  1
  C  C129  1  0.03372370  0.03372370  0.27570066  1
  C  C130  1  0.46627630  0.46627630  0.27570066  1
  C  C131  1  0.46627630  0.03372370  0.77570066  1
  C  C132  1  0.96627630  0.53372370  0.22429934  1
  C  C133  1  0.96627630  0.96627630  0.72429934  1
  C  C134  1  0.53372370  0.53372370  0.72429934  1
  C  C135  1  0.53372370  0.96627630  0.22429934  1
  C  C136  1  0.14910326  0.54289426  0.61855478  1
  C  C137  1  0.14910326  0.95710574  0.11855478  1
  C  C138  1  0.35089674  0.54289426  0.11855478  1
  C  C139  1  0.35089674  0.95710574  0.61855478  1
  C  C140  1  0.54289426  0.14910326  0.61855478  1
  C  C141  1  0.95710574  0.14910326  0.11855478  1
  C  C142  1  0.54289426  0.35089674  0.11855478  1
  C  C143  1  0.95710574  0.35089674  0.61855478  1
  C  C144  1  0.85089674  0.45710574  0.38144522  1
  C  C145  1  0.85089674  0.04289426  0.88144522  1
  C  C146  1  0.64910326  0.45710574  0.88144522  1
  C  C147  1  0.64910326  0.04289426  0.38144522  1
  C  C148  1  0.45710574  0.85089674  0.38144522  1
  C  C149  1  0.04289426  0.85089674  0.88144522  1
  C  C150  1  0.45710574  0.64910326  0.88144522  1
  C  C151  1  0.04289426  0.64910326  0.38144522  1
  C  C152  1  0.10821327  0.68340904  0.76498184  1
  C  C153  1  0.10821327  0.81659096  0.26498184  1
  C  C154  1  0.39178673  0.68340904  0.26498184  1
  C  C155  1  0.39178673  0.81659096  0.76498184  1
  C  C156  1  0.68340904  0.10821327  0.76498184  1
  C  C157  1  0.81659096  0.10821327  0.26498184  1
  C  C158  1  0.68340904  0.39178673  0.26498184  1
  C  C159  1  0.81659096  0.39178673  0.76498184  1
  C  C160  1  0.89178673  0.31659096  0.23501816  1
  C  C161  1  0.89178673  0.18340904  0.73501816  1
  C  C162  1  0.60821327  0.31659096  0.73501816  1
  C  C163  1  0.60821327  0.18340904  0.23501816  1
  C  C164  1  0.31659096  0.89178673  0.23501816  1
  C  C165  1  0.18340904  0.89178673  0.73501816  1
  C  C166  1  0.31659096  0.60821327  0.73501816  1
  C  C167  1  0.18340904  0.60821327  0.23501816  1
  C  C168  1  0.25114336  0.40542487  0.74575118  1
  C  C169  1  0.25114336  0.09457513  0.24575118  1
  C  C170  1  0.24885664  0.40542487  0.24575118  1
  C  C171  1  0.24885664  0.09457513  0.74575118  1
  C  C172  1  0.40542487  0.25114336  0.74575118  1
  C  C173  1  0.09457513  0.25114336  0.24575118  1
  C  C174  1  0.40542487  0.24885664  0.24575118  1
  C  C175  1  0.09457513  0.24885664  0.74575118  1
  C  C176  1  0.74885664  0.59457513  0.25424882  1
  C  C177  1  0.74885664  0.90542487  0.75424882  1
  C  C178  1  0.75114336  0.59457513  0.75424882  1
  C  C179  1  0.75114336  0.90542487  0.25424882  1
  C  C180  1  0.59457513  0.74885664  0.25424882  1
  C  C181  1  0.90542487  0.74885664  0.75424882  1
  C  C182  1  0.59457513  0.75114336  0.75424882  1
  C  C183  1  0.90542487  0.75114336  0.25424882  1
  C  C184  1  0.19423508  0.54372005  0.89215480  1
  C  C185  1  0.19423508  0.95627995  0.39215480  1
  C  C186  1  0.30576492  0.54372005  0.39215480  1
  C  C187  1  0.30576492  0.95627995  0.89215480  1
  C  C188  1  0.54372005  0.19423508  0.89215480  1
  C  C189  1  0.95627995  0.19423508  0.39215480  1
  C  C190  1  0.54372005  0.30576492  0.39215480  1
  C  C191  1  0.95627995  0.30576492  0.89215480  1
  C  C192  1  0.80576492  0.45627995  0.10784520  1
  C  C193  1  0.80576492  0.04372005  0.60784520  1
  C  C194  1  0.69423508  0.45627995  0.60784520  1
  C  C195  1  0.69423508  0.04372005  0.10784520  1
  C  C196  1  0.45627995  0.80576492  0.10784520  1
  C  C197  1  0.04372005  0.80576492  0.60784520  1
  C  C198  1  0.45627995  0.69423508  0.60784520  1
  C  C199  1  0.04372005  0.69423508  0.10784520  1
