# generated using pymatgen
data_Cu5NiC11
_symmetry_space_group_name_H-M   'P 1'
_cell_length_a   7.68610300
_cell_length_b   8.65764300
_cell_length_c   12.42638481
_cell_angle_alpha   49.26558459
_cell_angle_beta   90.00000000
_cell_angle_gamma   90.00000000
_symmetry_Int_Tables_number   1
_chemical_formula_structural   Cu5NiC11
_chemical_formula_sum   'Cu20 Ni4 C44'
_cell_volume   626.57393342
_cell_formula_units_Z   4
loop_
 _symmetry_equiv_pos_site_id
 _symmetry_equiv_pos_as_xyz
  1  'x, y, z'
loop_
 _atom_site_type_symbol
 _atom_site_label
 _atom_site_symmetry_multiplicity
 _atom_site_fract_x
 _atom_site_fract_y
 _atom_site_fract_z
 _atom_site_occupancy
  C  C0  1  0.18359200  0.94498600  0.24117700  1
  C  C1  1  0.68359200  0.05501400  0.25882300  1
  C  C2  1  0.81640800  0.05501400  0.75882300  1
  C  C3  1  0.31640800  0.94498600  0.74117700  1
  Ni  Ni4  1  0.40952900  0.48120800  0.12684500  1
  Ni  Ni5  1  0.90952900  0.51879200  0.37315500  1
  Ni  Ni6  1  0.59047100  0.51879200  0.87315500  1
  Ni  Ni7  1  0.09047100  0.48120800  0.62684500  1
  Cu  Cu8  1  0.57369800  0.66301300  0.25442300  1
  Cu  Cu9  1  0.18668300  0.52250300  0.91226600  1
  Cu  Cu10  1  0.68668300  0.47749700  0.58773400  1
  Cu  Cu11  1  0.81331700  0.47749700  0.08773400  1
  Cu  Cu12  1  0.31331700  0.52250300  0.41226600  1
  Cu  Cu13  1  0.89705900  0.84995200  0.49102400  1
  Cu  Cu14  1  0.39705900  0.15004800  0.00897600  1
  Cu  Cu15  1  0.10294100  0.15004800  0.50897600  1
  Cu  Cu16  1  0.60294100  0.84995200  0.99102400  1
  Cu  Cu17  1  0.07369800  0.33698700  0.24557700  1
  Cu  Cu18  1  0.42630200  0.33698700  0.74557700  1
  Cu  Cu19  1  0.92630200  0.66301300  0.75442300  1
  Cu  Cu20  1  0.32466400  0.08577400  0.39691300  1
  Cu  Cu21  1  0.82466400  0.91422600  0.10308700  1
  Cu  Cu22  1  0.67533600  0.91422600  0.60308700  1
  Cu  Cu23  1  0.17533600  0.08577400  0.89691300  1
  Cu  Cu24  1  0.53076700  0.27951000  0.44281500  1
  Cu  Cu25  1  0.03076700  0.72049000  0.05718500  1
  Cu  Cu26  1  0.46923300  0.72049000  0.55718500  1
  Cu  Cu27  1  0.96923300  0.27951000  0.94281500  1
  C  C28  1  0.20290700  0.18747700  0.27513000  1
  C  C29  1  0.65382200  0.42228200  0.06993500  1
  C  C30  1  0.15382200  0.57771800  0.43006500  1
  C  C31  1  0.34617800  0.57771800  0.93006500  1
  C  C32  1  0.84617800  0.42228200  0.56993500  1
  C  C33  1  0.44459000  0.11467500  0.12793100  1
  C  C34  1  0.94459000  0.88532500  0.37206900  1
  C  C35  1  0.55541000  0.88532500  0.87206900  1
  C  C36  1  0.70290700  0.81252300  0.22487000  1
  C  C37  1  0.05541000  0.11467500  0.62793100  1
  C  C38  1  0.29709300  0.18747700  0.77513000  1
  C  C39  1  0.79709300  0.81252300  0.72487000  1
  C  C40  1  0.53210600  0.69596700  0.12225200  1
  C  C41  1  0.03210600  0.30403300  0.37774800  1
  C  C42  1  0.46789400  0.30403300  0.87774800  1
  C  C43  1  0.96789400  0.69596700  0.62225200  1
  C  C44  1  0.40848700  0.68743000  0.30170400  1
  C  C45  1  0.90848700  0.31257000  0.19829600  1
  C  C46  1  0.59151300  0.31257000  0.69829600  1
  C  C47  1  0.09151300  0.68743000  0.80170400  1
  C  C48  1  0.64719200  0.45698100  0.36062400  1
  C  C49  1  0.14719200  0.54301900  0.13937600  1
  C  C50  1  0.35280800  0.54301900  0.63937600  1
  C  C51  1  0.85280800  0.45698100  0.86062400  1
  C  C52  1  0.46840600  0.23558600  0.34990300  1
  C  C53  1  0.96840600  0.76441400  0.15009700  1
  C  C54  1  0.53159400  0.76441400  0.65009700  1
  C  C55  1  0.03159400  0.23558600  0.84990300  1
  C  C56  1  0.39228800  0.90483400  0.42117500  1
  C  C57  1  0.89228800  0.09516600  0.07882500  1
  C  C58  1  0.60771200  0.09516600  0.57882500  1
  C  C59  1  0.12486500  0.32781300  0.99069800  1
  C  C60  1  0.23261600  0.02486900  0.52314300  1
  C  C61  1  0.73261600  0.97513100  0.97685700  1
  C  C62  1  0.76738400  0.97513100  0.47685700  1
  C  C63  1  0.26738400  0.02486900  0.02314300  1
  C  C64  1  0.37513500  0.32781300  0.49069800  1
  C  C65  1  0.87513500  0.67218700  0.00930200  1
  C  C66  1  0.62486500  0.67218700  0.50930200  1
  C  C67  1  0.10771200  0.90483400  0.92117500  1
