# generated using pymatgen
data_CuNiC10
_symmetry_space_group_name_H-M   'P 1'
_cell_length_a   10.70830151
_cell_length_b   10.70830151
_cell_length_c   6.36492700
_cell_angle_alpha   90.00000000
_cell_angle_beta   90.00000000
_cell_angle_gamma   119.99999699
_symmetry_Int_Tables_number   1
_chemical_formula_structural   CuNiC10
_chemical_formula_sum   'Cu2 Ni2 C20'
_cell_volume   632.07011089
_cell_formula_units_Z   2
loop_
 _symmetry_equiv_pos_site_id
 _symmetry_equiv_pos_as_xyz
  1  'x, y, z'
loop_
 _atom_site_type_symbol
 _atom_site_label
 _atom_site_symmetry_multiplicity
 _atom_site_fract_x
 _atom_site_fract_y
 _atom_site_fract_z
 _atom_site_occupancy
  C  C0  1  0.64483400  0.86437200  0.96398600  1
  C  C1  1  0.78046100  0.64483400  0.46398600  1
  C  C2  1  0.86437200  0.21953900  0.46398600  1
  C  C3  1  0.13562800  0.78046100  0.96398600  1
  C  C4  1  0.21953900  0.35516600  0.96398600  1
  C  C5  1  0.35516600  0.13562800  0.46398600  1
  Ni  Ni6  1  0.00000000  0.00000000  0.50874600  1
  Ni  Ni7  1  0.00000000  0.00000000  0.00874600  1
  Cu  Cu8  1  0.66666700  0.33333300  0.88643900  1
  Cu  Cu9  1  0.33333300  0.66666700  0.38643900  1
  C  C10  1  0.48695200  0.57229600  0.21297400  1
  C  C11  1  0.91465600  0.48695200  0.71297400  1
  C  C12  1  0.57229600  0.08534400  0.71297400  1
  C  C13  1  0.42770400  0.91465600  0.21297400  1
  C  C14  1  0.33333300  0.66666700  0.78291000  1
  C  C15  1  0.66666700  0.33333300  0.28291000  1
  C  C16  1  0.08534400  0.51304800  0.21297400  1
  C  C17  1  0.51304800  0.42770400  0.71297400  1
  C  C18  1  0.25622800  0.09982500  0.99600800  1
  C  C19  1  0.15640300  0.25622800  0.49600800  1
  C  C20  1  0.09982500  0.84359700  0.49600800  1
  C  C21  1  0.90017500  0.15640300  0.99600800  1
  C  C22  1  0.84359700  0.74377200  0.99600800  1
  C  C23  1  0.74377200  0.90017500  0.49600800  1
