# generated using pymatgen
data_Cu12Ni6C17
_symmetry_space_group_name_H-M   'P 1'
_cell_length_a   10.09789300
_cell_length_b   6.68762400
_cell_length_c   13.09480800
_cell_angle_alpha   65.69391973
_cell_angle_beta   90.00000000
_cell_angle_gamma   90.00000000
_symmetry_Int_Tables_number   1
_chemical_formula_structural   Cu12Ni6C17
_chemical_formula_sum   'Cu24 Ni12 C34'
_cell_volume   805.91923369
_cell_formula_units_Z   2
loop_
 _symmetry_equiv_pos_site_id
 _symmetry_equiv_pos_as_xyz
  1  'x, y, z'
loop_
 _atom_site_type_symbol
 _atom_site_label
 _atom_site_symmetry_multiplicity
 _atom_site_fract_x
 _atom_site_fract_y
 _atom_site_fract_z
 _atom_site_occupancy
  C  C0  1  0.21577400  0.39022100  0.58473000  1
  C  C1  1  0.28422600  0.39022100  0.08473000  1
  C  C2  1  0.78422600  0.60977900  0.41527000  1
  C  C3  1  0.71577400  0.60977900  0.91527000  1
  C  C4  1  0.48550700  0.18745200  0.85037200  1
  C  C5  1  0.01449300  0.18745200  0.35037200  1
  C  C6  1  0.51449300  0.81254800  0.14962800  1
  C  C7  1  0.98550700  0.81254800  0.64962800  1
  C  C8  1  0.50000000  0.00000000  0.50000000  1
  C  C9  1  0.00000000  0.00000000  0.00000000  1
  C  C10  1  0.31710200  0.26665600  0.38156000  1
  C  C11  1  0.18289800  0.26665600  0.88156000  1
  C  C12  1  0.68289800  0.73334400  0.61844000  1
  C  C13  1  0.81710200  0.73334400  0.11844000  1
  C  C14  1  0.43684700  0.41218100  0.39025700  1
  C  C15  1  0.06315300  0.41218100  0.89025700  1
  C  C16  1  0.56315300  0.58781900  0.60974300  1
  C  C17  1  0.93684700  0.58781900  0.10974300  1
  C  C18  1  0.30688800  0.91918400  0.39411700  1
  C  C19  1  0.19311200  0.91918400  0.89411700  1
  C  C20  1  0.69311200  0.08081600  0.60588300  1
  C  C21  1  0.80688800  0.08081600  0.10588300  1
  C  C22  1  0.42639700  0.76113300  0.39642600  1
  C  C23  1  0.07360300  0.76113300  0.89642600  1
  C  C24  1  0.57360300  0.23886700  0.60357400  1
  C  C25  1  0.92639700  0.23886700  0.10357400  1
  C  C26  1  0.68546700  0.20267400  0.33650000  1
  C  C27  1  0.81453300  0.20267400  0.83650000  1
  C  C28  1  0.31453300  0.79732600  0.66350000  1
  C  C29  1  0.18546700  0.79732600  0.16350000  1
  C  C30  1  0.56524700  0.12017900  0.28322600  1
  C  C31  1  0.93475300  0.12017900  0.78322600  1
  C  C32  1  0.43475300  0.87982100  0.71677400  1
  C  C33  1  0.06524700  0.87982100  0.21677400  1
  Ni  Ni34  1  0.38237700  0.28051300  0.43441900  1
  Ni  Ni35  1  0.11762300  0.28051300  0.93441900  1
  Ni  Ni36  1  0.61762300  0.71948700  0.56558100  1
  Ni  Ni37  1  0.88237700  0.71948700  0.06558100  1
  Ni  Ni38  1  0.37414500  0.81782100  0.44311300  1
  Ni  Ni39  1  0.12585500  0.81782100  0.94311300  1
  Ni  Ni40  1  0.62585500  0.18217900  0.55688700  1
  Ni  Ni41  1  0.87414500  0.18217900  0.05688700  1
  Ni  Ni42  1  0.61103500  0.09790200  0.35361000  1
  Ni  Ni43  1  0.88896500  0.09790200  0.85361000  1
  Ni  Ni44  1  0.38896500  0.90209800  0.64639000  1
  Ni  Ni45  1  0.11103500  0.90209800  0.14639000  1
  Cu  Cu46  1  0.61369600  0.04203700  0.99582100  1
  Cu  Cu47  1  0.88630400  0.04203700  0.49582100  1
  Cu  Cu48  1  0.38630400  0.95796300  0.00417900  1
  Cu  Cu49  1  0.11369600  0.95796300  0.50417900  1
  Cu  Cu50  1  0.28606500  0.15914900  0.81171300  1
  Cu  Cu51  1  0.21393500  0.15914900  0.31171300  1
  Cu  Cu52  1  0.71393500  0.84085100  0.18828700  1
  Cu  Cu53  1  0.78606500  0.84085100  0.68828700  1
  Cu  Cu54  1  0.43004000  0.42576500  0.89763700  1
  Cu  Cu55  1  0.06996000  0.42576500  0.39763700  1
  Cu  Cu56  1  0.56996000  0.57423500  0.10236300  1
  Cu  Cu57  1  0.93004000  0.57423500  0.60236300  1
  Cu  Cu58  1  0.47470600  0.36010400  0.67245900  1
  Cu  Cu59  1  0.02529400  0.36010400  0.17245900  1
  Cu  Cu60  1  0.52529400  0.63989600  0.32754100  1
  Cu  Cu61  1  0.97470600  0.63989600  0.82754100  1
  Cu  Cu62  1  0.66562700  0.34559300  0.80458800  1
  Cu  Cu63  1  0.83437300  0.34559300  0.30458800  1
  Cu  Cu64  1  0.33437300  0.65440700  0.19541200  1
  Cu  Cu65  1  0.16562700  0.65440700  0.69541200  1
  Cu  Cu66  1  0.53349800  0.92199700  0.81773800  1
  Cu  Cu67  1  0.96650200  0.92199700  0.31773800  1
  Cu  Cu68  1  0.46650200  0.07800300  0.18226200  1
  Cu  Cu69  1  0.03349800  0.07800300  0.68226200  1
