# generated using pymatgen
data_Cu(Ni3C11)2
_symmetry_space_group_name_H-M   'P 1'
_cell_length_a   11.96989300
_cell_length_b   8.48834900
_cell_length_c   15.70897309
_cell_angle_alpha   90.00000000
_cell_angle_beta   99.43369529
_cell_angle_gamma   90.00000000
_symmetry_Int_Tables_number   1
_chemical_formula_structural   Cu(Ni3C11)2
_chemical_formula_sum   'Cu4 Ni24 C88'
_cell_volume   1574.51857610
_cell_formula_units_Z   4
loop_
 _symmetry_equiv_pos_site_id
 _symmetry_equiv_pos_as_xyz
  1  'x, y, z'
loop_
 _atom_site_type_symbol
 _atom_site_label
 _atom_site_symmetry_multiplicity
 _atom_site_fract_x
 _atom_site_fract_y
 _atom_site_fract_z
 _atom_site_occupancy
  C  C0  1  0.62097200  0.61553400  0.20569100  1
  C  C1  1  0.37902800  0.61553400  0.29430900  1
  C  C2  1  0.37902800  0.38446600  0.79430900  1
  C  C3  1  0.62097200  0.38446600  0.70569100  1
  C  C4  1  0.81620900  0.56817800  0.32572300  1
  C  C5  1  0.18379100  0.56817800  0.17427700  1
  C  C6  1  0.18379100  0.43182200  0.67427700  1
  C  C7  1  0.81620900  0.43182200  0.82572300  1
  C  C8  1  0.92007900  0.43455100  0.37790200  1
  C  C9  1  0.07992100  0.43455100  0.12209800  1
  C  C10  1  0.07992100  0.56544900  0.62209800  1
  C  C11  1  0.92007900  0.56544900  0.87790200  1
  C  C12  1  0.79967900  0.09850000  0.27340700  1
  C  C13  1  0.20032100  0.09850000  0.22659300  1
  C  C14  1  0.20032100  0.90150000  0.72659300  1
  C  C15  1  0.79967900  0.90150000  0.77340700  1
  C  C16  1  0.90958800  0.18067400  0.35028800  1
  C  C17  1  0.09041200  0.18067400  0.14971200  1
  C  C18  1  0.09041200  0.81932600  0.64971200  1
  C  C19  1  0.90958800  0.81932600  0.85028800  1
  C  C20  1  0.48102100  0.07937700  0.10939700  1
  C  C21  1  0.51897900  0.07937700  0.39060300  1
  C  C22  1  0.51897900  0.92062300  0.89060300  1
  C  C23  1  0.48102100  0.92062300  0.60939700  1
  C  C24  1  0.57828000  0.93461400  0.15834700  1
  C  C25  1  0.42172000  0.93461400  0.34165300  1
  C  C26  1  0.42172000  0.06538600  0.84165300  1
  C  C27  1  0.57828000  0.06538600  0.65834700  1
  C  C28  1  0.26263100  0.81785300  0.03273200  1
  C  C29  1  0.73736900  0.81785300  0.46726800  1
  C  C30  1  0.73736900  0.18214700  0.96726800  1
  C  C31  1  0.26263100  0.18214700  0.53273200  1
  C  C32  1  0.31460800  0.01220900  0.03714200  1
  C  C33  1  0.68539200  0.01220900  0.46285800  1
  C  C34  1  0.68539200  0.98779100  0.96285800  1
  C  C35  1  0.31460800  0.98779100  0.53714200  1
  C  C36  1  0.88097500  0.00154000  0.12412300  1
  C  C37  1  0.11902500  0.00154000  0.37587700  1
  C  C38  1  0.11902500  0.99846000  0.87587700  1
  C  C39  1  0.88097500  0.99846000  0.62412300  1
  C  C40  1  0.94686300  0.86410100  0.06495700  1
  C  C41  1  0.05313700  0.86410100  0.43504300  1
  C  C42  1  0.05313700  0.13589900  0.93504300  1
  C  C43  1  0.94686300  0.13589900  0.56495700  1
  C  C44  1  0.80778300  0.53336900  0.13138900  1
  C  C45  1  0.19221700  0.53336900  0.36861100  1
  C  C46  1  0.19221700  0.46663100  0.86861100  1
  C  C47  1  0.80778300  0.46663100  0.63138900  1
  C  C48  1  0.89986900  0.60590300  0.06444500  1
  C  C49  1  0.10013100  0.60590300  0.43555500  1
  C  C50  1  0.10013100  0.39409700  0.93555500  1
  C  C51  1  0.89986900  0.39409700  0.56444500  1
  C  C52  1  0.58716800  0.30640300  0.49349200  1
  C  C53  1  0.41283200  0.30640300  0.00650800  1
  C  C54  1  0.41283200  0.69359700  0.50650800  1
  C  C55  1  0.58716800  0.69359700  0.99349200  1
  C  C56  1  0.63763400  0.32694500  0.40962600  1
  C  C57  1  0.36236600  0.32694500  0.09037400  1
  C  C58  1  0.36236600  0.67305500  0.59037400  1
  C  C59  1  0.63763400  0.67305500  0.90962600  1
  C  C60  1  0.79306100  0.33794600  0.29056600  1
  C  C61  1  0.20693900  0.33794600  0.20943400  1
  C  C62  1  0.20693900  0.66205400  0.70943400  1
  C  C63  1  0.79306100  0.66205400  0.79056600  1
  C  C64  1  0.42406500  0.85188300  0.10094700  1
  C  C65  1  0.57593500  0.85188300  0.39905300  1
  C  C66  1  0.57593500  0.14811700  0.89905300  1
  C  C67  1  0.42406500  0.14811700  0.60094700  1
  C  C68  1  0.83649800  0.77117200  0.13873600  1
  C  C69  1  0.16350200  0.77117200  0.36126400  1
  C  C70  1  0.16350200  0.22882800  0.86126400  1
  C  C71  1  0.83649800  0.22882800  0.63873600  1
  C  C72  1  0.66720400  0.36045200  0.22080900  1
  C  C73  1  0.33279600  0.36045200  0.27919100  1
  C  C74  1  0.33279600  0.63954800  0.77919100  1
  C  C75  1  0.66720400  0.63954800  0.72080900  1
  C  C76  1  0.44722300  0.65591300  0.12841400  1
  C  C77  1  0.55277700  0.65591300  0.37158600  1
  C  C78  1  0.55277700  0.34408700  0.87158600  1
  C  C79  1  0.44722300  0.34408700  0.62841400  1
  C  C80  1  0.75150700  0.81180900  0.21463000  1
  C  C81  1  0.24849300  0.81180900  0.28537000  1
  C  C82  1  0.24849300  0.18819100  0.78537000  1
  C  C83  1  0.75150700  0.18819100  0.71463000  1
  Ni  Ni84  1  0.84797600  0.45734500  0.33439600  1
  Ni  Ni85  1  0.15202400  0.45734500  0.16560400  1
  Ni  Ni86  1  0.15202400  0.54265500  0.66560400  1
  Ni  Ni87  1  0.84797600  0.54265500  0.83439600  1
  Ni  Ni88  1  0.83888700  0.19395100  0.30387900  1
  Ni  Ni89  1  0.16111300  0.19395100  0.19612100  1
  Ni  Ni90  1  0.16111300  0.80604900  0.69612100  1
  Ni  Ni91  1  0.83888700  0.80604900  0.80387900  1
  Ni  Ni92  1  0.49993400  0.96452700  0.12655500  1
  Ni  Ni93  1  0.50006600  0.96452700  0.37344500  1
  Ni  Ni94  1  0.50006600  0.03547300  0.87344500  1
  Ni  Ni95  1  0.49993400  0.03547300  0.62655500  1
  Ni  Ni96  1  0.32609600  0.89588100  0.05270800  1
  Ni  Ni97  1  0.67390400  0.89588100  0.44729200  1
  Ni  Ni98  1  0.67390400  0.10411900  0.94729200  1
  Ni  Ni99  1  0.32609600  0.10411900  0.55270800  1
  Ni  Ni100  1  0.89399700  0.88797000  0.10872500  1
  Ni  Ni101  1  0.10600300  0.88797000  0.39127500  1
  Ni  Ni102  1  0.10600300  0.11203000  0.89127500  1
  Ni  Ni103  1  0.89399700  0.11203000  0.60872500  1
  Ni  Ni104  1  0.84917600  0.62566600  0.10963500  1
  Ni  Ni105  1  0.15082400  0.62566600  0.39036500  1
  Ni  Ni106  1  0.15082400  0.37433400  0.89036500  1
  Ni  Ni107  1  0.84917600  0.37433400  0.60963500  1
  Cu  Cu108  1  0.95188100  0.26228400  0.03320700  1
  Cu  Cu109  1  0.04811900  0.26228400  0.46679300  1
  Cu  Cu110  1  0.04811900  0.73771600  0.96679300  1
  Cu  Cu111  1  0.95188100  0.73771600  0.53320700  1
  C  C112  1  0.61640500  0.24679700  0.44861900  1
  C  C113  1  0.38359500  0.24679700  0.05138100  1
  C  C114  1  0.38359500  0.75320300  0.55138100  1
  C  C115  1  0.61640500  0.75320300  0.94861900  1
