# generated using pymatgen
data_Cu2NiC9
_symmetry_space_group_name_H-M   'P 1'
_cell_length_a   5.50987200
_cell_length_b   7.15670300
_cell_length_c   8.78004300
_cell_angle_alpha   90.00000000
_cell_angle_beta   90.00000000
_cell_angle_gamma   90.00000000
_symmetry_Int_Tables_number   1
_chemical_formula_structural   Cu2NiC9
_chemical_formula_sum   'Cu4 Ni2 C18'
_cell_volume   346.21919900
_cell_formula_units_Z   2
loop_
 _symmetry_equiv_pos_site_id
 _symmetry_equiv_pos_as_xyz
  1  'x, y, z'
loop_
 _atom_site_type_symbol
 _atom_site_label
 _atom_site_symmetry_multiplicity
 _atom_site_fract_x
 _atom_site_fract_y
 _atom_site_fract_z
 _atom_site_occupancy
  C  C0  1  0.50000000  0.41122000  0.31586200  1
  C  C1  1  0.50000000  0.58878000  0.81586200  1
  Ni  Ni2  1  0.00000000  0.08393900  0.68757200  1
  Ni  Ni3  1  0.00000000  0.91606100  0.18757200  1
  Cu  Cu4  1  0.50000000  0.06230000  0.93570000  1
  Cu  Cu5  1  0.50000000  0.93770000  0.43570000  1
  Cu  Cu6  1  0.00000000  0.43803300  0.06358500  1
  Cu  Cu7  1  0.00000000  0.56196700  0.56358500  1
  C  C8  1  0.72282300  0.94043100  0.92036700  1
  C  C9  1  0.27717700  0.05956900  0.42036700  1
  C  C10  1  0.21908500  0.56091200  0.08028000  1
  C  C11  1  0.78091500  0.43908800  0.58028000  1
  C  C12  1  0.78091500  0.56091200  0.08028000  1
  C  C13  1  0.21908500  0.43908800  0.58028000  1
  C  C14  1  0.27717700  0.94043100  0.92036700  1
  C  C15  1  0.72282300  0.05956900  0.42036700  1
  C  C16  1  0.50000000  0.19951900  0.80808300  1
  C  C17  1  0.50000000  0.80048100  0.30808300  1
  C  C18  1  0.00000000  0.29648600  0.18957500  1
  C  C19  1  0.00000000  0.70351400  0.68957500  1
  C  C20  1  0.50000000  0.15133600  0.08706900  1
  C  C21  1  0.50000000  0.84866400  0.58706900  1
  C  C22  1  0.00000000  0.34909600  0.91126100  1
  C  C23  1  0.00000000  0.65090400  0.41126100  1
