# generated using pymatgen
data_Cu3Ni3C8
_symmetry_space_group_name_H-M   'P 1'
_cell_length_a   8.46327703
_cell_length_b   8.46327703
_cell_length_c   9.76778572
_cell_angle_alpha   54.80245366
_cell_angle_beta   54.80245366
_cell_angle_gamma   70.54157734
_symmetry_Int_Tables_number   1
_chemical_formula_structural   Cu3Ni3C8
_chemical_formula_sum   'Cu3 Ni3 C8'
_cell_volume   467.19398035
_cell_formula_units_Z   1
loop_
 _symmetry_equiv_pos_site_id
 _symmetry_equiv_pos_as_xyz
  1  'x, y, z'
loop_
 _atom_site_type_symbol
 _atom_site_label
 _atom_site_symmetry_multiplicity
 _atom_site_fract_x
 _atom_site_fract_y
 _atom_site_fract_z
 _atom_site_occupancy
  C  C0  1  0.35040100  0.99669600  0.25861000  1
  C  C1  1  0.14212700  0.49877300  0.11160900  1
  C  C2  1  0.50122700  0.85787300  0.88839100  1
  C  C3  1  0.00330400  0.64959900  0.74139000  1
  C  C4  1  0.64506100  0.50387200  0.60345100  1
  C  C5  1  0.85616900  0.99456700  0.25851200  1
  C  C6  1  0.49612800  0.35493900  0.39654900  1
  C  C7  1  0.00543300  0.14383100  0.74148800  1
  Ni  Ni8  1  0.24840400  0.25031300  0.87680000  1
  Ni  Ni9  1  0.74968700  0.75159600  0.12320000  1
  Ni  Ni10  1  0.62710200  0.37289800  0.00000000  1
  Cu  Cu11  1  0.87323700  0.12676300  0.50000000  1
  Cu  Cu12  1  0.12650400  0.62478500  0.37383800  1
  Cu  Cu13  1  0.37521500  0.87349600  0.62616200  1
