# generated using pymatgen
data_Cu12Ni3C7
_symmetry_space_group_name_H-M   'P 1'
_cell_length_a   9.00518804
_cell_length_b   15.57071945
_cell_length_c   15.57071945
_cell_angle_alpha   119.99999829
_cell_angle_beta   90.00000000
_cell_angle_gamma   90.00000000
_symmetry_Int_Tables_number   1
_chemical_formula_structural   Cu12Ni3C7
_chemical_formula_sum   'Cu72 Ni18 C42'
_cell_volume   1890.77906201
_cell_formula_units_Z   6
loop_
 _symmetry_equiv_pos_site_id
 _symmetry_equiv_pos_as_xyz
  1  'x, y, z'
loop_
 _atom_site_type_symbol
 _atom_site_label
 _atom_site_symmetry_multiplicity
 _atom_site_fract_x
 _atom_site_fract_y
 _atom_site_fract_z
 _atom_site_occupancy
  C  C0  1  0.91851037  0.75906158  0.79810539  1
  C  C1  1  0.08148963  0.24093842  0.20189461  1
  C  C2  1  0.91851037  0.03904380  0.24093842  1
  C  C3  1  0.08148963  0.96095620  0.75906158  1
  C  C4  1  0.91851037  0.20189461  0.96095620  1
  C  C5  1  0.08148963  0.79810539  0.03904380  1
  C  C6  1  0.59234495  0.55323446  0.64631217  1
  C  C7  1  0.40765505  0.44676554  0.35368783  1
  C  C8  1  0.59234495  0.09307771  0.44676554  1
  C  C9  1  0.40765505  0.90692229  0.55323446  1
  C  C10  1  0.59234495  0.35368783  0.90692229  1
  C  C11  1  0.40765505  0.64631217  0.09307771  1
  C  C12  1  0.79069345  0.57960552  0.88915682  1
  C  C13  1  0.20930655  0.42039448  0.11084318  1
  C  C14  1  0.79069345  0.30955129  0.42039448  1
  C  C15  1  0.20930655  0.69044871  0.57960552  1
  C  C16  1  0.79069345  0.11084318  0.69044871  1
  C  C17  1  0.20930655  0.88915682  0.30955129  1
  C  C18  1  0.30590153  0.66666700  0.33333300  1
  C  C19  1  0.69409847  0.33333300  0.66666700  1
  C  C20  1  0.50000000  -0.00000000  -0.00000000  1
  C  C21  1  0.80352819  0.66666700  0.33333300  1
  C  C22  1  0.19647181  0.33333300  0.66666700  1
  C  C23  1  0.00000000  -0.00000000  -0.00000000  1
  C  C24  1  0.61697484  0.74342890  0.76770257  1
  C  C25  1  0.38302516  0.25657110  0.23229743  1
  C  C26  1  0.61697484  0.02427367  0.25657110  1
  C  C27  1  0.38302516  0.97572633  0.74342890  1
  C  C28  1  0.61697484  0.23229743  0.97572633  1
  C  C29  1  0.38302516  0.76770257  0.02427367  1
  C  C30  1  0.71545079  0.64625680  0.07350254  1
  C  C31  1  0.28454921  0.35374320  0.92649746  1
  C  C32  1  0.71545079  0.42724574  0.35374320  1
  C  C33  1  0.28454921  0.57275426  0.64625680  1
  C  C34  1  0.71545079  0.92649746  0.57275426  1
  C  C35  1  0.28454921  0.07350254  0.42724574  1
  C  C36  1  0.90098494  0.91001816  0.31670503  1
  C  C37  1  0.09901506  0.08998184  0.68329497  1
  C  C38  1  0.90098494  0.40668687  0.08998184  1
  C  C39  1  0.09901506  0.59331313  0.91001816  1
  C  C40  1  0.90098494  0.68329497  0.59331313  1
  C  C41  1  0.09901506  0.31670503  0.40668687  1
  Ni  Ni42  1  0.93238903  0.49010181  0.65530074  1
  Ni  Ni43  1  0.06761097  0.50989819  0.34469926  1
  Ni  Ni44  1  0.93238903  0.16519893  0.50989819  1
  Ni  Ni45  1  0.06761097  0.83480107  0.49010181  1
  Ni  Ni46  1  0.93238903  0.34469926  0.83480107  1
  Ni  Ni47  1  0.06761097  0.65530074  0.16519893  1
  Ni  Ni48  1  0.75231236  0.84519874  0.01961280  1
  Ni  Ni49  1  0.24768764  0.15480126  0.98038720  1
  Ni  Ni50  1  0.75231236  0.17441406  0.15480126  1
  Ni  Ni51  1  0.24768764  0.82558594  0.84519874  1
  Ni  Ni52  1  0.75231236  0.98038720  0.82558594  1
  Ni  Ni53  1  0.24768764  0.01961280  0.17441406  1
  Ni  Ni54  1  0.54325268  0.82339105  0.32064609  1
  Ni  Ni55  1  0.45674732  0.17660895  0.67935391  1
  Ni  Ni56  1  0.54325268  0.49725504  0.17660895  1
  Ni  Ni57  1  0.45674732  0.50274496  0.82339105  1
  Ni  Ni58  1  0.54325268  0.67935391  0.50274496  1
  Ni  Ni59  1  0.45674732  0.32064609  0.49725504  1
  Cu  Cu60  1  0.82916708  0.75357565  0.94320902  1
  Cu  Cu61  1  0.17083292  0.24642435  0.05679098  1
  Cu  Cu62  1  0.82916708  0.18963337  0.24642435  1
  Cu  Cu63  1  0.17083292  0.81036663  0.75357565  1
  Cu  Cu64  1  0.82916708  0.05679098  0.81036663  1
  Cu  Cu65  1  0.17083292  0.94320902  0.18963337  1
  Cu  Cu66  1  0.87564251  0.92603701  0.06521032  1
  Cu  Cu67  1  0.12435749  0.07396299  0.93478968  1
  Cu  Cu68  1  0.87564251  0.13917332  0.07396299  1
  Cu  Cu69  1  0.12435749  0.86082668  0.92603701  1
  Cu  Cu70  1  0.87564251  0.93478968  0.86082668  1
  Cu  Cu71  1  0.12435749  0.06521032  0.13917332  1
  Cu  Cu72  1  0.93205811  0.79951299  0.42614259  1
  Cu  Cu73  1  0.06794189  0.20048701  0.57385741  1
  Cu  Cu74  1  0.93205811  0.62662960  0.20048701  1
  Cu  Cu75  1  0.06794189  0.37337040  0.79951299  1
  Cu  Cu76  1  0.93205811  0.57385741  0.37337040  1
  Cu  Cu77  1  0.06794189  0.42614259  0.62662960  1
  Cu  Cu78  1  0.84835673  0.46956983  0.56618755  1
  Cu  Cu79  1  0.15164327  0.53043017  0.43381245  1
  Cu  Cu80  1  0.84835673  0.09661772  0.53043017  1
  Cu  Cu81  1  0.15164327  0.90338228  0.46956983  1
  Cu  Cu82  1  0.84835673  0.43381245  0.90338228  1
  Cu  Cu83  1  0.15164327  0.56618755  0.09661772  1
  Cu  Cu84  1  0.83311071  0.46508540  0.72034497  1
  Cu  Cu85  1  0.16688929  0.53491460  0.27965503  1
  Cu  Cu86  1  0.83311071  0.25525956  0.53491460  1
  Cu  Cu87  1  0.16688929  0.74474044  0.46508540  1
  Cu  Cu88  1  0.83311071  0.27965503  0.74474044  1
  Cu  Cu89  1  0.16688929  0.72034497  0.25525956  1
  Cu  Cu90  1  0.58811262  0.92690671  0.38272989  1
  Cu  Cu91  1  0.41188738  0.07309329  0.61727011  1
  Cu  Cu92  1  0.58811262  0.45582318  0.07309329  1
  Cu  Cu93  1  0.41188738  0.54417682  0.92690671  1
  Cu  Cu94  1  0.58811262  0.61727011  0.54417682  1
  Cu  Cu95  1  0.41188738  0.38272989  0.45582318  1
  Cu  Cu96  1  0.54526871  0.57208509  0.80593040  1
  Cu  Cu97  1  0.45473129  0.42791491  0.19406960  1
  Cu  Cu98  1  0.54526871  0.23384532  0.42791491  1
  Cu  Cu99  1  0.45473129  0.76615468  0.57208509  1
  Cu  Cu100  1  0.54526871  0.19406960  0.76615468  1
  Cu  Cu101  1  0.45473129  0.80593040  0.23384532  1
  Cu  Cu102  1  0.64420909  0.87478155  0.96542307  1
  Cu  Cu103  1  0.35579091  0.12521845  0.03457693  1
  Cu  Cu104  1  0.64420909  0.09064152  0.12521845  1
  Cu  Cu105  1  0.35579091  0.90935848  0.87478155  1
  Cu  Cu106  1  0.64420909  0.03457693  0.90935848  1
  Cu  Cu107  1  0.35579091  0.96542307  0.09064152  1
  Cu  Cu108  1  0.55548217  0.38599042  0.58762695  1
  Cu  Cu109  1  0.44451783  0.61400958  0.41237305  1
  Cu  Cu110  1  0.55548217  0.20163653  0.61400958  1
  Cu  Cu111  1  0.44451783  0.79836347  0.38599042  1
  Cu  Cu112  1  0.55548217  0.41237305  0.79836347  1
  Cu  Cu113  1  0.44451783  0.58762695  0.20163653  1
  Cu  Cu114  1  0.67488254  0.75540202  0.28773691  1
  Cu  Cu115  1  0.32511746  0.24459798  0.71226309  1
  Cu  Cu116  1  0.67488254  0.53233489  0.24459798  1
  Cu  Cu117  1  0.32511746  0.46766511  0.75540202  1
  Cu  Cu118  1  0.67488254  0.71226309  0.46766511  1
  Cu  Cu119  1  0.32511746  0.28773691  0.53233489  1
  Cu  Cu120  1  0.68648349  0.83666743  0.09945105  1
  Cu  Cu121  1  0.31351651  0.16333257  0.90054895  1
  Cu  Cu122  1  0.68648349  0.26278362  0.16333257  1
  Cu  Cu123  1  0.31351651  0.73721638  0.83666743  1
  Cu  Cu124  1  0.68648349  0.90054895  0.73721638  1
  Cu  Cu125  1  0.31351651  0.09945105  0.26278362  1
  Cu  Cu126  1  0.97145745  0.59538569  0.71747072  1
  Cu  Cu127  1  0.02854255  0.40461431  0.28252928  1
  Cu  Cu128  1  0.97145745  0.12208503  0.40461431  1
  Cu  Cu129  1  0.02854255  0.87791497  0.59538569  1
  Cu  Cu130  1  0.97145745  0.28252928  0.87791497  1
  Cu  Cu131  1  0.02854255  0.71747072  0.12208503  1
