# generated using pymatgen
data_Cu(Ni2C5)2
_symmetry_space_group_name_H-M   'P 1'
_cell_length_a   6.71451712
_cell_length_b   6.71451712
_cell_length_c   6.71451712
_cell_angle_alpha   99.56528851
_cell_angle_beta   99.56528851
_cell_angle_gamma   131.88650744
_symmetry_Int_Tables_number   1
_chemical_formula_structural   Cu(Ni2C5)2
_chemical_formula_sum   'Cu1 Ni4 C10'
_cell_volume   205.79236351
_cell_formula_units_Z   1
loop_
 _symmetry_equiv_pos_site_id
 _symmetry_equiv_pos_as_xyz
  1  'x, y, z'
loop_
 _atom_site_type_symbol
 _atom_site_label
 _atom_site_symmetry_multiplicity
 _atom_site_fract_x
 _atom_site_fract_y
 _atom_site_fract_z
 _atom_site_occupancy
  Ni  Ni0  1  0.39941800  0.79909800  0.19851600  1
  Ni  Ni1  1  0.79909800  0.60058200  0.39968000  1
  Ni  Ni2  1  0.20090200  0.39941800  0.60032000  1
  Ni  Ni3  1  0.60058200  0.20090200  0.80148400  1
  Cu  Cu4  1  0.00000000  0.00000000  0.00000000  1
  C  C5  1  0.25000000  0.75000000  0.50000000  1
  C  C6  1  0.64411300  0.54222300  0.69498600  1
  C  C7  1  0.05087200  0.35588700  0.89811000  1
  C  C8  1  0.45777700  0.15276300  0.10189000  1
  C  C9  1  0.84723700  0.94912800  0.30501400  1
  C  C10  1  0.35588700  0.45777700  0.30501400  1
  C  C11  1  0.75000000  0.25000000  0.50000000  1
  C  C12  1  0.15276300  0.05087200  0.69498600  1
  C  C13  1  0.54222300  0.84723700  0.89811000  1
  C  C14  1  0.94912800  0.64411300  0.10189000  1
