# generated using pymatgen
data_Cu18NiC10
_symmetry_space_group_name_H-M   'P 1'
_cell_length_a   6.25896500
_cell_length_b   6.68505109
_cell_length_c   22.71400556
_cell_angle_alpha   93.80865588
_cell_angle_beta   90.00000000
_cell_angle_gamma   90.00000000
_symmetry_Int_Tables_number   1
_chemical_formula_structural   Cu18NiC10
_chemical_formula_sum   'Cu72 Ni4 C40'
_cell_volume   948.28909672
_cell_formula_units_Z   4
loop_
 _symmetry_equiv_pos_site_id
 _symmetry_equiv_pos_as_xyz
  1  'x, y, z'
loop_
 _atom_site_type_symbol
 _atom_site_label
 _atom_site_symmetry_multiplicity
 _atom_site_fract_x
 _atom_site_fract_y
 _atom_site_fract_z
 _atom_site_occupancy
  Ni  Ni0  1  0.86991500  0.79173000  0.15921600  1
  Ni  Ni1  1  0.36991500  0.20827000  0.34078400  1
  Ni  Ni2  1  0.13008500  0.20827000  0.84078400  1
  Ni  Ni3  1  0.63008500  0.79173000  0.65921600  1
  Cu  Cu4  1  0.97014100  0.40933800  0.38052200  1
  Cu  Cu5  1  0.47014100  0.59066200  0.11947800  1
  Cu  Cu6  1  0.02985900  0.59066200  0.61947800  1
  Cu  Cu7  1  0.52985900  0.40933800  0.88052200  1
  Cu  Cu8  1  0.89987200  0.40905900  0.09089900  1
  Cu  Cu9  1  0.39987200  0.59094100  0.40910100  1
  Cu  Cu10  1  0.10012800  0.59094100  0.90910100  1
  Cu  Cu11  1  0.60012800  0.40905900  0.59089900  1
  Cu  Cu12  1  0.71811800  0.30293900  0.26446600  1
  Cu  Cu13  1  0.21811800  0.69706100  0.23553400  1
  Cu  Cu14  1  0.28188200  0.69706100  0.73553400  1
  Cu  Cu15  1  0.78188200  0.30293900  0.76446600  1
  Cu  Cu16  1  0.52228000  0.77007400  0.02546100  1
  Cu  Cu17  1  0.02228000  0.22992600  0.47453900  1
  Cu  Cu18  1  0.47772000  0.22992600  0.97453900  1
  Cu  Cu19  1  0.97772000  0.77007400  0.52546100  1
  Cu  Cu20  1  0.66973600  0.63287300  0.97467800  1
  Cu  Cu21  1  0.16973600  0.36712700  0.52532200  1
  Cu  Cu22  1  0.33026400  0.36712700  0.02532200  1
  Cu  Cu23  1  0.83026400  0.63287300  0.47467800  1
  Cu  Cu24  1  0.98440400  0.99701400  0.33993600  1
  Cu  Cu25  1  0.48440400  0.00298600  0.16006400  1
  Cu  Cu26  1  0.01559600  0.00298600  0.66006400  1
  Cu  Cu27  1  0.51559600  0.99701400  0.83993600  1
  Cu  Cu28  1  0.89762300  0.19121800  0.21479400  1
  Cu  Cu29  1  0.39762300  0.80878200  0.28520600  1
  Cu  Cu30  1  0.10237700  0.80878200  0.78520600  1
  Cu  Cu31  1  0.60237700  0.19121800  0.71479400  1
  Cu  Cu32  1  0.78020900  0.70247900  0.04312900  1
  Cu  Cu33  1  0.28020900  0.29752100  0.45687100  1
  Cu  Cu34  1  0.21979100  0.29752100  0.95687100  1
  Cu  Cu35  1  0.71979100  0.70247900  0.54312900  1
  Cu  Cu36  1  0.85456200  0.17774700  0.94087500  1
  Cu  Cu37  1  0.35456200  0.82225300  0.55912500  1
  Cu  Cu38  1  0.14543800  0.82225300  0.05912500  1
  Cu  Cu39  1  0.64543800  0.17774700  0.44087500  1
  Cu  Cu40  1  0.89331400  0.75748600  0.35678300  1
  Cu  Cu41  1  0.39331400  0.24251400  0.14321700  1
  Cu  Cu42  1  0.10668600  0.24251400  0.64321700  1
  Cu  Cu43  1  0.60668600  0.75748600  0.85678300  1
  Cu  Cu44  1  0.73134900  0.87381500  0.99195400  1
  Cu  Cu45  1  0.23134900  0.12618500  0.50804600  1
  Cu  Cu46  1  0.26865100  0.12618500  0.00804600  1
  Cu  Cu47  1  0.76865100  0.87381500  0.49195400  1
  Cu  Cu48  1  0.89732200  0.82023600  0.28614700  1
  Cu  Cu49  1  0.39732200  0.17976400  0.21385300  1
  Cu  Cu50  1  0.10267800  0.17976400  0.71385300  1
  Cu  Cu51  1  0.60267800  0.82023600  0.78614700  1
  Cu  Cu52  1  0.72309000  0.44558000  0.39204000  1
  Cu  Cu53  1  0.22309000  0.55442000  0.10796000  1
  Cu  Cu54  1  0.27691000  0.55442000  0.60796000  1
  Cu  Cu55  1  0.77691000  0.44558000  0.89204000  1
  Cu  Cu56  1  0.90425400  0.17238300  0.10543300  1
  Cu  Cu57  1  0.40425400  0.82761700  0.39456700  1
  Cu  Cu58  1  0.09574600  0.82761700  0.89456700  1
  Cu  Cu59  1  0.59574600  0.17238300  0.60543300  1
  Cu  Cu60  1  0.71938600  0.93247500  0.33578300  1
  Cu  Cu61  1  0.21938600  0.06752500  0.16421700  1
  Cu  Cu62  1  0.28061400  0.06752500  0.66421700  1
  Cu  Cu63  1  0.78061400  0.93247500  0.83578300  1
  Cu  Cu64  1  0.80953700  0.19243800  0.01002700  1
  Cu  Cu65  1  0.30953700  0.80756200  0.48997300  1
  Cu  Cu66  1  0.19046300  0.80756200  0.98997300  1
  Cu  Cu67  1  0.69046300  0.19243800  0.51002700  1
  Cu  Cu68  1  0.98329100  0.28264000  0.28278600  1
  Cu  Cu69  1  0.48329100  0.71736000  0.21721400  1
  Cu  Cu70  1  0.01670900  0.71736000  0.71721400  1
  Cu  Cu71  1  0.51670900  0.28264000  0.78278600  1
  Cu  Cu72  1  0.90450100  0.44648900  0.23131700  1
  Cu  Cu73  1  0.40450100  0.55351100  0.26868300  1
  Cu  Cu74  1  0.09549900  0.55351100  0.76868300  1
  Cu  Cu75  1  0.59549900  0.44648900  0.73131700  1
  C  C76  1  0.87628000  0.87697800  0.33009900  1
  C  C77  1  0.37628000  0.12302200  0.16990100  1
  C  C78  1  0.12372000  0.12302200  0.66990100  1
  C  C79  1  0.62372000  0.87697800  0.83009900  1
  C  C80  1  0.67690000  0.74163800  0.00935900  1
  C  C81  1  0.17690000  0.25836200  0.49064100  1
  C  C82  1  0.32310000  0.25836200  0.99064100  1
  C  C83  1  0.82310000  0.74163800  0.50935900  1
  C  C84  1  0.87591600  0.30653200  0.24821000  1
  C  C85  1  0.37591600  0.69346800  0.25179000  1
  C  C86  1  0.12408400  0.69346800  0.75179000  1
  C  C87  1  0.62408400  0.30653200  0.74821000  1
  C  C88  1  0.94901000  0.69648500  0.21599300  1
  C  C89  1  0.44901000  0.30351500  0.28400700  1
  C  C90  1  0.05099000  0.30351500  0.78400700  1
  C  C91  1  0.55099000  0.69648500  0.71599300  1
  C  C92  1  0.94917600  0.01306200  0.15982100  1
  C  C93  1  0.44917600  0.98693800  0.34017900  1
  C  C94  1  0.05082400  0.98693800  0.84017900  1
  C  C95  1  0.55082400  0.01306200  0.65982100  1
  C  C96  1  0.75528600  0.13042700  0.97083200  1
  C  C97  1  0.25528600  0.86957300  0.52916800  1
  C  C98  1  0.24471400  0.86957300  0.02916800  1
  C  C99  1  0.74471400  0.13042700  0.47083200  1
  C  C100  1  0.96181900  0.67169500  0.10301000  1
  C  C101  1  0.46181900  0.32830500  0.39699000  1
  C  C102  1  0.03818100  0.32830500  0.89699000  1
  C  C103  1  0.53818100  0.67169500  0.60301000  1
  C  C104  1  0.62135400  0.78553300  0.15616100  1
  C  C105  1  0.12135400  0.21446700  0.34383900  1
  C  C106  1  0.37864600  0.21446700  0.84383900  1
  C  C107  1  0.87864600  0.78553300  0.65616100  1
  C  C108  1  0.86462000  0.51243700  0.39589500  1
  C  C109  1  0.36462000  0.48756300  0.10410500  1
  C  C110  1  0.13538000  0.48756300  0.60410500  1
  C  C111  1  0.63538000  0.51243700  0.89589500  1
  C  C112  1  0.89019200  0.26896500  0.07394000  1
  C  C113  1  0.39019200  0.73103500  0.42606000  1
  C  C114  1  0.10980800  0.73103500  0.92606000  1
  C  C115  1  0.60980800  0.26896500  0.57394000  1
