# generated using pymatgen
data_Cu3Ni2C19
_symmetry_space_group_name_H-M   'P 1'
_cell_length_a   2.93812175
_cell_length_b   2.93812175
_cell_length_c   29.24988900
_cell_angle_alpha   90.00000000
_cell_angle_beta   90.00000000
_cell_angle_gamma   119.99999432
_symmetry_Int_Tables_number   1
_chemical_formula_structural   Cu3Ni2C19
_chemical_formula_sum   'Cu3 Ni2 C19'
_cell_volume   218.67264318
_cell_formula_units_Z   1
loop_
 _symmetry_equiv_pos_site_id
 _symmetry_equiv_pos_as_xyz
  1  'x, y, z'
loop_
 _atom_site_type_symbol
 _atom_site_label
 _atom_site_symmetry_multiplicity
 _atom_site_fract_x
 _atom_site_fract_y
 _atom_site_fract_z
 _atom_site_occupancy
  C  C0  1  0.66666700  0.33333300  0.08016100  1
  C  C1  1  0.00000000  0.00000000  0.25532300  1
  C  C2  1  0.33333300  0.66666700  0.41972300  1
  C  C3  1  0.66666700  0.33333300  0.58027700  1
  C  C4  1  0.00000000  0.00000000  0.74467700  1
  C  C5  1  0.33333300  0.66666700  0.91983900  1
  C  C6  1  0.00000000  0.00000000  0.50000000  1
  Ni  Ni7  1  0.66666700  0.33333300  0.83337700  1
  Ni  Ni8  1  0.33333300  0.66666700  0.16662300  1
  Cu  Cu9  1  0.00000000  0.00000000  0.00000000  1
  Cu  Cu10  1  0.66666700  0.33333300  0.33392000  1
  Cu  Cu11  1  0.33333300  0.66666700  0.66608000  1
  C  C12  1  0.66666700  0.33333300  0.20402900  1
  C  C13  1  0.00000000  0.00000000  0.36983200  1
  C  C14  1  0.33333300  0.66666700  0.54253400  1
  C  C15  1  0.66666700  0.33333300  0.70567800  1
  C  C16  1  0.00000000  0.00000000  0.87220400  1
  C  C17  1  0.33333300  0.66666700  0.03420000  1
  C  C18  1  0.66666700  0.33333300  0.96580000  1
  C  C19  1  0.00000000  0.00000000  0.12779600  1
  C  C20  1  0.33333300  0.66666700  0.29432200  1
  C  C21  1  0.66666700  0.33333300  0.45746600  1
  C  C22  1  0.00000000  0.00000000  0.63016800  1
  C  C23  1  0.33333300  0.66666700  0.79597100  1
