# generated using pymatgen
data_Cu3NiC5
_symmetry_space_group_name_H-M   'P 1'
_cell_length_a   10.92687180
_cell_length_b   10.92687180
_cell_length_c   14.06412348
_cell_angle_alpha   51.40408031
_cell_angle_beta   51.40408031
_cell_angle_gamma   49.42056000
_symmetry_Int_Tables_number   1
_chemical_formula_structural   Cu3NiC5
_chemical_formula_sum   'Cu12 Ni4 C20'
_cell_volume   927.11203134
_cell_formula_units_Z   4
loop_
 _symmetry_equiv_pos_site_id
 _symmetry_equiv_pos_as_xyz
  1  'x, y, z'
loop_
 _atom_site_type_symbol
 _atom_site_label
 _atom_site_symmetry_multiplicity
 _atom_site_fract_x
 _atom_site_fract_y
 _atom_site_fract_z
 _atom_site_occupancy
  C  C0  1  0.00000000  0.50000000  0.00000000  1
  C  C1  1  0.50000000  0.00000000  0.50000000  1
  C  C2  1  0.18161900  0.81838100  0.75000000  1
  C  C3  1  0.81838100  0.18161900  0.25000000  1
  C  C4  1  0.97892000  0.26931500  0.68894400  1
  C  C5  1  0.26931500  0.97892000  0.18894400  1
  C  C6  1  0.02108000  0.73068500  0.31105600  1
  C  C7  1  0.73068500  0.02108000  0.81105600  1
  C  C8  1  0.96922300  0.33371400  0.81099700  1
  C  C9  1  0.33371400  0.96922300  0.31099700  1
  C  C10  1  0.03077700  0.66628600  0.18900300  1
  C  C11  1  0.66628600  0.03077700  0.68900300  1
  C  C12  1  0.81259500  0.48340100  0.82832600  1
  C  C13  1  0.48340100  0.81259500  0.32832600  1
  C  C14  1  0.18740500  0.51659900  0.17167400  1
  C  C15  1  0.51659900  0.18740500  0.67167400  1
  C  C16  1  0.76255700  0.38584800  0.83511700  1
  C  C17  1  0.38584800  0.76255700  0.33511700  1
  C  C18  1  0.23744300  0.61415200  0.16488300  1
  C  C19  1  0.61415200  0.23744300  0.66488300  1
  Ni  Ni20  1  0.92830500  0.26490300  0.78097000  1
  Ni  Ni21  1  0.26490300  0.92830500  0.28097000  1
  Ni  Ni22  1  0.07169500  0.73509700  0.21903000  1
  Ni  Ni23  1  0.73509700  0.07169500  0.71903000  1
  Cu  Cu24  1  0.28465300  0.39257500  0.08916200  1
  Cu  Cu25  1  0.39257500  0.28465300  0.58916200  1
  Cu  Cu26  1  0.71534700  0.60742500  0.91083800  1
  Cu  Cu27  1  0.60742500  0.71534700  0.41083800  1
  Cu  Cu28  1  0.18777300  0.10736400  0.53966600  1
  Cu  Cu29  1  0.10736400  0.18777300  0.03966600  1
  Cu  Cu30  1  0.81222700  0.89263600  0.46033400  1
  Cu  Cu31  1  0.89263600  0.81222700  0.96033400  1
  Cu  Cu32  1  0.19029400  0.59100000  0.74204500  1
  Cu  Cu33  1  0.59100000  0.19029400  0.24204500  1
  Cu  Cu34  1  0.80970600  0.40900000  0.25795500  1
  Cu  Cu35  1  0.40900000  0.80970600  0.75795500  1
