# generated using pymatgen
data_Cu3NiC6
_symmetry_space_group_name_H-M   'P 1'
_cell_length_a   5.56674300
_cell_length_b   7.01357900
_cell_length_c   10.39222956
_cell_angle_alpha   77.14313780
_cell_angle_beta   90.00000000
_cell_angle_gamma   90.00000000
_symmetry_Int_Tables_number   1
_chemical_formula_structural   Cu3NiC6
_chemical_formula_sum   'Cu6 Ni2 C12'
_cell_volume   395.56930711
_cell_formula_units_Z   2
loop_
 _symmetry_equiv_pos_site_id
 _symmetry_equiv_pos_as_xyz
  1  'x, y, z'
loop_
 _atom_site_type_symbol
 _atom_site_label
 _atom_site_symmetry_multiplicity
 _atom_site_fract_x
 _atom_site_fract_y
 _atom_site_fract_z
 _atom_site_occupancy
  Ni  Ni0  1  0.00000000  0.00000000  0.50000000  1
  Ni  Ni1  1  0.50000000  0.00000000  0.50000000  1
  Cu  Cu2  1  0.25000000  0.35986800  0.95607700  1
  Cu  Cu3  1  0.75000000  0.64013200  0.04392300  1
  Cu  Cu4  1  0.25000000  0.89166400  0.81181600  1
  Cu  Cu5  1  0.75000000  0.10833600  0.18818400  1
  Cu  Cu6  1  0.25000000  0.44762400  0.30796800  1
  Cu  Cu7  1  0.75000000  0.55237600  0.69203200  1
  C  C8  1  0.25000000  0.87620500  0.11080200  1
  C  C9  1  0.75000000  0.12379500  0.88919800  1
  C  C10  1  0.25000000  0.34252100  0.63880100  1
  C  C11  1  0.75000000  0.65747900  0.36119900  1
  C  C12  1  0.00133800  0.38238500  0.13280700  1
  C  C13  1  0.50133800  0.61761500  0.86719300  1
  C  C14  1  0.99866200  0.61761500  0.86719300  1
  C  C15  1  0.49866200  0.38238500  0.13280700  1
  C  C16  1  0.25000000  0.09976800  0.38581500  1
  C  C17  1  0.75000000  0.90023200  0.61418500  1
  C  C18  1  0.25000000  0.85428800  0.59100900  1
  C  C19  1  0.75000000  0.14571200  0.40899100  1
