# generated using pymatgen
data_Cu10Ni7C26
_symmetry_space_group_name_H-M   'P 1'
_cell_length_a   11.95075000
_cell_length_b   11.95075000
_cell_length_c   15.43004400
_cell_angle_alpha   90.00000000
_cell_angle_beta   90.00000000
_cell_angle_gamma   90.00000000
_symmetry_Int_Tables_number   1
_chemical_formula_structural   Cu10Ni7C26
_chemical_formula_sum   'Cu20 Ni14 C52'
_cell_volume   2203.72545053
_cell_formula_units_Z   2
loop_
 _symmetry_equiv_pos_site_id
 _symmetry_equiv_pos_as_xyz
  1  'x, y, z'
loop_
 _atom_site_type_symbol
 _atom_site_label
 _atom_site_symmetry_multiplicity
 _atom_site_fract_x
 _atom_site_fract_y
 _atom_site_fract_z
 _atom_site_occupancy
  C  C0  1  0.57441300  0.70638800  0.88165900  1
  C  C1  1  0.42558700  0.29361200  0.88165900  1
  C  C2  1  0.92558700  0.20638800  0.88165900  1
  C  C3  1  0.07441300  0.79361200  0.88165900  1
  C  C4  1  0.70638800  0.42558700  0.88165900  1
  C  C5  1  0.29361200  0.57441300  0.88165900  1
  C  C6  1  0.20638800  0.07441300  0.88165900  1
  C  C7  1  0.79361200  0.92558700  0.88165900  1
  C  C8  1  0.42558700  0.29361200  0.11834100  1
  C  C9  1  0.57441300  0.70638800  0.11834100  1
  C  C10  1  0.07441300  0.79361200  0.11834100  1
  C  C11  1  0.92558700  0.20638800  0.11834100  1
  C  C12  1  0.29361200  0.57441300  0.11834100  1
  C  C13  1  0.70638800  0.42558700  0.11834100  1
  C  C14  1  0.79361200  0.92558700  0.11834100  1
  C  C15  1  0.20638800  0.07441300  0.11834100  1
  C  C16  1  0.70620700  0.58062200  0.68743400  1
  C  C17  1  0.29379300  0.41937800  0.68743400  1
  C  C18  1  0.79379300  0.08062200  0.68743400  1
  C  C19  1  0.20620700  0.91937800  0.68743400  1
  C  C20  1  0.58062200  0.29379300  0.68743400  1
  C  C21  1  0.41937800  0.70620700  0.68743400  1
  C  C22  1  0.08062200  0.20620700  0.68743400  1
  C  C23  1  0.91937800  0.79379300  0.68743400  1
  C  C24  1  0.29379300  0.41937800  0.31256600  1
  C  C25  1  0.70620700  0.58062200  0.31256600  1
  C  C26  1  0.20620700  0.91937800  0.31256600  1
  C  C27  1  0.79379300  0.08062200  0.31256600  1
  C  C28  1  0.41937800  0.70620700  0.31256600  1
  C  C29  1  0.58062200  0.29379300  0.31256600  1
  C  C30  1  0.91937800  0.79379300  0.31256600  1
  C  C31  1  0.08062200  0.20620700  0.31256600  1
  C  C32  1  0.58578400  0.70444100  0.50000000  1
  C  C33  1  0.41421600  0.29555900  0.50000000  1
  C  C34  1  0.91421600  0.20444100  0.50000000  1
  C  C35  1  0.08578400  0.79555900  0.50000000  1
  C  C36  1  0.70444100  0.41421600  0.50000000  1
  C  C37  1  0.29555900  0.58578400  0.50000000  1
  C  C38  1  0.20444100  0.08578400  0.50000000  1
  C  C39  1  0.79555900  0.91421600  0.50000000  1
  C  C40  1  0.34103100  0.84103100  0.00000000  1
  C  C41  1  0.65896900  0.15896900  0.00000000  1
  C  C42  1  0.15896900  0.34103100  0.00000000  1
  C  C43  1  0.84103100  0.65896900  0.00000000  1
  C  C44  1  0.00000000  0.50000000  0.61529200  1
  C  C45  1  0.50000000  0.00000000  0.61529200  1
  C  C46  1  0.00000000  0.50000000  0.38470800  1
  C  C47  1  0.50000000  0.00000000  0.38470800  1
  C  C48  1  0.00000000  0.50000000  0.84270400  1
  C  C49  1  0.50000000  0.00000000  0.84270400  1
  C  C50  1  0.00000000  0.50000000  0.15729600  1
  C  C51  1  0.50000000  0.00000000  0.15729600  1
  Ni  Ni52  1  0.16224600  0.66224600  0.70705500  1
  Ni  Ni53  1  0.83775400  0.33775400  0.70705500  1
  Ni  Ni54  1  0.33775400  0.16224600  0.70705500  1
  Ni  Ni55  1  0.66224600  0.83775400  0.70705500  1
  Ni  Ni56  1  0.83775400  0.33775400  0.29294500  1
  Ni  Ni57  1  0.16224600  0.66224600  0.29294500  1
  Ni  Ni58  1  0.66224600  0.83775400  0.29294500  1
  Ni  Ni59  1  0.33775400  0.16224600  0.29294500  1
  Ni  Ni60  1  0.34752000  0.84752000  0.50000000  1
  Ni  Ni61  1  0.65248000  0.15248000  0.50000000  1
  Ni  Ni62  1  0.15248000  0.34752000  0.50000000  1
  Ni  Ni63  1  0.84752000  0.65248000  0.50000000  1
  Ni  Ni64  1  0.50000000  0.50000000  0.00000000  1
  Ni  Ni65  1  0.00000000  0.00000000  0.00000000  1
  Cu  Cu66  1  0.30503000  0.80503000  0.82030600  1
  Cu  Cu67  1  0.69497000  0.19497000  0.82030600  1
  Cu  Cu68  1  0.19497000  0.30503000  0.82030600  1
  Cu  Cu69  1  0.80503000  0.69497000  0.82030600  1
  Cu  Cu70  1  0.69497000  0.19497000  0.17969400  1
  Cu  Cu71  1  0.30503000  0.80503000  0.17969400  1
  Cu  Cu72  1  0.80503000  0.69497000  0.17969400  1
  Cu  Cu73  1  0.19497000  0.30503000  0.17969400  1
  Cu  Cu74  1  0.09239800  0.59239800  0.00000000  1
  Cu  Cu75  1  0.90760200  0.40760200  0.00000000  1
  Cu  Cu76  1  0.40760200  0.09239800  0.00000000  1
  Cu  Cu77  1  0.59239800  0.90760200  0.00000000  1
  Cu  Cu78  1  0.50000000  0.50000000  0.59168000  1
  Cu  Cu79  1  0.00000000  0.00000000  0.59168000  1
  Cu  Cu80  1  0.50000000  0.50000000  0.40832000  1
  Cu  Cu81  1  0.00000000  0.00000000  0.40832000  1
  Cu  Cu82  1  0.50000000  0.50000000  0.77182100  1
  Cu  Cu83  1  0.00000000  0.00000000  0.77182100  1
  Cu  Cu84  1  0.50000000  0.50000000  0.22817900  1
  Cu  Cu85  1  0.00000000  0.00000000  0.22817900  1
