# generated using pymatgen
data_CuNi3C2
_symmetry_space_group_name_H-M   'P 1'
_cell_length_a   3.28695789
_cell_length_b   3.28695789
_cell_length_c   37.44428300
_cell_angle_alpha   90.00000000
_cell_angle_beta   90.00000000
_cell_angle_gamma   119.99999775
_symmetry_Int_Tables_number   1
_chemical_formula_structural   CuNi3C2
_chemical_formula_sum   'Cu2 Ni6 C4'
_cell_volume   350.35187052
_cell_formula_units_Z   2
loop_
 _symmetry_equiv_pos_site_id
 _symmetry_equiv_pos_as_xyz
  1  'x, y, z'
loop_
 _atom_site_type_symbol
 _atom_site_label
 _atom_site_symmetry_multiplicity
 _atom_site_fract_x
 _atom_site_fract_y
 _atom_site_fract_z
 _atom_site_occupancy
  C  C0  1  0.00000000  0.00000000  0.09391900  1
  C  C1  1  0.00000000  0.00000000  0.46965900  1
  C  C2  1  0.33333300  0.66666700  0.28178900  1
  C  C3  1  0.33333300  0.66666700  0.65754700  1
  Ni  Ni4  1  0.00000000  0.00000000  0.32706700  1
  Ni  Ni5  1  0.00000000  0.00000000  0.70282700  1
  Ni  Ni6  1  0.33333300  0.66666700  0.42438200  1
  Ni  Ni7  1  0.33333300  0.66666700  0.51493900  1
  Ni  Ni8  1  0.00000000  0.00000000  0.23651700  1
  Ni  Ni9  1  0.00000000  0.00000000  0.61225100  1
  Cu  Cu10  1  0.33333300  0.66666700  0.05276900  1
  Cu  Cu11  1  0.33333300  0.66666700  0.13508200  1
