# generated using pymatgen
data_Cu2NiC6
_symmetry_space_group_name_H-M   'P 1'
_cell_length_a   6.44724141
_cell_length_b   6.44724141
_cell_length_c   11.26641169
_cell_angle_alpha   84.57014718
_cell_angle_beta   84.57014718
_cell_angle_gamma   106.34600209
_symmetry_Int_Tables_number   1
_chemical_formula_structural   Cu2NiC6
_chemical_formula_sum   'Cu8 Ni4 C24'
_cell_volume   443.74556108
_cell_formula_units_Z   4
loop_
 _symmetry_equiv_pos_site_id
 _symmetry_equiv_pos_as_xyz
  1  'x, y, z'
loop_
 _atom_site_type_symbol
 _atom_site_label
 _atom_site_symmetry_multiplicity
 _atom_site_fract_x
 _atom_site_fract_y
 _atom_site_fract_z
 _atom_site_occupancy
  C  C0  1  0.63273200  0.36726800  0.75000000  1
  C  C1  1  0.36726800  0.63273200  0.25000000  1
  C  C2  1  0.81610900  0.18389100  0.25000000  1
  C  C3  1  0.18389100  0.81610900  0.75000000  1
  Ni  Ni4  1  0.06663600  0.26257000  0.55680100  1
  Ni  Ni5  1  0.73743000  0.93336400  0.94319900  1
  Ni  Ni6  1  0.93336400  0.73743000  0.44319900  1
  Ni  Ni7  1  0.26257000  0.06663600  0.05680100  1
  Cu  Cu8  1  0.54349200  0.27044000  0.50374700  1
  Cu  Cu9  1  0.72956000  0.45650800  0.99625300  1
  Cu  Cu10  1  0.45650800  0.72956000  0.49625300  1
  Cu  Cu11  1  0.27044000  0.54349200  0.00374700  1
  Cu  Cu12  1  0.13145500  0.32449600  0.83132700  1
  Cu  Cu13  1  0.67550400  0.86854500  0.66867300  1
  Cu  Cu14  1  0.86854500  0.67550400  0.16867300  1
  Cu  Cu15  1  0.32449600  0.13145500  0.33132700  1
  C  C16  1  0.37926900  0.18756200  0.59627500  1
  C  C17  1  0.81243800  0.62073100  0.90372500  1
  C  C18  1  0.62073100  0.81243800  0.40372500  1
  C  C19  1  0.18756200  0.37926900  0.09627500  1
  C  C20  1  0.02920200  0.38533000  0.74007000  1
  C  C21  1  0.61467000  0.97079800  0.75993000  1
  C  C22  1  0.97079800  0.61467000  0.25993000  1
  C  C23  1  0.38533000  0.02920200  0.24007000  1
  C  C24  1  0.75563800  0.36419400  0.52369700  1
  C  C25  1  0.63580600  0.24436200  0.97630300  1
  C  C26  1  0.24436200  0.63580600  0.47630300  1
  C  C27  1  0.36419400  0.75563800  0.02369700  1
  C  C28  1  0.11578600  0.12795200  0.37243700  1
  C  C29  1  0.87204800  0.88421400  0.12756300  1
  C  C30  1  0.88421400  0.87204800  0.62756300  1
  C  C31  1  0.12795200  0.11578600  0.87243700  1
  C  C32  1  0.50345900  0.26947000  0.38131800  1
  C  C33  1  0.73053000  0.49654100  0.11868200  1
  C  C34  1  0.49654100  0.73053000  0.61868200  1
  C  C35  1  0.26947000  0.50345900  0.88131800  1
