# generated using pymatgen
data_Cu(NiC2)3
_symmetry_space_group_name_H-M   'P 1'
_cell_length_a   5.35881325
_cell_length_b   5.45362974
_cell_length_c   7.83092141
_cell_angle_alpha   90.35407455
_cell_angle_beta   89.99630127
_cell_angle_gamma   89.48188848
_symmetry_Int_Tables_number   1
_chemical_formula_structural   Cu(NiC2)3
_chemical_formula_sum   'Cu2 Ni6 C12'
_cell_volume   228.84481923
_cell_formula_units_Z   2
loop_
 _symmetry_equiv_pos_site_id
 _symmetry_equiv_pos_as_xyz
  1  'x, y, z'
loop_
 _atom_site_type_symbol
 _atom_site_label
 _atom_site_symmetry_multiplicity
 _atom_site_fract_x
 _atom_site_fract_y
 _atom_site_fract_z
 _atom_site_occupancy
  Ni  Ni0  1  0.49990800  0.99997300  0.50001000  1
  Ni  Ni1  1  0.99998200  0.95458400  0.75571000  1
  Ni  Ni2  1  0.99992400  0.04541300  0.24429000  1
  Ni  Ni3  1  0.00018400  0.50000500  0.99998400  1
  Ni  Ni4  1  0.49542300  0.55105300  0.25954900  1
  Ni  Ni5  1  0.50473900  0.44892000  0.74044100  1
  Cu  Cu6  1  0.99999400  0.49999000  0.49998900  1
  Cu  Cu7  1  0.50001100  0.99998500  0.00004100  1
  C  C8  1  0.15881700  0.79855600  0.42510800  1
  C  C9  1  0.65518400  0.70007200  0.92545900  1
  C  C10  1  0.84104300  0.20143300  0.57491800  1
  C  C11  1  0.34485100  0.29993700  0.07452900  1
  C  C12  1  0.30828800  0.32878900  0.44380400  1
  C  C13  1  0.80784000  0.17057900  0.94357300  1
  C  C14  1  0.69161900  0.67120300  0.55615000  1
  C  C15  1  0.19223600  0.82956400  0.05645100  1
  C  C16  1  0.62107100  0.92840700  0.23332400  1
  C  C17  1  0.12188200  0.57297800  0.73348300  1
  C  C18  1  0.37885700  0.07156000  0.76667600  1
  C  C19  1  0.87814800  0.42699900  0.26650900  1
