# generated using pymatgen
data_CuNi14C17
_symmetry_space_group_name_H-M   'P 1'
_cell_length_a   4.33066300
_cell_length_b   8.58274300
_cell_length_c   8.61342100
_cell_angle_alpha   90.00000000
_cell_angle_beta   90.00000000
_cell_angle_gamma   90.00000000
_symmetry_Int_Tables_number   1
_chemical_formula_structural   CuNi14C17
_chemical_formula_sum   'Cu1 Ni14 C17'
_cell_volume   320.15196563
_cell_formula_units_Z   1
loop_
 _symmetry_equiv_pos_site_id
 _symmetry_equiv_pos_as_xyz
  1  'x, y, z'
loop_
 _atom_site_type_symbol
 _atom_site_label
 _atom_site_symmetry_multiplicity
 _atom_site_fract_x
 _atom_site_fract_y
 _atom_site_fract_z
 _atom_site_occupancy
  C  C0  1  0.00000000  0.00000000  0.00000000  1
  Ni  Ni1  1  0.00000000  0.00000000  0.50000000  1
  Ni  Ni2  1  0.00000000  0.50000000  0.50000000  1
  Ni  Ni3  1  0.50000000  0.74398700  0.00000000  1
  Ni  Ni4  1  0.50000000  0.25601300  0.00000000  1
  Ni  Ni5  1  0.50000000  0.74933200  0.50000000  1
  Ni  Ni6  1  0.50000000  0.25066800  0.50000000  1
  Ni  Ni7  1  0.50000000  0.00000000  0.74435000  1
  Ni  Ni8  1  0.50000000  0.50000000  0.74985900  1
  Ni  Ni9  1  0.50000000  0.00000000  0.25565000  1
  Ni  Ni10  1  0.50000000  0.50000000  0.25014100  1
  Ni  Ni11  1  0.00000000  0.74654200  0.74658700  1
  Ni  Ni12  1  0.00000000  0.25345800  0.74658700  1
  Ni  Ni13  1  0.00000000  0.74654200  0.25341300  1
  Ni  Ni14  1  0.00000000  0.25345800  0.25341300  1
  Cu  Cu15  1  0.00000000  0.50000000  0.00000000  1
  C  C16  1  0.00000000  0.00000000  0.73670800  1
  C  C17  1  0.00000000  0.50000000  0.74288900  1
  C  C18  1  0.00000000  0.00000000  0.26329200  1
  C  C19  1  0.00000000  0.50000000  0.25711100  1
  C  C20  1  0.50000000  0.75013200  0.75098900  1
  C  C21  1  0.50000000  0.24986800  0.75098900  1
  C  C22  1  0.50000000  0.75013200  0.24901100  1
  C  C23  1  0.50000000  0.24986800  0.24901100  1
  C  C24  1  0.50000000  0.00000000  0.00000000  1
  C  C25  1  0.50000000  0.50000000  0.00000000  1
  C  C26  1  0.50000000  0.00000000  0.50000000  1
  C  C27  1  0.50000000  0.50000000  0.50000000  1
  C  C28  1  0.00000000  0.73841000  0.00000000  1
  C  C29  1  0.00000000  0.26159000  0.00000000  1
  C  C30  1  0.00000000  0.74823400  0.50000000  1
  C  C31  1  0.00000000  0.25176600  0.50000000  1
