# generated using pymatgen
data_Cu4Ni2C
_symmetry_space_group_name_H-M   'P 1'
_cell_length_a   4.04678889
_cell_length_b   3.31818500
_cell_length_c   17.28966600
_cell_angle_alpha   90.00000000
_cell_angle_beta   84.61783566
_cell_angle_gamma   90.00000000
_symmetry_Int_Tables_number   1
_chemical_formula_structural   Cu4Ni2C
_chemical_formula_sum   'Cu16 Ni8 C4'
_cell_volume   231.14196610
_cell_formula_units_Z   4
loop_
 _symmetry_equiv_pos_site_id
 _symmetry_equiv_pos_as_xyz
  1  'x, y, z'
loop_
 _atom_site_type_symbol
 _atom_site_label
 _atom_site_symmetry_multiplicity
 _atom_site_fract_x
 _atom_site_fract_y
 _atom_site_fract_z
 _atom_site_occupancy
  C  C0  1  0.06902500  0.00000000  0.88840400  1
  C  C1  1  0.45589900  0.50000000  0.61074800  1
  C  C2  1  0.93341100  0.50000000  0.08727100  1
  C  C3  1  0.55662400  0.00000000  0.39705300  1
  Ni  Ni4  1  0.81317000  0.00000000  0.23175400  1
  Ni  Ni5  1  0.64827400  0.50000000  0.26150000  1
  Ni  Ni6  1  0.10251300  0.50000000  0.75974300  1
  Ni  Ni7  1  0.27291800  0.00000000  0.73622000  1
  Ni  Ni8  1  0.43195200  0.00000000  0.01188300  1
  Ni  Ni9  1  0.95783200  0.50000000  0.47552200  1
  Ni  Ni10  1  0.52861900  0.50000000  0.96903900  1
  Ni  Ni11  1  0.03352400  0.00000000  0.51760200  1
  Cu  Cu12  1  0.39763400  0.36795900  0.22179600  1
  Cu  Cu13  1  0.39763400  0.63204100  0.22179600  1
  Cu  Cu14  1  0.05380700  0.24435300  0.69663600  1
  Cu  Cu15  1  0.05380700  0.75564700  0.69663600  1
  Cu  Cu16  1  0.11557500  0.00000000  0.22426400  1
  Cu  Cu17  1  0.03861600  0.50000000  0.40271400  1
  Cu  Cu18  1  0.47851600  0.50000000  0.89592000  1
  Cu  Cu19  1  0.90147300  0.00000000  0.58665900  1
  Cu  Cu20  1  0.12221200  0.00000000  0.02375400  1
  Cu  Cu21  1  0.64407300  0.50000000  0.47474100  1
  Cu  Cu22  1  0.84387000  0.50000000  0.95945600  1
  Cu  Cu23  1  0.33652000  0.00000000  0.53040000  1
  Cu  Cu24  1  0.83197100  0.50000000  0.79671600  1
  Cu  Cu25  1  0.56304100  0.00000000  0.70937800  1
  Cu  Cu26  1  0.72383600  0.00000000  0.16399400  1
  Cu  Cu27  1  0.46338400  0.50000000  0.32329100  1
