# generated using pymatgen
data_CuNiC29
_symmetry_space_group_name_H-M   'P 1'
_cell_length_a   6.93108443
_cell_length_b   6.93108443
_cell_length_c   7.14055400
_cell_angle_alpha   90.00000000
_cell_angle_beta   90.00000000
_cell_angle_gamma   117.83212837
_symmetry_Int_Tables_number   1
_chemical_formula_structural   CuNiC29
_chemical_formula_sum   'Cu1 Ni1 C29'
_cell_volume   303.34957843
_cell_formula_units_Z   1
loop_
 _symmetry_equiv_pos_site_id
 _symmetry_equiv_pos_as_xyz
  1  'x, y, z'
loop_
 _atom_site_type_symbol
 _atom_site_label
 _atom_site_symmetry_multiplicity
 _atom_site_fract_x
 _atom_site_fract_y
 _atom_site_fract_z
 _atom_site_occupancy
  Ni  Ni0  1  0.68549200  0.31450800  0.00000000  1
  Cu  Cu1  1  0.99586000  0.00414000  0.00000000  1
  C  C2  1  0.36946100  0.63053900  0.50000000  1
  C  C3  1  0.31655000  0.98438300  0.72531500  1
  C  C4  1  0.01561700  0.68345000  0.27468500  1
  C  C5  1  0.01561700  0.68345000  0.72531500  1
  C  C6  1  0.31655000  0.98438300  0.27468500  1
  C  C7  1  0.49861700  0.78835200  0.88913300  1
  C  C8  1  0.21164800  0.50138300  0.11086700  1
  C  C9  1  0.21164800  0.50138300  0.88913300  1
  C  C10  1  0.49861700  0.78835200  0.11086700  1
  C  C11  1  0.77567200  0.00339600  0.64447700  1
  C  C12  1  0.99660400  0.22432800  0.35552300  1
  C  C13  1  0.99660400  0.22432800  0.64447700  1
  C  C14  1  0.77567200  0.00339600  0.35552300  1
  C  C15  1  0.30274400  0.20368900  0.67432800  1
  C  C16  1  0.79631100  0.69725600  0.32567200  1
  C  C17  1  0.79631100  0.69725600  0.67432800  1
  C  C18  1  0.30274400  0.20368900  0.32567200  1
  C  C19  1  0.65213800  0.75278200  0.50000000  1
  C  C20  1  0.24721800  0.34786200  0.50000000  1
  C  C21  1  0.28936700  0.71063300  0.70226600  1
  C  C22  1  0.28936700  0.71063300  0.29773400  1
  C  C23  1  0.59573700  0.83810900  0.00000000  1
  C  C24  1  0.16189100  0.40426300  0.00000000  1
  C  C25  1  0.31007800  0.11265700  0.78015900  1
  C  C26  1  0.88734300  0.68992200  0.21984100  1
  C  C27  1  0.88734300  0.68992200  0.78015900  1
  C  C28  1  0.31007800  0.11265700  0.21984100  1
  C  C29  1  0.86800100  0.13199900  0.72311300  1
  C  C30  1  0.86800100  0.13199900  0.27688700  1
