# generated using pymatgen
data_Cu2Ni3C2
_symmetry_space_group_name_H-M   'P 1'
_cell_length_a   7.74224900
_cell_length_b   9.79215900
_cell_length_c   14.49860500
_cell_angle_alpha   90.00000000
_cell_angle_beta   90.00000000
_cell_angle_gamma   90.00000000
_symmetry_Int_Tables_number   1
_chemical_formula_structural   Cu2Ni3C2
_chemical_formula_sum   'Cu8 Ni12 C8'
_cell_volume   1099.18757217
_cell_formula_units_Z   4
loop_
 _symmetry_equiv_pos_site_id
 _symmetry_equiv_pos_as_xyz
  1  'x, y, z'
loop_
 _atom_site_type_symbol
 _atom_site_label
 _atom_site_symmetry_multiplicity
 _atom_site_fract_x
 _atom_site_fract_y
 _atom_site_fract_z
 _atom_site_occupancy
  C  C0  1  0.88301200  0.46670400  0.08930500  1
  C  C1  1  0.38301200  0.03329600  0.91069500  1
  C  C2  1  0.11698800  0.96670400  0.41069500  1
  C  C3  1  0.61698800  0.53329600  0.58930500  1
  C  C4  1  0.31828900  0.46328800  0.90990700  1
  C  C5  1  0.81828900  0.03671200  0.09009300  1
  C  C6  1  0.68171100  0.96328800  0.59009300  1
  C  C7  1  0.18171100  0.53671200  0.40990700  1
  Ni  Ni8  1  0.34774000  0.33181400  0.75994000  1
  Ni  Ni9  1  0.84774000  0.16818600  0.24006000  1
  Ni  Ni10  1  0.65226000  0.83181400  0.74006000  1
  Ni  Ni11  1  0.15226000  0.66818600  0.25994000  1
  Ni  Ni12  1  0.39578000  0.34647800  0.06231200  1
  Ni  Ni13  1  0.89578000  0.15352200  0.93768800  1
  Ni  Ni14  1  0.60422000  0.84647800  0.43768800  1
  Ni  Ni15  1  0.10422000  0.65352200  0.56231200  1
  Ni  Ni16  1  0.16657900  0.69148100  0.91932000  1
  Ni  Ni17  1  0.66657900  0.80851900  0.08068000  1
  Ni  Ni18  1  0.83342100  0.19148100  0.58068000  1
  Ni  Ni19  1  0.33342100  0.30851900  0.41932000  1
  Cu  Cu20  1  0.71640400  0.52360800  0.87929100  1
  Cu  Cu21  1  0.21640400  0.97639200  0.12070900  1
  Cu  Cu22  1  0.28359600  0.02360800  0.62070900  1
  Cu  Cu23  1  0.78359600  0.47639200  0.37929100  1
  Cu  Cu24  1  0.78302700  0.48610800  0.80653100  1
  Cu  Cu25  1  0.28302700  0.01389200  0.19346900  1
  Cu  Cu26  1  0.21697300  0.98610800  0.69346900  1
  Cu  Cu27  1  0.71697300  0.51389200  0.30653100  1
