# generated using pymatgen
data_CuNiC4
_symmetry_space_group_name_H-M   'P 1'
_cell_length_a   3.24493800
_cell_length_b   8.62434800
_cell_length_c   21.69511800
_cell_angle_alpha   90.00000000
_cell_angle_beta   90.00000000
_cell_angle_gamma   90.00000000
_symmetry_Int_Tables_number   1
_chemical_formula_structural   CuNiC4
_chemical_formula_sum   'Cu4 Ni4 C16'
_cell_volume   607.14817266
_cell_formula_units_Z   4
loop_
 _symmetry_equiv_pos_site_id
 _symmetry_equiv_pos_as_xyz
  1  'x, y, z'
loop_
 _atom_site_type_symbol
 _atom_site_label
 _atom_site_symmetry_multiplicity
 _atom_site_fract_x
 _atom_site_fract_y
 _atom_site_fract_z
 _atom_site_occupancy
  C  C0  1  0.25000000  0.03516400  0.08516000  1
  C  C1  1  0.25000000  0.53516400  0.41484000  1
  C  C2  1  0.75000000  0.96483600  0.91484000  1
  C  C3  1  0.75000000  0.46483600  0.58516000  1
  Ni  Ni4  1  0.75000000  0.51752400  0.12872500  1
  Ni  Ni5  1  0.75000000  0.01752400  0.37127500  1
  Ni  Ni6  1  0.25000000  0.48247600  0.87127500  1
  Ni  Ni7  1  0.25000000  0.98247600  0.62872500  1
  C  C8  1  0.25000000  0.94420800  0.18495200  1
  C  C9  1  0.25000000  0.44420800  0.31504800  1
  C  C10  1  0.75000000  0.05579200  0.81504800  1
  C  C11  1  0.75000000  0.55579200  0.68495200  1
  C  C12  1  0.75000000  0.35002400  0.16740200  1
  C  C13  1  0.75000000  0.85002400  0.33259800  1
  C  C14  1  0.25000000  0.64997600  0.83259800  1
  C  C15  1  0.25000000  0.14997600  0.66740200  1
  C  C16  1  0.25000000  0.19372600  0.99664000  1
  C  C17  1  0.25000000  0.69372600  0.50336000  1
  C  C18  1  0.75000000  0.80627400  0.00336000  1
  C  C19  1  0.75000000  0.30627400  0.49664000  1
  Cu  Cu20  1  0.25000000  0.56484500  0.11773600  1
  Cu  Cu21  1  0.25000000  0.06484500  0.38226400  1
  Cu  Cu22  1  0.75000000  0.43515500  0.88226400  1
  Cu  Cu23  1  0.75000000  0.93515500  0.61773600  1
