# generated using pymatgen
data_Cu5Ni3C2
_symmetry_space_group_name_H-M   'P 1'
_cell_length_a   8.18416497
_cell_length_b   8.18416497
_cell_length_c   8.18416497
_cell_angle_alpha   137.43973174
_cell_angle_beta   106.93903900
_cell_angle_gamma   88.40007392
_symmetry_Int_Tables_number   1
_chemical_formula_structural   Cu5Ni3C2
_chemical_formula_sum   'Cu10 Ni6 C4'
_cell_volume   339.60039016
_cell_formula_units_Z   2
loop_
 _symmetry_equiv_pos_site_id
 _symmetry_equiv_pos_as_xyz
  1  'x, y, z'
loop_
 _atom_site_type_symbol
 _atom_site_label
 _atom_site_symmetry_multiplicity
 _atom_site_fract_x
 _atom_site_fract_y
 _atom_site_fract_z
 _atom_site_occupancy
  C  C0  1  0.63514200  0.36831600  0.26682600  1
  C  C1  1  0.36485800  0.63168400  0.73317400  1
  C  C2  1  0.10149000  0.86831600  0.23317400  1
  C  C3  1  0.89851000  0.13168400  0.76682600  1
  Ni  Ni4  1  0.24783800  0.13809800  0.10974000  1
  Ni  Ni5  1  0.75216200  0.86190200  0.89026000  1
  Ni  Ni6  1  0.02835700  0.63809800  0.39026000  1
  Ni  Ni7  1  0.97164300  0.36190200  0.60974000  1
  Ni  Ni8  1  0.50000000  0.25000000  0.75000000  1
  Ni  Ni9  1  0.50000000  0.75000000  0.25000000  1
  Cu  Cu10  1  0.26900700  0.51900700  0.25000000  1
  Cu  Cu11  1  0.73099300  0.48099300  0.75000000  1
  Cu  Cu12  1  0.73099300  0.98099300  0.25000000  1
  Cu  Cu13  1  0.26900700  0.01900700  0.75000000  1
  Cu  Cu14  1  0.44490800  0.10087100  0.34403600  1
  Cu  Cu15  1  0.55509200  0.89912900  0.65596400  1
  Cu  Cu16  1  0.75683500  0.60087100  0.15596400  1
  Cu  Cu17  1  0.24316500  0.39912900  0.84403600  1
  Cu  Cu18  1  0.00000000  0.25000000  0.25000000  1
  Cu  Cu19  1  0.00000000  0.75000000  0.75000000  1
