# generated using pymatgen
data_Cu6Ni41C6
_symmetry_space_group_name_H-M   'P 1'
_cell_length_a   10.84593368
_cell_length_b   10.84593368
_cell_length_c   17.42144800
_cell_angle_alpha   90.00000000
_cell_angle_beta   90.00000000
_cell_angle_gamma   119.99999804
_symmetry_Int_Tables_number   1
_chemical_formula_structural   Cu6Ni41C6
_chemical_formula_sum   'Cu12 Ni82 C12'
_cell_volume   1774.79737671
_cell_formula_units_Z   2
loop_
 _symmetry_equiv_pos_site_id
 _symmetry_equiv_pos_as_xyz
  1  'x, y, z'
loop_
 _atom_site_type_symbol
 _atom_site_label
 _atom_site_symmetry_multiplicity
 _atom_site_fract_x
 _atom_site_fract_y
 _atom_site_fract_z
 _atom_site_occupancy
  C  C0  1  0.00000000  0.53277200  0.40235600  1
  C  C1  1  0.46722800  0.46722800  0.40235600  1
  C  C2  1  0.53277200  0.00000000  0.40235600  1
  C  C3  1  0.00000000  0.46722800  0.59764400  1
  C  C4  1  0.53277200  0.53277200  0.59764400  1
  C  C5  1  0.46722800  0.00000000  0.59764400  1
  C  C6  1  0.00000000  0.46454500  0.90429600  1
  C  C7  1  0.53545500  0.53545500  0.90429600  1
  C  C8  1  0.46454500  0.00000000  0.90429600  1
  C  C9  1  0.00000000  0.53545500  0.09570400  1
  C  C10  1  0.46454500  0.46454500  0.09570400  1
  C  C11  1  0.53545500  0.00000000  0.09570400  1
  Ni  Ni12  1  0.00000000  0.74911600  0.97155400  1
  Ni  Ni13  1  0.25088400  0.25088400  0.97155400  1
  Ni  Ni14  1  0.74911600  0.00000000  0.97155400  1
  Ni  Ni15  1  0.00000000  0.25088400  0.02844600  1
  Ni  Ni16  1  0.74911600  0.74911600  0.02844600  1
  Ni  Ni17  1  0.25088400  0.00000000  0.02844600  1
  Ni  Ni18  1  0.00000000  0.25172800  0.46951000  1
  Ni  Ni19  1  0.74827200  0.74827200  0.46951000  1
  Ni  Ni20  1  0.25172800  0.00000000  0.46951000  1
  Ni  Ni21  1  0.00000000  0.74827200  0.53049000  1
  Ni  Ni22  1  0.25172800  0.25172800  0.53049000  1
  Ni  Ni23  1  0.74827200  0.00000000  0.53049000  1
  Ni  Ni24  1  0.60799600  0.76724100  0.33527100  1
  Ni  Ni25  1  0.23275900  0.84075600  0.33527100  1
  Ni  Ni26  1  0.15924400  0.39200400  0.33527100  1
  Ni  Ni27  1  0.39200400  0.15924400  0.33527100  1
  Ni  Ni28  1  0.76724100  0.60799600  0.33527100  1
  Ni  Ni29  1  0.84075600  0.23275900  0.33527100  1
  Ni  Ni30  1  0.39200400  0.23275900  0.66472900  1
  Ni  Ni31  1  0.76724100  0.15924400  0.66472900  1
  Ni  Ni32  1  0.84075600  0.60799600  0.66472900  1
  Ni  Ni33  1  0.60799600  0.84075600  0.66472900  1
  Ni  Ni34  1  0.23275900  0.39200400  0.66472900  1
  Ni  Ni35  1  0.15924400  0.76724100  0.66472900  1
  Ni  Ni36  1  0.39924100  0.23430900  0.83877100  1
  Ni  Ni37  1  0.76569100  0.16493200  0.83877100  1
  Ni  Ni38  1  0.83506800  0.60075900  0.83877100  1
  Ni  Ni39  1  0.60075900  0.83506800  0.83877100  1
  Ni  Ni40  1  0.23430900  0.39924100  0.83877100  1
  Ni  Ni41  1  0.16493200  0.76569100  0.83877100  1
  Ni  Ni42  1  0.60075900  0.76569100  0.16122900  1
  Ni  Ni43  1  0.23430900  0.83506800  0.16122900  1
  Ni  Ni44  1  0.16493200  0.39924100  0.16122900  1
  Ni  Ni45  1  0.39924100  0.16493200  0.16122900  1
  Ni  Ni46  1  0.76569100  0.60075900  0.16122900  1
  Ni  Ni47  1  0.83506800  0.23430900  0.16122900  1
  Ni  Ni48  1  0.00000000  0.14958100  0.24862100  1
  Ni  Ni49  1  0.85041900  0.85041900  0.24862100  1
  Ni  Ni50  1  0.14958100  0.00000000  0.24862100  1
  Ni  Ni51  1  0.00000000  0.85041900  0.75137900  1
  Ni  Ni52  1  0.14958100  0.14958100  0.75137900  1
  Ni  Ni53  1  0.85041900  0.00000000  0.75137900  1
  Ni  Ni54  1  0.45320500  0.85020300  0.24690400  1
  Ni  Ni55  1  0.14979700  0.60300200  0.24690400  1
  Ni  Ni56  1  0.39699800  0.54679500  0.24690400  1
  Ni  Ni57  1  0.54679500  0.39699800  0.24690400  1
  Ni  Ni58  1  0.85020300  0.45320500  0.24690400  1
  Ni  Ni59  1  0.60300200  0.14979700  0.24690400  1
  Ni  Ni60  1  0.54679500  0.14979700  0.75309600  1
  Ni  Ni61  1  0.85020300  0.39699800  0.75309600  1
  Ni  Ni62  1  0.60300200  0.45320500  0.75309600  1
  Ni  Ni63  1  0.45320500  0.60300200  0.75309600  1
  Ni  Ni64  1  0.14979700  0.54679500  0.75309600  1
  Ni  Ni65  1  0.39699800  0.85020300  0.75309600  1
  Ni  Ni66  1  0.50558000  0.75279000  0.50000000  1
  Ni  Ni67  1  0.24721000  0.75279000  0.50000000  1
  Ni  Ni68  1  0.24721000  0.49442000  0.50000000  1
  Ni  Ni69  1  0.49442000  0.24721000  0.50000000  1
  Ni  Ni70  1  0.75279000  0.50558000  0.50000000  1
  Ni  Ni71  1  0.75279000  0.24721000  0.50000000  1
  Ni  Ni72  1  0.50392400  0.25196200  0.00000000  1
  Ni  Ni73  1  0.74803800  0.25196200  0.00000000  1
  Ni  Ni74  1  0.74803800  0.49607600  0.00000000  1
  Ni  Ni75  1  0.49607600  0.74803800  0.00000000  1
  Ni  Ni76  1  0.25196200  0.50392400  0.00000000  1
  Ni  Ni77  1  0.25196200  0.74803800  0.00000000  1
  Ni  Ni78  1  0.00000000  0.84501100  0.38456600  1
  Ni  Ni79  1  0.15498900  0.15498900  0.38456600  1
  Ni  Ni80  1  0.84501100  0.00000000  0.38456600  1
  Ni  Ni81  1  0.00000000  0.15498900  0.61543400  1
  Ni  Ni82  1  0.84501100  0.84501100  0.61543400  1
  Ni  Ni83  1  0.15498900  0.00000000  0.61543400  1
  Ni  Ni84  1  0.00000000  0.15504300  0.88405100  1
  Ni  Ni85  1  0.84495700  0.84495700  0.88405100  1
  Ni  Ni86  1  0.15504300  0.00000000  0.88405100  1
  Ni  Ni87  1  0.00000000  0.84495700  0.11594900  1
  Ni  Ni88  1  0.15504300  0.15504300  0.11594900  1
  Ni  Ni89  1  0.84495700  0.00000000  0.11594900  1
  Ni  Ni90  1  0.33333300  0.66666700  0.37312200  1
  Ni  Ni91  1  0.66666700  0.33333300  0.37312200  1
  Ni  Ni92  1  0.66666700  0.33333300  0.62687800  1
  Ni  Ni93  1  0.33333300  0.66666700  0.62687800  1
  Cu  Cu94  1  0.00000000  0.00000000  0.50000000  1
  Cu  Cu95  1  0.00000000  0.00000000  0.00000000  1
  Cu  Cu96  1  0.00000000  0.73818500  0.25146300  1
  Cu  Cu97  1  0.26181500  0.26181500  0.25146300  1
  Cu  Cu98  1  0.73818500  0.00000000  0.25146300  1
  Cu  Cu99  1  0.00000000  0.26181500  0.74853700  1
  Cu  Cu100  1  0.73818500  0.73818500  0.74853700  1
  Cu  Cu101  1  0.26181500  0.00000000  0.74853700  1
  Cu  Cu102  1  0.66666700  0.33333300  0.86569500  1
  Cu  Cu103  1  0.33333300  0.66666700  0.86569500  1
  Cu  Cu104  1  0.33333300  0.66666700  0.13430500  1
  Cu  Cu105  1  0.66666700  0.33333300  0.13430500  1
