# generated using pymatgen
data_Cu18NiC4
_symmetry_space_group_name_H-M   'P 1'
_cell_length_a   9.52829538
_cell_length_b   10.53593913
_cell_length_c   14.09315379
_cell_angle_alpha   90.00000000
_cell_angle_beta   90.00000000
_cell_angle_gamma   90.00000000
_symmetry_Int_Tables_number   1
_chemical_formula_structural   Cu18NiC4
_chemical_formula_sum   'Cu72 Ni4 C16'
_cell_volume   1414.80522805
_cell_formula_units_Z   4
loop_
 _symmetry_equiv_pos_site_id
 _symmetry_equiv_pos_as_xyz
  1  'x, y, z'
loop_
 _atom_site_type_symbol
 _atom_site_label
 _atom_site_symmetry_multiplicity
 _atom_site_fract_x
 _atom_site_fract_y
 _atom_site_fract_z
 _atom_site_occupancy
  C  C0  1  0.00000000  0.00000000  -0.00000000  1
  C  C1  1  0.50000000  0.50000000  -0.00000000  1
  C  C2  1  0.00000000  0.00000000  0.50000000  1
  C  C3  1  0.50000000  0.50000000  0.50000000  1
  C  C4  1  0.12157747  0.02287462  0.25000000  1
  C  C5  1  0.87842253  0.97712538  0.75000000  1
  C  C6  1  0.62157747  0.47712538  0.75000000  1
  C  C7  1  0.37842253  0.52287462  0.25000000  1
  C  C8  1  0.19510271  0.29607187  0.55443346  1
  C  C9  1  0.80489729  0.70392813  0.44556654  1
  C  C10  1  0.69510271  0.20392813  0.44556654  1
  C  C11  1  0.80489729  0.70392813  0.05443346  1
  C  C12  1  0.30489729  0.79607187  0.55443346  1
  C  C13  1  0.19510271  0.29607187  0.94556654  1
  C  C14  1  0.30489729  0.79607187  0.94556654  1
  C  C15  1  0.69510271  0.20392813  0.05443346  1
  Ni  Ni16  1  0.51496935  0.92312105  0.25000000  1
  Ni  Ni17  1  0.48503065  0.07687895  0.75000000  1
  Ni  Ni18  1  0.01496935  0.57687895  0.75000000  1
  Ni  Ni19  1  0.98503065  0.42312105  0.25000000  1
  Cu  Cu20  1  0.04182649  0.17295630  0.25000000  1
  Cu  Cu21  1  0.95817351  0.82704370  0.75000000  1
  Cu  Cu22  1  0.54182649  0.32704370  0.75000000  1
  Cu  Cu23  1  0.45817351  0.67295630  0.25000000  1
  Cu  Cu24  1  0.28638655  0.09704184  0.25000000  1
  Cu  Cu25  1  0.71361345  0.90295816  0.75000000  1
  Cu  Cu26  1  0.78638655  0.40295816  0.75000000  1
  Cu  Cu27  1  0.21361345  0.59704184  0.25000000  1
  Cu  Cu28  1  0.54240011  0.44985578  0.25000000  1
  Cu  Cu29  1  0.45759989  0.55014422  0.75000000  1
  Cu  Cu30  1  0.04240011  0.05014422  0.75000000  1
  Cu  Cu31  1  0.95759989  0.94985578  0.25000000  1
  Cu  Cu32  1  0.29373814  0.21761787  0.03173941  1
  Cu  Cu33  1  0.70626186  0.78238213  0.96826059  1
  Cu  Cu34  1  0.79373814  0.28238213  0.96826059  1
  Cu  Cu35  1  0.70626186  0.78238213  0.53173941  1
  Cu  Cu36  1  0.20626186  0.71761787  0.03173941  1
  Cu  Cu37  1  0.29373814  0.21761787  0.46826059  1
  Cu  Cu38  1  0.20626186  0.71761787  0.46826059  1
  Cu  Cu39  1  0.79373814  0.28238213  0.53173941  1
  Cu  Cu40  1  0.28303416  0.21225357  0.64440995  1
  Cu  Cu41  1  0.71696584  0.78774643  0.35559005  1
  Cu  Cu42  1  0.78303416  0.28774643  0.35559005  1
  Cu  Cu43  1  0.71696584  0.78774643  0.14440995  1
  Cu  Cu44  1  0.21696584  0.71225357  0.64440995  1
  Cu  Cu45  1  0.28303416  0.21225357  0.85559005  1
  Cu  Cu46  1  0.21696584  0.71225357  0.85559005  1
  Cu  Cu47  1  0.78303416  0.28774643  0.14440995  1
  Cu  Cu48  1  0.06228503  0.17084985  0.55025046  1
  Cu  Cu49  1  0.93771497  0.82915015  0.44974954  1
  Cu  Cu50  1  0.56228503  0.32915015  0.44974954  1
  Cu  Cu51  1  0.93771497  0.82915015  0.05025046  1
  Cu  Cu52  1  0.43771497  0.67084985  0.55025046  1
  Cu  Cu53  1  0.06228503  0.17084985  0.94974954  1
  Cu  Cu54  1  0.43771497  0.67084985  0.94974954  1
  Cu  Cu55  1  0.56228503  0.32915015  0.05025046  1
  Cu  Cu56  1  0.59625867  0.12601872  0.14205154  1
  Cu  Cu57  1  0.40374133  0.87398128  0.85794846  1
  Cu  Cu58  1  0.09625867  0.37398128  0.85794846  1
  Cu  Cu59  1  0.40374133  0.87398128  0.64205154  1
  Cu  Cu60  1  0.90374133  0.62601872  0.14205154  1
  Cu  Cu61  1  0.59625867  0.12601872  0.35794846  1
  Cu  Cu62  1  0.90374133  0.62601872  0.35794846  1
  Cu  Cu63  1  0.09625867  0.37398128  0.64205154  1
  Cu  Cu64  1  0.32784374  0.42176680  0.56264922  1
  Cu  Cu65  1  0.67215626  0.57823320  0.43735078  1
  Cu  Cu66  1  0.82784374  0.07823320  0.43735078  1
  Cu  Cu67  1  0.67215626  0.57823320  0.06264922  1
  Cu  Cu68  1  0.17215626  0.92176680  0.56264922  1
  Cu  Cu69  1  0.32784374  0.42176680  0.93735078  1
  Cu  Cu70  1  0.17215626  0.92176680  0.93735078  1
  Cu  Cu71  1  0.82784374  0.07823320  0.06264922  1
  Cu  Cu72  1  0.29313720  0.37669411  0.25000000  1
  Cu  Cu73  1  0.70686280  0.62330589  0.75000000  1
  Cu  Cu74  1  0.79313720  0.12330589  0.75000000  1
  Cu  Cu75  1  0.20686280  0.87669411  0.25000000  1
  Cu  Cu76  1  0.12009366  0.02342046  0.11998898  1
  Cu  Cu77  1  0.87990634  0.97657954  0.88001102  1
  Cu  Cu78  1  0.62009366  0.47657954  0.88001102  1
  Cu  Cu79  1  0.87990634  0.97657954  0.61998898  1
  Cu  Cu80  1  0.37990634  0.52342046  0.11998898  1
  Cu  Cu81  1  0.12009366  0.02342046  0.38001102  1
  Cu  Cu82  1  0.37990634  0.52342046  0.38001102  1
  Cu  Cu83  1  0.62009366  0.47657954  0.61998898  1
  Cu  Cu84  1  0.10598855  0.38023701  0.03362442  1
  Cu  Cu85  1  0.89401145  0.61976299  0.96637558  1
  Cu  Cu86  1  0.60598855  0.11976299  0.96637558  1
  Cu  Cu87  1  0.89401145  0.61976299  0.53362442  1
  Cu  Cu88  1  0.39401145  0.88023701  0.03362442  1
  Cu  Cu89  1  0.10598855  0.38023701  0.46637558  1
  Cu  Cu90  1  0.39401145  0.88023701  0.46637558  1
  Cu  Cu91  1  0.60598855  0.11976299  0.53362442  1
