# generated using pymatgen
data_Cu16NiC4
_symmetry_space_group_name_H-M   'P 1'
_cell_length_a   14.59942187
_cell_length_b   13.99007629
_cell_length_c   13.09318816
_cell_angle_alpha   65.14060387
_cell_angle_beta   60.39732086
_cell_angle_gamma   54.46207527
_symmetry_Int_Tables_number   1
_chemical_formula_structural   Cu16NiC4
_chemical_formula_sum   'Cu32 Ni2 C8'
_cell_volume   1858.20238401
_cell_formula_units_Z   2
loop_
 _symmetry_equiv_pos_site_id
 _symmetry_equiv_pos_as_xyz
  1  'x, y, z'
loop_
 _atom_site_type_symbol
 _atom_site_label
 _atom_site_symmetry_multiplicity
 _atom_site_fract_x
 _atom_site_fract_y
 _atom_site_fract_z
 _atom_site_occupancy
  Ni  Ni0  1  0.00837800  0.99162200  0.99162200  1
  Ni  Ni1  1  0.25837800  0.24162200  0.24162200  1
  Cu  Cu2  1  0.83844600  0.09207100  0.59115100  1
  Cu  Cu3  1  0.64714400  0.17662000  0.44880300  1
  Cu  Cu4  1  0.36959300  0.86445600  0.53349700  1
  Cu  Cu5  1  0.81179900  0.60474800  0.72151300  1
  Cu  Cu6  1  0.32786500  0.74314300  0.51575100  1
  Cu  Cu7  1  0.51560400  0.78281700  0.57580300  1
  Cu  Cu8  1  0.80230400  0.14678900  0.42591100  1
  Cu  Cu9  1  0.73424900  0.83675800  0.92213500  1
  Cu  Cu10  1  0.72743300  0.44880300  0.17662000  1
  Cu  Cu11  1  0.12577600  0.57580300  0.78281700  1
  Cu  Cu12  1  0.71650300  0.01754600  0.88040700  1
  Cu  Cu13  1  0.74852100  0.77164100  0.07951100  1
  Cu  Cu14  1  0.86194000  0.72151300  0.60474800  1
  Cu  Cu15  1  0.47833200  0.59115100  0.09207100  1
  Cu  Cu16  1  0.64525200  0.43820100  0.38806000  1
  Cu  Cu17  1  0.65884900  0.77166800  0.41155400  1
  Cu  Cu18  1  0.38554400  0.88040700  0.01754600  1
  Cu  Cu19  1  0.52848700  0.38806000  0.43820100  1
  Cu  Cu20  1  0.23245400  0.53349700  0.86445600  1
  Cu  Cu21  1  0.50685700  0.92213500  0.83675800  1
  Cu  Cu22  1  0.17048900  0.84967300  0.50147900  1
  Cu  Cu23  1  0.82408900  0.62500400  0.44769600  1
  Cu  Cu24  1  0.10321100  0.44769600  0.62500400  1
  Cu  Cu25  1  0.67419700  0.12422400  0.73439600  1
  Cu  Cu26  1  0.46718300  0.73439600  0.12422400  1
  Cu  Cu27  1  0.41324200  0.51575100  0.74314300  1
  Cu  Cu28  1  0.15792900  0.41155400  0.77166800  1
  Cu  Cu29  1  0.40032700  0.07951100  0.77164100  1
  Cu  Cu30  1  0.80119700  0.52256700  0.60285600  1
  Cu  Cu31  1  0.62499600  0.42591100  0.14678900  1
  Cu  Cu32  1  0.07338000  0.60285600  0.52256700  1
  Cu  Cu33  1  0.47835900  0.50147900  0.84967300  1
  C  C34  1  0.19269000  0.76886100  0.02199300  1
  C  C35  1  0.25712500  0.44485300  0.21844500  1
  C  C36  1  0.01645500  0.02199300  0.76886100  1
  C  C37  1  0.80514700  0.99287500  0.17042300  1
  C  C38  1  0.48113900  0.05731000  0.23354500  1
  C  C39  1  0.22800700  0.23354500  0.05731000  1
  C  C40  1  0.07957700  0.21844500  0.44485300  1
  C  C41  1  0.03155500  0.17042300  0.99287500  1
