# generated using pymatgen
data_Cu7(NiC)11
_symmetry_space_group_name_H-M   'P 1'
_cell_length_a   46.99642900
_cell_length_b   6.84919300
_cell_length_c   7.70540294
_cell_angle_alpha   76.09722598
_cell_angle_beta   90.00000000
_cell_angle_gamma   90.00000000
_symmetry_Int_Tables_number   1
_chemical_formula_structural   Cu7(NiC)11
_chemical_formula_sum   'Cu28 Ni44 C44'
_cell_volume   2407.61376260
_cell_formula_units_Z   4
loop_
 _symmetry_equiv_pos_site_id
 _symmetry_equiv_pos_as_xyz
  1  'x, y, z'
loop_
 _atom_site_type_symbol
 _atom_site_label
 _atom_site_symmetry_multiplicity
 _atom_site_fract_x
 _atom_site_fract_y
 _atom_site_fract_z
 _atom_site_occupancy
  C  C0  1  0.95053900  0.86711900  0.39021500  1
  C  C1  1  0.45053900  0.63288100  0.60978500  1
  C  C2  1  0.04946100  0.13288100  0.60978500  1
  C  C3  1  0.54946200  0.36711900  0.39021500  1
  C  C4  1  0.91139100  0.36402800  0.39529100  1
  C  C5  1  0.41139100  0.13597200  0.60470900  1
  C  C6  1  0.08860900  0.63597200  0.60470900  1
  C  C7  1  0.58860900  0.86402800  0.39529100  1
  C  C8  1  0.82267500  0.35541300  0.24726900  1
  C  C9  1  0.32267500  0.14458700  0.75273100  1
  C  C10  1  0.17732500  0.64458700  0.75273100  1
  C  C11  1  0.67732500  0.85541300  0.24726900  1
  C  C12  1  0.95960300  0.13924200  0.76834000  1
  C  C13  1  0.45960300  0.36075800  0.23166000  1
  C  C14  1  0.04039700  0.86075800  0.23166000  1
  C  C15  1  0.54039700  0.63924200  0.76834000  1
  C  C16  1  0.99724800  0.37408900  0.31084700  1
  C  C17  1  0.49724800  0.12591100  0.68915300  1
  C  C18  1  0.00275200  0.62591100  0.68915300  1
  C  C19  1  0.50275200  0.87408900  0.31084700  1
  C  C20  1  0.85886400  0.12144200  0.69922600  1
  C  C21  1  0.35886400  0.37855800  0.30077400  1
  C  C22  1  0.14113600  0.87855800  0.30077400  1
  C  C23  1  0.64113600  0.62144200  0.69922600  1
  C  C24  1  0.76974500  0.11398300  0.54787700  1
  C  C25  1  0.26974500  0.38601700  0.45212300  1
  C  C26  1  0.23025500  0.88601700  0.45212300  1
  C  C27  1  0.73025500  0.61398300  0.54787700  1
  C  C28  1  0.81522300  0.61558800  0.62566700  1
  C  C29  1  0.31522300  0.88441200  0.37433300  1
  C  C30  1  0.18477700  0.38441200  0.37433300  1
  C  C31  1  0.68477700  0.11558800  0.62566700  1
  C  C32  1  0.86570600  0.86245500  0.32069700  1
  C  C33  1  0.36570600  0.63754500  0.67930300  1
  C  C34  1  0.13429400  0.13754500  0.67930300  1
  C  C35  1  0.63429400  0.36245500  0.32069700  1
  C  C36  1  0.90428400  0.63345100  0.77119100  1
  C  C37  1  0.40428400  0.86654900  0.22880900  1
  C  C38  1  0.09571600  0.36654900  0.22880900  1
  C  C39  1  0.59571600  0.13345100  0.77119100  1
  C  C40  1  0.77788500  0.84414500  0.17239600  1
  C  C41  1  0.27788500  0.65585500  0.82760400  1
  C  C42  1  0.22211500  0.15585500  0.82760400  1
  C  C43  1  0.72211500  0.34414500  0.17239600  1
  Ni  Ni44  1  0.80981900  0.96143500  0.37510700  1
  Ni  Ni45  1  0.30981900  0.53856500  0.62489300  1
  Ni  Ni46  1  0.19018100  0.03856500  0.62489300  1
  Ni  Ni47  1  0.69018100  0.46143500  0.37510700  1
  Ni  Ni48  1  0.96379700  0.47492800  0.50964800  1
  Ni  Ni49  1  0.46379700  0.02507200  0.49035200  1
  Ni  Ni50  1  0.03620300  0.52507200  0.49035200  1
  Ni  Ni51  1  0.53620300  0.97492800  0.50964800  1
  Ni  Ni52  1  0.87151500  0.51719900  0.57236300  1
  Ni  Ni53  1  0.37151500  0.98280100  0.42763700  1
  Ni  Ni54  1  0.12848500  0.48280100  0.42763700  1
  Ni  Ni55  1  0.62848500  0.01719900  0.57236300  1
  Ni  Ni56  1  0.89886200  0.97197100  0.51871800  1
  Ni  Ni57  1  0.39886200  0.52802900  0.48128200  1
  Ni  Ni58  1  0.10113800  0.02802900  0.48128200  1
  Ni  Ni59  1  0.60113800  0.47197100  0.51871800  1
  Ni  Ni60  1  0.82657300  0.01685800  0.49668500  1
  Ni  Ni61  1  0.32657300  0.48314200  0.50331500  1
  Ni  Ni62  1  0.17342700  0.98314200  0.50331500  1
  Ni  Ni63  1  0.67342700  0.51685800  0.49668500  1
  Ni  Ni64  1  0.91882300  0.02090800  0.62758000  1
  Ni  Ni65  1  0.41882300  0.47909200  0.37242000  1
  Ni  Ni66  1  0.08117700  0.97909200  0.37242000  1
  Ni  Ni67  1  0.58117700  0.52090800  0.62758000  1
  Ni  Ni68  1  0.78269800  0.50545100  0.42455900  1
  Ni  Ni69  1  0.28269800  0.99454900  0.57544100  1
  Ni  Ni70  1  0.21730200  0.49454900  0.57544100  1
  Ni  Ni71  1  0.71730200  0.00545100  0.42455900  1
  Ni  Ni72  1  0.73719500  0.95676400  0.31530800  1
  Ni  Ni73  1  0.23719500  0.54323600  0.68469200  1
  Ni  Ni74  1  0.26280500  0.04323600  0.68469200  1
  Ni  Ni75  1  0.76280500  0.45676400  0.31530800  1
  Ni  Ni76  1  0.99190400  0.02619500  0.56144300  1
  Ni  Ni77  1  0.49190400  0.47380500  0.43855700  1
  Ni  Ni78  1  0.00809600  0.97380500  0.43855700  1
  Ni  Ni79  1  0.50809600  0.52619500  0.56144300  1
  Ni  Ni80  1  0.94412400  0.52182000  0.62227600  1
  Ni  Ni81  1  0.44412400  0.97818000  0.37772400  1
  Ni  Ni82  1  0.05587600  0.47818000  0.37772400  1
  Ni  Ni83  1  0.55587600  0.02182000  0.62227600  1
  Ni  Ni84  1  0.85465800  0.46196200  0.45139900  1
  Ni  Ni85  1  0.35465800  0.03803800  0.54860100  1
  Ni  Ni86  1  0.14534200  0.53803800  0.54860100  1
  Ni  Ni87  1  0.64534200  0.96196200  0.45139900  1
  Cu  Cu88  1  0.94744100  0.26005500  0.11885000  1
  Cu  Cu89  1  0.44744100  0.23994500  0.88115000  1
  Cu  Cu90  1  0.05255900  0.73994500  0.88115000  1
  Cu  Cu91  1  0.55255900  0.76005500  0.11885000  1
  Cu  Cu92  1  0.91312800  0.75678000  0.12016400  1
  Cu  Cu93  1  0.41312800  0.74322000  0.87983600  1
  Cu  Cu94  1  0.08687200  0.24322000  0.87983600  1
  Cu  Cu95  1  0.58687200  0.25678000  0.12016400  1
  Cu  Cu96  1  0.76680600  0.72036400  0.82442600  1
  Cu  Cu97  1  0.26680600  0.77963600  0.17557400  1
  Cu  Cu98  1  0.23319400  0.27963600  0.17557400  1
  Cu  Cu99  1  0.73319400  0.22036400  0.82442600  1
  Cu  Cu100  1  0.84007900  0.73871300  0.97390700  1
  Cu  Cu101  1  0.34007900  0.76128700  0.02609300  1
  Cu  Cu102  1  0.15992100  0.26128700  0.02609300  1
  Cu  Cu103  1  0.65992100  0.23871300  0.97390700  1
  Cu  Cu104  1  0.80543400  0.21993800  0.88773900  1
  Cu  Cu105  1  0.30543400  0.28006200  0.11226100  1
  Cu  Cu106  1  0.19456600  0.78006200  0.11226100  1
  Cu  Cu107  1  0.69456600  0.71993800  0.88773900  1
  Cu  Cu108  1  0.87547600  0.25815300  0.05632000  1
  Cu  Cu109  1  0.37547600  0.24184700  0.94368000  1
  Cu  Cu110  1  0.12452400  0.74184700  0.94368000  1
  Cu  Cu111  1  0.62452400  0.75815300  0.05632000  1
  Cu  Cu112  1  0.98416700  0.75902500  0.04766000  1
  Cu  Cu113  1  0.48416700  0.74097500  0.95234000  1
  Cu  Cu114  1  0.01583300  0.24097500  0.95234000  1
  Cu  Cu115  1  0.51583300  0.25902500  0.04766000  1
