# generated using pymatgen
data_Cu6NiC
_symmetry_space_group_name_H-M   'P 1'
_cell_length_a   5.74091500
_cell_length_b   6.91176000
_cell_length_c   11.45150400
_cell_angle_alpha   90.00000000
_cell_angle_beta   90.00000000
_cell_angle_gamma   90.00000000
_symmetry_Int_Tables_number   1
_chemical_formula_structural   Cu6NiC
_chemical_formula_sum   'Cu24 Ni4 C4'
_cell_volume   454.39369372
_cell_formula_units_Z   4
loop_
 _symmetry_equiv_pos_site_id
 _symmetry_equiv_pos_as_xyz
  1  'x, y, z'
loop_
 _atom_site_type_symbol
 _atom_site_label
 _atom_site_symmetry_multiplicity
 _atom_site_fract_x
 _atom_site_fract_y
 _atom_site_fract_z
 _atom_site_occupancy
  C  C0  1  0.25000000  0.33208300  0.57181900  1
  C  C1  1  0.25000000  0.16791700  0.07181900  1
  C  C2  1  0.75000000  0.66791700  0.42818100  1
  C  C3  1  0.75000000  0.83208300  0.92818100  1
  Ni  Ni4  1  0.25000000  0.54695100  0.85624100  1
  Ni  Ni5  1  0.25000000  0.95304900  0.35624100  1
  Ni  Ni6  1  0.75000000  0.45304900  0.14375900  1
  Ni  Ni7  1  0.75000000  0.04695100  0.64375900  1
  Cu  Cu8  1  0.25000000  0.43324400  0.96585800  1
  Cu  Cu9  1  0.25000000  0.06675600  0.46585800  1
  Cu  Cu10  1  0.75000000  0.56675600  0.03414200  1
  Cu  Cu11  1  0.75000000  0.93324400  0.53414200  1
  Cu  Cu12  1  0.25000000  0.41396000  0.75580300  1
  Cu  Cu13  1  0.25000000  0.08604000  0.25580300  1
  Cu  Cu14  1  0.75000000  0.58604000  0.24419700  1
  Cu  Cu15  1  0.75000000  0.91396000  0.74419700  1
  Cu  Cu16  1  0.04014700  0.67045400  0.85032600  1
  Cu  Cu17  1  0.45985300  0.82954600  0.35032600  1
  Cu  Cu18  1  0.54014700  0.32954600  0.14967400  1
  Cu  Cu19  1  0.95985300  0.17045400  0.64967400  1
  Cu  Cu20  1  0.95985300  0.32954600  0.14967400  1
  Cu  Cu21  1  0.54014700  0.17045400  0.64967400  1
  Cu  Cu22  1  0.45985300  0.67045400  0.85032600  1
  Cu  Cu23  1  0.04014700  0.82954600  0.35032600  1
  Cu  Cu24  1  0.99943300  0.06493400  0.94663400  1
  Cu  Cu25  1  0.50056700  0.43506600  0.44663400  1
  Cu  Cu26  1  0.49943300  0.93506600  0.05336600  1
  Cu  Cu27  1  0.00056700  0.56493400  0.55336600  1
  Cu  Cu28  1  0.00056700  0.93506600  0.05336600  1
  Cu  Cu29  1  0.49943300  0.56493400  0.55336600  1
  Cu  Cu30  1  0.50056700  0.06493400  0.94663400  1
  Cu  Cu31  1  0.99943300  0.43506600  0.44663400  1
