# generated using pymatgen
data_CuNi3C5
_symmetry_space_group_name_H-M   'P 1'
_cell_length_a   7.46969780
_cell_length_b   7.46969780
_cell_length_c   5.34118100
_cell_angle_alpha   90.00000000
_cell_angle_beta   90.00000000
_cell_angle_gamma   119.99999826
_symmetry_Int_Tables_number   1
_chemical_formula_structural   CuNi3C5
_chemical_formula_sum   'Cu2 Ni6 C10'
_cell_volume   258.09167679
_cell_formula_units_Z   2
loop_
 _symmetry_equiv_pos_site_id
 _symmetry_equiv_pos_as_xyz
  1  'x, y, z'
loop_
 _atom_site_type_symbol
 _atom_site_label
 _atom_site_symmetry_multiplicity
 _atom_site_fract_x
 _atom_site_fract_y
 _atom_site_fract_z
 _atom_site_occupancy
  Ni  Ni0  1  0.40367900  0.00000000  0.75000000  1
  Ni  Ni1  1  0.40367900  0.40367900  0.25000000  1
  Ni  Ni2  1  0.00000000  0.59632100  0.25000000  1
  Ni  Ni3  1  0.00000000  0.40367900  0.75000000  1
  Ni  Ni4  1  0.59632100  0.59632100  0.75000000  1
  Ni  Ni5  1  0.59632100  0.00000000  0.25000000  1
  C  C6  1  0.66666700  0.33333300  0.00000000  1
  C  C7  1  0.33333300  0.66666700  0.50000000  1
  C  C8  1  0.66666700  0.33333300  0.50000000  1
  C  C9  1  0.33333300  0.66666700  0.00000000  1
  C  C10  1  0.77405800  0.00000000  0.75000000  1
  C  C11  1  0.77405800  0.77405800  0.25000000  1
  C  C12  1  0.00000000  0.22594200  0.25000000  1
  C  C13  1  0.00000000  0.77405800  0.75000000  1
  C  C14  1  0.22594200  0.22594200  0.75000000  1
  C  C15  1  0.22594200  0.00000000  0.25000000  1
  Cu  Cu16  1  0.00000000  0.00000000  0.50000000  1
  Cu  Cu17  1  0.00000000  0.00000000  0.00000000  1
