# generated using pymatgen
data_Cu6Ni2C5
_symmetry_space_group_name_H-M   'P 1'
_cell_length_a   6.61791800
_cell_length_b   5.26864600
_cell_length_c   13.52829680
_cell_angle_alpha   68.53860658
_cell_angle_beta   90.00000000
_cell_angle_gamma   90.00000000
_symmetry_Int_Tables_number   1
_chemical_formula_structural   Cu6Ni2C5
_chemical_formula_sum   'Cu12 Ni4 C10'
_cell_volume   438.99197688
_cell_formula_units_Z   2
loop_
 _symmetry_equiv_pos_site_id
 _symmetry_equiv_pos_as_xyz
  1  'x, y, z'
loop_
 _atom_site_type_symbol
 _atom_site_label
 _atom_site_symmetry_multiplicity
 _atom_site_fract_x
 _atom_site_fract_y
 _atom_site_fract_z
 _atom_site_occupancy
  C  C0  1  0.78268200  0.78118600  0.73192700  1
  C  C1  1  0.71731800  0.78118600  0.23192700  1
  C  C2  1  0.21731800  0.21881400  0.26807300  1
  C  C3  1  0.28268200  0.21881400  0.76807300  1
  C  C4  1  0.00000000  0.50000000  0.50000000  1
  C  C5  1  0.50000000  0.50000000  0.00000000  1
  C  C6  1  0.25418200  0.92213700  0.57345300  1
  C  C7  1  0.24581800  0.92213700  0.07345300  1
  C  C8  1  0.74581800  0.07786300  0.42654700  1
  C  C9  1  0.75418200  0.07786300  0.92654700  1
  Ni  Ni10  1  0.64384200  0.41744000  0.61493600  1
  Ni  Ni11  1  0.85615800  0.41744000  0.11493600  1
  Ni  Ni12  1  0.35615800  0.58256000  0.38506400  1
  Ni  Ni13  1  0.14384200  0.58256000  0.88506400  1
  Cu  Cu14  1  0.07046100  0.12408800  0.60417700  1
  Cu  Cu15  1  0.42953900  0.12408800  0.10417700  1
  Cu  Cu16  1  0.92953900  0.87591200  0.39582300  1
  Cu  Cu17  1  0.57046100  0.87591200  0.89582300  1
  Cu  Cu18  1  0.40580900  0.85758500  0.68077700  1
  Cu  Cu19  1  0.09419100  0.85758500  0.18077700  1
  Cu  Cu20  1  0.59419100  0.14241500  0.31922300  1
  Cu  Cu21  1  0.90580900  0.14241500  0.81922300  1
  Cu  Cu22  1  0.10922400  0.62197000  0.61361500  1
  Cu  Cu23  1  0.39077600  0.62197000  0.11361500  1
  Cu  Cu24  1  0.89077600  0.37803000  0.38638500  1
  Cu  Cu25  1  0.60922400  0.37803000  0.88638500  1
