# generated using pymatgen
data_Cu2NiC4
_symmetry_space_group_name_H-M   'P 1'
_cell_length_a   3.00985700
_cell_length_b   9.61985400
_cell_length_c   9.91761700
_cell_angle_alpha   90.00000000
_cell_angle_beta   90.00000000
_cell_angle_gamma   90.00000000
_symmetry_Int_Tables_number   1
_chemical_formula_structural   Cu2NiC4
_chemical_formula_sum   'Cu8 Ni4 C16'
_cell_volume   287.15849992
_cell_formula_units_Z   4
loop_
 _symmetry_equiv_pos_site_id
 _symmetry_equiv_pos_as_xyz
  1  'x, y, z'
loop_
 _atom_site_type_symbol
 _atom_site_label
 _atom_site_symmetry_multiplicity
 _atom_site_fract_x
 _atom_site_fract_y
 _atom_site_fract_z
 _atom_site_occupancy
  Ni  Ni0  1  0.32687600  0.75000000  0.35326800  1
  Ni  Ni1  1  0.32687600  0.25000000  0.14673200  1
  Ni  Ni2  1  0.67312400  0.75000000  0.85326800  1
  Ni  Ni3  1  0.67312400  0.25000000  0.64673200  1
  Cu  Cu4  1  0.79733200  0.57084600  0.11537800  1
  Cu  Cu5  1  0.79733200  0.07084600  0.38462200  1
  Cu  Cu6  1  0.20266800  0.07084600  0.88462200  1
  Cu  Cu7  1  0.79733200  0.42915400  0.38462200  1
  Cu  Cu8  1  0.20266800  0.42915400  0.88462200  1
  Cu  Cu9  1  0.79733200  0.92915400  0.11537800  1
  Cu  Cu10  1  0.20266800  0.92915400  0.61537800  1
  Cu  Cu11  1  0.20266800  0.57084600  0.61537800  1
  C  C12  1  0.20289700  0.88506700  0.96709900  1
  C  C13  1  0.79710300  0.11493300  0.03290100  1
  C  C14  1  0.37565400  0.00000000  0.25000000  1
  C  C15  1  0.79710300  0.88506700  0.46709900  1
  C  C16  1  0.79710300  0.61493300  0.46709900  1
  C  C17  1  0.82236000  0.25000000  0.29346000  1
  C  C18  1  0.20289700  0.11493300  0.53290100  1
  C  C19  1  0.17764000  0.25000000  0.79346000  1
  C  C20  1  0.37565400  0.50000000  0.25000000  1
  C  C21  1  0.62434600  0.00000000  0.75000000  1
  C  C22  1  0.20289700  0.61493300  0.96709900  1
  C  C23  1  0.17764000  0.75000000  0.70654000  1
  C  C24  1  0.82236000  0.75000000  0.20654000  1
  C  C25  1  0.62434600  0.50000000  0.75000000  1
  C  C26  1  0.20289700  0.38506700  0.53290100  1
  C  C27  1  0.79710300  0.38506700  0.03290100  1
