# generated using pymatgen
data_CuNiC5
_symmetry_space_group_name_H-M   'P 1'
_cell_length_a   6.11615000
_cell_length_b   7.42039700
_cell_length_c   12.86500700
_cell_angle_alpha   90.00000000
_cell_angle_beta   90.00000000
_cell_angle_gamma   90.00000000
_symmetry_Int_Tables_number   1
_chemical_formula_structural   CuNiC5
_chemical_formula_sum   'Cu4 Ni4 C20'
_cell_volume   583.86883689
_cell_formula_units_Z   4
loop_
 _symmetry_equiv_pos_site_id
 _symmetry_equiv_pos_as_xyz
  1  'x, y, z'
loop_
 _atom_site_type_symbol
 _atom_site_label
 _atom_site_symmetry_multiplicity
 _atom_site_fract_x
 _atom_site_fract_y
 _atom_site_fract_z
 _atom_site_occupancy
  C  C0  1  0.00335900  0.75000000  0.26700000  1
  C  C1  1  0.49664100  0.75000000  0.76700000  1
  C  C2  1  0.99664100  0.25000000  0.73300000  1
  C  C3  1  0.50335900  0.25000000  0.23300000  1
  Ni  Ni4  1  0.00000000  0.50000000  0.00000000  1
  Ni  Ni5  1  0.50000000  0.00000000  0.50000000  1
  Ni  Ni6  1  0.00000000  0.00000000  0.00000000  1
  Ni  Ni7  1  0.50000000  0.50000000  0.50000000  1
  Cu  Cu8  1  0.58095700  0.75000000  0.08836900  1
  Cu  Cu9  1  0.91904300  0.75000000  0.58836900  1
  Cu  Cu10  1  0.41904300  0.25000000  0.91163100  1
  Cu  Cu11  1  0.08095700  0.25000000  0.41163100  1
  C  C12  1  0.21264300  0.75000000  0.09008700  1
  C  C13  1  0.28735700  0.75000000  0.59008700  1
  C  C14  1  0.78735700  0.25000000  0.90991300  1
  C  C15  1  0.71264300  0.25000000  0.40991300  1
  C  C16  1  0.75166600  0.75000000  0.42780600  1
  C  C17  1  0.74833400  0.75000000  0.92780600  1
  C  C18  1  0.24833400  0.25000000  0.57219400  1
  C  C19  1  0.25166600  0.25000000  0.07219400  1
  C  C20  1  0.75627200  0.50988900  0.16802600  1
  C  C21  1  0.74372800  0.99011100  0.66802600  1
  C  C22  1  0.24372800  0.00988900  0.83197400  1
  C  C23  1  0.25627200  0.49011100  0.33197400  1
  C  C24  1  0.24372800  0.49011100  0.83197400  1
  C  C25  1  0.25627200  0.00988900  0.33197400  1
  C  C26  1  0.75627200  0.99011100  0.16802600  1
  C  C27  1  0.74372800  0.50988900  0.66802600  1
