# generated using pymatgen
data_Cu2Ni10C
_symmetry_space_group_name_H-M   'P 1'
_cell_length_a   6.77209853
_cell_length_b   6.77209853
_cell_length_c   8.95486200
_cell_angle_alpha   90.00000000
_cell_angle_beta   90.00000000
_cell_angle_gamma   97.71945090
_symmetry_Int_Tables_number   1
_chemical_formula_structural   Cu2Ni10C
_chemical_formula_sum   'Cu4 Ni20 C2'
_cell_volume   406.96003924
_cell_formula_units_Z   2
loop_
 _symmetry_equiv_pos_site_id
 _symmetry_equiv_pos_as_xyz
  1  'x, y, z'
loop_
 _atom_site_type_symbol
 _atom_site_label
 _atom_site_symmetry_multiplicity
 _atom_site_fract_x
 _atom_site_fract_y
 _atom_site_fract_z
 _atom_site_occupancy
  C  C0  1  0.87655500  0.12344500  0.75000000  1
  C  C1  1  0.12344500  0.87655500  0.25000000  1
  Ni  Ni2  1  0.41162400  0.13295900  0.75000000  1
  Ni  Ni3  1  0.13295900  0.41162400  0.25000000  1
  Ni  Ni4  1  0.58837600  0.86704100  0.25000000  1
  Ni  Ni5  1  0.86704100  0.58837600  0.75000000  1
  Ni  Ni6  1  0.52165600  0.77820400  0.75000000  1
  Ni  Ni7  1  0.77820400  0.52165600  0.25000000  1
  Ni  Ni8  1  0.47834400  0.22179600  0.25000000  1
  Ni  Ni9  1  0.22179600  0.47834400  0.75000000  1
  Ni  Ni10  1  0.83903900  0.16096100  0.40149200  1
  Ni  Ni11  1  0.16096100  0.83903900  0.59850800  1
  Ni  Ni12  1  0.83903900  0.16096100  0.09850800  1
  Ni  Ni13  1  0.16096100  0.83903900  0.90149200  1
  Ni  Ni14  1  0.62416900  0.37583100  0.94809900  1
  Ni  Ni15  1  0.37583100  0.62416900  0.05190100  1
  Ni  Ni16  1  0.62416900  0.37583100  0.55190100  1
  Ni  Ni17  1  0.37583100  0.62416900  0.44809900  1
  Ni  Ni18  1  0.77244900  0.77244900  0.00000000  1
  Ni  Ni19  1  0.77244900  0.77244900  0.50000000  1
  Ni  Ni20  1  0.22755100  0.22755100  0.00000000  1
  Ni  Ni21  1  0.22755100  0.22755100  0.50000000  1
  Cu  Cu22  1  0.50000000  0.00000000  0.00000000  1
  Cu  Cu23  1  0.00000000  0.50000000  0.00000000  1
  Cu  Cu24  1  0.50000000  0.00000000  0.50000000  1
  Cu  Cu25  1  0.00000000  0.50000000  0.50000000  1
