# generated using pymatgen
data_Cu4NiC8
_symmetry_space_group_name_H-M   'P 1'
_cell_length_a   6.70110684
_cell_length_b   6.70110684
_cell_length_c   12.39336600
_cell_angle_alpha   90.00000000
_cell_angle_beta   90.00000000
_cell_angle_gamma   120.00000830
_symmetry_Int_Tables_number   1
_chemical_formula_structural   Cu4NiC8
_chemical_formula_sum   'Cu8 Ni2 C16'
_cell_volume   481.96217471
_cell_formula_units_Z   2
loop_
 _symmetry_equiv_pos_site_id
 _symmetry_equiv_pos_as_xyz
  1  'x, y, z'
loop_
 _atom_site_type_symbol
 _atom_site_label
 _atom_site_symmetry_multiplicity
 _atom_site_fract_x
 _atom_site_fract_y
 _atom_site_fract_z
 _atom_site_occupancy
  Ni  Ni0  1  0.00000000  0.00000000  0.50000000  1
  Ni  Ni1  1  0.00000000  0.00000000  0.00000000  1
  Cu  Cu2  1  0.00000000  0.00000000  0.25000000  1
  Cu  Cu3  1  0.00000000  0.00000000  0.75000000  1
  Cu  Cu4  1  0.50492000  0.49508000  0.25000000  1
  Cu  Cu5  1  0.50492000  0.00984000  0.25000000  1
  Cu  Cu6  1  0.99016000  0.49508000  0.25000000  1
  Cu  Cu7  1  0.49508000  0.50492000  0.75000000  1
  Cu  Cu8  1  0.49508000  0.99016000  0.75000000  1
  Cu  Cu9  1  0.00984000  0.50492000  0.75000000  1
  C  C10  1  0.33333300  0.66666700  0.87859000  1
  C  C11  1  0.66666700  0.33333300  0.12141000  1
  C  C12  1  0.66666700  0.33333300  0.37859000  1
  C  C13  1  0.33333300  0.66666700  0.62141000  1
  C  C14  1  0.16681500  0.83318500  0.37833300  1
  C  C15  1  0.16681500  0.33363000  0.37833300  1
  C  C16  1  0.66637000  0.83318500  0.37833300  1
  C  C17  1  0.83318500  0.16681500  0.62166700  1
  C  C18  1  0.83318500  0.66637000  0.62166700  1
  C  C19  1  0.33363000  0.16681500  0.62166700  1
  C  C20  1  0.83318500  0.16681500  0.87833300  1
  C  C21  1  0.83318500  0.66637000  0.87833300  1
  C  C22  1  0.33363000  0.16681500  0.87833300  1
  C  C23  1  0.16681500  0.83318500  0.12166700  1
  C  C24  1  0.16681500  0.33363000  0.12166700  1
  C  C25  1  0.66637000  0.83318500  0.12166700  1
