# generated using pymatgen
data_Cu3Ni2C
_symmetry_space_group_name_H-M   'P 1'
_cell_length_a   3.85850000
_cell_length_b   8.94767984
_cell_length_c   8.95833774
_cell_angle_alpha   119.96064948
_cell_angle_beta   90.00000000
_cell_angle_gamma   90.00000000
_symmetry_Int_Tables_number   1
_chemical_formula_structural   Cu3Ni2C
_chemical_formula_sum   'Cu9 Ni6 C3'
_cell_volume   267.95327840
_cell_formula_units_Z   3
loop_
 _symmetry_equiv_pos_site_id
 _symmetry_equiv_pos_as_xyz
  1  'x, y, z'
loop_
 _atom_site_type_symbol
 _atom_site_label
 _atom_site_symmetry_multiplicity
 _atom_site_fract_x
 _atom_site_fract_y
 _atom_site_fract_z
 _atom_site_occupancy
  C  C0  1  0.00000000  0.00007000  0.00000000  1
  C  C1  1  0.50000000  0.33320700  0.66649700  1
  C  C2  1  0.50000000  0.66671000  0.33350300  1
  Ni  Ni3  1  0.50000000  0.31144300  0.00000000  1
  Ni  Ni4  1  0.50000000  0.68865100  0.68865500  1
  Ni  Ni5  1  0.50000000  0.99999600  0.31134500  1
  Ni  Ni6  1  0.50000000  0.68859000  0.00000000  1
  Ni  Ni7  1  0.50000000  0.31134900  0.31135900  1
  Ni  Ni8  1  0.50000000  0.99999100  0.68864100  1
  Cu  Cu9  1  0.00000000  0.49997000  0.00000000  1
  Cu  Cu10  1  0.00000000  0.50000700  0.50000800  1
  Cu  Cu11  1  0.00000000  0.99999900  0.49999200  1
  Cu  Cu12  1  0.00000000  0.18325200  0.36651600  1
  Cu  Cu13  1  0.00000000  0.18322100  0.81679300  1
  Cu  Cu14  1  0.00000000  0.63355000  0.81682000  1
  Cu  Cu15  1  0.00000000  0.81673700  0.63348400  1
  Cu  Cu16  1  0.00000000  0.36642700  0.18320700  1
  Cu  Cu17  1  0.00000000  0.81673000  0.18318000  1
