# generated using pymatgen
data_Cu2Ni2C9
_symmetry_space_group_name_H-M   'P 1'
_cell_length_a   12.63400845
_cell_length_b   12.63400845
_cell_length_c   12.63400845
_cell_angle_alpha   154.16394072
_cell_angle_beta   153.38537030
_cell_angle_gamma   37.43112488
_symmetry_Int_Tables_number   1
_chemical_formula_structural   Cu2Ni2C9
_chemical_formula_sum   'Cu4 Ni4 C18'
_cell_volume   393.12813319
_cell_formula_units_Z   2
loop_
 _symmetry_equiv_pos_site_id
 _symmetry_equiv_pos_as_xyz
  1  'x, y, z'
loop_
 _atom_site_type_symbol
 _atom_site_label
 _atom_site_symmetry_multiplicity
 _atom_site_fract_x
 _atom_site_fract_y
 _atom_site_fract_z
 _atom_site_occupancy
  Ni  Ni0  1  0.82709500  0.84461600  0.95919700  1
  Ni  Ni1  1  0.17290500  0.13210300  0.01752100  1
  Ni  Ni2  1  0.61458200  0.63210300  0.95919700  1
  Ni  Ni3  1  0.38541800  0.34461600  0.01752100  1
  Cu  Cu4  1  0.50000000  0.48607800  0.98607800  1
  Cu  Cu5  1  0.00000000  0.98607800  0.98607800  1
  Cu  Cu6  1  0.19721500  0.76579100  0.46300600  1
  Cu  Cu7  1  0.80278500  0.26579100  0.56857700  1
  C  C8  1  0.93093800  0.40420400  0.48690700  1
  C  C9  1  0.06906200  0.55596900  0.47326600  1
  C  C10  1  0.58270300  0.05596900  0.48690700  1
  C  C11  1  0.41729700  0.90420400  0.47326600  1
  C  C12  1  0.83969700  0.65359500  0.99329200  1
  C  C13  1  0.16030300  0.15359500  0.81389800  1
  C  C14  1  0.74019500  0.69424900  0.55517400  1
  C  C15  1  0.25980500  0.81497900  0.95405400  1
  C  C16  1  0.36092500  0.31497900  0.55517400  1
  C  C17  1  0.63907500  0.19424900  0.95405400  1
  C  C18  1  0.13514400  0.12015700  0.38631700  1
  C  C19  1  0.86485600  0.25117300  0.98501400  1
  C  C20  1  0.76616000  0.75117300  0.38631700  1
  C  C21  1  0.23384000  0.62015700  0.98501400  1
  C  C22  1  0.39030700  0.76141500  0.48597800  1
  C  C23  1  0.60969300  0.09567100  0.37110700  1
  C  C24  1  0.22456300  0.59567100  0.48597800  1
  C  C25  1  0.77543700  0.26141500  0.37110700  1
