# generated using pymatgen
data_CuNiC3
_symmetry_space_group_name_H-M   'P 1'
_cell_length_a   4.12493792
_cell_length_b   4.12493792
_cell_length_c   6.73093200
_cell_angle_alpha   90.00000000
_cell_angle_beta   90.00000000
_cell_angle_gamma   119.99999865
_symmetry_Int_Tables_number   1
_chemical_formula_structural   CuNiC3
_chemical_formula_sum   'Cu1 Ni1 C3'
_cell_volume   99.18378406
_cell_formula_units_Z   1
loop_
 _symmetry_equiv_pos_site_id
 _symmetry_equiv_pos_as_xyz
  1  'x, y, z'
loop_
 _atom_site_type_symbol
 _atom_site_label
 _atom_site_symmetry_multiplicity
 _atom_site_fract_x
 _atom_site_fract_y
 _atom_site_fract_z
 _atom_site_occupancy
  C  C0  1  0.00000000  0.00000000  0.01646900  1
  Ni  Ni1  1  0.33333300  0.66666700  0.62341100  1
  Cu  Cu2  1  0.66666700  0.33333300  0.36049100  1
  C  C3  1  0.66666700  0.33333300  0.74902800  1
  C  C4  1  0.33333300  0.66666700  0.25060200  1
