# generated using pymatgen
data_CuNi3C22
_symmetry_space_group_name_H-M   'P 1'
_cell_length_a   14.44085740
_cell_length_b   14.44085740
_cell_length_c   14.38336841
_cell_angle_alpha   90.00000000
_cell_angle_beta   90.00000000
_cell_angle_gamma   90.00000000
_symmetry_Int_Tables_number   1
_chemical_formula_structural   CuNi3C22
_chemical_formula_sum   'Cu8 Ni24 C176'
_cell_volume   2999.48409470
_cell_formula_units_Z   8
loop_
 _symmetry_equiv_pos_site_id
 _symmetry_equiv_pos_as_xyz
  1  'x, y, z'
loop_
 _atom_site_type_symbol
 _atom_site_label
 _atom_site_symmetry_multiplicity
 _atom_site_fract_x
 _atom_site_fract_y
 _atom_site_fract_z
 _atom_site_occupancy
  C  C0  1  0.52633698  0.86294076  0.32890109  1
  C  C1  1  0.47366302  0.13705924  0.82890109  1
  C  C2  1  0.36294076  0.97366302  0.57890109  1
  C  C3  1  0.63705924  0.02633698  0.07890109  1
  C  C4  1  0.13705924  0.47366302  0.17109891  1
  C  C5  1  0.86294076  0.52633698  0.67109891  1
  C  C6  1  0.97366302  0.36294076  0.42109891  1
  C  C7  1  0.02633698  0.63705924  0.92109891  1
  C  C8  1  0.74420554  0.91714341  0.52834383  1
  C  C9  1  0.25579446  0.08285659  0.02834383  1
  C  C10  1  0.41714341  0.75579446  0.77834383  1
  C  C11  1  0.58285659  0.24420554  0.27834383  1
  C  C12  1  0.08285659  0.25579446  0.97165617  1
  C  C13  1  0.91714341  0.74420554  0.47165617  1
  C  C14  1  0.75579446  0.41714341  0.22165617  1
  C  C15  1  0.24420554  0.58285659  0.72165617  1
  C  C16  1  0.68031797  0.86258057  0.43805881  1
  C  C17  1  0.31968203  0.13741943  0.93805881  1
  C  C18  1  0.36258057  0.81968203  0.68805881  1
  C  C19  1  0.63741943  0.18031797  0.18805881  1
  C  C20  1  0.13741943  0.31968203  0.06194119  1
  C  C21  1  0.86258057  0.68031797  0.56194119  1
  C  C22  1  0.81968203  0.36258057  0.31194119  1
  C  C23  1  0.18031797  0.63741943  0.81194119  1
  C  C24  1  0.67216996  0.99125044  0.64339498  1
  C  C25  1  0.32783004  0.00874956  0.14339498  1
  C  C26  1  0.49125044  0.82783004  0.89339498  1
  C  C27  1  0.50874956  0.17216996  0.39339498  1
  C  C28  1  0.00874956  0.32783004  0.85660502  1
  C  C29  1  0.99125044  0.67216996  0.35660502  1
  C  C30  1  0.82783004  0.49125044  0.10660502  1
  C  C31  1  0.17216996  0.50874956  0.60660502  1
  C  C32  1  0.55032129  0.99852912  0.64919755  1
  C  C33  1  0.44967871  0.00147088  0.14919755  1
  C  C34  1  0.49852912  0.94967871  0.89919755  1
  C  C35  1  0.50147088  0.05032129  0.39919755  1
  C  C36  1  0.00147088  0.44967871  0.85080245  1
  C  C37  1  0.99852912  0.55032129  0.35080245  1
  C  C38  1  0.94967871  0.49852912  0.10080245  1
  C  C39  1  0.05032129  0.50147088  0.60080245  1
  C  C40  1  0.34838167  0.73448883  0.03505314  1
  C  C41  1  0.65161833  0.26551117  0.53505314  1
  C  C42  1  0.23448883  0.15161833  0.28505314  1
  C  C43  1  0.76551117  0.84838167  0.78505314  1
  C  C44  1  0.26551117  0.65161833  0.46494686  1
  C  C45  1  0.73448883  0.34838167  0.96494686  1
  C  C46  1  0.15161833  0.23448883  0.71494686  1
  C  C47  1  0.84838167  0.76551117  0.21494686  1
  C  C48  1  0.27378184  0.78739531  0.11506919  1
  C  C49  1  0.72621816  0.21260469  0.61506919  1
  C  C50  1  0.28739531  0.22621816  0.36506919  1
  C  C51  1  0.71260469  0.77378184  0.86506919  1
  C  C52  1  0.21260469  0.72621816  0.38493081  1
  C  C53  1  0.78739531  0.27378184  0.88493081  1
  C  C54  1  0.22621816  0.28739531  0.63493081  1
  C  C55  1  0.77378184  0.71260469  0.13493081  1
  C  C56  1  0.50035156  0.71315989  0.06944721  1
  C  C57  1  0.49964844  0.28684011  0.56944721  1
  C  C58  1  0.21315989  0.99964844  0.31944721  1
  C  C59  1  0.78684011  0.00035156  0.81944721  1
  C  C60  1  0.28684011  0.49964844  0.43055279  1
  C  C61  1  0.71315989  0.50035156  0.93055279  1
  C  C62  1  0.99964844  0.21315989  0.68055279  1
  C  C63  1  0.00035156  0.78684011  0.18055279  1
  C  C64  1  0.54480326  0.74911154  0.17846810  1
  C  C65  1  0.45519674  0.25088846  0.67846810  1
  C  C66  1  0.24911154  0.95519674  0.42846810  1
  C  C67  1  0.75088846  0.04480326  0.92846810  1
  C  C68  1  0.25088846  0.45519674  0.32153190  1
  C  C69  1  0.74911154  0.54480326  0.82153190  1
  C  C70  1  0.95519674  0.24911154  0.57153190  1
  C  C71  1  0.04480326  0.75088846  0.07153190  1
  C  C72  1  0.49837593  0.56902489  0.38498358  1
  C  C73  1  0.50162407  0.43097511  0.88498358  1
  C  C74  1  0.06902489  0.00162407  0.63498358  1
  C  C75  1  0.93097511  0.99837593  0.13498358  1
  C  C76  1  0.43097511  0.50162407  0.11501642  1
  C  C77  1  0.56902489  0.49837593  0.61501642  1
  C  C78  1  0.00162407  0.06902489  0.36501642  1
  C  C79  1  0.99837593  0.93097511  0.86501642  1
  C  C80  1  0.47140727  0.68280527  0.34842924  1
  C  C81  1  0.52859273  0.31719473  0.84842924  1
  C  C82  1  0.18280527  0.02859273  0.59842924  1
  C  C83  1  0.81719473  0.97140727  0.09842924  1
  C  C84  1  0.31719473  0.52859273  0.15157076  1
  C  C85  1  0.68280527  0.47140727  0.65157076  1
  C  C86  1  0.02859273  0.18280527  0.40157076  1
  C  C87  1  0.97140727  0.81719473  0.90157076  1
  C  C88  1  0.64763958  0.52079973  0.39161986  1
  C  C89  1  0.35236042  0.47920027  0.89161986  1
  C  C90  1  0.02079973  0.85236042  0.64161986  1
  C  C91  1  0.97920027  0.14763958  0.14161986  1
  C  C92  1  0.47920027  0.35236042  0.10838014  1
  C  C93  1  0.52079973  0.64763958  0.60838014  1
  C  C94  1  0.85236042  0.02079973  0.35838014  1
  C  C95  1  0.14763958  0.97920027  0.85838014  1
  C  C96  1  0.73827644  0.59789067  0.36731378  1
  C  C97  1  0.26172356  0.40210933  0.86731378  1
  C  C98  1  0.09789067  0.76172356  0.61731378  1
  C  C99  1  0.90210933  0.23827644  0.11731378  1
  C  C100  1  0.40210933  0.26172356  0.13268622  1
  C  C101  1  0.59789067  0.73827644  0.63268622  1
  C  C102  1  0.76172356  0.09789067  0.38268622  1
  C  C103  1  0.23827644  0.90210933  0.88268622  1
  C  C104  1  0.60319180  0.93093858  0.53520034  1
  C  C105  1  0.39680820  0.06906142  0.03520034  1
  C  C106  1  0.43093858  0.89680820  0.78520034  1
  C  C107  1  0.56906142  0.10319180  0.28520034  1
  C  C108  1  0.06906142  0.39680820  0.96479966  1
  C  C109  1  0.93093858  0.60319180  0.46479966  1
  C  C110  1  0.89680820  0.43093858  0.21479966  1
  C  C111  1  0.10319180  0.56906142  0.71479966  1
  C  C112  1  0.40800619  0.77623216  0.15816441  1
  C  C113  1  0.59199381  0.22376784  0.65816441  1
  C  C114  1  0.27623216  0.09199381  0.40816441  1
  C  C115  1  0.72376784  0.90800619  0.90816441  1
  C  C116  1  0.22376784  0.59199381  0.34183559  1
  C  C117  1  0.77623216  0.40800619  0.84183559  1
  C  C118  1  0.09199381  0.27623216  0.59183559  1
  C  C119  1  0.90800619  0.72376784  0.09183559  1
  C  C120  1  0.60892648  0.65300544  0.35509241  1
  C  C121  1  0.39107352  0.34699456  0.85509241  1
  C  C122  1  0.15300544  0.89107352  0.60509241  1
  C  C123  1  0.84699456  0.10892648  0.10509241  1
  C  C124  1  0.34699456  0.39107352  0.14490759  1
  C  C125  1  0.65300544  0.60892648  0.64490759  1
  C  C126  1  0.89107352  0.15300544  0.39490759  1
  C  C127  1  0.10892648  0.84699456  0.89490759  1
  Ni  Ni128  1  0.49703725  0.90653656  0.48436655  1
  Ni  Ni129  1  0.50296275  0.09346344  0.98436655  1
  Ni  Ni130  1  0.40653656  0.00296275  0.73436655  1
  Ni  Ni131  1  0.59346344  0.99703725  0.23436655  1
  Ni  Ni132  1  0.09346344  0.50296275  0.01563345  1
  Ni  Ni133  1  0.90653656  0.49703725  0.51563345  1
  Ni  Ni134  1  0.00296275  0.40653656  0.26563345  1
  Ni  Ni135  1  0.99703725  0.59346344  0.76563345  1
  Ni  Ni136  1  0.38750338  0.82665723  0.26448196  1
  Ni  Ni137  1  0.61249662  0.17334277  0.76448196  1
  Ni  Ni138  1  0.32665723  0.11249662  0.51448196  1
  Ni  Ni139  1  0.67334277  0.88750338  0.01448196  1
  Ni  Ni140  1  0.17334277  0.61249662  0.23551804  1
  Ni  Ni141  1  0.82665723  0.38750338  0.73551804  1
  Ni  Ni142  1  0.11249662  0.32665723  0.48551804  1
  Ni  Ni143  1  0.88750338  0.67334277  0.98551804  1
  Ni  Ni144  1  0.64762147  0.75877779  0.31518539  1
  Ni  Ni145  1  0.35237853  0.24122221  0.81518539  1
  Ni  Ni146  1  0.25877779  0.85237853  0.56518539  1
  Ni  Ni147  1  0.74122221  0.14762147  0.06518539  1
  Ni  Ni148  1  0.24122221  0.35237853  0.18481461  1
  Ni  Ni149  1  0.75877779  0.64762147  0.68481461  1
  Ni  Ni150  1  0.85237853  0.25877779  0.43481461  1
  Ni  Ni151  1  0.14762147  0.74122221  0.93481461  1
  Cu  Cu152  1  0.96860229  0.86496737  0.34625176  1
  Cu  Cu153  1  0.03139771  0.13503263  0.84625176  1
  Cu  Cu154  1  0.36496737  0.53139771  0.59625176  1
  Cu  Cu155  1  0.63503263  0.46860229  0.09625176  1
  Cu  Cu156  1  0.13503263  0.03139771  0.15374824  1
  Cu  Cu157  1  0.86496737  0.96860229  0.65374824  1
  Cu  Cu158  1  0.53139771  0.36496737  0.40374824  1
  Cu  Cu159  1  0.46860229  0.63503263  0.90374824  1
  C  C160  1  0.68248893  0.90514726  0.49468416  1
  C  C161  1  0.31751107  0.09485274  0.99468416  1
  C  C162  1  0.40514726  0.81751107  0.74468416  1
  C  C163  1  0.59485274  0.18248893  0.24468416  1
  C  C164  1  0.09485274  0.31751107  0.00531584  1
  C  C165  1  0.90514726  0.68248893  0.50531584  1
  C  C166  1  0.81751107  0.40514726  0.25531584  1
  C  C167  1  0.18248893  0.59485274  0.75531584  1
  C  C168  1  0.60863301  0.97608816  0.61582344  1
  C  C169  1  0.39136699  0.02391184  0.11582344  1
  C  C170  1  0.47608816  0.89136699  0.86582344  1
  C  C171  1  0.52391184  0.10863301  0.36582344  1
  C  C172  1  0.02391184  0.39136699  0.88417656  1
  C  C173  1  0.97608816  0.60863301  0.38417656  1
  C  C174  1  0.89136699  0.47608816  0.13417656  1
  C  C175  1  0.10863301  0.52391184  0.63417656  1
  C  C176  1  0.33858748  0.76767723  0.09690231  1
  C  C177  1  0.66141252  0.23232277  0.59690231  1
  C  C178  1  0.26767723  0.16141252  0.34690231  1
  C  C179  1  0.73232277  0.83858748  0.84690231  1
  C  C180  1  0.23232277  0.66141252  0.40309769  1
  C  C181  1  0.76767723  0.33858748  0.90309769  1
  C  C182  1  0.16141252  0.26767723  0.65309769  1
  C  C183  1  0.83858748  0.73232277  0.15309769  1
  C  C184  1  0.49120209  0.74482967  0.13255274  1
  C  C185  1  0.50879791  0.25517033  0.63255274  1
  C  C186  1  0.24482967  0.00879791  0.38255274  1
  C  C187  1  0.75517033  0.99120209  0.88255274  1
  C  C188  1  0.25517033  0.50879791  0.36744726  1
  C  C189  1  0.74482967  0.49120209  0.86744726  1
  C  C190  1  0.00879791  0.24482967  0.61744726  1
  C  C191  1  0.99120209  0.75517033  0.11744726  1
  C  C192  1  0.51919690  0.63368699  0.36559595  1
  C  C193  1  0.48080310  0.36631301  0.86559595  1
  C  C194  1  0.13368699  0.98080310  0.61559595  1
  C  C195  1  0.86631301  0.01919690  0.11559595  1
  C  C196  1  0.36631301  0.48080310  0.13440405  1
  C  C197  1  0.63368699  0.51919690  0.63440405  1
  C  C198  1  0.98080310  0.13368699  0.38440405  1
  C  C199  1  0.01919690  0.86631301  0.88440405  1
  C  C200  1  0.66985688  0.58627159  0.37601489  1
  C  C201  1  0.33014312  0.41372841  0.87601489  1
  C  C202  1  0.08627159  0.83014312  0.62601489  1
  C  C203  1  0.91372841  0.16985688  0.12601489  1
  C  C204  1  0.41372841  0.33014312  0.12398511  1
  C  C205  1  0.58627159  0.66985688  0.62398511  1
  C  C206  1  0.83014312  0.08627159  0.37398511  1
  C  C207  1  0.16985688  0.91372841  0.87398511  1
