# generated using pymatgen
data_Cu(Ni3C2)4
_symmetry_space_group_name_H-M   'P 1'
_cell_length_a   10.09373531
_cell_length_b   10.09373531
_cell_length_c   7.50367900
_cell_angle_alpha   90.00000000
_cell_angle_beta   90.00000000
_cell_angle_gamma   119.99999549
_symmetry_Int_Tables_number   1
_chemical_formula_structural   Cu(Ni3C2)4
_chemical_formula_sum   'Cu2 Ni24 C16'
_cell_volume   662.07733759
_cell_formula_units_Z   2
loop_
 _symmetry_equiv_pos_site_id
 _symmetry_equiv_pos_as_xyz
  1  'x, y, z'
loop_
 _atom_site_type_symbol
 _atom_site_label
 _atom_site_symmetry_multiplicity
 _atom_site_fract_x
 _atom_site_fract_y
 _atom_site_fract_z
 _atom_site_occupancy
  C  C0  1  0.99374700  0.24236900  0.25000000  1
  C  C1  1  0.75763100  0.75137800  0.25000000  1
  C  C2  1  0.75137800  0.99374700  0.75000000  1
  C  C3  1  0.00625300  0.75763100  0.75000000  1
  C  C4  1  0.24236900  0.24862200  0.75000000  1
  C  C5  1  0.24862200  0.00625300  0.25000000  1
  C  C6  1  0.33333300  0.66666700  0.50003100  1
  C  C7  1  0.66666700  0.33333300  0.00003100  1
  C  C8  1  0.66666700  0.33333300  0.49996900  1
  C  C9  1  0.33333300  0.66666700  0.99996900  1
  C  C10  1  0.63049300  0.60106500  0.75000000  1
  C  C11  1  0.02942700  0.63049300  0.25000000  1
  C  C12  1  0.60106500  0.97057300  0.25000000  1
  C  C13  1  0.39893500  0.02942700  0.75000000  1
  C  C14  1  0.97057300  0.36950700  0.75000000  1
  C  C15  1  0.36950700  0.39893500  0.25000000  1
  Ni  Ni16  1  0.52146400  0.68924100  0.75000000  1
  Ni  Ni17  1  0.59702400  0.12909700  0.75000000  1
  Ni  Ni18  1  0.25255800  0.34298800  0.43433800  1
  Ni  Ni19  1  0.90957000  0.25255800  0.93433800  1
  Ni  Ni20  1  0.34298800  0.09043000  0.93433800  1
  Ni  Ni21  1  0.65701200  0.90957000  0.43433800  1
  Ni  Ni22  1  0.09043000  0.74744200  0.43433800  1
  Ni  Ni23  1  0.74744200  0.65701200  0.93433800  1
  Ni  Ni24  1  0.74744200  0.65701200  0.56566200  1
  Ni  Ni25  1  0.09043000  0.74744200  0.06566200  1
  Ni  Ni26  1  0.65701200  0.90957000  0.06566200  1
  Ni  Ni27  1  0.34298800  0.09043000  0.56566200  1
  Ni  Ni28  1  0.87090300  0.46792700  0.75000000  1
  Ni  Ni29  1  0.25255800  0.34298800  0.06566200  1
  Ni  Ni30  1  0.53207300  0.40297600  0.75000000  1
  Ni  Ni31  1  0.12909700  0.53207300  0.25000000  1
  Ni  Ni32  1  0.47853600  0.31075900  0.25000000  1
  Ni  Ni33  1  0.16777600  0.47853600  0.75000000  1
  Ni  Ni34  1  0.31075900  0.83222400  0.75000000  1
  Ni  Ni35  1  0.68924100  0.16777600  0.25000000  1
  Ni  Ni36  1  0.83222400  0.52146400  0.25000000  1
  Ni  Ni37  1  0.40297600  0.87090300  0.25000000  1
  Ni  Ni38  1  0.46792700  0.59702400  0.25000000  1
  Ni  Ni39  1  0.90957000  0.25255800  0.56566200  1
  Cu  Cu40  1  0.00000000  0.00000000  0.25000000  1
  Cu  Cu41  1  0.00000000  0.00000000  0.75000000  1
