# generated using pymatgen
data_CuNi2C13
_symmetry_space_group_name_H-M   'P 1'
_cell_length_a   19.55490000
_cell_length_b   6.55394400
_cell_length_c   9.09720036
_cell_angle_alpha   82.46934750
_cell_angle_beta   90.00000000
_cell_angle_gamma   90.00000000
_symmetry_Int_Tables_number   1
_chemical_formula_structural   CuNi2C13
_chemical_formula_sum   'Cu4 Ni8 C52'
_cell_volume   1155.85671371
_cell_formula_units_Z   4
loop_
 _symmetry_equiv_pos_site_id
 _symmetry_equiv_pos_as_xyz
  1  'x, y, z'
loop_
 _atom_site_type_symbol
 _atom_site_label
 _atom_site_symmetry_multiplicity
 _atom_site_fract_x
 _atom_site_fract_y
 _atom_site_fract_z
 _atom_site_occupancy
  C  C0  1  0.36929100  0.36542600  0.78895600  1
  C  C1  1  0.63070900  0.63457400  0.21104400  1
  C  C2  1  0.86929100  0.63457400  0.71104400  1
  C  C3  1  0.13070900  0.36542600  0.28895600  1
  Ni  Ni4  1  0.22143000  0.37563900  0.91549600  1
  Ni  Ni5  1  0.77857000  0.62436100  0.08450400  1
  Ni  Ni6  1  0.72143000  0.62436100  0.58450400  1
  Ni  Ni7  1  0.27857000  0.37563900  0.41549600  1
  Ni  Ni8  1  0.43156300  0.80932900  0.76891800  1
  Ni  Ni9  1  0.56843700  0.19067100  0.23108200  1
  Ni  Ni10  1  0.93156300  0.19067100  0.73108200  1
  Ni  Ni11  1  0.06843700  0.80932900  0.26891800  1
  Cu  Cu12  1  0.19901700  0.81359200  0.64287900  1
  Cu  Cu13  1  0.80098300  0.18640800  0.35712100  1
  Cu  Cu14  1  0.69901700  0.18640800  0.85712100  1
  Cu  Cu15  1  0.30098300  0.81359200  0.14287900  1
  C  C16  1  0.12319300  0.20355100  0.55456000  1
  C  C17  1  0.87680700  0.79644900  0.44544000  1
  C  C18  1  0.62319300  0.79644900  0.94544000  1
  C  C19  1  0.37680700  0.20355100  0.05456000  1
  C  C20  1  0.42786700  0.65343900  0.90657300  1
  C  C21  1  0.57213300  0.34656100  0.09342700  1
  C  C22  1  0.92786700  0.34656100  0.59342700  1
  C  C23  1  0.07213300  0.65343900  0.40657300  1
  C  C24  1  0.76424500  0.81352500  0.59671100  1
  C  C25  1  0.23575500  0.18647500  0.40328900  1
  C  C26  1  0.26424500  0.18647500  0.90328900  1
  C  C27  1  0.73575500  0.81352500  0.09671100  1
  C  C28  1  0.49036200  0.34488900  0.64260100  1
  C  C29  1  0.50963800  0.65511100  0.35739900  1
  C  C30  1  0.99036200  0.65511100  0.85739900  1
  C  C31  1  0.00963800  0.34488900  0.14260100  1
  C  C32  1  0.08688300  0.81931100  0.79474000  1
  C  C33  1  0.91311700  0.18068900  0.20526000  1
  C  C34  1  0.58688300  0.18068900  0.70526000  1
  C  C35  1  0.41311700  0.81931100  0.29474000  1
  C  C36  1  0.16600500  0.39576500  0.80657300  1
  C  C37  1  0.83399500  0.60423500  0.19342700  1
  C  C38  1  0.66600500  0.60423500  0.69342700  1
  C  C39  1  0.33399500  0.39576500  0.30657300  1
  C  C40  1  0.39036000  0.71892200  0.65496300  1
  C  C41  1  0.60964000  0.28107800  0.34503700  1
  C  C42  1  0.89036000  0.28107800  0.84503700  1
  C  C43  1  0.10964000  0.71892200  0.15496300  1
  C  C44  1  0.30570500  0.36841100  0.56766200  1
  C  C45  1  0.69429500  0.63158900  0.43233800  1
  C  C46  1  0.80570500  0.63158900  0.93233800  1
  C  C47  1  0.19429500  0.36841100  0.06766200  1
  C  C48  1  0.27079200  0.55260800  0.88252900  1
  C  C49  1  0.72920800  0.44739200  0.11747100  1
  C  C50  1  0.77079200  0.44739200  0.61747100  1
  C  C51  1  0.22920800  0.55260800  0.38252900  1
  C  C52  1  0.50331000  0.83455700  0.72302300  1
  C  C53  1  0.49669000  0.16544300  0.27697700  1
  C  C54  1  0.00331000  0.16544300  0.77697700  1
  C  C55  1  0.99669000  0.83455700  0.22302300  1
  C  C56  1  0.03402800  0.73454000  0.75324700  1
  C  C57  1  0.96597200  0.26546000  0.24675300  1
  C  C58  1  0.53402800  0.26546000  0.74675300  1
  C  C59  1  0.46597200  0.73454000  0.25324700  1
  C  C60  1  0.40110900  0.00817600  0.79833200  1
  C  C61  1  0.59889100  0.99182400  0.20166800  1
  C  C62  1  0.90110900  0.99182400  0.70166800  1
  C  C63  1  0.09889100  0.00817600  0.29833200  1
