# generated using pymatgen
data_Cu2Ni3C
_symmetry_space_group_name_H-M   'P 1'
_cell_length_a   8.57107200
_cell_length_b   8.57050300
_cell_length_c   16.78716712
_cell_angle_alpha   59.37431484
_cell_angle_beta   90.00000000
_cell_angle_gamma   90.00000000
_symmetry_Int_Tables_number   1
_chemical_formula_structural   Cu2Ni3C
_chemical_formula_sum   'Cu16 Ni24 C8'
_cell_volume   1061.14975683
_cell_formula_units_Z   8
loop_
 _symmetry_equiv_pos_site_id
 _symmetry_equiv_pos_as_xyz
  1  'x, y, z'
loop_
 _atom_site_type_symbol
 _atom_site_label
 _atom_site_symmetry_multiplicity
 _atom_site_fract_x
 _atom_site_fract_y
 _atom_site_fract_z
 _atom_site_occupancy
  C  C0  1  0.75162600  0.24740600  0.00124100  1
  C  C1  1  0.24837400  0.24740600  0.50124100  1
  C  C2  1  0.24627000  0.74804500  0.00126700  1
  C  C3  1  0.75373000  0.74804500  0.50126700  1
  C  C4  1  0.75414100  0.99859000  0.24872300  1
  C  C5  1  0.24585900  0.99859000  0.74872300  1
  C  C6  1  0.24640200  0.50496200  0.24866100  1
  C  C7  1  0.75359800  0.50496200  0.74866100  1
  Ni  Ni8  1  0.86940300  0.44278900  0.42447200  1
  Ni  Ni9  1  0.13059700  0.44278900  0.92447200  1
  Ni  Ni10  1  0.36520900  0.20835000  0.92401600  1
  Ni  Ni11  1  0.63479100  0.20835000  0.42401600  1
  Ni  Ni12  1  0.12734300  0.56301300  0.57290300  1
  Ni  Ni13  1  0.87265700  0.56301300  0.07290300  1
  Ni  Ni14  1  0.63782100  0.79263100  0.07836700  1
  Ni  Ni15  1  0.36217900  0.79263100  0.57836700  1
  Ni  Ni16  1  0.62358400  0.65824200  0.96692800  1
  Ni  Ni17  1  0.37641600  0.65824200  0.46692800  1
  Ni  Ni18  1  0.12663900  0.90816000  0.46716000  1
  Ni  Ni19  1  0.87336100  0.90816000  0.96716000  1
  Ni  Ni20  1  0.37307200  0.34181600  0.03197300  1
  Ni  Ni21  1  0.62692800  0.34181600  0.53197300  1
  Ni  Ni22  1  0.87484400  0.08772900  0.53828400  1
  Ni  Ni23  1  0.12515600  0.08772900  0.03828400  1
  Ni  Ni24  1  0.75314500  0.50315300  0.24785100  1
  Ni  Ni25  1  0.24685500  0.50315300  0.74785100  1
  Ni  Ni26  1  0.62457600  0.17078800  0.70490800  1
  Ni  Ni27  1  0.37542400  0.17078800  0.20490800  1
  Ni  Ni28  1  0.87861600  0.06553500  0.79278700  1
  Ni  Ni29  1  0.12138400  0.06553500  0.29278700  1
  Ni  Ni30  1  0.35883700  0.82878300  0.29229700  1
  Ni  Ni31  1  0.64116300  0.82878300  0.79229700  1
  Cu  Cu32  1  0.41673400  0.03239200  0.38370100  1
  Cu  Cu33  1  0.58326600  0.03239200  0.88370100  1
  Cu  Cu34  1  0.91397300  0.70371800  0.88186900  1
  Cu  Cu35  1  0.08602700  0.70371800  0.38186900  1
  Cu  Cu36  1  0.58705800  0.96386900  0.61668800  1
  Cu  Cu37  1  0.41294200  0.96386900  0.11668800  1
  Cu  Cu38  1  0.08157100  0.29457800  0.11810300  1
  Cu  Cu39  1  0.91842900  0.29457800  0.61810300  1
  Cu  Cu40  1  0.57638400  0.43625800  0.14047400  1
  Cu  Cu41  1  0.42361600  0.43625800  0.64047400  1
  Cu  Cu42  1  0.06807300  0.79182400  0.64080900  1
  Cu  Cu43  1  0.93192700  0.79182400  0.14080900  1
  Cu  Cu44  1  0.42317100  0.56660700  0.85862200  1
  Cu  Cu45  1  0.57682900  0.56660700  0.35862200  1
  Cu  Cu46  1  0.92553900  0.21676100  0.35989500  1
  Cu  Cu47  1  0.07446100  0.21676100  0.85989500  1
