# generated using pymatgen
data_Cu3NiC5
_symmetry_space_group_name_H-M   'P 1'
_cell_length_a   6.72467607
_cell_length_b   6.72467607
_cell_length_c   9.21911311
_cell_angle_alpha   80.16712185
_cell_angle_beta   80.16712185
_cell_angle_gamma   83.15471285
_symmetry_Int_Tables_number   1
_chemical_formula_structural   Cu3NiC5
_chemical_formula_sum   'Cu12 Ni4 C20'
_cell_volume   402.99760596
_cell_formula_units_Z   4
loop_
 _symmetry_equiv_pos_site_id
 _symmetry_equiv_pos_as_xyz
  1  'x, y, z'
loop_
 _atom_site_type_symbol
 _atom_site_label
 _atom_site_symmetry_multiplicity
 _atom_site_fract_x
 _atom_site_fract_y
 _atom_site_fract_z
 _atom_site_occupancy
  Ni  Ni0  1  0.26906000  0.57046700  0.94021400  1
  Ni  Ni1  1  0.42953300  0.73094000  0.55978600  1
  Ni  Ni2  1  0.73094000  0.42953300  0.05978600  1
  Ni  Ni3  1  0.57046700  0.26906000  0.44021400  1
  Cu  Cu4  1  0.80931600  0.78997900  0.73446200  1
  Cu  Cu5  1  0.21002100  0.19068400  0.76553800  1
  Cu  Cu6  1  0.19068400  0.21002100  0.26553800  1
  Cu  Cu7  1  0.78997900  0.80931600  0.23446200  1
  Cu  Cu8  1  0.93057200  0.42778100  0.68014200  1
  Cu  Cu9  1  0.57221900  0.06942800  0.81985800  1
  Cu  Cu10  1  0.06942800  0.57221900  0.31985800  1
  Cu  Cu11  1  0.42778100  0.93057200  0.18014200  1
  Cu  Cu12  1  0.03507200  0.11168900  0.56688900  1
  Cu  Cu13  1  0.88831100  0.96492800  0.93311100  1
  Cu  Cu14  1  0.96492800  0.88831100  0.43311100  1
  Cu  Cu15  1  0.11168900  0.03507200  0.06688900  1
  C  C16  1  0.93242800  0.90927000  0.59793400  1
  C  C17  1  0.09073000  0.06757200  0.90206600  1
  C  C18  1  0.06757200  0.09073000  0.40206600  1
  C  C19  1  0.90927000  0.93242800  0.09793400  1
  C  C20  1  0.90364800  0.78435700  0.86700800  1
  C  C21  1  0.21564300  0.09635200  0.63299200  1
  C  C22  1  0.09635200  0.21564300  0.13299200  1
  C  C23  1  0.78435700  0.90364800  0.36700800  1
  C  C24  1  0.10249700  0.39756800  0.74747500  1
  C  C25  1  0.60243200  0.89750300  0.75252500  1
  C  C26  1  0.89750300  0.60243200  0.25252500  1
  C  C27  1  0.39756800  0.10249700  0.24747500  1
  C  C28  1  0.79062200  0.59213600  0.69631800  1
  C  C29  1  0.40786400  0.20937800  0.80368200  1
  C  C30  1  0.20937800  0.40786400  0.30368200  1
  C  C31  1  0.59213600  0.79062200  0.19631800  1
  C  C32  1  0.89393300  0.28569300  0.59748700  1
  C  C33  1  0.71430700  0.10606700  0.90251300  1
  C  C34  1  0.10606700  0.71430700  0.40251300  1
  C  C35  1  0.28569300  0.89393300  0.09748700  1
