# generated using pymatgen
data_Cu2NiC9
_symmetry_space_group_name_H-M   'P 1'
_cell_length_a   5.86403400
_cell_length_b   5.86403400
_cell_length_c   20.63271700
_cell_angle_alpha   90.00000000
_cell_angle_beta   90.00000000
_cell_angle_gamma   90.00000000
_symmetry_Int_Tables_number   1
_chemical_formula_structural   Cu2NiC9
_chemical_formula_sum   'Cu8 Ni4 C36'
_cell_volume   709.49506795
_cell_formula_units_Z   4
loop_
 _symmetry_equiv_pos_site_id
 _symmetry_equiv_pos_as_xyz
  1  'x, y, z'
loop_
 _atom_site_type_symbol
 _atom_site_label
 _atom_site_symmetry_multiplicity
 _atom_site_fract_x
 _atom_site_fract_y
 _atom_site_fract_z
 _atom_site_occupancy
  Ni  Ni0  1  0.23852100  0.76147900  0.50000000  1
  Ni  Ni1  1  0.76147900  0.23852100  0.50000000  1
  Ni  Ni2  1  0.26147900  0.26147900  0.00000000  1
  Ni  Ni3  1  0.73852100  0.73852100  0.00000000  1
  C  C4  1  0.22589300  0.77410700  0.31575900  1
  C  C5  1  0.77410700  0.22589300  0.31575900  1
  C  C6  1  0.27410700  0.27410700  0.81575900  1
  C  C7  1  0.72589300  0.72589300  0.81575900  1
  C  C8  1  0.77410700  0.22589300  0.68424100  1
  C  C9  1  0.22589300  0.77410700  0.68424100  1
  C  C10  1  0.72589300  0.72589300  0.18424100  1
  C  C11  1  0.27410700  0.27410700  0.18424100  1
  Cu  Cu12  1  0.24264700  0.75735300  0.10108400  1
  Cu  Cu13  1  0.75735300  0.24264700  0.10108400  1
  Cu  Cu14  1  0.25735300  0.25735300  0.60108400  1
  Cu  Cu15  1  0.74264700  0.74264700  0.60108400  1
  Cu  Cu16  1  0.75735300  0.24264700  0.89891600  1
  Cu  Cu17  1  0.24264700  0.75735300  0.89891600  1
  Cu  Cu18  1  0.74264700  0.74264700  0.39891600  1
  Cu  Cu19  1  0.25735300  0.25735300  0.39891600  1
  C  C20  1  0.28320600  0.28320600  0.50000000  1
  C  C21  1  0.71679400  0.71679400  0.50000000  1
  C  C22  1  0.21679400  0.78320600  0.00000000  1
  C  C23  1  0.78320600  0.21679400  0.00000000  1
  C  C24  1  0.31242800  0.68757200  0.20909600  1
  C  C25  1  0.68757200  0.31242800  0.20909600  1
  C  C26  1  0.18757200  0.18757200  0.70909600  1
  C  C27  1  0.81242800  0.81242800  0.70909600  1
  C  C28  1  0.68757200  0.31242800  0.79090400  1
  C  C29  1  0.31242800  0.68757200  0.79090400  1
  C  C30  1  0.81242800  0.81242800  0.29090400  1
  C  C31  1  0.18757200  0.18757200  0.29090400  1
  C  C32  1  0.00000000  0.50000000  0.38676900  1
  C  C33  1  0.50000000  0.00000000  0.88676900  1
  C  C34  1  0.00000000  0.50000000  0.61323100  1
  C  C35  1  0.50000000  0.00000000  0.11323100  1
  C  C36  1  0.50000000  0.00000000  0.38676900  1
  C  C37  1  0.00000000  0.50000000  0.88676900  1
  C  C38  1  0.50000000  0.00000000  0.61323100  1
  C  C39  1  0.00000000  0.50000000  0.11323100  1
  C  C40  1  0.50000000  0.50000000  0.37166900  1
  C  C41  1  0.00000000  0.00000000  0.87166900  1
  C  C42  1  0.50000000  0.50000000  0.62833100  1
  C  C43  1  0.00000000  0.00000000  0.12833100  1
  C  C44  1  0.50000000  0.50000000  0.09369000  1
  C  C45  1  0.00000000  0.00000000  0.59369000  1
  C  C46  1  0.50000000  0.50000000  0.90631000  1
  C  C47  1  0.00000000  0.00000000  0.40631000  1
