# generated using pymatgen
data_CuNiC11
_symmetry_space_group_name_H-M   'P 1'
_cell_length_a   6.58548087
_cell_length_b   8.98371219
_cell_length_c   17.78586798
_cell_angle_alpha   91.84635471
_cell_angle_beta   106.23919560
_cell_angle_gamma   107.15380793
_symmetry_Int_Tables_number   1
_chemical_formula_structural   CuNiC11
_chemical_formula_sum   'Cu6 Ni6 C66'
_cell_volume   957.75196967
_cell_formula_units_Z   6
loop_
 _symmetry_equiv_pos_site_id
 _symmetry_equiv_pos_as_xyz
  1  'x, y, z'
loop_
 _atom_site_type_symbol
 _atom_site_label
 _atom_site_symmetry_multiplicity
 _atom_site_fract_x
 _atom_site_fract_y
 _atom_site_fract_z
 _atom_site_occupancy
  C  C0  1  0.99927800  0.49868400  0.75084900  1
  C  C1  1  0.00479500  0.50050100  0.24695000  1
  C  C2  1  0.49841200  0.50004600  0.75282600  1
  C  C3  1  0.76397800  0.01372100  0.99327800  1
  C  C4  1  0.75047300  0.01324100  0.49283100  1
  C  C5  1  0.74352300  0.73408300  0.13221900  1
  Ni  Ni6  1  0.25331200  0.26267500  0.87080600  1
  Ni  Ni7  1  0.26019900  0.26092400  0.37138100  1
  Ni  Ni8  1  0.14752000  0.38363800  0.03810500  1
  Ni  Ni9  1  0.74446900  0.72947800  0.63269400  1
  Ni  Ni10  1  0.50861900  0.49864200  0.24620900  1
  Ni  Ni11  1  0.86970400  0.63536000  0.45996600  1
  Cu  Cu12  1  0.36331000  0.93163800  0.80953600  1
  Cu  Cu13  1  0.13554200  0.38442600  0.53491100  1
  Cu  Cu14  1  0.35317900  0.93072600  0.30806700  1
  Cu  Cu15  1  0.86883400  0.62332600  0.96825800  1
  Cu  Cu16  1  0.62840100  0.06674800  0.68834900  1
  Cu  Cu17  1  0.63682100  0.06437700  0.18594400  1
  C  C18  1  0.37225300  0.65533300  0.92798100  1
  C  C19  1  0.25293600  0.72166700  0.64396000  1
  C  C20  1  0.13145000  0.14025900  0.67523200  1
  C  C21  1  0.37026300  0.65122300  0.43048400  1
  C  C22  1  0.24750100  0.73292300  0.14143400  1
  C  C23  1  0.13562000  0.13194100  0.17598900  1
  C  C24  1  0.86338700  0.85937800  0.82369700  1
  C  C25  1  0.74554100  0.27740500  0.85613800  1
  C  C26  1  0.63117400  0.34349100  0.57034400  1
  C  C27  1  0.85970300  0.87301300  0.32733000  1
  C  C28  1  0.75075600  0.26920500  0.35663600  1
  C  C29  1  0.63311800  0.34599800  0.06949400  1
  C  C30  1  0.09696900  0.97746800  0.82809000  1
  C  C31  1  0.18180200  0.61617800  0.96748500  1
  C  C32  1  0.04252300  0.74592200  0.58907900  1
  C  C33  1  0.24882400  0.74081900  0.73090000  1
  C  C34  1  0.40651400  0.82408300  0.90239100  1
  C  C35  1  0.09372300  0.98763800  0.32739200  1
  C  C36  1  0.18685600  0.28067100  0.73727700  1
  C  C37  1  0.31249400  0.53122200  0.85684500  1
  C  C38  1  0.11873400  0.19595000  0.59253400  1
  C  C39  1  0.18290200  0.57928700  0.46934200  1
  C  C40  1  0.26602800  0.55257600  0.62861400  1
  C  C41  1  0.03486700  0.73728900  0.07808800  1
  C  C42  1  0.59634000  0.66054300  0.98980400  1
  C  C43  1  0.46717600  0.84149100  0.63336200  1
  C  C44  1  0.21349600  0.75537800  0.22438300  1
  C  C45  1  0.31164900  0.05285500  0.70080600  1
  C  C46  1  0.36050300  0.81003000  0.40015800  1
  C  C47  1  0.68511700  0.94822300  0.79575600  1
  C  C48  1  0.19847200  0.28629300  0.23368900  1
  C  C49  1  0.33913500  0.53139600  0.35976300  1
  C  C50  1  0.53116000  0.15524200  0.86675500  1
  C  C51  1  0.40509700  0.34231200  0.50891100  1
  C  C52  1  0.11792600  0.16062400  0.09092200  1
  C  C53  1  0.28298200  0.56916700  0.14109200  1
  C  C54  1  0.73769100  0.44623000  0.87233900  1
  C  C55  1  0.86625600  0.80902900  0.90620800  1
  C  C56  1  0.59384200  0.68367400  0.49686400  1
  C  C57  1  0.45694500  0.85280000  0.13023500  1
  C  C58  1  0.68554600  0.46384100  0.64215500  1
  C  C59  1  0.80792500  0.71484900  0.76370500  1
  C  C60  1  0.32821600  0.05847400  0.20908300  1
  C  C61  1  0.60633100  0.17536600  0.59421900  1
  C  C62  1  0.66813300  0.94486500  0.28990000  1
  C  C63  1  0.74923300  0.25702300  0.76910300  1
  C  C64  1  0.54492000  0.14627000  0.37209800  1
  C  C65  1  0.41028400  0.32020800  0.00397000  1
  C  C66  1  0.94889100  0.24442100  0.91241400  1
  C  C67  1  0.71473300  0.43136500  0.36145600  1
  C  C68  1  0.81828000  0.38656500  0.52914200  1
  C  C69  1  0.86570100  0.85912000  0.41332000  1
  C  C70  1  0.66159500  0.45643800  0.14288200  1
  C  C71  1  0.81359900  0.71553500  0.27764500  1
  C  C72  1  0.89697300  0.01875900  0.66746900  1
  C  C73  1  0.65025600  0.18409500  0.09467900  1
  C  C74  1  0.77818200  0.24564200  0.27371600  1
  C  C75  1  0.96391800  0.25896000  0.42048400  1
  C  C76  1  0.81942100  0.42118000  0.03068600  1
  C  C77  1  0.90776700  0.01656100  0.17689500  1
