# generated using pymatgen
data_Cu9Ni3C2
_symmetry_space_group_name_H-M   'P 1'
_cell_length_a   7.08786700
_cell_length_b   7.23610039
_cell_length_c   10.80751621
_cell_angle_alpha   97.93202035
_cell_angle_beta   108.79965433
_cell_angle_gamma   103.21721134
_symmetry_Int_Tables_number   1
_chemical_formula_structural   Cu9Ni3C2
_chemical_formula_sum   'Cu18 Ni6 C4'
_cell_volume   497.17201504
_cell_formula_units_Z   2
loop_
 _symmetry_equiv_pos_site_id
 _symmetry_equiv_pos_as_xyz
  1  'x, y, z'
loop_
 _atom_site_type_symbol
 _atom_site_label
 _atom_site_symmetry_multiplicity
 _atom_site_fract_x
 _atom_site_fract_y
 _atom_site_fract_z
 _atom_site_occupancy
  C  C0  1  0.37686500  0.53775300  0.29288500  1
  C  C1  1  0.62313500  0.46224700  0.70711500  1
  C  C2  1  0.00000000  0.50000000  0.50000000  1
  C  C3  1  0.00000000  0.00000000  0.00000000  1
  Ni  Ni4  1  0.55521400  0.03561400  0.19352100  1
  Ni  Ni5  1  0.44478600  0.96438600  0.80647900  1
  Ni  Ni6  1  0.78320700  0.53860100  0.10166800  1
  Ni  Ni7  1  0.21679300  0.46139900  0.89833200  1
  Ni  Ni8  1  0.13312600  0.05988100  0.37769600  1
  Ni  Ni9  1  0.86687400  0.94011900  0.62230400  1
  Cu  Cu10  1  0.59133700  0.65717600  0.12443800  1
  Cu  Cu11  1  0.40866300  0.34282400  0.87556200  1
  Cu  Cu12  1  0.00300300  0.35695100  0.73611000  1
  Cu  Cu13  1  0.99699700  0.64304900  0.26389000  1
  Cu  Cu14  1  0.61016900  0.30139200  0.23470200  1
  Cu  Cu15  1  0.38983100  0.69860800  0.76529800  1
  Cu  Cu16  1  0.05354600  0.11431800  0.20847900  1
  Cu  Cu17  1  0.94645400  0.88568200  0.79152100  1
  Cu  Cu18  1  0.30939100  0.96509900  0.03937200  1
  Cu  Cu19  1  0.69060900  0.03490100  0.96062800  1
  Cu  Cu20  1  0.29457600  0.30538100  0.46852500  1
  Cu  Cu21  1  0.70542400  0.69461900  0.53147500  1
  Cu  Cu22  1  0.88770900  0.07933600  0.39870100  1
  Cu  Cu23  1  0.11229100  0.92066400  0.60129900  1
  Cu  Cu24  1  0.56146000  0.03659200  0.68584400  1
  Cu  Cu25  1  0.43854000  0.96340800  0.31415600  1
  Cu  Cu26  1  0.11325800  0.31725100  0.00510300  1
  Cu  Cu27  1  0.88674200  0.68274900  0.99489700  1
