# generated using pymatgen
data_Cu4(Ni2C5)3
_symmetry_space_group_name_H-M   'P 1'
_cell_length_a   8.80480400
_cell_length_b   6.97048700
_cell_length_c   8.60615873
_cell_angle_alpha   78.85567112
_cell_angle_beta   90.00000000
_cell_angle_gamma   90.00000000
_symmetry_Int_Tables_number   1
_chemical_formula_structural   Cu4(Ni2C5)3
_chemical_formula_sum   'Cu8 Ni12 C30'
_cell_volume   518.23251890
_cell_formula_units_Z   2
loop_
 _symmetry_equiv_pos_site_id
 _symmetry_equiv_pos_as_xyz
  1  'x, y, z'
loop_
 _atom_site_type_symbol
 _atom_site_label
 _atom_site_symmetry_multiplicity
 _atom_site_fract_x
 _atom_site_fract_y
 _atom_site_fract_z
 _atom_site_occupancy
  C  C0  1  0.56792400  0.19616100  0.71678000  1
  C  C1  1  0.06792400  0.80383900  0.28322000  1
  C  C2  1  0.42725600  0.24108300  0.23507100  1
  C  C3  1  0.92725600  0.75891700  0.76492900  1
  Ni  Ni4  1  0.27443400  0.45891000  0.54627500  1
  Ni  Ni5  1  0.77443400  0.54109000  0.45372500  1
  Ni  Ni6  1  0.49846600  0.63933000  0.40816100  1
  Ni  Ni7  1  0.99846600  0.36067000  0.59183900  1
  Ni  Ni8  1  0.70196900  0.89816300  0.36577800  1
  Ni  Ni9  1  0.20196900  0.10183700  0.63422200  1
  Ni  Ni10  1  0.71171100  0.92651700  0.05939400  1
  Ni  Ni11  1  0.21171100  0.07348300  0.94060600  1
  Ni  Ni12  1  0.93152300  0.13803600  0.95022800  1
  Ni  Ni13  1  0.43152300  0.86196400  0.04977200  1
  Ni  Ni14  1  0.10405100  0.36140900  0.03694500  1
  Ni  Ni15  1  0.60405100  0.63859100  0.96305500  1
  Cu  Cu16  1  0.29847000  0.44534600  0.78824700  1
  Cu  Cu17  1  0.79847000  0.55465400  0.21175300  1
  Cu  Cu18  1  0.75969100  0.17703300  0.38575200  1
  Cu  Cu19  1  0.25969100  0.82296700  0.61424800  1
  Cu  Cu20  1  0.02882600  0.31377700  0.26533200  1
  Cu  Cu21  1  0.52882600  0.68622300  0.73466800  1
  Cu  Cu22  1  0.22525400  0.61624600  0.01239200  1
  Cu  Cu23  1  0.72525400  0.38375400  0.98760800  1
  C  C24  1  0.34656000  0.51423000  0.68793800  1
  C  C25  1  0.84656000  0.48577000  0.31206200  1
  C  C26  1  0.29615800  0.25320900  0.53430300  1
  C  C27  1  0.79615800  0.74679100  0.46569700  1
  C  C28  1  0.34543700  0.58737000  0.40588900  1
  C  C29  1  0.84543700  0.41263000  0.59411100  1
  C  C30  1  0.60639600  0.49398300  0.45356000  1
  C  C31  1  0.10639600  0.50601700  0.54644000  1
  C  C32  1  0.54032500  0.83023300  0.36016600  1
  C  C33  1  0.04032500  0.16976700  0.63983400  1
  C  C34  1  0.68855900  0.07723800  0.43713500  1
  C  C35  1  0.18855900  0.92276200  0.56286500  1
  C  C36  1  0.77285900  0.95653100  0.20834200  1
  C  C37  1  0.27285900  0.04346900  0.79165800  1
  C  C38  1  0.55052400  0.99168900  0.03636800  1
  C  C39  1  0.05052400  0.00831100  0.96363200  1
  C  C40  1  0.79098800  0.06264700  0.92383600  1
  C  C41  1  0.29098800  0.93735300  0.07616400  1
  C  C42  1  0.95165600  0.32895100  0.96498900  1
  C  C43  1  0.45165600  0.67104900  0.03501100  1
  C  C44  1  0.22853500  0.27938600  0.95856500  1
  C  C45  1  0.72853500  0.72061400  0.04143500  1
  C  C46  1  0.11852000  0.57543000  0.01950000  1
  C  C47  1  0.61852000  0.42457000  0.98050000  1
  C  C48  1  0.10749900  0.25803100  0.20710400  1
  C  C49  1  0.60749900  0.74196900  0.79289600  1
