# generated using pymatgen
data_CuNiC14
_symmetry_space_group_name_H-M   'P 1'
_cell_length_a   6.82358588
_cell_length_b   6.82358525
_cell_length_c   10.48723279
_cell_angle_alpha   90.00000000
_cell_angle_beta   90.00000000
_cell_angle_gamma   120.00000305
_symmetry_Int_Tables_number   1
_chemical_formula_structural   CuNiC14
_chemical_formula_sum   'Cu1 Ni1 C14'
_cell_volume   422.87967334
_cell_formula_units_Z   1
loop_
 _symmetry_equiv_pos_site_id
 _symmetry_equiv_pos_as_xyz
  1  'x, y, z'
loop_
 _atom_site_type_symbol
 _atom_site_label
 _atom_site_symmetry_multiplicity
 _atom_site_fract_x
 _atom_site_fract_y
 _atom_site_fract_z
 _atom_site_occupancy
  Ni  Ni0  1  0.16666700  0.33333300  0.62500000  1
  Cu  Cu1  1  0.16666700  0.33333300  0.12500000  1
  C  C2  1  0.17224684  0.83612292  0.12500000  1
  C  C3  1  0.17994101  0.83997001  0.62500000  1
  C  C4  1  0.66387708  0.32775316  0.12500000  1
  C  C5  1  0.66002999  0.32005899  0.62500000  1
  C  C6  1  0.66387708  0.83612292  0.12500000  1
  C  C7  1  0.66002999  0.83997001  0.62500000  1
  C  C8  1  0.34363024  0.15636976  0.36880796  1
  C  C9  1  0.34363024  0.15636976  0.88119204  1
  C  C10  1  0.34363024  0.68726148  0.36880796  1
  C  C11  1  0.34363024  0.68726148  0.88119204  1
  C  C12  1  0.81273852  0.15636976  0.36880796  1
  C  C13  1  0.81273852  0.15636976  0.88119204  1
  C  C14  1  0.83333300  0.66666700  0.37732368  1
  C  C15  1  0.83333300  0.66666700  0.87267632  1
