# generated using pymatgen
data_Cu15Ni3C
_symmetry_space_group_name_H-M   'P 1'
_cell_length_a   7.10998900
_cell_length_b   8.60873743
_cell_length_c   11.61680865
_cell_angle_alpha   68.78702281
_cell_angle_beta   77.36852412
_cell_angle_gamma   70.83927561
_symmetry_Int_Tables_number   1
_chemical_formula_structural   Cu15Ni3C
_chemical_formula_sum   'Cu30 Ni6 C2'
_cell_volume   622.09781385
_cell_formula_units_Z   2
loop_
 _symmetry_equiv_pos_site_id
 _symmetry_equiv_pos_as_xyz
  1  'x, y, z'
loop_
 _atom_site_type_symbol
 _atom_site_label
 _atom_site_symmetry_multiplicity
 _atom_site_fract_x
 _atom_site_fract_y
 _atom_site_fract_z
 _atom_site_occupancy
  C  C0  1  0.50795000  0.15166000  0.21290200  1
  C  C1  1  0.49205000  0.84834000  0.78709800  1
  Ni  Ni2  1  0.76299000  0.83228300  0.33228100  1
  Ni  Ni3  1  0.23701000  0.16771700  0.66771900  1
  Ni  Ni4  1  0.57254400  0.57752900  0.68476300  1
  Ni  Ni5  1  0.42745600  0.42247100  0.31523700  1
  Ni  Ni6  1  0.75951900  0.17509400  0.98638600  1
  Ni  Ni7  1  0.24048100  0.82490600  0.01361400  1
  Cu  Cu8  1  0.61001500  0.11099000  0.00875600  1
  Cu  Cu9  1  0.38998500  0.88901000  0.99124400  1
  Cu  Cu10  1  0.24097600  0.01851700  0.65906000  1
  Cu  Cu11  1  0.75902400  0.98148300  0.34094000  1
  Cu  Cu12  1  0.79144600  0.62728300  0.00706400  1
  Cu  Cu13  1  0.20855400  0.37271700  0.99293600  1
  Cu  Cu14  1  0.87923400  0.84449800  0.78699600  1
  Cu  Cu15  1  0.12076600  0.15550200  0.21300400  1
  Cu  Cu16  1  0.18067500  0.38080400  0.89001500  1
  Cu  Cu17  1  0.81932500  0.61919600  0.10998500  1
  Cu  Cu18  1  0.88534200  0.17284600  0.89690500  1
  Cu  Cu19  1  0.11465800  0.82715400  0.10309500  1
  Cu  Cu20  1  0.23299000  0.75753700  0.93065600  1
  Cu  Cu21  1  0.76701000  0.24246300  0.06934400  1
  Cu  Cu22  1  0.56105800  0.54941900  0.80408400  1
  Cu  Cu23  1  0.43894200  0.45058100  0.19591600  1
  Cu  Cu24  1  0.88728900  0.69907200  0.37589600  1
  Cu  Cu25  1  0.11271100  0.30092800  0.62410400  1
  Cu  Cu26  1  0.62318600  0.84270800  0.27249300  1
  Cu  Cu27  1  0.37681400  0.15729200  0.72750700  1
  Cu  Cu28  1  0.58061800  0.73415200  0.61681100  1
  Cu  Cu29  1  0.41938200  0.26584800  0.38318900  1
  Cu  Cu30  1  0.20465800  0.90388400  0.43759700  1
  Cu  Cu31  1  0.79534200  0.09611600  0.56240300  1
  Cu  Cu32  1  0.57049200  0.46961500  0.64146300  1
  Cu  Cu33  1  0.42950800  0.53038500  0.35853700  1
  Cu  Cu34  1  0.95814200  0.73059500  0.73537600  1
  Cu  Cu35  1  0.04185800  0.26940500  0.26462400  1
  Cu  Cu36  1  0.17469000  0.76516600  0.50484500  1
  Cu  Cu37  1  0.82531000  0.23483400  0.49515500  1
