# generated using pymatgen
data_Cu4Ni4C13
_symmetry_space_group_name_H-M   'P 1'
_cell_length_a   7.50281873
_cell_length_b   7.49610174
_cell_length_c   7.48774604
_cell_angle_alpha   60.03686622
_cell_angle_beta   90.00000000
_cell_angle_gamma   120.02964600
_symmetry_Int_Tables_number   1
_chemical_formula_structural   Cu4Ni4C13
_chemical_formula_sum   'Cu4 Ni4 C13'
_cell_volume   297.81274328
_cell_formula_units_Z   1
loop_
 _symmetry_equiv_pos_site_id
 _symmetry_equiv_pos_as_xyz
  1  'x, y, z'
loop_
 _atom_site_type_symbol
 _atom_site_label
 _atom_site_symmetry_multiplicity
 _atom_site_fract_x
 _atom_site_fract_y
 _atom_site_fract_z
 _atom_site_occupancy
  C  C0  1  0.37341100  0.74682300  0.37658900  1
  Ni  Ni1  1  0.57737800  0.55348500  0.97325700  1
  Ni  Ni2  1  0.97480600  0.94961200  0.97287200  1
  Ni  Ni3  1  0.97610700  0.55348500  0.97325700  1
  Ni  Ni4  1  0.97480600  0.94961200  0.57751600  1
  Cu  Cu5  1  0.51187600  0.02375100  0.96472400  1
  Cu  Cu6  1  0.51187600  0.02375100  0.51152500  1
  Cu  Cu7  1  0.51249400  0.47489800  0.51255100  1
  Cu  Cu8  1  0.96240400  0.47489800  0.51255100  1
  C  C9  1  0.81441700  0.24951400  0.43457900  1
  C  C10  1  0.58611200  0.17222400  0.16388800  1
  C  C11  1  0.58682100  0.74886400  0.16325800  1
  C  C12  1  0.81441700  0.24951400  0.81590700  1
  C  C13  1  0.81524200  0.63048400  0.43475800  1
  C  C14  1  0.43509700  0.24951400  0.43457900  1
  C  C15  1  0.58682100  0.74886400  0.58787800  1
  C  C16  1  0.16204200  0.74886400  0.16325800  1
  C  C17  1  0.16162600  0.32325100  0.58837400  1
  C  C18  1  0.43509700  0.24951400  0.81590700  1
  C  C19  1  0.43547700  0.87095500  0.81452300  1
  C  C20  1  0.16204200  0.74886400  0.58787800  1
