# generated using pymatgen
data_CuNiC4
_symmetry_space_group_name_H-M   'P 1'
_cell_length_a   6.23678000
_cell_length_b   18.15295200
_cell_length_c   10.04087600
_cell_angle_alpha   90.00000000
_cell_angle_beta   90.00000000
_cell_angle_gamma   90.00000000
_symmetry_Int_Tables_number   1
_chemical_formula_structural   CuNiC4
_chemical_formula_sum   'Cu16 Ni16 C64'
_cell_volume   1136.78749565
_cell_formula_units_Z   16
loop_
 _symmetry_equiv_pos_site_id
 _symmetry_equiv_pos_as_xyz
  1  'x, y, z'
loop_
 _atom_site_type_symbol
 _atom_site_label
 _atom_site_symmetry_multiplicity
 _atom_site_fract_x
 _atom_site_fract_y
 _atom_site_fract_z
 _atom_site_occupancy
  C  C0  1  0.53903600  0.34915800  0.09547200  1
  C  C1  1  0.96096400  0.65084200  0.59547200  1
  C  C2  1  0.03903600  0.15084200  0.90452800  1
  C  C3  1  0.46096400  0.84915800  0.40452800  1
  C  C4  1  0.46096400  0.65084200  0.90452800  1
  C  C5  1  0.03903600  0.34915800  0.40452800  1
  C  C6  1  0.96096400  0.84915800  0.09547200  1
  C  C7  1  0.53903600  0.15084200  0.59547200  1
  Ni  Ni8  1  0.28556900  0.43667100  0.96924400  1
  Ni  Ni9  1  0.21443100  0.56332900  0.46924400  1
  Ni  Ni10  1  0.78556900  0.06332900  0.03075600  1
  Ni  Ni11  1  0.71443100  0.93667100  0.53075600  1
  Ni  Ni12  1  0.71443100  0.56332900  0.03075600  1
  Ni  Ni13  1  0.78556900  0.43667100  0.53075600  1
  Ni  Ni14  1  0.21443100  0.93667100  0.96924400  1
  Ni  Ni15  1  0.28556900  0.06332900  0.46924400  1
  Ni  Ni16  1  0.30116900  0.36432400  0.88244300  1
  Ni  Ni17  1  0.19883100  0.63567600  0.38244300  1
  Ni  Ni18  1  0.80116900  0.13567600  0.11755700  1
  Ni  Ni19  1  0.69883100  0.86432400  0.61755700  1
  Ni  Ni20  1  0.69883100  0.63567600  0.11755700  1
  Ni  Ni21  1  0.80116900  0.36432400  0.61755700  1
  Ni  Ni22  1  0.19883100  0.86432400  0.88244300  1
  Ni  Ni23  1  0.30116900  0.13567600  0.38244300  1
  Cu  Cu24  1  0.81981800  0.20472400  0.37078800  1
  Cu  Cu25  1  0.68018200  0.79527600  0.87078800  1
  Cu  Cu26  1  0.31981800  0.29527600  0.62921200  1
  Cu  Cu27  1  0.18018200  0.70472400  0.12921200  1
  Cu  Cu28  1  0.18018200  0.79527600  0.62921200  1
  Cu  Cu29  1  0.31981800  0.20472400  0.12921200  1
  Cu  Cu30  1  0.68018200  0.70472400  0.37078800  1
  Cu  Cu31  1  0.81981800  0.29527600  0.87078800  1
  Cu  Cu32  1  0.84222900  0.44547000  0.16173400  1
  Cu  Cu33  1  0.65777100  0.55453000  0.66173400  1
  Cu  Cu34  1  0.34222900  0.05453000  0.83826600  1
  Cu  Cu35  1  0.15777100  0.94547000  0.33826600  1
  Cu  Cu36  1  0.15777100  0.55453000  0.83826600  1
  Cu  Cu37  1  0.34222900  0.44547000  0.33826600  1
  Cu  Cu38  1  0.65777100  0.94547000  0.16173400  1
  Cu  Cu39  1  0.84222900  0.05453000  0.66173400  1
  C  C40  1  0.76383400  0.14853800  0.31017000  1
  C  C41  1  0.73616600  0.85146200  0.81017000  1
  C  C42  1  0.26383400  0.35146200  0.68983000  1
  C  C43  1  0.23616600  0.64853800  0.18983000  1
  C  C44  1  0.23616600  0.85146200  0.68983000  1
  C  C45  1  0.26383400  0.14853800  0.18983000  1
  C  C46  1  0.73616600  0.64853800  0.31017000  1
  C  C47  1  0.76383400  0.35146200  0.81017000  1
  C  C48  1  0.75822700  0.21809100  0.49023400  1
  C  C49  1  0.74177300  0.78190900  0.99023400  1
  C  C50  1  0.25822700  0.28190900  0.50976600  1
  C  C51  1  0.24177300  0.71809100  0.00976600  1
  C  C52  1  0.24177300  0.78190900  0.50976600  1
  C  C53  1  0.25822700  0.21809100  0.00976600  1
  C  C54  1  0.74177300  0.71809100  0.49023400  1
  C  C55  1  0.75822700  0.28190900  0.99023400  1
  C  C56  1  0.94265100  0.25200200  0.31418600  1
  C  C57  1  0.55734900  0.74799800  0.81418600  1
  C  C58  1  0.44265100  0.24799800  0.68581400  1
  C  C59  1  0.05734900  0.75200200  0.18581400  1
  C  C60  1  0.05734900  0.74799800  0.68581400  1
  C  C61  1  0.44265100  0.25200200  0.18581400  1
  C  C62  1  0.55734900  0.75200200  0.31418600  1
  C  C63  1  0.94265100  0.24799800  0.81418600  1
  C  C64  1  0.97582900  0.49296700  0.18523300  1
  C  C65  1  0.52417100  0.50703300  0.68523300  1
  C  C66  1  0.47582900  0.00703300  0.81476700  1
  C  C67  1  0.02417100  0.99296700  0.31476700  1
  C  C68  1  0.02417100  0.50703300  0.81476700  1
  C  C69  1  0.47582900  0.49296700  0.31476700  1
  C  C70  1  0.52417100  0.99296700  0.18523300  1
  C  C71  1  0.97582900  0.00703300  0.68523300  1
  C  C72  1  0.70204200  0.45262500  0.06822700  1
  C  C73  1  0.79795800  0.54737500  0.56822700  1
  C  C74  1  0.20204200  0.04737500  0.93177300  1
  C  C75  1  0.29795800  0.95262500  0.43177300  1
  C  C76  1  0.29795800  0.54737500  0.93177300  1
  C  C77  1  0.20204200  0.45262500  0.43177300  1
  C  C78  1  0.79795800  0.95262500  0.06822700  1
  C  C79  1  0.70204200  0.04737500  0.56822700  1
  C  C80  1  0.82889400  0.38416300  0.22788700  1
  C  C81  1  0.67110600  0.61583700  0.72788700  1
  C  C82  1  0.32889400  0.11583700  0.77211300  1
  C  C83  1  0.17110600  0.88416300  0.27211300  1
  C  C84  1  0.17110600  0.61583700  0.77211300  1
  C  C85  1  0.32889400  0.38416300  0.27211300  1
  C  C86  1  0.67110600  0.88416300  0.22788700  1
  C  C87  1  0.82889400  0.11583700  0.72788700  1
  C  C88  1  0.29694600  0.38265800  0.97505400  1
  C  C89  1  0.20305400  0.61734200  0.47505400  1
  C  C90  1  0.79694600  0.11734200  0.02494600  1
  C  C91  1  0.70305400  0.88265800  0.52494600  1
  C  C92  1  0.70305400  0.61734200  0.02494600  1
  C  C93  1  0.79694600  0.38265800  0.52494600  1
  C  C94  1  0.20305400  0.88265800  0.97505400  1
  C  C95  1  0.29694600  0.11734200  0.47505400  1
