# generated using pymatgen
data_Cu4NiC11
_symmetry_space_group_name_H-M   'P 1'
_cell_length_a   7.63011300
_cell_length_b   7.63011300
_cell_length_c   16.43668400
_cell_angle_alpha   90.00000000
_cell_angle_beta   90.00000000
_cell_angle_gamma   90.00000000
_symmetry_Int_Tables_number   1
_chemical_formula_structural   Cu4NiC11
_chemical_formula_sum   'Cu16 Ni4 C44'
_cell_volume   956.92113206
_cell_formula_units_Z   4
loop_
 _symmetry_equiv_pos_site_id
 _symmetry_equiv_pos_as_xyz
  1  'x, y, z'
loop_
 _atom_site_type_symbol
 _atom_site_label
 _atom_site_symmetry_multiplicity
 _atom_site_fract_x
 _atom_site_fract_y
 _atom_site_fract_z
 _atom_site_occupancy
  C  C0  1  0.50000000  0.50000000  0.50000000  1
  C  C1  1  0.00000000  0.00000000  0.50000000  1
  C  C2  1  0.00000000  0.00000000  0.00000000  1
  C  C3  1  0.50000000  0.50000000  0.00000000  1
  Ni  Ni4  1  0.50000000  0.00000000  0.59426800  1
  Ni  Ni5  1  0.00000000  0.50000000  0.90573200  1
  Ni  Ni6  1  0.00000000  0.50000000  0.40573200  1
  Ni  Ni7  1  0.50000000  0.00000000  0.09426800  1
  Cu  Cu8  1  0.18236200  0.26687500  0.65514200  1
  Cu  Cu9  1  0.81763800  0.73312500  0.65514200  1
  Cu  Cu10  1  0.26687500  0.18236200  0.84485800  1
  Cu  Cu11  1  0.76687500  0.31763800  0.65514200  1
  Cu  Cu12  1  0.23312500  0.68236200  0.65514200  1
  Cu  Cu13  1  0.31763800  0.76687500  0.84485800  1
  Cu  Cu14  1  0.68236200  0.23312500  0.84485800  1
  Cu  Cu15  1  0.73312500  0.81763800  0.84485800  1
  Cu  Cu16  1  0.31763800  0.23312500  0.34485800  1
  Cu  Cu17  1  0.68236200  0.76687500  0.34485800  1
  Cu  Cu18  1  0.23312500  0.31763800  0.15514200  1
  Cu  Cu19  1  0.73312500  0.18236200  0.34485800  1
  Cu  Cu20  1  0.26687500  0.81763800  0.34485800  1
  Cu  Cu21  1  0.18236200  0.73312500  0.15514200  1
  Cu  Cu22  1  0.81763800  0.26687500  0.15514200  1
  Cu  Cu23  1  0.76687500  0.68236200  0.15514200  1
  C  C24  1  0.27200300  0.13566400  0.59132200  1
  C  C25  1  0.72799700  0.86433600  0.59132200  1
  C  C26  1  0.13566400  0.27200300  0.90867800  1
  C  C27  1  0.63566400  0.22799700  0.59132200  1
  C  C28  1  0.36433600  0.77200300  0.59132200  1
  C  C29  1  0.22799700  0.63566400  0.90867800  1
  C  C30  1  0.77200300  0.36433600  0.90867800  1
  C  C31  1  0.86433600  0.72799700  0.90867800  1
  C  C32  1  0.22799700  0.36433600  0.40867800  1
  C  C33  1  0.77200300  0.63566400  0.40867800  1
  C  C34  1  0.36433600  0.22799700  0.09132200  1
  C  C35  1  0.86433600  0.27200300  0.40867800  1
  C  C36  1  0.13566400  0.72799700  0.40867800  1
  C  C37  1  0.27200300  0.86433600  0.09132200  1
  C  C38  1  0.72799700  0.13566400  0.09132200  1
  C  C39  1  0.25382800  0.03042500  0.36230500  1
  C  C40  1  0.63566400  0.77200300  0.09132200  1
  C  C41  1  0.75382800  0.53042500  0.63769500  1
  C  C42  1  0.46957500  0.24617200  0.86230500  1
  C  C43  1  0.96957500  0.25382800  0.63769500  1
  C  C44  1  0.03042500  0.74617200  0.63769500  1
  C  C45  1  0.25382800  0.96957500  0.86230500  1
  C  C46  1  0.74617200  0.03042500  0.86230500  1
  C  C47  1  0.53042500  0.75382800  0.86230500  1
  C  C48  1  0.72034600  0.72034600  0.25000000  1
  C  C49  1  0.77965400  0.22034600  0.25000000  1
  C  C50  1  0.22034600  0.77965400  0.25000000  1
  C  C51  1  0.27965400  0.27965400  0.25000000  1
  C  C52  1  0.77965400  0.77965400  0.75000000  1
  C  C53  1  0.72034600  0.27965400  0.75000000  1
  C  C54  1  0.27965400  0.72034600  0.75000000  1
  C  C55  1  0.22034600  0.22034600  0.75000000  1
  C  C56  1  0.96957500  0.74617200  0.13769500  1
  C  C57  1  0.75382800  0.46957500  0.13769500  1
  C  C58  1  0.24617200  0.53042500  0.13769500  1
  C  C59  1  0.46957500  0.75382800  0.36230500  1
  C  C60  1  0.53042500  0.24617200  0.36230500  1
  C  C61  1  0.03042500  0.25382800  0.13769500  1
  C  C62  1  0.74617200  0.96957500  0.36230500  1
  C  C63  1  0.24617200  0.46957500  0.63769500  1
