# generated using pymatgen
data_Cu3(NiC)8
_symmetry_space_group_name_H-M   'P 1'
_cell_length_a   4.83947500
_cell_length_b   12.76596600
_cell_length_c   15.23396900
_cell_angle_alpha   90.00000000
_cell_angle_beta   90.00000000
_cell_angle_gamma   90.00000000
_symmetry_Int_Tables_number   1
_chemical_formula_structural   Cu3(NiC)8
_chemical_formula_sum   'Cu12 Ni32 C32'
_cell_volume   941.16333857
_cell_formula_units_Z   4
loop_
 _symmetry_equiv_pos_site_id
 _symmetry_equiv_pos_as_xyz
  1  'x, y, z'
loop_
 _atom_site_type_symbol
 _atom_site_label
 _atom_site_symmetry_multiplicity
 _atom_site_fract_x
 _atom_site_fract_y
 _atom_site_fract_z
 _atom_site_occupancy
  Ni  Ni0  1  0.98797100  0.86516200  0.82593300  1
  Ni  Ni1  1  0.51202900  0.36516200  0.67406700  1
  Ni  Ni2  1  0.48797100  0.13483800  0.17406700  1
  Ni  Ni3  1  0.01202900  0.63483800  0.32593300  1
  Ni  Ni4  1  0.01202900  0.13483800  0.17406700  1
  Ni  Ni5  1  0.48797100  0.63483800  0.32593300  1
  Ni  Ni6  1  0.51202900  0.86516200  0.82593300  1
  Ni  Ni7  1  0.98797100  0.36516200  0.67406700  1
  Ni  Ni8  1  0.00405400  0.56005400  0.87843500  1
  Ni  Ni9  1  0.49594600  0.06005400  0.62156500  1
  Ni  Ni10  1  0.50405400  0.43994600  0.12156500  1
  Ni  Ni11  1  0.99594600  0.93994600  0.37843500  1
  Ni  Ni12  1  0.99594600  0.43994600  0.12156500  1
  Ni  Ni13  1  0.50405400  0.93994600  0.37843500  1
  Ni  Ni14  1  0.49594600  0.56005400  0.87843500  1
  Ni  Ni15  1  0.00405400  0.06005400  0.62156500  1
  Ni  Ni16  1  0.25000000  0.63600200  0.15603500  1
  Ni  Ni17  1  0.25000000  0.13600200  0.34396500  1
  Ni  Ni18  1  0.75000000  0.36399800  0.84396500  1
  Ni  Ni19  1  0.75000000  0.86399800  0.65603500  1
  Ni  Ni20  1  0.25000000  0.95283500  0.09344700  1
  Ni  Ni21  1  0.25000000  0.45283500  0.40655300  1
  Ni  Ni22  1  0.75000000  0.04716500  0.90655300  1
  Ni  Ni23  1  0.75000000  0.54716500  0.59344700  1
  Ni  Ni24  1  0.25000000  0.62236500  0.49576400  1
  Ni  Ni25  1  0.25000000  0.12236500  0.00423600  1
  Ni  Ni26  1  0.75000000  0.37763500  0.50423600  1
  Ni  Ni27  1  0.75000000  0.87763500  0.99576400  1
  Ni  Ni28  1  0.25000000  0.81212300  0.24859900  1
  Ni  Ni29  1  0.25000000  0.31212300  0.25140100  1
  Ni  Ni30  1  0.75000000  0.18787700  0.75140100  1
  Ni  Ni31  1  0.75000000  0.68787700  0.74859900  1
  C  C32  1  0.00180800  0.71374900  0.61863600  1
  C  C33  1  0.49819200  0.21374900  0.88136400  1
  C  C34  1  0.50180800  0.28625100  0.38136400  1
  C  C35  1  0.99819200  0.78625100  0.11863600  1
  C  C36  1  0.99819200  0.28625100  0.38136400  1
  C  C37  1  0.50180800  0.78625100  0.11863600  1
  C  C38  1  0.49819200  0.71374900  0.61863600  1
  C  C39  1  0.00180800  0.21374900  0.88136400  1
  C  C40  1  0.25000000  0.70951400  0.80518200  1
  C  C41  1  0.25000000  0.20951400  0.69481800  1
  C  C42  1  0.75000000  0.29048600  0.19481800  1
  C  C43  1  0.75000000  0.79048600  0.30518200  1
  C  C44  1  0.25000000  0.91117100  0.69871900  1
  C  C45  1  0.25000000  0.41117100  0.80128100  1
  C  C46  1  0.75000000  0.08882900  0.30128100  1
  C  C47  1  0.75000000  0.58882900  0.19871900  1
  C  C48  1  0.25000000  0.55189000  0.01789000  1
  C  C49  1  0.25000000  0.05189000  0.48211000  1
  C  C50  1  0.75000000  0.44811000  0.98211000  1
  C  C51  1  0.75000000  0.94811000  0.51789000  1
  C  C52  1  0.25000000  0.94889100  0.93965200  1
  C  C53  1  0.25000000  0.44889100  0.56034800  1
  C  C54  1  0.75000000  0.05110900  0.06034800  1
  C  C55  1  0.75000000  0.55110900  0.43965200  1
  C  C56  1  0.25000000  0.77437500  0.39729600  1
  C  C57  1  0.25000000  0.27437500  0.10270400  1
  C  C58  1  0.75000000  0.22562500  0.60270400  1
  C  C59  1  0.75000000  0.72562500  0.89729600  1
  C  C60  1  0.25000000  0.99522500  0.24721700  1
  C  C61  1  0.25000000  0.49522500  0.25278300  1
  C  C62  1  0.75000000  0.00477500  0.75278300  1
  C  C63  1  0.75000000  0.50477500  0.74721700  1
  Cu  Cu64  1  0.25000000  0.56637800  0.69597500  1
  Cu  Cu65  1  0.25000000  0.06637800  0.80402500  1
  Cu  Cu66  1  0.75000000  0.43362200  0.30402500  1
  Cu  Cu67  1  0.75000000  0.93362200  0.19597500  1
  Cu  Cu68  1  0.25000000  0.86521800  0.54229600  1
  Cu  Cu69  1  0.25000000  0.36521800  0.95770400  1
  Cu  Cu70  1  0.75000000  0.13478200  0.45770400  1
  Cu  Cu71  1  0.75000000  0.63478200  0.04229600  1
  Cu  Cu72  1  0.25000000  0.74769700  0.97193900  1
  Cu  Cu73  1  0.25000000  0.24769700  0.52806100  1
  Cu  Cu74  1  0.75000000  0.25230300  0.02806100  1
  Cu  Cu75  1  0.75000000  0.75230300  0.47193900  1
