# generated using pymatgen
data_Cu6NiC8
_symmetry_space_group_name_H-M   'P 1'
_cell_length_a   8.89628863
_cell_length_b   4.29637838
_cell_length_c   4.29637838
_cell_angle_alpha   90.00000000
_cell_angle_beta   90.00000000
_cell_angle_gamma   90.00000000
_symmetry_Int_Tables_number   1
_chemical_formula_structural   Cu6NiC8
_chemical_formula_sum   'Cu6 Ni1 C8'
_cell_volume   164.21541025
_cell_formula_units_Z   1
loop_
 _symmetry_equiv_pos_site_id
 _symmetry_equiv_pos_as_xyz
  1  'x, y, z'
loop_
 _atom_site_type_symbol
 _atom_site_label
 _atom_site_symmetry_multiplicity
 _atom_site_fract_x
 _atom_site_fract_y
 _atom_site_fract_z
 _atom_site_occupancy
  Ni  Ni0  1  0.49385441  0.00000000  -0.00000000  1
  Cu  Cu1  1  0.99678963  0.50000000  0.50000000  1
  Cu  Cu2  1  0.49462067  0.50000000  0.50000000  1
  Cu  Cu3  1  0.22552902  0.00000000  0.50000000  1
  Cu  Cu4  1  0.76941127  0.00000000  0.50000000  1
  Cu  Cu5  1  0.22552902  0.50000000  0.00000000  1
  Cu  Cu6  1  0.76941127  0.50000000  -0.00000000  1
  C  C7  1  0.04340452  0.00000000  -0.00000000  1
  C  C8  1  0.72961393  0.00000000  -0.00000000  1
  C  C9  1  0.24711313  0.50000000  0.50000000  1
  C  C10  1  0.75024799  0.50000000  0.50000000  1
  C  C11  1  0.99831167  0.00000000  0.50000000  1
  C  C12  1  0.50392590  0.00000000  0.50000000  1
  C  C13  1  0.99831167  0.50000000  0.00000000  1
  C  C14  1  0.50392590  0.50000000  0.00000000  1
