# generated using pymatgen
data_CuNiC18
_symmetry_space_group_name_H-M   'P 1'
_cell_length_a   5.81220100
_cell_length_b   5.81220100
_cell_length_c   8.22903200
_cell_angle_alpha   90.00000000
_cell_angle_beta   90.00000000
_cell_angle_gamma   90.00000000
_symmetry_Int_Tables_number   1
_chemical_formula_structural   CuNiC18
_chemical_formula_sum   'Cu1 Ni1 C18'
_cell_volume   277.99052956
_cell_formula_units_Z   1
loop_
 _symmetry_equiv_pos_site_id
 _symmetry_equiv_pos_as_xyz
  1  'x, y, z'
loop_
 _atom_site_type_symbol
 _atom_site_label
 _atom_site_symmetry_multiplicity
 _atom_site_fract_x
 _atom_site_fract_y
 _atom_site_fract_z
 _atom_site_occupancy
  C  C0  1  0.50000000  0.00000000  0.74304000  1
  C  C1  1  0.00000000  0.50000000  0.74304000  1
  C  C2  1  0.50000000  0.00000000  0.25696000  1
  C  C3  1  0.00000000  0.50000000  0.25696000  1
  C  C4  1  0.50000000  0.50000000  0.50000000  1
  C  C5  1  0.00000000  0.00000000  0.00000000  1
  Ni  Ni6  1  0.50000000  0.50000000  0.00000000  1
  Cu  Cu7  1  0.00000000  0.00000000  0.50000000  1
  C  C8  1  0.25961000  0.25961000  0.50000000  1
  C  C9  1  0.74039000  0.74039000  0.50000000  1
  C  C10  1  0.25196200  0.25196200  0.00000000  1
  C  C11  1  0.74803800  0.74803800  0.00000000  1
  C  C12  1  0.00000000  0.00000000  0.76280000  1
  C  C13  1  0.50000000  0.50000000  0.75625400  1
  C  C14  1  0.00000000  0.00000000  0.23720000  1
  C  C15  1  0.50000000  0.50000000  0.24374600  1
  C  C16  1  0.25961000  0.74039000  0.50000000  1
  C  C17  1  0.74039000  0.25961000  0.50000000  1
  C  C18  1  0.25196200  0.74803800  0.00000000  1
  C  C19  1  0.74803800  0.25196200  0.00000000  1
