# generated using pymatgen
data_Cu7Ni
_symmetry_space_group_name_H-M   'P 1'
_cell_length_a   2.51836500
_cell_length_b   2.51836500
_cell_length_c   7.49430100
_cell_angle_alpha   90.00000000
_cell_angle_beta   90.00000000
_cell_angle_gamma   90.00000000
_symmetry_Int_Tables_number   1
_chemical_formula_structural   Cu7Ni
_chemical_formula_sum   'Cu7 Ni1'
_cell_volume   47.53007307
_cell_formula_units_Z   1
loop_
 _symmetry_equiv_pos_site_id
 _symmetry_equiv_pos_as_xyz
  1  'x, y, z'
loop_
 _atom_site_type_symbol
 _atom_site_label
 _atom_site_symmetry_multiplicity
 _atom_site_fract_x
 _atom_site_fract_y
 _atom_site_fract_z
 _atom_site_occupancy
  Ni  Ni0  1  0.00000000  0.00000000  0.50000000  1
  Cu  Cu1  1  0.00000000  0.00000000  0.00000000  1
  Cu  Cu2  1  0.00000000  0.50000000  0.11909500  1
  Cu  Cu3  1  0.50000000  0.00000000  0.88090500  1
  Cu  Cu4  1  0.00000000  0.50000000  0.64234500  1
  Cu  Cu5  1  0.50000000  0.00000000  0.35765500  1
  Cu  Cu6  1  0.50000000  0.50000000  0.24207700  1
  Cu  Cu7  1  0.50000000  0.50000000  0.75792300  1
