# generated using pymatgen
data_Cu5Ni2C25
_symmetry_space_group_name_H-M   'P 1'
_cell_length_a   5.03179038
_cell_length_b   5.89971778
_cell_length_c   10.30174824
_cell_angle_alpha   73.36071442
_cell_angle_beta   99.42316849
_cell_angle_gamma   89.99998984
_symmetry_Int_Tables_number   1
_chemical_formula_structural   Cu5Ni2C25
_chemical_formula_sum   'Cu5 Ni2 C25'
_cell_volume   288.70374106
_cell_formula_units_Z   1
loop_
 _symmetry_equiv_pos_site_id
 _symmetry_equiv_pos_as_xyz
  1  'x, y, z'
loop_
 _atom_site_type_symbol
 _atom_site_label
 _atom_site_symmetry_multiplicity
 _atom_site_fract_x
 _atom_site_fract_y
 _atom_site_fract_z
 _atom_site_occupancy
  C  C0  1  0.24382800  0.61961800  0.24134900  1
  C  C1  1  0.75536400  0.37688300  0.75895600  1
  C  C2  1  0.24382800  0.13903300  0.24134900  1
  C  C3  1  0.76110100  0.38164500  0.23671100  1
  C  C4  1  0.25294700  0.12173700  0.75652600  1
  C  C5  1  0.74352500  0.87854500  0.24291000  1
  C  C6  1  0.75536400  0.86416100  0.75895600  1
  C  C7  1  0.24606100  0.61907700  0.76184600  1
  C  C8  1  0.99886500  0.49983300  0.00033400  1
  Ni  Ni9  1  0.99953900  0.00031700  0.99936700  1
  Ni  Ni10  1  0.49878900  0.74895300  0.50209500  1
  Cu  Cu11  1  0.49974200  0.25203100  0.49593800  1
  Cu  Cu12  1  0.99738000  0.49449000  0.50023900  1
  Cu  Cu13  1  0.49883800  0.25910200  0.00036100  1
  Cu  Cu14  1  0.99738000  0.00527200  0.50023900  1
  Cu  Cu15  1  0.49883800  0.74053700  0.00036100  1
  C  C16  1  0.86302100  0.71296700  0.11159200  1
  C  C17  1  0.38078800  0.45285000  0.61226100  1
  C  C18  1  0.86302100  0.17544000  0.11159200  1
  C  C19  1  0.39583600  0.43977100  0.12045700  1
  C  C20  1  0.88981400  0.19316400  0.61367100  1
  C  C21  1  0.35389900  0.94385600  0.11228800  1
  C  C22  1  0.38078800  0.93488900  0.61226100  1
  C  C23  1  0.85832300  0.69304900  0.61390100  1
  C  C24  1  0.61965900  0.57165200  0.38750000  1
  C  C25  1  0.13748900  0.28831500  0.88839800  1
  C  C26  1  0.61965900  0.04084800  0.38750000  1
  C  C27  1  0.11880200  0.30954400  0.38091300  1
  C  C28  1  0.64619700  0.05754700  0.88490700  1
  C  C29  1  0.13648000  0.80337700  0.39324700  1
  C  C30  1  0.13748900  0.82328700  0.88839800  1
  C  C31  1  0.60734400  0.55821100  0.88357800  1
