# generated using pymatgen
data_CuNiC3
_symmetry_space_group_name_H-M   'P 1'
_cell_length_a   10.52185344
_cell_length_b   10.27602693
_cell_length_c   9.52382803
_cell_angle_alpha   96.17737423
_cell_angle_beta   99.54326461
_cell_angle_gamma   83.86445829
_symmetry_Int_Tables_number   1
_chemical_formula_structural   CuNiC3
_chemical_formula_sum   'Cu16 Ni16 C48'
_cell_volume   1005.42397360
_cell_formula_units_Z   16
loop_
 _symmetry_equiv_pos_site_id
 _symmetry_equiv_pos_as_xyz
  1  'x, y, z'
loop_
 _atom_site_type_symbol
 _atom_site_label
 _atom_site_symmetry_multiplicity
 _atom_site_fract_x
 _atom_site_fract_y
 _atom_site_fract_z
 _atom_site_occupancy
  Ni  Ni0  1  0.81445967  0.94081335  0.51578890  1
  Ni  Ni1  1  0.61329842  0.31830424  0.91605197  1
  Ni  Ni2  1  0.77312939  0.16485837  0.10129518  1
  Ni  Ni3  1  0.63728057  0.45975652  0.28462187  1
  Ni  Ni4  1  0.86805798  0.10641194  0.79723476  1
  Ni  Ni5  1  0.29049078  0.55245112  0.42350102  1
  Ni  Ni6  1  0.97223014  0.82864415  0.75095262  1
  Ni  Ni7  1  0.18288589  0.31160532  0.59195678  1
  Ni  Ni8  1  0.04932066  0.05433806  0.49428509  1
  Ni  Ni9  1  0.77826841  0.70023237  0.27649287  1
  Ni  Ni10  1  0.41140225  0.42153047  0.65858025  1
  Ni  Ni11  1  0.83913419  0.46347880  0.54741225  1
  Ni  Ni12  1  0.78533124  0.59636359  0.83381555  1
  Ni  Ni13  1  0.09932429  0.11545528  0.13701233  1
  Ni  Ni14  1  0.51267946  0.94950868  0.32991308  1
  Ni  Ni15  1  0.31755032  0.95873505  0.58116804  1
  Cu  Cu16  1  0.56633204  0.66466119  0.98355709  1
  Cu  Cu17  1  0.40367954  0.65412100  0.18567270  1
  Cu  Cu18  1  0.17159210  0.09982777  0.84873055  1
  Cu  Cu19  1  0.91571587  0.83235807  0.05535195  1
  Cu  Cu20  1  0.61819663  0.22059336  0.52628260  1
  Cu  Cu21  1  0.64374391  0.92811548  0.98631370  1
  Cu  Cu22  1  0.33898764  0.32077452  0.22695447  1
  Cu  Cu23  1  0.33715399  0.81570239  0.83175540  1
  Cu  Cu24  1  0.53479071  0.73218032  0.62093889  1
  Cu  Cu25  1  0.06677793  0.56421753  0.14792779  1
  Cu  Cu26  1  0.97513527  0.34998484  0.91203458  1
  Cu  Cu27  1  0.43081090  0.10996726  0.01560601  1
  Cu  Cu28  1  0.98502425  0.35954439  0.28109633  1
  Cu  Cu29  1  0.18419921  0.83565822  0.27225833  1
  Cu  Cu30  1  0.15857068  0.62052342  0.87104845  1
  Cu  Cu31  1  0.26028410  0.34811972  0.87701330  1
  C  C32  1  0.22540944  0.63672150  0.23849551  1
  C  C33  1  0.99934348  0.36033516  0.48637897  1
  C  C34  1  0.10773044  0.26844521  0.75789915  1
  C  C35  1  0.73338013  0.08450358  0.61855140  1
  C  C36  1  0.68076452  0.85739307  0.37385747  1
  C  C37  1  0.64760608  0.50949288  0.89457520  1
  C  C38  1  0.79702299  0.97834907  0.11167191  1
  C  C39  1  0.37578373  0.67144549  0.96350371  1
  C  C40  1  0.60932508  0.63394279  0.18898619  1
  C  C41  1  0.52712891  0.96977981  0.12724408  1
  C  C42  1  0.14902469  0.46943537  0.98819372  1
  C  C43  1  0.94249660  0.70894458  0.21304553  1
  C  C44  1  0.34962216  0.26576831  0.72023344  1
  C  C45  1  0.34380677  0.78105175  0.63425944  1
  C  C46  1  0.97918473  0.00194025  0.66195454  1
  C  C47  1  0.69814547  0.35284203  0.45266827  1
  C  C48  1  0.44796128  0.55794956  0.56645067  1
  C  C49  1  0.56887732  0.31782357  0.69477840  1
  C  C50  1  0.26480154  0.08197517  0.05320081  1
  C  C51  1  0.81378052  0.52394838  0.34863383  1
  C  C52  1  0.88070702  0.77844361  0.57878847  1
  C  C53  1  0.60016373  0.11855240  0.94858609  1
  C  C54  1  0.15195240  0.60290047  0.47685994  1
  C  C55  1  0.71390161  0.62440883  0.65110077  1
  C  C56  1  0.79020140  0.24369084  0.92089696  1
  C  C57  1  0.01808638  0.14514870  0.94431970  1
  C  C58  1  0.20392864  0.13039888  0.50904748  1
  C  C59  1  0.14621433  0.80564862  0.81606956  1
  C  C60  1  0.47691765  0.92610949  0.52964051  1
  C  C61  1  0.51119774  0.13150852  0.37356992  1
  C  C62  1  0.93770009  0.44715871  0.10498558  1
  C  C63  1  0.40463188  0.30175484  0.02234138  1
  C  C64  1  0.87730429  0.44469532  0.74906041  1
  C  C65  1  0.31441484  0.37103659  0.47549709  1
  C  C66  1  0.93889916  0.18462948  0.22120582  1
  C  C67  1  0.15641040  0.28569774  0.22852997  1
  C  C68  1  0.66894803  0.33199807  0.12929941  1
  C  C69  1  0.32376295  0.00469340  0.78178561  1
  C  C70  1  0.25071132  0.48593534  0.73330602  1
  C  C71  1  0.89100533  0.99747812  0.39081799  1
  C  C72  1  0.07071384  0.92125009  0.12062159  1
  C  C73  1  0.86305251  0.93205343  0.85416675  1
  C  C74  1  0.38149778  0.84456428  0.26863214  1
  C  C75  1  0.95103360  0.68835838  0.87324492  1
  C  C76  1  0.74220743  0.74051168  0.99286019  1
  C  C77  1  0.16569706  0.89951936  0.47298654  1
  C  C78  1  0.52884609  0.81528160  0.85640566  1
  C  C79  1  0.44347818  0.47936688  0.28024159  1
