# generated using pymatgen
data_CuNiC5
_symmetry_space_group_name_H-M   'P 1'
_cell_length_a   5.04471600
_cell_length_b   6.66985300
_cell_length_c   12.05379479
_cell_angle_alpha   57.08175377
_cell_angle_beta   90.00000000
_cell_angle_gamma   90.00000000
_symmetry_Int_Tables_number   1
_chemical_formula_structural   CuNiC5
_chemical_formula_sum   'Cu4 Ni4 C20'
_cell_volume   340.46304484
_cell_formula_units_Z   4
loop_
 _symmetry_equiv_pos_site_id
 _symmetry_equiv_pos_as_xyz
  1  'x, y, z'
loop_
 _atom_site_type_symbol
 _atom_site_label
 _atom_site_symmetry_multiplicity
 _atom_site_fract_x
 _atom_site_fract_y
 _atom_site_fract_z
 _atom_site_occupancy
  C  C0  1  0.66326800  0.33967200  0.14904600  1
  C  C1  1  0.83673200  0.33967200  0.64904600  1
  C  C2  1  0.33673200  0.66032800  0.85095400  1
  C  C3  1  0.16326800  0.66032800  0.35095400  1
  Ni  Ni4  1  0.33453000  0.16512600  0.83209500  1
  Ni  Ni5  1  0.16547000  0.16512600  0.33209500  1
  Ni  Ni6  1  0.66547000  0.83487400  0.16790500  1
  Ni  Ni7  1  0.83453000  0.83487400  0.66790500  1
  Cu  Cu8  1  0.33859400  0.16662800  0.57764800  1
  Cu  Cu9  1  0.16140600  0.16662800  0.07764800  1
  Cu  Cu10  1  0.66140600  0.83337200  0.42235200  1
  Cu  Cu11  1  0.83859400  0.83337200  0.92235200  1
  C  C12  1  0.24883600  0.32309400  0.42064100  1
  C  C13  1  0.25116400  0.32309400  0.92064100  1
  C  C14  1  0.75116400  0.67690600  0.57935900  1
  C  C15  1  0.74883600  0.67690600  0.07935900  1
  C  C16  1  0.73482000  0.69524900  0.84978500  1
  C  C17  1  0.76518000  0.69524900  0.34978500  1
  C  C18  1  0.26518000  0.30475100  0.15021500  1
  C  C19  1  0.23482000  0.30475100  0.65021500  1
  C  C20  1  0.29453500  0.89517500  0.15611400  1
  C  C21  1  0.20546500  0.89517500  0.65611400  1
  C  C22  1  0.70546500  0.10482500  0.84388600  1
  C  C23  1  0.79453500  0.10482500  0.34388600  1
  C  C24  1  0.33683400  0.86430600  0.40855500  1
  C  C25  1  0.16316600  0.86430600  0.90855500  1
  C  C26  1  0.66316600  0.13569400  0.59144500  1
  C  C27  1  0.83683400  0.13569400  0.09144500  1
