# generated using pymatgen
data_Cu8Ni2C15
_symmetry_space_group_name_H-M   'P 1'
_cell_length_a   4.37028800
_cell_length_b   6.54835579
_cell_length_c   22.99292036
_cell_angle_alpha   87.56213104
_cell_angle_beta   86.14505470
_cell_angle_gamma   75.34456655
_symmetry_Int_Tables_number   1
_chemical_formula_structural   Cu8Ni2C15
_chemical_formula_sum   'Cu16 Ni4 C30'
_cell_volume   634.94487330
_cell_formula_units_Z   2
loop_
 _symmetry_equiv_pos_site_id
 _symmetry_equiv_pos_as_xyz
  1  'x, y, z'
loop_
 _atom_site_type_symbol
 _atom_site_label
 _atom_site_symmetry_multiplicity
 _atom_site_fract_x
 _atom_site_fract_y
 _atom_site_fract_z
 _atom_site_occupancy
  Ni  Ni0  1  0.12307100  0.62567900  0.93392800  1
  Ni  Ni1  1  0.87692900  0.37432100  0.06607200  1
  Ni  Ni2  1  0.58847400  0.10935100  0.56662300  1
  Ni  Ni3  1  0.41152600  0.89064900  0.43337700  1
  Cu  Cu4  1  0.66106300  0.31231400  0.42989600  1
  Cu  Cu5  1  0.33893700  0.68768600  0.57010400  1
  Cu  Cu6  1  0.87307600  0.20924800  0.92769300  1
  Cu  Cu7  1  0.12692400  0.79075200  0.07230700  1
  Cu  Cu8  1  0.91898500  0.47183900  0.56747500  1
  Cu  Cu9  1  0.08101500  0.52816100  0.43252500  1
  Cu  Cu10  1  0.45093100  0.99273400  0.93100500  1
  Cu  Cu11  1  0.54906900  0.00726600  0.06899500  1
  Cu  Cu12  1  0.33890500  0.67643000  0.68097700  1
  Cu  Cu13  1  0.66109500  0.32357000  0.31902300  1
  Cu  Cu14  1  0.95268700  0.74935000  0.18162800  1
  Cu  Cu15  1  0.04731300  0.25065000  0.81837200  1
  Cu  Cu16  1  0.73756500  0.02449200  0.25015600  1
  Cu  Cu17  1  0.26243500  0.97550800  0.74984400  1
  Cu  Cu18  1  0.29780800  0.32823800  0.72642600  1
  Cu  Cu19  1  0.70219200  0.67176200  0.27357400  1
  C  C20  1  0.59463100  0.49049800  0.56330100  1
  C  C21  1  0.40536900  0.50950200  0.43669900  1
  C  C22  1  0.12339400  0.01011300  0.93384500  1
  C  C23  1  0.87660600  0.98988700  0.06615500  1
  C  C24  1  0.55824600  0.17102600  0.93059500  1
  C  C25  1  0.44175400  0.82897400  0.06940500  1
  C  C26  1  0.62334300  0.78684600  0.92906900  1
  C  C27  1  0.37665700  0.21315400  0.07093100  1
  C  C28  1  0.02828600  0.64913900  0.56510900  1
  C  C29  1  0.97171400  0.35086100  0.43489100  1
  C  C30  1  0.08663300  0.26566200  0.57365800  1
  C  C31  1  0.91336700  0.73433800  0.42634200  1
  C  C32  1  0.61914600  0.14343100  0.47178000  1
  C  C33  1  0.38085400  0.85656900  0.52822000  1
  C  C34  1  0.11421100  0.63365300  0.02848500  1
  C  C35  1  0.88578900  0.36634700  0.97151500  1
  C  C36  1  0.34553000  0.78057900  0.62908200  1
  C  C37  1  0.65447000  0.21942100  0.37091800  1
  C  C38  1  0.07389800  0.67815100  0.12890100  1
  C  C39  1  0.92610200  0.32184900  0.87109900  1
  C  C40  1  0.87170300  0.60407900  0.22241200  1
  C  C41  1  0.12829700  0.39592100  0.77758800  1
  C  C42  1  0.90368800  0.95878500  0.19801200  1
  C  C43  1  0.09631200  0.04121500  0.80198800  1
  C  C44  1  0.37739700  0.45854000  0.68351100  1
  C  C45  1  0.62260300  0.54146000  0.31648900  1
  C  C46  1  0.39286100  0.11382600  0.71496600  1
  C  C47  1  0.60713900  0.88617400  0.28503400  1
  C  C48  1  0.70667600  0.22605100  0.26592500  1
  C  C49  1  0.29332400  0.77394900  0.73407500  1
