# generated using pymatgen
data_Cu9(Ni3C13)2
_symmetry_space_group_name_H-M   'P 1'
_cell_length_a   9.76271694
_cell_length_b   9.75984685
_cell_length_c   14.13756475
_cell_angle_alpha   90.02181776
_cell_angle_beta   90.03683884
_cell_angle_gamma   59.93708549
_symmetry_Int_Tables_number   1
_chemical_formula_structural   Cu9(Ni3C13)2
_chemical_formula_sum   'Cu18 Ni12 C52'
_cell_volume   1165.85132392
_cell_formula_units_Z   2
loop_
 _symmetry_equiv_pos_site_id
 _symmetry_equiv_pos_as_xyz
  1  'x, y, z'
loop_
 _atom_site_type_symbol
 _atom_site_label
 _atom_site_symmetry_multiplicity
 _atom_site_fract_x
 _atom_site_fract_y
 _atom_site_fract_z
 _atom_site_occupancy
  Ni  Ni0  1  0.02150200  0.60421300  0.37453000  1
  Ni  Ni1  1  0.02401700  0.60181400  0.87334300  1
  Ni  Ni2  1  0.62587700  0.97728100  0.62569200  1
  Ni  Ni3  1  0.62582200  0.97555300  0.12660600  1
  Ni  Ni4  1  0.39832100  0.62570400  0.12705300  1
  Ni  Ni5  1  0.39589000  0.62605300  0.62515000  1
  Ni  Ni6  1  0.60426300  0.37426600  0.37468100  1
  Ni  Ni7  1  0.60195600  0.37428000  0.87336900  1
  Ni  Ni8  1  0.37424500  0.02413100  0.87323500  1
  Ni  Ni9  1  0.37377500  0.02239100  0.37430400  1
  Ni  Ni10  1  0.97623300  0.39795800  0.12702400  1
  Ni  Ni11  1  0.97821800  0.39564200  0.62517200  1
  Cu  Cu12  1  0.24371400  0.99019000  0.62692700  1
  Cu  Cu13  1  0.24023200  0.98490700  0.12628700  1
  Cu  Cu14  1  0.22528400  0.75871200  0.87345100  1
  Cu  Cu15  1  0.23606600  0.75308200  0.37381800  1
  Cu  Cu16  1  0.01247500  0.23463000  0.37379900  1
  Cu  Cu17  1  0.01575600  0.22537200  0.87355400  1
  Cu  Cu18  1  0.66666900  0.66679000  0.75939800  1
  Cu  Cu19  1  0.33361100  0.33351000  0.97928100  1
  Cu  Cu20  1  0.33391500  0.33273600  0.52922400  1
  Cu  Cu21  1  0.66644700  0.66739800  0.01983600  1
  Cu  Cu22  1  0.66676800  0.66687700  0.47112800  1
  Cu  Cu23  1  0.33424100  0.33232200  0.23913900  1
  Cu  Cu24  1  0.98373700  0.77460600  0.12634600  1
  Cu  Cu25  1  0.98861600  0.76611200  0.62652400  1
  Cu  Cu26  1  0.76509700  0.24411800  0.62677000  1
  Cu  Cu27  1  0.77366600  0.24103700  0.12633400  1
  Cu  Cu28  1  0.75934200  0.01543000  0.87341800  1
  Cu  Cu29  1  0.75294600  0.01111800  0.37365300  1
  C  C30  1  0.07321400  0.68321400  0.78661300  1
  C  C31  1  0.08667000  0.66626000  0.28498300  1
  C  C32  1  0.09474300  0.65462000  0.46547000  1
  C  C33  1  0.08918900  0.66234700  0.96441100  1
  C  C34  1  0.31720800  0.75636300  0.21412700  1
  C  C35  1  0.33211600  0.75438500  0.71443100  1
  C  C36  1  0.34410200  0.74969300  0.53363600  1
  C  C37  1  0.33589200  0.75241300  0.03631700  1
  C  C38  1  0.51931000  0.89001400  0.63341300  1
  C  C39  1  0.49811300  0.83354100  0.87323200  1
  C  C40  1  0.47510600  0.82992500  0.37718800  1
  C  C41  1  0.52792700  0.87896200  0.11926100  1
  C  C42  1  0.10918800  0.40952500  0.36725900  1
  C  C43  1  0.12140900  0.40713000  0.88047500  1
  C  C44  1  0.30832100  0.52187400  0.62291900  1
  C  C45  1  0.16649700  0.33177700  0.12704200  1
  C  C46  1  0.33234300  0.50152800  0.12706000  1
  C  C47  1  0.74898300  0.90428700  0.53436200  1
  C  C48  1  0.75599800  0.92678100  0.21351900  1
  C  C49  1  0.75350100  0.91311800  0.71529200  1
  C  C50  1  0.17019500  0.30761400  0.62316800  1
  C  C51  1  0.75131000  0.90995700  0.03548000  1
  C  C52  1  0.41010500  0.48256900  0.36742300  1
  C  C53  1  0.40743000  0.47140600  0.88043500  1
  C  C54  1  0.00116500  0.00082800  0.87880400  1
  C  C55  1  0.99963200  0.00015800  0.62705800  1
  C  C56  1  0.00683800  0.00430800  0.37376700  1
  C  C57  1  0.99973300  0.99988400  0.12123300  1
  C  C58  1  0.59278800  0.52882400  0.11898700  1
  C  C59  1  0.59003400  0.52040300  0.63307900  1
  C  C60  1  0.24821200  0.08934700  0.96427200  1
  C  C61  1  0.82955800  0.69172200  0.37671300  1
  C  C62  1  0.24661200  0.08889000  0.28447200  1
  C  C63  1  0.24339400  0.07373300  0.78638200  1
  C  C64  1  0.24947700  0.09709900  0.46520600  1
  C  C65  1  0.66817900  0.49834400  0.87324100  1
  C  C66  1  0.83359300  0.66786100  0.87322300  1
  C  C67  1  0.69359800  0.47689100  0.37701500  1
  C  C68  1  0.87865400  0.59225100  0.11910200  1
  C  C69  1  0.88965300  0.58953100  0.63304600  1
  C  C70  1  0.47150100  0.12119800  0.88053200  1
  C  C71  1  0.52234000  0.16954200  0.62327800  1
  C  C72  1  0.50179100  0.16626400  0.12649700  1
  C  C73  1  0.48193400  0.10792600  0.36742300  1
  C  C74  1  0.66261500  0.24859900  0.96459600  1
  C  C75  1  0.65367200  0.25081800  0.46577200  1
  C  C76  1  0.66485800  0.24732800  0.28486100  1
  C  C77  1  0.68307000  0.24348300  0.78654400  1
  C  C78  1  0.91233800  0.33511400  0.03632700  1
  C  C79  1  0.90642500  0.34390000  0.53355900  1
  C  C80  1  0.91379200  0.33169100  0.71439700  1
  C  C81  1  0.92687700  0.31661800  0.21405900  1
