# generated using pymatgen
data_Cu2NiC13
_symmetry_space_group_name_H-M   'P 1'
_cell_length_a   5.46080432
_cell_length_b   5.46080432
_cell_length_c   8.90569717
_cell_angle_alpha   68.87622750
_cell_angle_beta   68.87622750
_cell_angle_gamma   69.61397621
_symmetry_Int_Tables_number   1
_chemical_formula_structural   Cu2NiC13
_chemical_formula_sum   'Cu2 Ni1 C13'
_cell_volume   223.67775095
_cell_formula_units_Z   1
loop_
 _symmetry_equiv_pos_site_id
 _symmetry_equiv_pos_as_xyz
  1  'x, y, z'
loop_
 _atom_site_type_symbol
 _atom_site_label
 _atom_site_symmetry_multiplicity
 _atom_site_fract_x
 _atom_site_fract_y
 _atom_site_fract_z
 _atom_site_occupancy
  Ni  Ni0  1  0.00000000  0.00000000  0.00000000  1
  Cu  Cu1  1  0.50000000  0.00000000  0.50000000  1
  Cu  Cu2  1  0.00000000  0.50000000  0.50000000  1
  C  C3  1  0.00000000  0.00000000  0.50000000  1
  C  C4  1  0.55585100  0.55585100  0.23401600  1
  C  C5  1  0.44414900  0.44414900  0.76598400  1
  C  C6  1  0.65754300  0.20690200  0.28518300  1
  C  C7  1  0.34245700  0.79309800  0.71481700  1
  C  C8  1  0.79309800  0.34245700  0.71481700  1
  C  C9  1  0.20690200  0.65754300  0.28518300  1
  C  C10  1  0.84874400  0.84874400  0.53951100  1
  C  C11  1  0.15125600  0.15125600  0.46048900  1
  C  C12  1  0.33454700  0.33454700  0.97039100  1
  C  C13  1  0.66545300  0.66545300  0.02960900  1
  C  C14  1  0.66902100  0.66902100  0.33944500  1
  C  C15  1  0.33097900  0.33097900  0.66055500  1
