# generated using pymatgen
data_Cu3Ni2C3
_symmetry_space_group_name_H-M   'P 1'
_cell_length_a   7.79408577
_cell_length_b   7.79408577
_cell_length_c   7.79408577
_cell_angle_alpha   120.56105576
_cell_angle_beta   120.56105576
_cell_angle_gamma   89.03093924
_symmetry_Int_Tables_number   1
_chemical_formula_structural   Cu3Ni2C3
_chemical_formula_sum   'Cu6 Ni4 C6'
_cell_volume   331.90554814
_cell_formula_units_Z   2
loop_
 _symmetry_equiv_pos_site_id
 _symmetry_equiv_pos_as_xyz
  1  'x, y, z'
loop_
 _atom_site_type_symbol
 _atom_site_label
 _atom_site_symmetry_multiplicity
 _atom_site_fract_x
 _atom_site_fract_y
 _atom_site_fract_z
 _atom_site_occupancy
  C  C0  1  0.36379900  0.17678300  0.50000000  1
  C  C1  1  0.67678300  0.86379900  0.50000000  1
  C  C2  1  0.17678300  0.67678300  0.81298400  1
  C  C3  1  0.86379900  0.36379900  0.18701600  1
  C  C4  1  0.74653800  0.74653800  0.00000000  1
  C  C5  1  0.24653800  0.24653800  0.00000000  1
  Ni  Ni6  1  0.69428300  0.46802000  0.50000000  1
  Ni  Ni7  1  0.96802000  0.19428300  0.50000000  1
  Ni  Ni8  1  0.46802000  0.96802000  0.77373700  1
  Ni  Ni9  1  0.19428300  0.69428300  0.22626300  1
  Cu  Cu10  1  0.35945700  0.55526700  0.50000000  1
  Cu  Cu11  1  0.05526700  0.85945700  0.50000000  1
  Cu  Cu12  1  0.55526700  0.05526700  0.19581100  1
  Cu  Cu13  1  0.85945700  0.35945700  0.80418900  1
  Cu  Cu14  1  0.99526400  0.99526400  0.00000000  1
  Cu  Cu15  1  0.49526400  0.49526400  0.00000000  1
