# generated using pymatgen
data_Cu2NiC7
_symmetry_space_group_name_H-M   'P 1'
_cell_length_a   9.32502500
_cell_length_b   10.68663800
_cell_length_c   11.81728913
_cell_angle_alpha   86.85367663
_cell_angle_beta   90.00000000
_cell_angle_gamma   90.00000000
_symmetry_Int_Tables_number   1
_chemical_formula_structural   Cu2NiC7
_chemical_formula_sum   'Cu12 Ni6 C42'
_cell_volume   1175.85514663
_cell_formula_units_Z   6
loop_
 _symmetry_equiv_pos_site_id
 _symmetry_equiv_pos_as_xyz
  1  'x, y, z'
loop_
 _atom_site_type_symbol
 _atom_site_label
 _atom_site_symmetry_multiplicity
 _atom_site_fract_x
 _atom_site_fract_y
 _atom_site_fract_z
 _atom_site_occupancy
  Ni  Ni0  1  0.93215800  0.41207300  0.19512600  1
  Ni  Ni1  1  0.06784200  0.58792700  0.80487400  1
  Ni  Ni2  1  0.43029200  0.25000000  0.50000000  1
  Ni  Ni3  1  0.93215800  0.08792700  0.80487400  1
  Ni  Ni4  1  0.56970800  0.75000000  0.50000000  1
  Ni  Ni5  1  0.06784200  0.91207300  0.19512600  1
  Cu  Cu6  1  0.20861800  0.29082800  0.84097200  1
  Cu  Cu7  1  0.75212300  0.38107700  0.83165400  1
  Cu  Cu8  1  0.24787700  0.88107700  0.83165400  1
  Cu  Cu9  1  0.79138200  0.79082800  0.84097200  1
  Cu  Cu10  1  0.29702700  0.96136800  0.53160700  1
  Cu  Cu11  1  0.75212300  0.11892300  0.16834600  1
  Cu  Cu12  1  0.70297300  0.46136800  0.53160700  1
  Cu  Cu13  1  0.24787700  0.61892300  0.16834600  1
  Cu  Cu14  1  0.29702700  0.53863200  0.46839300  1
  Cu  Cu15  1  0.70297300  0.03863200  0.46839300  1
  Cu  Cu16  1  0.79138200  0.70917200  0.15902800  1
  Cu  Cu17  1  0.20861800  0.20917200  0.15902800  1
  C  C18  1  0.79232700  0.95779700  0.80330800  1
  C  C19  1  0.79139900  0.28498400  0.16651400  1
  C  C20  1  0.82004200  0.75000000  0.00000000  1
  C  C21  1  0.86963100  0.10246000  0.49779200  1
  C  C22  1  0.36083200  0.58965300  0.05528300  1
  C  C23  1  0.92863000  0.71279100  0.76160500  1
  C  C24  1  0.33438800  0.93771000  0.69043200  1
  C  C25  1  0.13036900  0.60246000  0.49779200  1
  C  C26  1  0.71357500  0.87458900  0.51666200  1
  C  C27  1  0.36083200  0.91034700  0.94471700  1
  C  C28  1  0.71357500  0.62541100  0.48333800  1
  C  C29  1  0.43306500  0.87798000  0.45330100  1
  C  C30  1  0.91763300  0.03184500  0.15040400  1
  C  C31  1  0.07137000  0.21279100  0.76160500  1
  C  C32  1  0.66561200  0.06229000  0.30956800  1
  C  C33  1  0.33438800  0.56229000  0.30956800  1
  C  C34  1  0.92863000  0.78720900  0.23839500  1
  C  C35  1  0.63916800  0.41034700  0.94471700  1
  C  C36  1  0.20767300  0.45779700  0.80330800  1
  C  C37  1  0.56693500  0.12202000  0.54669900  1
  C  C38  1  0.37428300  0.26703900  0.20158200  1
  C  C39  1  0.28642500  0.12541100  0.48333800  1
  C  C40  1  0.08236700  0.53184500  0.15040400  1
  C  C41  1  0.28642500  0.37458900  0.51666200  1
  C  C42  1  0.86963100  0.39754000  0.50220800  1
  C  C43  1  0.56693500  0.37798000  0.45330100  1
  C  C44  1  0.13036900  0.89754000  0.50220800  1
  C  C45  1  0.62571700  0.76703900  0.20158200  1
  C  C46  1  0.62571700  0.73296100  0.79841800  1
  C  C47  1  0.08236700  0.96815500  0.84959600  1
  C  C48  1  0.07137000  0.28720900  0.23839500  1
  C  C49  1  0.79232700  0.54220300  0.19669200  1
  C  C50  1  0.17995800  0.25000000  0.00000000  1
  C  C51  1  0.20860100  0.78498400  0.16651400  1
  C  C52  1  0.63916800  0.08965300  0.05528300  1
  C  C53  1  0.91763300  0.46815500  0.84959600  1
  C  C54  1  0.20767300  0.04220300  0.19669200  1
  C  C55  1  0.79139900  0.21501600  0.83348600  1
  C  C56  1  0.43306500  0.62202000  0.54669900  1
  C  C57  1  0.66561200  0.43771000  0.69043200  1
  C  C58  1  0.20860100  0.71501600  0.83348600  1
  C  C59  1  0.37428300  0.23296100  0.79841800  1
