# generated using pymatgen
data_Cu(NiC2)2
_symmetry_space_group_name_H-M   'P 1'
_cell_length_a   6.48250241
_cell_length_b   6.48250241
_cell_length_c   6.48250241
_cell_angle_alpha   125.18732076
_cell_angle_beta   104.02326062
_cell_angle_gamma   100.45322379
_symmetry_Int_Tables_number   1
_chemical_formula_structural   Cu(NiC2)2
_chemical_formula_sum   'Cu1 Ni2 C4'
_cell_volume   197.50062025
_cell_formula_units_Z   1
loop_
 _symmetry_equiv_pos_site_id
 _symmetry_equiv_pos_as_xyz
  1  'x, y, z'
loop_
 _atom_site_type_symbol
 _atom_site_label
 _atom_site_symmetry_multiplicity
 _atom_site_fract_x
 _atom_site_fract_y
 _atom_site_fract_z
 _atom_site_occupancy
  C  C0  1  0.32825300  0.19440800  0.86615500  1
  C  C1  1  0.67174700  0.53790200  0.86615500  1
  C  C2  1  0.76973500  0.17188300  0.94161800  1
  C  C3  1  0.23026500  0.17188300  0.40214800  1
  Ni  Ni4  1  0.75492800  0.88457600  0.63950300  1
  Ni  Ni5  1  0.24507200  0.88457600  0.12964800  1
  Cu  Cu6  1  0.00000000  0.27977200  0.27977200  1
