# generated using pymatgen
data_CuNiC4
_symmetry_space_group_name_H-M   'P 1'
_cell_length_a   3.15478010
_cell_length_b   4.63117706
_cell_length_c   4.63320498
_cell_angle_alpha   88.92317084
_cell_angle_beta   90.00032653
_cell_angle_gamma   90.00034516
_symmetry_Int_Tables_number   1
_chemical_formula_structural   CuNiC4
_chemical_formula_sum   'Cu1 Ni1 C4'
_cell_volume   67.68076951
_cell_formula_units_Z   1
loop_
 _symmetry_equiv_pos_site_id
 _symmetry_equiv_pos_as_xyz
  1  'x, y, z'
loop_
 _atom_site_type_symbol
 _atom_site_label
 _atom_site_symmetry_multiplicity
 _atom_site_fract_x
 _atom_site_fract_y
 _atom_site_fract_z
 _atom_site_occupancy
  Ni  Ni0  1  0.99999900  0.50000000  0.50000000  1
  Cu  Cu1  1  0.50000100  0.00000000  0.00000000  1
  C  C2  1  0.00000500  0.19536100  0.19509400  1
  C  C3  1  0.99999600  0.80464000  0.80490500  1
  C  C4  1  0.49999900  0.30081200  0.69906200  1
  C  C5  1  0.50000100  0.69918900  0.30093700  1
