# generated using pymatgen
data_CuNi149
_symmetry_space_group_name_H-M   'P 1'
_cell_length_a   15.94086851
_cell_length_b   15.94087491
_cell_length_c   15.62378517
_cell_angle_alpha   90.00000000
_cell_angle_beta   90.00000000
_cell_angle_gamma   120.00001110
_symmetry_Int_Tables_number   1
_chemical_formula_structural   CuNi149
_chemical_formula_sum   'Cu1 Ni149'
_cell_volume   3438.27789505
_cell_formula_units_Z   1
loop_
 _symmetry_equiv_pos_site_id
 _symmetry_equiv_pos_as_xyz
  1  'x, y, z'
loop_
 _atom_site_type_symbol
 _atom_site_label
 _atom_site_symmetry_multiplicity
 _atom_site_fract_x
 _atom_site_fract_y
 _atom_site_fract_z
 _atom_site_occupancy
  Ni  Ni0  1  0.80552759  -0.00004748  -0.00000000  1
  Ni  Ni1  1  0.19442493  -0.00004748  -0.00000000  1
  Ni  Ni2  1  0.39797447  0.00036546  -0.00000000  1
  Ni  Ni3  1  0.60239199  0.00036646  -0.00000000  1
  Ni  Ni4  1  0.00004748  0.19447241  -0.00000000  1
  Ni  Ni5  1  0.19442493  0.19447241  -0.00000000  1
  Ni  Ni6  1  0.59976371  0.19952842  -0.00000000  1
  Ni  Ni7  1  0.79995248  0.20004752  -0.00000000  1
  Ni  Ni8  1  0.40009504  0.20004752  -0.00000000  1
  Ni  Ni9  1  0.99963454  0.39760801  -0.00000000  1
  Ni  Ni10  1  0.39797447  0.39760901  -0.00000000  1
  Ni  Ni11  1  0.19965333  0.39930666  -0.00000000  1
  Ni  Ni12  1  0.59976371  0.40023529  -0.00000000  1
  Ni  Ni13  1  0.80047158  0.40023529  -0.00000000  1
  Ni  Ni14  1  0.40011186  0.59988714  -0.00000000  1
  Ni  Ni15  1  0.19977528  0.59988814  -0.00000000  1
  Ni  Ni16  1  0.79995248  0.59990496  -0.00000000  1
  Ni  Ni17  1  0.60239199  0.60202553  -0.00000000  1
  Ni  Ni18  1  0.99963454  0.60202553  -0.00000000  1
  Ni  Ni19  1  0.40011186  0.80022372  -0.00000000  1
  Ni  Ni20  1  0.60069334  0.80034667  -0.00000000  1
  Ni  Ni21  1  0.19965333  0.80034667  -0.00000000  1
  Ni  Ni22  1  0.80552759  0.80557507  -0.00000000  1
  Ni  Ni23  1  0.00004748  0.80557507  -0.00000000  1
  Ni  Ni24  1  0.06493697  0.12987493  0.16079063  1
  Ni  Ni25  1  0.06493697  0.93506303  0.16079063  1
  Ni  Ni26  1  0.87012607  0.93506303  0.16079063  1
  Ni  Ni27  1  0.26728404  0.13364252  0.16573059  1
  Ni  Ni28  1  0.86635748  0.13364252  0.16573059  1
  Ni  Ni29  1  0.86635748  0.73271496  0.16573059  1
  Ni  Ni30  1  0.06672001  0.53336001  0.16629090  1
  Ni  Ni31  1  0.46663999  0.53336001  0.16629090  1
  Ni  Ni32  1  0.46663999  0.93327999  0.16629090  1
  Ni  Ni33  1  0.06716894  0.33319772  0.16627609  1
  Ni  Ni34  1  0.26603077  0.33319872  0.16627609  1
  Ni  Ni35  1  0.06716894  0.73397023  0.16627609  1
  Ni  Ni36  1  0.66680228  0.73397023  0.16627609  1
  Ni  Ni37  1  0.66680228  0.93283206  0.16627609  1
  Ni  Ni38  1  0.26603077  0.93283206  0.16627609  1
  Ni  Ni39  1  0.66666700  0.33333300  0.16613851  1
  Ni  Ni40  1  0.66686522  0.13336959  0.16664827  1
  Ni  Ni41  1  0.46650537  0.13336959  0.16664827  1
  Ni  Ni42  1  0.46650537  0.33313478  0.16664827  1
  Ni  Ni43  1  0.86663041  0.33313578  0.16664827  1
  Ni  Ni44  1  0.86663041  0.53349463  0.16664827  1
  Ni  Ni45  1  0.66686522  0.53349463  0.16664827  1
  Ni  Ni46  1  0.26678948  0.53357896  0.16653742  1
  Ni  Ni47  1  0.46642104  0.73321052  0.16653742  1
  Ni  Ni48  1  0.26678948  0.73321052  0.16653742  1
  Ni  Ni49  1  0.00030847  0.19946910  0.33148890  1
  Ni  Ni50  1  0.19916063  0.19947010  0.33148890  1
  Ni  Ni51  1  0.00030847  0.80083937  0.33148890  1
  Ni  Ni52  1  0.80053090  0.80083937  0.33148890  1
  Ni  Ni53  1  0.80053090  0.99969053  0.33148890  1
  Ni  Ni54  1  0.19916063  0.99969053  0.33148890  1
  Ni  Ni55  1  0.39959726  0.99991941  0.33286514  1
  Ni  Ni56  1  0.60032215  0.99991941  0.33286514  1
  Ni  Ni57  1  0.00008059  0.39967785  0.33286514  1
  Ni  Ni58  1  0.39959726  0.39967785  0.33286514  1
  Ni  Ni59  1  0.00008059  0.60040274  0.33286514  1
  Ni  Ni60  1  0.60032215  0.60040274  0.33286514  1
  Ni  Ni61  1  0.59983928  0.19967956  0.33301002  1
  Ni  Ni62  1  0.80032044  0.40016072  0.33301002  1
  Ni  Ni63  1  0.59983928  0.40016072  0.33301002  1
  Ni  Ni64  1  -0.00000000  0.00000000  0.33385766  1
  Ni  Ni65  1  0.39986654  0.19993277  0.33344625  1
  Ni  Ni66  1  0.80006723  0.19993277  0.33344625  1
  Ni  Ni67  1  0.80006723  0.60013346  0.33344625  1
  Ni  Ni68  1  0.20013161  0.40026322  0.33357477  1
  Ni  Ni69  1  0.59973678  0.79986839  0.33357477  1
  Ni  Ni70  1  0.20013161  0.79986839  0.33357477  1
  Ni  Ni71  1  0.19986985  0.59993542  0.33323132  1
  Ni  Ni72  1  0.40006558  0.59993542  0.33323132  1
  Ni  Ni73  1  0.40006558  0.80013015  0.33323132  1
  Ni  Ni74  1  0.26612031  0.13306066  0.50000000  1
  Ni  Ni75  1  0.86693934  0.13306066  0.50000000  1
  Ni  Ni76  1  0.06662809  0.13325618  0.50000000  1
  Ni  Ni77  1  0.66709118  0.13388720  0.50000000  1
  Ni  Ni78  1  0.46679602  0.13388820  0.50000000  1
  Ni  Ni79  1  0.26640712  0.33267156  0.50000000  1
  Ni  Ni80  1  0.06626345  0.33267156  0.50000000  1
  Ni  Ni81  1  0.86611180  0.33290782  0.50000000  1
  Ni  Ni82  1  0.46679602  0.33290882  0.50000000  1
  Ni  Ni83  1  0.66666700  0.33333300  0.50000000  1
  Ni  Ni84  1  0.26635769  0.53271538  0.50000000  1
  Ni  Ni85  1  0.46736869  0.53263131  0.50000000  1
  Ni  Ni86  1  0.06526261  0.53263131  0.50000000  1
  Ni  Ni87  1  0.66709118  0.53320398  0.50000000  1
  Ni  Ni88  1  0.86611180  0.53320398  0.50000000  1
  Ni  Ni89  1  0.06626345  0.73359188  0.50000000  1
  Ni  Ni90  1  0.66732944  0.73359288  0.50000000  1
  Ni  Ni91  1  0.26635769  0.73364131  0.50000000  1
  Ni  Ni92  1  0.46728462  0.73364231  0.50000000  1
  Ni  Ni93  1  0.86693934  0.73387869  0.50000000  1
  Ni  Ni94  1  0.86674382  0.93337191  0.50000000  1
  Ni  Ni95  1  0.06662809  0.93337191  0.50000000  1
  Ni  Ni96  1  0.26640712  0.93373655  0.50000000  1
  Ni  Ni97  1  0.66732944  0.93373655  0.50000000  1
  Ni  Ni98  1  0.46736869  0.93473739  0.50000000  1
  Ni  Ni99  1  0.19986985  0.59993542  0.66676868  1
  Ni  Ni100  1  0.40006558  0.59993542  0.66676868  1
  Ni  Ni101  1  0.40006558  0.80013015  0.66676868  1
  Ni  Ni102  1  0.20013161  0.40026322  0.66642523  1
  Ni  Ni103  1  0.59973678  0.79986839  0.66642523  1
  Ni  Ni104  1  0.20013161  0.79986839  0.66642523  1
  Ni  Ni105  1  0.39986654  0.19993277  0.66655375  1
  Ni  Ni106  1  0.80006723  0.19993277  0.66655375  1
  Ni  Ni107  1  0.80006723  0.60013346  0.66655375  1
  Ni  Ni108  1  -0.00000000  0.00000000  0.66614234  1
  Ni  Ni109  1  0.59983928  0.19967956  0.66699098  1
  Ni  Ni110  1  0.80032044  0.40016072  0.66699098  1
  Ni  Ni111  1  0.59983928  0.40016072  0.66699098  1
  Ni  Ni112  1  0.39959726  0.99991941  0.66713386  1
  Ni  Ni113  1  0.60032215  0.99991941  0.66713386  1
  Ni  Ni114  1  0.00008059  0.39967785  0.66713386  1
  Ni  Ni115  1  0.39959726  0.39967785  0.66713386  1
  Ni  Ni116  1  0.00008059  0.60040274  0.66713386  1
  Ni  Ni117  1  0.60032215  0.60040274  0.66713386  1
  Ni  Ni118  1  0.00030847  0.19946910  0.66851110  1
  Ni  Ni119  1  0.19916063  0.19947010  0.66851110  1
  Ni  Ni120  1  0.00030847  0.80083937  0.66851110  1
  Ni  Ni121  1  0.80053090  0.80083937  0.66851110  1
  Ni  Ni122  1  0.80053090  0.99969053  0.66851110  1
  Ni  Ni123  1  0.19916063  0.99969053  0.66851110  1
  Ni  Ni124  1  0.26678948  0.53357896  0.83346258  1
  Ni  Ni125  1  0.46642104  0.73321052  0.83346258  1
  Ni  Ni126  1  0.26678948  0.73321052  0.83346258  1
  Ni  Ni127  1  0.66686522  0.13336959  0.83335173  1
  Ni  Ni128  1  0.46650537  0.13336959  0.83335173  1
  Ni  Ni129  1  0.46650537  0.33313478  0.83335173  1
  Ni  Ni130  1  0.86663041  0.33313578  0.83335173  1
  Ni  Ni131  1  0.86663041  0.53349463  0.83335173  1
  Ni  Ni132  1  0.66686522  0.53349463  0.83335173  1
  Ni  Ni133  1  0.66666700  0.33333300  0.83386249  1
  Ni  Ni134  1  0.06716894  0.33319772  0.83372391  1
  Ni  Ni135  1  0.26603077  0.33319872  0.83372391  1
  Ni  Ni136  1  0.06716894  0.73397023  0.83372391  1
  Ni  Ni137  1  0.66680228  0.73397023  0.83372391  1
  Ni  Ni138  1  0.66680228  0.93283206  0.83372391  1
  Ni  Ni139  1  0.26603077  0.93283206  0.83372391  1
  Ni  Ni140  1  0.06672001  0.53336001  0.83370910  1
  Ni  Ni141  1  0.46663999  0.53336001  0.83370910  1
  Ni  Ni142  1  0.46663999  0.93327999  0.83370910  1
  Ni  Ni143  1  0.26728404  0.13364252  0.83426941  1
  Ni  Ni144  1  0.86635748  0.13364252  0.83426941  1
  Ni  Ni145  1  0.86635748  0.73271496  0.83426941  1
  Ni  Ni146  1  0.06493697  0.12987493  0.83920937  1
  Ni  Ni147  1  0.06493697  0.93506303  0.83920937  1
  Ni  Ni148  1  0.87012607  0.93506303  0.83920937  1
  Cu  Cu149  1  -0.00000000  0.00000000  -0.00000000  1
