# generated using pymatgen
data_Cu16Ni4C11
_symmetry_space_group_name_H-M   'P 1'
_cell_length_a   7.90896100
_cell_length_b   12.33501700
_cell_length_c   17.90837017
_cell_angle_alpha   46.48726749
_cell_angle_beta   90.00000000
_cell_angle_gamma   90.00000000
_symmetry_Int_Tables_number   1
_chemical_formula_structural   Cu16Ni4C11
_chemical_formula_sum   'Cu32 Ni8 C22'
_cell_volume   1267.02694382
_cell_formula_units_Z   2
loop_
 _symmetry_equiv_pos_site_id
 _symmetry_equiv_pos_as_xyz
  1  'x, y, z'
loop_
 _atom_site_type_symbol
 _atom_site_label
 _atom_site_symmetry_multiplicity
 _atom_site_fract_x
 _atom_site_fract_y
 _atom_site_fract_z
 _atom_site_occupancy
  C  C0  1  0.23933300  0.34083200  0.15399200  1
  C  C1  1  0.24255500  0.85038600  0.15525800  1
  C  C2  1  0.23631000  0.84859000  0.65401600  1
  C  C3  1  0.24217400  0.33588000  0.65541100  1
  C  C4  1  0.24051300  0.91212400  0.33830100  1
  C  C5  1  0.24585200  0.40258200  0.34724700  1
  C  C6  1  0.27146300  0.90905700  0.83709000  1
  C  C7  1  0.72853700  0.90905700  0.33709000  1
  C  C8  1  0.75414800  0.40258200  0.84724700  1
  C  C9  1  0.75948700  0.91212400  0.83830100  1
  C  C10  1  0.75782600  0.33588000  0.15541100  1
  C  C11  1  0.76369000  0.84859000  0.15401600  1
  C  C12  1  0.75744500  0.85038600  0.65525800  1
  C  C13  1  0.76066700  0.34083200  0.65399200  1
  C  C14  1  0.01317600  0.66902800  0.07122500  1
  C  C15  1  0.98682400  0.66902800  0.57122500  1
  C  C16  1  0.49120500  0.06657300  0.42714000  1
  C  C17  1  0.48832300  0.56876700  0.42540800  1
  C  C18  1  0.51167700  0.56876700  0.92540800  1
  C  C19  1  0.50879500  0.06657300  0.92714000  1
  C  C20  1  0.25119600  0.40016200  0.84799900  1
  C  C21  1  0.74880400  0.40016200  0.34799900  1
  Ni  Ni22  1  0.98882300  0.08925500  0.40944000  1
  Ni  Ni23  1  0.99889900  0.58566700  0.41191700  1
  Ni  Ni24  1  0.00110100  0.58566700  0.91191700  1
  Ni  Ni25  1  0.01117700  0.08925500  0.90944000  1
  Ni  Ni26  1  0.49275700  0.15610300  0.09416100  1
  Ni  Ni27  1  0.50333200  0.65632800  0.09485800  1
  Ni  Ni28  1  0.49666800  0.65632800  0.59485800  1
  Ni  Ni29  1  0.50724300  0.15610300  0.59416100  1
  Cu  Cu30  1  0.99946800  0.38290500  0.05612900  1
  Cu  Cu31  1  0.00609000  0.88219300  0.05758000  1
  Cu  Cu32  1  0.99391000  0.88219300  0.55758000  1
  Cu  Cu33  1  0.00053200  0.38290500  0.55612900  1
  Cu  Cu34  1  0.98535000  0.76460100  0.39952200  1
  Cu  Cu35  1  0.99213600  0.25252600  0.41465300  1
  Cu  Cu36  1  0.00786400  0.25252600  0.91465300  1
  Cu  Cu37  1  0.01465000  0.76460100  0.89952200  1
  Cu  Cu38  1  0.20601800  0.11176700  0.33636100  1
  Cu  Cu39  1  0.21034000  0.61170200  0.33362300  1
  Cu  Cu40  1  0.22137300  0.60466900  0.83609900  1
  Cu  Cu41  1  0.22651700  0.10711600  0.83739700  1
  Cu  Cu42  1  0.27420600  0.04185800  0.15800700  1
  Cu  Cu43  1  0.29065600  0.52665400  0.16584100  1
  Cu  Cu44  1  0.27750800  0.52440300  0.66913000  1
  Cu  Cu45  1  0.28772400  0.04092300  0.65560800  1
  Cu  Cu46  1  0.49685100  0.32228000  0.09577500  1
  Cu  Cu47  1  0.50349200  0.81572800  0.10178800  1
  Cu  Cu48  1  0.49650800  0.81572800  0.60178800  1
  Cu  Cu49  1  0.50314900  0.32228000  0.59577500  1
  Cu  Cu50  1  0.48366800  0.75088400  0.44559600  1
  Cu  Cu51  1  0.50220700  0.25937500  0.43775500  1
  Cu  Cu52  1  0.49779300  0.25937500  0.93775500  1
  Cu  Cu53  1  0.51633200  0.75088400  0.94559600  1
  Cu  Cu54  1  0.71227600  0.04092300  0.15560800  1
  Cu  Cu55  1  0.72249200  0.52440300  0.16913000  1
  Cu  Cu56  1  0.70934400  0.52665400  0.66584100  1
  Cu  Cu57  1  0.72579400  0.04185800  0.65800700  1
  Cu  Cu58  1  0.77348300  0.10711600  0.33739700  1
  Cu  Cu59  1  0.77862700  0.60466900  0.33609900  1
  Cu  Cu60  1  0.78966000  0.61170200  0.83362300  1
  Cu  Cu61  1  0.79398200  0.11176700  0.83636100  1
