# generated using pymatgen
data_CuNi11C5
_symmetry_space_group_name_H-M   'P 1'
_cell_length_a   10.24811022
_cell_length_b   10.24811022
_cell_length_c   6.96432428
_cell_angle_alpha   72.49312372
_cell_angle_beta   72.49312372
_cell_angle_gamma   101.89532646
_symmetry_Int_Tables_number   1
_chemical_formula_structural   CuNi11C5
_chemical_formula_sum   'Cu1 Ni11 C5'
_cell_volume   628.85984739
_cell_formula_units_Z   1
loop_
 _symmetry_equiv_pos_site_id
 _symmetry_equiv_pos_as_xyz
  1  'x, y, z'
loop_
 _atom_site_type_symbol
 _atom_site_label
 _atom_site_symmetry_multiplicity
 _atom_site_fract_x
 _atom_site_fract_y
 _atom_site_fract_z
 _atom_site_occupancy
  C  C0  1  0.14832600  0.48225600  0.68389100  1
  C  C1  1  0.48225600  0.14832600  0.68389100  1
  C  C2  1  0.85167400  0.51774400  0.31610900  1
  C  C3  1  0.51774400  0.85167400  0.31610900  1
  C  C4  1  0.00000000  0.00000000  0.00000000  1
  Ni  Ni5  1  0.07902600  0.32798400  0.07155400  1
  Ni  Ni6  1  0.32798400  0.07902600  0.07155400  1
  Ni  Ni7  1  0.92097400  0.67201600  0.92844600  1
  Ni  Ni8  1  0.67201600  0.92097400  0.92844600  1
  Ni  Ni9  1  0.20423100  0.63961600  0.30213300  1
  Ni  Ni10  1  0.63961600  0.20423100  0.30213300  1
  Ni  Ni11  1  0.79576900  0.36038400  0.69786700  1
  Ni  Ni12  1  0.36038400  0.79576900  0.69786700  1
  Ni  Ni13  1  0.14422400  0.14422400  0.60517200  1
  Ni  Ni14  1  0.85577600  0.85577600  0.39482800  1
  Ni  Ni15  1  0.50000000  0.50000000  0.50000000  1
  Cu  Cu16  1  0.50000000  0.50000000  0.00000000  1
