# generated using pymatgen
data_Cu5Ni3C19
_symmetry_space_group_name_H-M   'P 1'
_cell_length_a   7.31196544
_cell_length_b   20.47941517
_cell_length_c   20.47941517
_cell_angle_alpha   90.00000000
_cell_angle_beta   90.00000000
_cell_angle_gamma   90.00000000
_symmetry_Int_Tables_number   1
_chemical_formula_structural   Cu5Ni3C19
_chemical_formula_sum   'Cu40 Ni24 C152'
_cell_volume   3066.68543631
_cell_formula_units_Z   8
loop_
 _symmetry_equiv_pos_site_id
 _symmetry_equiv_pos_as_xyz
  1  'x, y, z'
loop_
 _atom_site_type_symbol
 _atom_site_label
 _atom_site_symmetry_multiplicity
 _atom_site_fract_x
 _atom_site_fract_y
 _atom_site_fract_z
 _atom_site_occupancy
  Ni  Ni0  1  0.75715634  0.75000000  0.75000000  1
  Ni  Ni1  1  0.24284366  0.25000000  0.25000000  1
  Ni  Ni2  1  0.25196927  0.75000000  0.75000000  1
  Ni  Ni3  1  0.74803073  0.25000000  0.25000000  1
  Ni  Ni4  1  0.74686575  0.25000000  0.75000000  1
  Ni  Ni5  1  0.74686575  0.75000000  0.25000000  1
  Ni  Ni6  1  0.25313425  0.75000000  0.25000000  1
  Ni  Ni7  1  0.25313425  0.25000000  0.75000000  1
  Ni  Ni8  1  0.99081217  0.83307982  0.50852882  1
  Ni  Ni9  1  0.99081217  0.66692018  0.99147118  1
  Ni  Ni10  1  0.99081217  0.50852882  0.66692018  1
  Ni  Ni11  1  0.99081217  0.99147118  0.83307982  1
  Ni  Ni12  1  0.00918783  0.16692018  0.49147118  1
  Ni  Ni13  1  0.00918783  0.33307982  0.00852882  1
  Ni  Ni14  1  0.00918783  0.49147118  0.33307982  1
  Ni  Ni15  1  0.00918783  0.00852882  0.16692018  1
  Ni  Ni16  1  0.50564100  0.99121311  0.33472506  1
  Ni  Ni17  1  0.50564100  0.50878689  0.16527494  1
  Ni  Ni18  1  0.50564100  0.33472506  0.50878689  1
  Ni  Ni19  1  0.50564100  0.16527494  0.99121311  1
  Ni  Ni20  1  0.49435900  0.00878689  0.66527494  1
  Ni  Ni21  1  0.49435900  0.49121311  0.83472506  1
  Ni  Ni22  1  0.49435900  0.66527494  0.49121311  1
  Ni  Ni23  1  0.49435900  0.83472506  0.00878689  1
  Cu  Cu24  1  0.98876843  0.91455056  0.67325086  1
  Cu  Cu25  1  0.98876843  0.58544944  0.82674914  1
  Cu  Cu26  1  0.98876843  0.67325086  0.58544944  1
  Cu  Cu27  1  0.98876843  0.82674914  0.91455056  1
  Cu  Cu28  1  0.01123157  0.08544944  0.32674914  1
  Cu  Cu29  1  0.01123157  0.41455056  0.17325086  1
  Cu  Cu30  1  0.01123157  0.32674914  0.41455056  1
  Cu  Cu31  1  0.01123157  0.17325086  0.08544944  1
  Cu  Cu32  1  0.49386531  0.82626890  0.60998989  1
  Cu  Cu33  1  0.49386531  0.67373110  0.89001011  1
  Cu  Cu34  1  0.49386531  0.60998989  0.67373110  1
  Cu  Cu35  1  0.49386531  0.89001011  0.82626890  1
  Cu  Cu36  1  0.50613469  0.17373110  0.39001011  1
  Cu  Cu37  1  0.50613469  0.32626890  0.10998989  1
  Cu  Cu38  1  0.50613469  0.39001011  0.32626890  1
  Cu  Cu39  1  0.50613469  0.10998989  0.17373110  1
  Cu  Cu40  1  0.99764349  0.11147912  0.66890301  1
  Cu  Cu41  1  0.99764349  0.38852088  0.83109699  1
  Cu  Cu42  1  0.99764349  0.66890301  0.38852088  1
  Cu  Cu43  1  0.99764349  0.83109699  0.11147912  1
  Cu  Cu44  1  0.00235651  0.88852088  0.33109699  1
  Cu  Cu45  1  0.00235651  0.61147912  0.16890301  1
  Cu  Cu46  1  0.00235651  0.33109699  0.61147912  1
  Cu  Cu47  1  0.00235651  0.16890301  0.88852088  1
  Cu  Cu48  1  0.50553254  0.82923218  0.41145948  1
  Cu  Cu49  1  0.50553254  0.67076782  0.08854052  1
  Cu  Cu50  1  0.50553254  0.41145948  0.67076782  1
  Cu  Cu51  1  0.50553254  0.08854052  0.82923218  1
  Cu  Cu52  1  0.49446746  0.17076782  0.58854052  1
  Cu  Cu53  1  0.49446746  0.32923218  0.91145948  1
  Cu  Cu54  1  0.49446746  0.58854052  0.32923218  1
  Cu  Cu55  1  0.49446746  0.91145948  0.17076782  1
  Cu  Cu56  1  0.75421846  0.01779932  0.49260919  1
  Cu  Cu57  1  0.75421846  0.48220068  0.00739081  1
  Cu  Cu58  1  0.75421846  0.49260919  0.48220068  1
  Cu  Cu59  1  0.75421846  0.00739081  0.01779932  1
  Cu  Cu60  1  0.24578154  0.98220068  0.50739081  1
  Cu  Cu61  1  0.24578154  0.51779932  0.99260919  1
  Cu  Cu62  1  0.24578154  0.50739081  0.51779932  1
  Cu  Cu63  1  0.24578154  0.99260919  0.98220068  1
  C  C64  1  0.00491894  0.75000000  0.75000000  1
  C  C65  1  0.99508106  0.25000000  0.25000000  1
  C  C66  1  0.50422238  0.75000000  0.75000000  1
  C  C67  1  0.49577762  0.25000000  0.25000000  1
  C  C68  1  0.74990591  0.83013008  0.71276783  1
  C  C69  1  0.74990591  0.66986992  0.78723217  1
  C  C70  1  0.74990591  0.71276783  0.66986992  1
  C  C71  1  0.74990591  0.78723217  0.83013008  1
  C  C72  1  0.25009409  0.16986992  0.28723217  1
  C  C73  1  0.25009409  0.33013008  0.21276783  1
  C  C74  1  0.25009409  0.28723217  0.33013008  1
  C  C75  1  0.25009409  0.21276783  0.16986992  1
  C  C76  1  0.25948887  0.66664335  0.78121074  1
  C  C77  1  0.25948887  0.83335665  0.71878926  1
  C  C78  1  0.25948887  0.78121074  0.83335665  1
  C  C79  1  0.25948887  0.71878926  0.66664335  1
  C  C80  1  0.74051113  0.33335665  0.21878926  1
  C  C81  1  0.74051113  0.16664335  0.28121074  1
  C  C82  1  0.74051113  0.21878926  0.16664335  1
  C  C83  1  0.74051113  0.28121074  0.33335665  1
  C  C84  1  0.00000000  0.25000000  0.75000000  1
  C  C85  1  0.00000000  0.75000000  0.25000000  1
  C  C86  1  0.75326235  0.78238577  0.33196581  1
  C  C87  1  0.75326235  0.71761423  0.16803419  1
  C  C88  1  0.75326235  0.33196581  0.71761423  1
  C  C89  1  0.75326235  0.16803419  0.78238577  1
  C  C90  1  0.24673765  0.21761423  0.66803419  1
  C  C91  1  0.24673765  0.28238577  0.83196581  1
  C  C92  1  0.24673765  0.66803419  0.28238577  1
  C  C93  1  0.24673765  0.83196581  0.21761423  1
  C  C94  1  0.75326036  0.21743129  0.66690382  1
  C  C95  1  0.75326036  0.28256871  0.83309618  1
  C  C96  1  0.75326036  0.66690382  0.28256871  1
  C  C97  1  0.75326036  0.83309618  0.21743129  1
  C  C98  1  0.24673964  0.78256871  0.33309618  1
  C  C99  1  0.24673964  0.71743129  0.16690382  1
  C  C100  1  0.24673964  0.33309618  0.71743129  1
  C  C101  1  0.24673964  0.16690382  0.78256871  1
  C  C102  1  0.50000000  0.75000000  0.25000000  1
  C  C103  1  0.50000000  0.25000000  0.75000000  1
  C  C104  1  0.16115110  0.82806465  0.57356343  1
  C  C105  1  0.16115110  0.67193535  0.92643657  1
  C  C106  1  0.16115110  0.57356343  0.67193535  1
  C  C107  1  0.16115110  0.92643657  0.82806465  1
  C  C108  1  0.83884890  0.17193535  0.42643657  1
  C  C109  1  0.83884890  0.32806465  0.07356343  1
  C  C110  1  0.83884890  0.42643657  0.32806465  1
  C  C111  1  0.83884890  0.07356343  0.17193535  1
  C  C112  1  0.16869775  0.86115916  0.45006001  1
  C  C113  1  0.16869775  0.63884084  0.04993999  1
  C  C114  1  0.16869775  0.45006001  0.63884084  1
  C  C115  1  0.16869775  0.04993999  0.86115916  1
  C  C116  1  0.83130225  0.13884084  0.54993999  1
  C  C117  1  0.83130225  0.36115916  0.95006001  1
  C  C118  1  0.83130225  0.54993999  0.36115916  1
  C  C119  1  0.83130225  0.95006001  0.13884084  1
  C  C120  1  0.82648801  0.84714722  0.44328645  1
  C  C121  1  0.82648801  0.65285278  0.05671355  1
  C  C122  1  0.82648801  0.44328645  0.65285278  1
  C  C123  1  0.82648801  0.05671355  0.84714722  1
  C  C124  1  0.17351199  0.15285278  0.55671355  1
  C  C125  1  0.17351199  0.34714722  0.94328645  1
  C  C126  1  0.17351199  0.55671355  0.34714722  1
  C  C127  1  0.17351199  0.94328645  0.15285278  1
  C  C128  1  0.81702670  0.80945944  0.56691912  1
  C  C129  1  0.81702670  0.69054056  0.93308088  1
  C  C130  1  0.81702670  0.56691912  0.69054056  1
  C  C131  1  0.81702670  0.93308088  0.80945944  1
  C  C132  1  0.18297330  0.19054056  0.43308088  1
  C  C133  1  0.18297330  0.30945944  0.06691912  1
  C  C134  1  0.18297330  0.43308088  0.30945944  1
  C  C135  1  0.18297330  0.06691912  0.19054056  1
  C  C136  1  0.02213352  0.74725042  0.48662892  1
  C  C137  1  0.02213352  0.75274958  0.01337108  1
  C  C138  1  0.02213352  0.48662892  0.75274958  1
  C  C139  1  0.02213352  0.01337108  0.74725042  1
  C  C140  1  0.97786648  0.25274958  0.51337108  1
  C  C141  1  0.97786648  0.24725042  0.98662892  1
  C  C142  1  0.97786648  0.51337108  0.24725042  1
  C  C143  1  0.97786648  0.98662892  0.25274958  1
  C  C144  1  0.95912495  0.91875013  0.53357027  1
  C  C145  1  0.95912495  0.58124987  0.96642973  1
  C  C146  1  0.95912495  0.53357027  0.58124987  1
  C  C147  1  0.95912495  0.96642973  0.91875013  1
  C  C148  1  0.04087505  0.08124987  0.46642973  1
  C  C149  1  0.04087505  0.41875013  0.03357027  1
  C  C150  1  0.04087505  0.46642973  0.41875013  1
  C  C151  1  0.04087505  0.03357027  0.08124987  1
  C  C152  1  0.48515541  0.97127712  0.42261171  1
  C  C153  1  0.48515541  0.52872288  0.07738829  1
  C  C154  1  0.48515541  0.42261171  0.52872288  1
  C  C155  1  0.48515541  0.07738829  0.97127712  1
  C  C156  1  0.51484459  0.02872288  0.57738829  1
  C  C157  1  0.51484459  0.47127712  0.92261171  1
  C  C158  1  0.51484459  0.57738829  0.47127712  1
  C  C159  1  0.51484459  0.92261171  0.02872288  1
  C  C160  1  0.68087437  0.05166976  0.35974377  1
  C  C161  1  0.68087437  0.44833024  0.14025623  1
  C  C162  1  0.68087437  0.35974377  0.44833024  1
  C  C163  1  0.68087437  0.14025623  0.05166976  1
  C  C164  1  0.31912563  0.94833024  0.64025623  1
  C  C165  1  0.31912563  0.55166976  0.85974377  1
  C  C166  1  0.31912563  0.64025623  0.55166976  1
  C  C167  1  0.31912563  0.85974377  0.94833024  1
  C  C168  1  0.33616124  0.05548190  0.34601863  1
  C  C169  1  0.33616124  0.44451810  0.15398137  1
  C  C170  1  0.33616124  0.34601863  0.44451810  1
  C  C171  1  0.33616124  0.15398137  0.05548190  1
  C  C172  1  0.66383876  0.94451810  0.65398137  1
  C  C173  1  0.66383876  0.55548190  0.84601863  1
  C  C174  1  0.66383876  0.65398137  0.55548190  1
  C  C175  1  0.66383876  0.84601863  0.94451810  1
  C  C176  1  0.33397095  0.92953580  0.31721469  1
  C  C177  1  0.33397095  0.57046420  0.18278531  1
  C  C178  1  0.33397095  0.31721469  0.57046420  1
  C  C179  1  0.33397095  0.18278531  0.92953580  1
  C  C180  1  0.66602905  0.07046420  0.68278531  1
  C  C181  1  0.66602905  0.42953580  0.81721469  1
  C  C182  1  0.66602905  0.68278531  0.42953580  1
  C  C183  1  0.66602905  0.81721469  0.07046420  1
  C  C184  1  0.67593781  0.92597163  0.33096982  1
  C  C185  1  0.67593781  0.57402837  0.16903018  1
  C  C186  1  0.67593781  0.33096982  0.57402837  1
  C  C187  1  0.67593781  0.16903018  0.92597163  1
  C  C188  1  0.32406219  0.07402837  0.66903018  1
  C  C189  1  0.32406219  0.42597163  0.83096982  1
  C  C190  1  0.32406219  0.66903018  0.42597163  1
  C  C191  1  0.32406219  0.83096982  0.07402837  1
  C  C192  1  0.53216480  0.00869323  0.24790387  1
  C  C193  1  0.53216480  0.49130677  0.25209613  1
  C  C194  1  0.53216480  0.24790387  0.49130677  1
  C  C195  1  0.53216480  0.25209613  0.00869323  1
  C  C196  1  0.46783520  0.99130677  0.75209613  1
  C  C197  1  0.46783520  0.50869323  0.74790387  1
  C  C198  1  0.46783520  0.75209613  0.50869323  1
  C  C199  1  0.46783520  0.74790387  0.99130677  1
  C  C200  1  0.00838048  0.97945808  0.39906552  1
  C  C201  1  0.00838048  0.52054192  0.10093448  1
  C  C202  1  0.00838048  0.39906552  0.52054192  1
  C  C203  1  0.00838048  0.10093448  0.97945808  1
  C  C204  1  0.99161952  0.02054192  0.60093448  1
  C  C205  1  0.99161952  0.47945808  0.89906552  1
  C  C206  1  0.99161952  0.60093448  0.47945808  1
  C  C207  1  0.99161952  0.89906552  0.02054192  1
  C  C208  1  0.49361507  0.89411595  0.51946789  1
  C  C209  1  0.49361507  0.60588405  0.98053211  1
  C  C210  1  0.49361507  0.51946789  0.60588405  1
  C  C211  1  0.49361507  0.98053211  0.89411595  1
  C  C212  1  0.50638493  0.10588405  0.48053211  1
  C  C213  1  0.50638493  0.39411595  0.01946789  1
  C  C214  1  0.50638493  0.48053211  0.39411595  1
  C  C215  1  0.50638493  0.01946789  0.10588405  1
