# generated using pymatgen
data_CuNiC8
_symmetry_space_group_name_H-M   'P 1'
_cell_length_a   5.78709800
_cell_length_b   5.42864900
_cell_length_c   9.49846111
_cell_angle_alpha   55.06518442
_cell_angle_beta   90.00000000
_cell_angle_gamma   90.00000000
_symmetry_Int_Tables_number   1
_chemical_formula_structural   CuNiC8
_chemical_formula_sum   'Cu2 Ni2 C16'
_cell_volume   244.63349162
_cell_formula_units_Z   2
loop_
 _symmetry_equiv_pos_site_id
 _symmetry_equiv_pos_as_xyz
  1  'x, y, z'
loop_
 _atom_site_type_symbol
 _atom_site_label
 _atom_site_symmetry_multiplicity
 _atom_site_fract_x
 _atom_site_fract_y
 _atom_site_fract_z
 _atom_site_occupancy
  C  C0  1  0.42838700  0.22946200  0.74898100  1
  C  C1  1  0.57161300  0.77053800  0.25101900  1
  C  C2  1  0.92838700  0.77053800  0.75101900  1
  C  C3  1  0.07161300  0.22946200  0.24898100  1
  Ni  Ni4  1  0.00000000  0.50000000  0.50000000  1
  Ni  Ni5  1  0.50000000  0.50000000  0.00000000  1
  Cu  Cu6  1  0.00000000  0.00000000  0.00000000  1
  Cu  Cu7  1  0.50000000  0.00000000  0.50000000  1
  C  C8  1  0.03934100  0.36236700  0.75054000  1
  C  C9  1  0.96065900  0.63763300  0.24946000  1
  C  C10  1  0.53934100  0.63763300  0.74946000  1
  C  C11  1  0.46065900  0.36236700  0.25054000  1
  C  C12  1  0.70084200  0.86997200  0.94157800  1
  C  C13  1  0.29915800  0.13002800  0.05842200  1
  C  C14  1  0.20084200  0.13002800  0.55842200  1
  C  C15  1  0.79915800  0.86997200  0.44157800  1
  C  C16  1  0.19533600  0.74764800  0.94506100  1
  C  C17  1  0.80466400  0.25235200  0.05493900  1
  C  C18  1  0.69533600  0.25235200  0.55493900  1
  C  C19  1  0.30466400  0.74764800  0.44506100  1
