# generated using pymatgen
data_Cu3(NiC4)4
_symmetry_space_group_name_H-M   'P 1'
_cell_length_a   23.20599779
_cell_length_b   23.20599779
_cell_length_c   23.20599779
_cell_angle_alpha   170.41344812
_cell_angle_beta   170.41344812
_cell_angle_gamma   13.57334059
_symmetry_Int_Tables_number   1
_chemical_formula_structural   Cu3(NiC4)4
_chemical_formula_sum   'Cu3 Ni4 C16'
_cell_volume   346.58767973
_cell_formula_units_Z   1
loop_
 _symmetry_equiv_pos_site_id
 _symmetry_equiv_pos_as_xyz
  1  'x, y, z'
loop_
 _atom_site_type_symbol
 _atom_site_label
 _atom_site_symmetry_multiplicity
 _atom_site_fract_x
 _atom_site_fract_y
 _atom_site_fract_z
 _atom_site_occupancy
  C  C0  1  0.17321300  0.17321300  0.00000000  1
  C  C1  1  0.82678700  0.82678700  0.00000000  1
  Ni  Ni2  1  0.52944400  0.52944400  0.00000000  1
  Ni  Ni3  1  0.38866800  0.38866800  0.00000000  1
  Ni  Ni4  1  0.61133200  0.61133200  0.00000000  1
  Ni  Ni5  1  0.47055600  0.47055600  0.00000000  1
  C  C6  1  0.72484200  0.72484200  0.00000000  1
  C  C7  1  0.27515800  0.27515800  0.00000000  1
  Cu  Cu8  1  0.07875000  0.07875000  0.00000000  1
  Cu  Cu9  1  0.92125000  0.92125000  0.00000000  1
  Cu  Cu10  1  0.00000000  0.00000000  0.00000000  1
  C  C11  1  0.90073400  0.40073400  0.50000000  1
  C  C12  1  0.03191700  0.53191700  0.50000000  1
  C  C13  1  0.22571000  0.22571000  0.00000000  1
  C  C14  1  0.46808300  0.96808300  0.50000000  1
  C  C15  1  0.77429000  0.77429000  0.00000000  1
  C  C16  1  0.59926600  0.09926600  0.50000000  1
  C  C17  1  0.09926600  0.59926600  0.50000000  1
  C  C18  1  0.35003500  0.35003500  0.00000000  1
  C  C19  1  0.40073400  0.90073400  0.50000000  1
  C  C20  1  0.53191700  0.03191700  0.50000000  1
  C  C21  1  0.96808300  0.46808300  0.50000000  1
  C  C22  1  0.64996500  0.64996500  0.00000000  1
