# generated using pymatgen
data_CuNiC8
_symmetry_space_group_name_H-M   'P 1'
_cell_length_a   5.43782000
_cell_length_b   5.50522100
_cell_length_c   7.74591000
_cell_angle_alpha   90.00000000
_cell_angle_beta   90.00000000
_cell_angle_gamma   90.00000000
_symmetry_Int_Tables_number   1
_chemical_formula_structural   CuNiC8
_chemical_formula_sum   'Cu2 Ni2 C16'
_cell_volume   231.88466677
_cell_formula_units_Z   2
loop_
 _symmetry_equiv_pos_site_id
 _symmetry_equiv_pos_as_xyz
  1  'x, y, z'
loop_
 _atom_site_type_symbol
 _atom_site_label
 _atom_site_symmetry_multiplicity
 _atom_site_fract_x
 _atom_site_fract_y
 _atom_site_fract_z
 _atom_site_occupancy
  Ni  Ni0  1  0.49564200  0.77709600  0.50000000  1
  Ni  Ni1  1  0.99564200  0.22290400  0.00000000  1
  Cu  Cu2  1  0.00550400  0.29001000  0.50000000  1
  Cu  Cu3  1  0.50550400  0.70999000  0.00000000  1
  C  C4  1  0.50367400  0.24338000  0.75121700  1
  C  C5  1  0.00367400  0.75662000  0.25121700  1
  C  C6  1  0.50367400  0.24338000  0.24878300  1
  C  C7  1  0.00367400  0.75662000  0.74878300  1
  C  C8  1  0.57165800  0.23509900  0.50000000  1
  C  C9  1  0.94173200  0.73416100  0.50000000  1
  C  C10  1  0.44173200  0.26583900  0.00000000  1
  C  C11  1  0.07165800  0.76490100  0.00000000  1
  C  C12  1  0.28206800  0.53352300  0.72038500  1
  C  C13  1  0.20699000  0.04208300  0.28755400  1
  C  C14  1  0.70699000  0.95791700  0.21244600  1
  C  C15  1  0.78206800  0.46647700  0.77961500  1
  C  C16  1  0.70699000  0.95791700  0.78755400  1
  C  C17  1  0.78206800  0.46647700  0.22038500  1
  C  C18  1  0.28206800  0.53352300  0.27961500  1
  C  C19  1  0.20699000  0.04208300  0.71244600  1
