# generated using pymatgen
data_CuNiC16
_symmetry_space_group_name_H-M   'P 1'
_cell_length_a   5.50654512
_cell_length_b   5.50654512
_cell_length_c   7.41679105
_cell_angle_alpha   90.00000000
_cell_angle_beta   90.00000000
_cell_angle_gamma   97.48673730
_symmetry_Int_Tables_number   1
_chemical_formula_structural   CuNiC16
_chemical_formula_sum   'Cu1 Ni1 C16'
_cell_volume   222.97503337
_cell_formula_units_Z   1
loop_
 _symmetry_equiv_pos_site_id
 _symmetry_equiv_pos_as_xyz
  1  'x, y, z'
loop_
 _atom_site_type_symbol
 _atom_site_label
 _atom_site_symmetry_multiplicity
 _atom_site_fract_x
 _atom_site_fract_y
 _atom_site_fract_z
 _atom_site_occupancy
  Ni  Ni0  1  0.99420300  0.00579700  0.50000000  1
  Cu  Cu1  1  0.45818277  0.54181723  -0.00000000  1
  C  C2  1  0.47722657  0.03635686  0.25541774  1
  C  C3  1  0.47722657  0.03635686  0.74458226  1
  C  C4  1  0.96364314  0.52277343  0.74458226  1
  C  C5  1  0.96364314  0.52277343  0.25541774  1
  C  C6  1  0.29881934  0.26251572  0.24854930  1
  C  C7  1  0.73748428  0.70118066  0.24854930  1
  C  C8  1  0.73748428  0.70118066  0.75145070  1
  C  C9  1  0.29881934  0.26251572  0.75145070  1
  C  C10  1  0.24570357  0.75429643  0.21870707  1
  C  C11  1  0.78486587  0.21513413  0.27972608  1
  C  C12  1  0.78486587  0.21513413  0.72027392  1
  C  C13  1  0.24570357  0.75429643  0.78129293  1
  C  C14  1  0.53645008  0.01620536  0.00000000  1
  C  C15  1  0.46608993  0.96890599  0.50000000  1
  C  C16  1  0.98379464  0.46354992  -0.00000000  1
  C  C17  1  0.03109401  0.53391007  0.50000000  1
