# generated using pymatgen
data_Cu5Ni2C25
_symmetry_space_group_name_H-M   'P 1'
_cell_length_a   9.85920249
_cell_length_b   9.85920249
_cell_length_c   10.22806234
_cell_angle_alpha   84.58399094
_cell_angle_beta   84.58399094
_cell_angle_gamma   17.05132321
_symmetry_Int_Tables_number   1
_chemical_formula_structural   Cu5Ni2C25
_chemical_formula_sum   'Cu5 Ni2 C25'
_cell_volume   290.19880634
_cell_formula_units_Z   1
loop_
 _symmetry_equiv_pos_site_id
 _symmetry_equiv_pos_as_xyz
  1  'x, y, z'
loop_
 _atom_site_type_symbol
 _atom_site_label
 _atom_site_symmetry_multiplicity
 _atom_site_fract_x
 _atom_site_fract_y
 _atom_site_fract_z
 _atom_site_occupancy
  C  C0  1  0.37073200  0.37073200  0.93829100  1
  C  C1  1  0.12777600  0.12777600  0.80757000  1
  C  C2  1  0.87646500  0.87646500  0.68092300  1
  C  C3  1  0.62236400  0.62236400  0.55108600  1
  C  C4  1  0.38006000  0.38006000  0.43511000  1
  C  C5  1  0.12538600  0.12538600  0.31795500  1
  C  C6  1  0.87602500  0.87602500  0.19668700  1
  C  C7  1  0.62525600  0.62525600  0.06767100  1
  C  C8  1  0.99797800  0.99797800  0.50078400  1
  Ni  Ni9  1  0.99948600  0.99948600  0.00110500  1
  Ni  Ni10  1  0.49866700  0.49866700  0.74202000  1
  Cu  Cu11  1  0.74912100  0.74912100  0.87494800  1
  Cu  Cu12  1  0.25023800  0.25023800  0.62489600  1
  Cu  Cu13  1  0.75056600  0.75056600  0.37536500  1
  Cu  Cu14  1  0.50400600  0.50400600  0.27348800  1
  Cu  Cu15  1  0.25002000  0.25002000  0.12489100  1
  C  C16  1  0.44346800  0.44346800  0.07545100  1
  C  C17  1  0.19153700  0.19153700  0.96466100  1
  C  C18  1  0.94666900  0.94666900  0.84141900  1
  C  C19  1  0.69168400  0.69168400  0.71483500  1
  C  C20  1  0.44209800  0.44209800  0.61249100  1
  C  C21  1  0.19333500  0.19333500  0.46565200  1
  C  C22  1  0.94045700  0.94045700  0.33671900  1
  C  C23  1  0.69335900  0.69335900  0.21350900  1
  C  C24  1  0.30636300  0.30636300  0.78692300  1
  C  C25  1  0.05559600  0.05559600  0.67100000  1
  C  C26  1  0.80712000  0.80712000  0.53613000  1
  C  C27  1  0.56326100  0.56326100  0.39649500  1
  C  C28  1  0.30690100  0.30690100  0.28449200  1
  C  C29  1  0.05334700  0.05334700  0.14368200  1
  C  C30  1  0.80771100  0.80771100  0.03431700  1
  C  C31  1  0.55294900  0.55294900  0.90943800  1
