# generated using pymatgen
data_CuNiC18
_symmetry_space_group_name_H-M   'P 1'
_cell_length_a   8.41919400
_cell_length_b   8.83438333
_cell_length_c   12.47743869
_cell_angle_alpha   89.14184233
_cell_angle_beta   88.11902886
_cell_angle_gamma   89.88984297
_symmetry_Int_Tables_number   1
_chemical_formula_structural   CuNiC18
_chemical_formula_sum   'Cu4 Ni4 C72'
_cell_volume   927.44671645
_cell_formula_units_Z   4
loop_
 _symmetry_equiv_pos_site_id
 _symmetry_equiv_pos_as_xyz
  1  'x, y, z'
loop_
 _atom_site_type_symbol
 _atom_site_label
 _atom_site_symmetry_multiplicity
 _atom_site_fract_x
 _atom_site_fract_y
 _atom_site_fract_z
 _atom_site_occupancy
  C  C0  1  0.00390600  0.99841500  0.00051700  1
  C  C1  1  0.00040900  0.10344200  0.25110600  1
  C  C2  1  0.00149500  0.99979900  0.50041800  1
  C  C3  1  0.01455000  0.89220500  0.74814600  1
  C  C4  1  0.28788800  0.81308100  0.04602300  1
  C  C5  1  0.28662200  0.19189700  0.54871800  1
  C  C6  1  0.50466900  0.50846900  0.00043100  1
  C  C7  1  0.50326200  0.39791700  0.25151100  1
  C  C8  1  0.49893700  0.50221900  0.50008100  1
  C  C9  1  0.49657300  0.60668800  0.75310800  1
  C  C10  1  0.71204200  0.80374500  0.45068400  1
  C  C11  1  0.71681000  0.18993300  0.94634900  1
  Ni  Ni12  1  0.21192900  0.49697800  0.64703600  1
  Ni  Ni13  1  0.28720800  0.00665100  0.85695500  1
  Ni  Ni14  1  0.78932700  0.50153600  0.35280100  1
  Ni  Ni15  1  0.78908500  0.49836800  0.85471100  1
  Cu  Cu16  1  0.21365900  0.49983200  0.14380100  1
  Cu  Cu17  1  0.28510400  0.99612300  0.35780600  1
  Cu  Cu18  1  0.71621900  0.99972800  0.14092300  1
  Cu  Cu19  1  0.71624400  0.00237500  0.64193000  1
  C  C20  1  0.00083000  0.79732400  0.25058100  1
  C  C21  1  0.00245800  0.19705100  0.74909700  1
  C  C22  1  0.15560900  0.35532300  0.39346000  1
  C  C23  1  0.15547000  0.64453900  0.89563500  1
  C  C24  1  0.34594600  0.14669200  0.10410900  1
  C  C25  1  0.34737600  0.85122700  0.60258500  1
  C  C26  1  0.50318400  0.70622100  0.24902300  1
  C  C27  1  0.50113400  0.29589200  0.74964900  1
  C  C28  1  0.65366300  0.14665800  0.39587000  1
  C  C29  1  0.64422300  0.85666400  0.89800900  1
  C  C30  1  0.83940400  0.35635300  0.10246700  1
  C  C31  1  0.84600000  0.64284100  0.60855600  1
  C  C32  1  0.00702500  0.41751600  0.10672200  1
  C  C33  1  0.01614400  0.58170800  0.60691000  1
  C  C34  1  0.06897000  0.90713900  0.33488400  1
  C  C35  1  0.07738300  0.08769600  0.83516400  1
  C  C36  1  0.12651400  0.70184200  0.19131800  1
  C  C37  1  0.12772800  0.29118600  0.68585100  1
  C  C38  1  0.13923300  0.17824000  0.40637200  1
  C  C39  1  0.13775800  0.82083000  0.90799300  1
  C  C40  1  0.24721600  0.40302000  0.28936900  1
  C  C41  1  0.24495100  0.05827000  0.02414900  1
  C  C42  1  0.25703800  0.40504300  0.48791800  1
  C  C43  1  0.25370900  0.59927400  0.79563200  1
  C  C44  1  0.25021900  0.93658600  0.51546300  1
  C  C45  1  0.27496500  0.09933100  0.21566400  1
  C  C46  1  0.25155900  0.59299800  0.99470500  1
  C  C47  1  0.26829300  0.90095800  0.70910100  1
  C  C48  1  0.34190500  0.32121400  0.08801700  1
  C  C49  1  0.34898700  0.67623600  0.58969000  1
  C  C50  1  0.38270000  0.80139200  0.31214700  1
  C  C51  1  0.38366500  0.20195100  0.81766100  1
  C  C52  1  0.43277300  0.59583300  0.16664200  1
  C  C53  1  0.42320600  0.40410000  0.66397800  1
  C  C54  1  0.47623900  0.10377100  0.40863800  1
  C  C55  1  0.46508900  0.90142500  0.91105600  1
  C  C56  1  0.52437100  0.10649600  0.09171000  1
  C  C57  1  0.52518900  0.89540900  0.59151500  1
  C  C58  1  0.57894600  0.60108400  0.33789400  1
  C  C59  1  0.57639100  0.40528100  0.83220800  1
  C  C60  1  0.62016000  0.80514900  0.18491700  1
  C  C61  1  0.61682700  0.19952500  0.68410700  1
  C  C62  1  0.65322300  0.32209800  0.40690200  1
  C  C63  1  0.64097500  0.68411600  0.91384300  1
  C  C64  1  0.72985000  0.09561900  0.28787700  1
  C  C65  1  0.74421500  0.40975600  0.00223900  1
  C  C66  1  0.71607400  0.90620300  0.78771700  1
  C  C67  1  0.75249500  0.06192500  0.48227900  1
  C  C68  1  0.73848600  0.40010400  0.20153300  1
  C  C69  1  0.74343300  0.59173400  0.51543600  1
  C  C70  1  0.74497300  0.94367400  0.98010000  1
  C  C71  1  0.75547800  0.59724000  0.71437800  1
  C  C72  1  0.85582900  0.18013900  0.08805900  1
  C  C73  1  0.86152200  0.81942800  0.59575300  1
  C  C74  1  0.87245400  0.70614600  0.31385400  1
  C  C75  1  0.87527900  0.28286000  0.81243000  1
  C  C76  1  0.93276000  0.90766600  0.16372900  1
  C  C77  1  0.93536800  0.08580700  0.66507000  1
  C  C78  1  0.98517100  0.41604600  0.39489400  1
  C  C79  1  0.98603100  0.58274400  0.89441500  1
