# generated using pymatgen
data_Cu2NiC7
_symmetry_space_group_name_H-M   'P 1'
_cell_length_a   5.72868300
_cell_length_b   7.83749661
_cell_length_c   8.65354148
_cell_angle_alpha   106.32121646
_cell_angle_beta   88.80375563
_cell_angle_gamma   109.81119434
_symmetry_Int_Tables_number   1
_chemical_formula_structural   Cu2NiC7
_chemical_formula_sum   'Cu4 Ni2 C14'
_cell_volume   349.61334415
_cell_formula_units_Z   2
loop_
 _symmetry_equiv_pos_site_id
 _symmetry_equiv_pos_as_xyz
  1  'x, y, z'
loop_
 _atom_site_type_symbol
 _atom_site_label
 _atom_site_symmetry_multiplicity
 _atom_site_fract_x
 _atom_site_fract_y
 _atom_site_fract_z
 _atom_site_occupancy
  C  C0  1  0.70537000  0.17250700  0.28726100  1
  C  C1  1  0.29463000  0.82749300  0.71273900  1
  C  C2  1  0.57848900  0.19524500  0.79649000  1
  C  C3  1  0.42151100  0.80475500  0.20351000  1
  Ni  Ni4  1  0.49003400  0.04541100  0.25979100  1
  Ni  Ni5  1  0.50996600  0.95458900  0.74020900  1
  Cu  Cu6  1  0.00486600  0.84599500  0.72104100  1
  Cu  Cu7  1  0.99513400  0.15400500  0.27895900  1
  Cu  Cu8  1  0.71340000  0.40314200  0.34203300  1
  Cu  Cu9  1  0.28660000  0.59685800  0.65796700  1
  C  C10  1  0.37509600  0.18831300  0.66414000  1
  C  C11  1  0.62490400  0.81168700  0.33586000  1
  C  C12  1  0.66174400  0.42353100  0.84869100  1
  C  C13  1  0.33825600  0.57646900  0.15130900  1
  C  C14  1  0.78189100  0.20990700  0.66395300  1
  C  C15  1  0.21810900  0.79009300  0.33604700  1
  C  C16  1  0.78843400  0.21791300  0.92950200  1
  C  C17  1  0.21156600  0.78208700  0.07049800  1
  C  C18  1  0.38158000  0.19553500  0.93371800  1
  C  C19  1  0.61842000  0.80446500  0.06628200  1
