# generated using pymatgen
data_CuNiC62
_symmetry_space_group_name_H-M   'P 1'
_cell_length_a   6.00964236
_cell_length_b   6.00952700
_cell_length_c   23.33094900
_cell_angle_alpha   90.00000000
_cell_angle_beta   90.00000000
_cell_angle_gamma   60.00011525
_symmetry_Int_Tables_number   1
_chemical_formula_structural   CuNiC62
_chemical_formula_sum   'Cu1 Ni1 C62'
_cell_volume   729.71363106
_cell_formula_units_Z   1
loop_
 _symmetry_equiv_pos_site_id
 _symmetry_equiv_pos_as_xyz
  1  'x, y, z'
loop_
 _atom_site_type_symbol
 _atom_site_label
 _atom_site_symmetry_multiplicity
 _atom_site_fract_x
 _atom_site_fract_y
 _atom_site_fract_z
 _atom_site_occupancy
  Ni  Ni0  1  0.66662500  0.66663900  0.75000000  1
  Cu  Cu1  1  0.33342500  0.33379300  0.25000000  1
  C  C2  1  0.16843900  0.66333400  0.38861200  1
  C  C3  1  0.66346600  0.16824400  0.38861700  1
  C  C4  1  0.16836400  0.16832900  0.38862100  1
  C  C5  1  0.83182400  0.33607200  0.60740100  1
  C  C6  1  0.33591500  0.83201200  0.60740200  1
  C  C7  1  0.83190600  0.83194000  0.60739700  1
  C  C8  1  0.83182400  0.33607200  0.89259900  1
  C  C9  1  0.33591500  0.83201200  0.89259800  1
  C  C10  1  0.83190600  0.83194000  0.89260300  1
  C  C11  1  0.16843900  0.66333400  0.11138800  1
  C  C12  1  0.66346600  0.16824400  0.11138300  1
  C  C13  1  0.16836400  0.16832900  0.11137900  1
  C  C14  1  0.33328100  0.33336500  0.52621000  1
  C  C15  1  0.66674400  0.66666200  0.47030300  1
  C  C16  1  0.66674400  0.66666200  0.02969700  1
  C  C17  1  0.33328100  0.33336500  0.97379000  1
  C  C18  1  0.00004600  0.00002300  0.49770800  1
  C  C19  1  0.00004600  0.00002300  0.00229200  1
  C  C20  1  0.33325600  0.33331300  0.68994900  1
  C  C21  1  0.66675200  0.66667800  0.30824600  1
  C  C22  1  0.66675200  0.66667800  0.19175400  1
  C  C23  1  0.33325600  0.33331300  0.81005100  1
  C  C24  1  0.99994000  0.99996300  0.75000000  1
  C  C25  1  0.00004700  0.00000400  0.25000000  1
  C  C26  1  0.50374300  0.99233600  0.64863200  1
  C  C27  1  0.99222000  0.50381300  0.64862800  1
  C  C28  1  0.50371000  0.50386600  0.64863400  1
  C  C29  1  0.49198600  0.01611500  0.34606000  1
  C  C30  1  0.01637200  0.49186000  0.34603100  1
  C  C31  1  0.49193500  0.49174100  0.34601100  1
  C  C32  1  0.49198600  0.01611500  0.15394000  1
  C  C33  1  0.01637200  0.49186000  0.15396900  1
  C  C34  1  0.49193500  0.49174100  0.15398900  1
  C  C35  1  0.50374300  0.99233600  0.85136800  1
  C  C36  1  0.99222000  0.50381300  0.85137200  1
  C  C37  1  0.50371000  0.50386600  0.85136600  1
  C  C38  1  0.99989200  0.00000000  0.65082200  1
  C  C39  1  0.00009500  0.99999700  0.34642600  1
  C  C40  1  0.00009500  0.99999700  0.15357400  1
  C  C41  1  0.99989200  0.00000000  0.84917800  1
  C  C42  1  0.18266600  0.63439200  0.75000000  1
  C  C43  1  0.63439000  0.18276300  0.75000000  1
  C  C44  1  0.18276600  0.18271200  0.75000000  1
  C  C45  1  0.81733900  0.36567300  0.25000000  1
  C  C46  1  0.36557700  0.81716100  0.25000000  1
  C  C47  1  0.81727600  0.81749300  0.25000000  1
  C  C48  1  0.33340000  0.33333100  0.44306200  1
  C  C49  1  0.66657800  0.66667200  0.55353000  1
  C  C50  1  0.66657800  0.66667200  0.94647000  1
  C  C51  1  0.33340000  0.33333100  0.05693800  1
  C  C52  1  0.15489600  0.69006900  0.55094600  1
  C  C53  1  0.69000900  0.15495800  0.55093900  1
  C  C54  1  0.15491500  0.15499300  0.55095000  1
  C  C55  1  0.84424500  0.31162500  0.44471400  1
  C  C56  1  0.31168200  0.84416600  0.44472300  1
  C  C57  1  0.84430300  0.84419300  0.44471700  1
  C  C58  1  0.84424500  0.31162500  0.05528600  1
  C  C59  1  0.31168200  0.84416600  0.05527700  1
  C  C60  1  0.84430300  0.84419300  0.05528300  1
  C  C61  1  0.15489600  0.69006900  0.94905400  1
  C  C62  1  0.69000900  0.15495800  0.94906100  1
  C  C63  1  0.15491500  0.15499300  0.94905000  1
