# generated using pymatgen
data_CuNi7C32
_symmetry_space_group_name_H-M   'P 1'
_cell_length_a   7.84161978
_cell_length_b   7.84161978
_cell_length_c   7.84161921
_cell_angle_alpha   89.99061158
_cell_angle_beta   89.99061158
_cell_angle_gamma   89.99060719
_symmetry_Int_Tables_number   1
_chemical_formula_structural   CuNi7C32
_chemical_formula_sum   'Cu1 Ni7 C32'
_cell_volume   482.18899295
_cell_formula_units_Z   1
loop_
 _symmetry_equiv_pos_site_id
 _symmetry_equiv_pos_as_xyz
  1  'x, y, z'
loop_
 _atom_site_type_symbol
 _atom_site_label
 _atom_site_symmetry_multiplicity
 _atom_site_fract_x
 _atom_site_fract_y
 _atom_site_fract_z
 _atom_site_occupancy
  Ni  Ni0  1  0.24882000  0.24882000  0.75123700  1
  Ni  Ni1  1  0.75116500  0.24884200  0.75116500  1
  Ni  Ni2  1  0.75123700  0.24882000  0.24882000  1
  Ni  Ni3  1  0.24884200  0.75116500  0.75116500  1
  Ni  Ni4  1  0.75113700  0.75113700  0.75113700  1
  Ni  Ni5  1  0.24882000  0.75123700  0.24882000  1
  Ni  Ni6  1  0.75116500  0.75116500  0.24884200  1
  Cu  Cu7  1  0.24886800  0.24886800  0.24886800  1
  C  C8  1  0.49919200  0.00058600  0.00058600  1
  C  C9  1  0.00058600  0.00058600  0.49919200  1
  C  C10  1  0.49942100  0.00054100  0.49942100  1
  C  C11  1  0.00058600  0.49919200  0.00058600  1
  C  C12  1  0.49942100  0.49942100  0.00054100  1
  C  C13  1  0.00054100  0.49942100  0.49942100  1
  C  C14  1  0.49946200  0.49946200  0.49946200  1
  C  C15  1  0.00050000  0.00050000  0.00050000  1
  C  C16  1  0.00181200  0.24735600  0.00181200  1
  C  C17  1  0.49839700  0.24914100  0.00163000  1
  C  C18  1  0.00163000  0.24914100  0.49839700  1
  C  C19  1  0.49835200  0.24973900  0.49835200  1
  C  C20  1  0.00020200  0.75251200  0.00020200  1
  C  C21  1  0.49976300  0.75088800  0.00025200  1
  C  C22  1  0.00025200  0.75088800  0.49976300  1
  C  C23  1  0.49974800  0.75025900  0.49974800  1
  C  C24  1  0.00020200  0.00020200  0.75251200  1
  C  C25  1  0.49976300  0.00025200  0.75088800  1
  C  C26  1  0.00181200  0.00181200  0.24735600  1
  C  C27  1  0.49839700  0.00163000  0.24914100  1
  C  C28  1  0.00025200  0.49976300  0.75088800  1
  C  C29  1  0.49974800  0.49974800  0.75025900  1
  C  C30  1  0.00163000  0.49839700  0.24914100  1
  C  C31  1  0.49835200  0.49835200  0.24973900  1
  C  C32  1  0.24735600  0.00181200  0.00181200  1
  C  C33  1  0.75251200  0.00020200  0.00020200  1
  C  C34  1  0.24914100  0.00163000  0.49839700  1
  C  C35  1  0.75088800  0.00025200  0.49976300  1
  C  C36  1  0.24914100  0.49839700  0.00163000  1
  C  C37  1  0.75088800  0.49976300  0.00025200  1
  C  C38  1  0.24973900  0.49835200  0.49835200  1
  C  C39  1  0.75025900  0.49974800  0.49974800  1
