# generated using pymatgen
data_Cu8(Ni8C7)3
_symmetry_space_group_name_H-M   'P 1'
_cell_length_a   9.67550500
_cell_length_b   9.70788963
_cell_length_c   9.79659811
_cell_angle_alpha   113.80104529
_cell_angle_beta   105.20619997
_cell_angle_gamma   109.00670591
_symmetry_Int_Tables_number   1
_chemical_formula_structural   Cu8(Ni8C7)3
_chemical_formula_sum   'Cu8 Ni24 C21'
_cell_volume   708.79454825
_cell_formula_units_Z   1
loop_
 _symmetry_equiv_pos_site_id
 _symmetry_equiv_pos_as_xyz
  1  'x, y, z'
loop_
 _atom_site_type_symbol
 _atom_site_label
 _atom_site_symmetry_multiplicity
 _atom_site_fract_x
 _atom_site_fract_y
 _atom_site_fract_z
 _atom_site_occupancy
  C  C0  1  0.49152200  0.84614400  0.20416300  1
  C  C1  1  0.50847800  0.15385600  0.79583700  1
  C  C2  1  0.71379800  0.70398000  0.44080000  1
  C  C3  1  0.28620200  0.29602000  0.55920000  1
  C  C4  1  0.12695400  0.69449400  0.98490100  1
  C  C5  1  0.87304600  0.30550600  0.01509900  1
  C  C6  1  0.44591100  0.21068400  0.21452000  1
  C  C7  1  0.55408900  0.78931600  0.78548000  1
  C  C8  1  0.03797700  0.86634700  0.63376000  1
  C  C9  1  0.96202300  0.13365300  0.36624000  1
  C  C10  1  0.69856300  0.63422400  0.08255600  1
  C  C11  1  0.30143700  0.36577600  0.91744400  1
  C  C12  1  0.50000000  0.00000000  0.50000000  1
  C  C13  1  0.00000000  0.00000000  0.00000000  1
  C  C14  1  0.00000000  0.50000000  0.50000000  1
  C  C15  1  0.73347300  0.40543800  0.35687300  1
  C  C16  1  0.26652700  0.59456200  0.64312700  1
  C  C17  1  0.71928700  0.51812700  0.81645000  1
  C  C18  1  0.28071300  0.48187300  0.18355000  1
  C  C19  1  0.16705800  0.89919900  0.22757700  1
  C  C20  1  0.83294200  0.10080100  0.77242300  1
  Ni  Ni21  1  0.70165200  0.41695900  0.97255600  1
  Ni  Ni22  1  0.29834800  0.58304100  0.02744400  1
  Ni  Ni23  1  0.89881400  0.58669700  0.67035400  1
  Ni  Ni24  1  0.10118600  0.41330300  0.32964600  1
  Ni  Ni25  1  0.58972900  0.43234500  0.35820000  1
  Ni  Ni26  1  0.41027100  0.56765500  0.64180000  1
  Ni  Ni27  1  0.05713200  0.92809400  0.36235000  1
  Ni  Ni28  1  0.94286800  0.07190600  0.63765000  1
  Ni  Ni29  1  0.70461400  0.66375900  0.82777300  1
  Ni  Ni30  1  0.29538600  0.33624100  0.17222700  1
  Ni  Ni31  1  0.58821100  0.42174600  0.78943200  1
  Ni  Ni32  1  0.41178900  0.57825400  0.21056700  1
  Ni  Ni33  1  0.81326000  0.50933800  0.42113800  1
  Ni  Ni34  1  0.18674000  0.49066200  0.57886200  1
  Ni  Ni35  1  0.34279800  0.04443200  0.10793200  1
  Ni  Ni36  1  0.65720200  0.95556800  0.89206800  1
  Ni  Ni37  1  0.86276600  0.44745100  0.18453800  1
  Ni  Ni38  1  0.13723400  0.55254900  0.81546200  1
  Ni  Ni39  1  0.66299300  0.22974900  0.47393700  1
  Ni  Ni40  1  0.33700700  0.77025100  0.52606300  1
  Ni  Ni41  1  0.18722500  0.75654900  0.30069000  1
  Ni  Ni42  1  0.81277500  0.24345100  0.69931000  1
  Ni  Ni43  1  0.08129200  0.86081200  0.13392200  1
  Ni  Ni44  1  0.91870800  0.13918800  0.86607800  1
  Cu  Cu45  1  0.32902500  0.06585200  0.50518400  1
  Cu  Cu46  1  0.67097500  0.93414800  0.49481600  1
  Cu  Cu47  1  0.76325800  0.84263300  0.17458800  1
  Cu  Cu48  1  0.23674200  0.15736700  0.82541100  1
  Cu  Cu49  1  0.59856000  0.07820800  0.26519800  1
  Cu  Cu50  1  0.40144000  0.92179200  0.73480200  1
  Cu  Cu51  1  0.99327600  0.85297700  0.90255900  1
  Cu  Cu52  1  0.00672400  0.14702300  0.09744100  1
