# generated using pymatgen
data_CuNiC3
_symmetry_space_group_name_H-M   'P 1'
_cell_length_a   15.35969314
_cell_length_b   15.35969314
_cell_length_c   15.35969314
_cell_angle_alpha   109.47122063
_cell_angle_beta   109.47122063
_cell_angle_gamma   109.47122063
_symmetry_Int_Tables_number   1
_chemical_formula_structural   CuNiC3
_chemical_formula_sum   'Cu24 Ni24 C72'
_cell_volume   2789.49589977
_cell_formula_units_Z   24
loop_
 _symmetry_equiv_pos_site_id
 _symmetry_equiv_pos_as_xyz
  1  'x, y, z'
loop_
 _atom_site_type_symbol
 _atom_site_label
 _atom_site_symmetry_multiplicity
 _atom_site_fract_x
 _atom_site_fract_y
 _atom_site_fract_z
 _atom_site_occupancy
  C  C0  1  0.00000000  0.00000000  -0.00000000  1
  C  C1  1  0.50000000  0.00000000  0.50000000  1
  C  C2  1  0.50000000  0.50000000  -0.00000000  1
  C  C3  1  0.00000000  0.50000000  0.50000000  1
  C  C4  1  0.55682482  0.30682482  0.75000000  1
  C  C5  1  0.44317518  0.69317518  0.25000000  1
  C  C6  1  0.94317518  0.19317518  0.25000000  1
  C  C7  1  0.30682482  0.75000000  0.55682482  1
  C  C8  1  0.05682482  0.80682482  0.75000000  1
  C  C9  1  0.69317518  0.25000000  0.44317518  1
  C  C10  1  0.19317518  0.25000000  0.94317518  1
  C  C11  1  0.80682482  0.75000000  0.05682482  1
  C  C12  1  0.75000000  0.55682482  0.30682482  1
  C  C13  1  0.25000000  0.44317518  0.69317518  1
  C  C14  1  0.25000000  0.94317518  0.19317518  1
  C  C15  1  0.75000000  0.05682482  0.80682482  1
  C  C16  1  0.64060996  0.53979797  0.52988003  1
  C  C17  1  0.35939004  0.46020203  0.47011997  1
  C  C18  1  0.85939004  0.88927007  0.39918801  1
  C  C19  1  0.49008206  0.96020203  0.10081199  1
  C  C20  1  0.53979797  0.52988003  0.64060996  1
  C  C21  1  0.14060996  0.11072993  0.60081199  1
  C  C22  1  0.50991794  0.03979797  0.89918801  1
  C  C23  1  0.46020203  0.47011997  0.35939004  1
  C  C24  1  0.00991794  0.61072993  0.97011997  1
  C  C25  1  0.88927007  0.39918801  0.85939004  1
  C  C26  1  0.99008206  0.38927007  0.02988003  1
  C  C27  1  0.11072993  0.60081199  0.14060996  1
  C  C28  1  0.96020203  0.10081199  0.49008206  1
  C  C29  1  0.03979797  0.89918801  0.50991794  1
  C  C30  1  0.61072993  0.97011997  0.00991794  1
  C  C31  1  0.38927007  0.02988003  0.99008206  1
  C  C32  1  0.52988003  0.64060996  0.53979797  1
  C  C33  1  0.47011997  0.35939004  0.46020203  1
  C  C34  1  0.10081199  0.49008206  0.96020203  1
  C  C35  1  0.89918801  0.50991794  0.03979797  1
  C  C36  1  0.97011997  0.00991794  0.61072993  1
  C  C37  1  0.02988003  0.99008206  0.38927007  1
  C  C38  1  0.39918801  0.85939004  0.88927007  1
  C  C39  1  0.60081199  0.14060996  0.11072993  1
  C  C40  1  0.71725511  0.71725511  0.71725511  1
  C  C41  1  0.28274489  0.28274489  0.28274489  1
  C  C42  1  0.78274489  -0.00000000  0.50000000  1
  C  C43  1  0.50000000  0.78274489  -0.00000000  1
  C  C44  1  0.21725511  0.00000000  0.50000000  1
  C  C45  1  0.50000000  0.21725511  -0.00000000  1
  C  C46  1  0.00000000  0.50000000  0.78274489  1
  C  C47  1  -0.00000000  0.50000000  0.21725511  1
  Ni  Ni48  1  0.79523850  0.57650435  0.56095465  1
  Ni  Ni49  1  0.20476150  0.42349565  0.43904535  1
  Ni  Ni50  1  0.70476150  0.76571614  0.28126585  1
  Ni  Ni51  1  0.48445030  0.92349565  0.21873415  1
  Ni  Ni52  1  0.57650435  0.56095465  0.79523850  1
  Ni  Ni53  1  0.29523850  0.23428386  0.71873415  1
  Ni  Ni54  1  0.51554970  0.07650435  0.78126585  1
  Ni  Ni55  1  0.42349565  0.43904535  0.20476150  1
  Ni  Ni56  1  0.01554970  0.73428386  0.93904535  1
  Ni  Ni57  1  0.76571614  0.28126585  0.70476150  1
  Ni  Ni58  1  0.98445030  0.26571614  0.06095465  1
  Ni  Ni59  1  0.23428386  0.71873415  0.29523850  1
  Ni  Ni60  1  0.92349565  0.21873415  0.48445030  1
  Ni  Ni61  1  0.07650435  0.78126585  0.51554970  1
  Ni  Ni62  1  0.73428386  0.93904535  0.01554970  1
  Ni  Ni63  1  0.26571614  0.06095465  0.98445030  1
  Ni  Ni64  1  0.56095465  0.79523850  0.57650435  1
  Ni  Ni65  1  0.43904535  0.20476150  0.42349565  1
  Ni  Ni66  1  0.21873415  0.48445030  0.92349565  1
  Ni  Ni67  1  0.78126585  0.51554970  0.07650435  1
  Ni  Ni68  1  0.93904535  0.01554970  0.73428386  1
  Ni  Ni69  1  0.06095465  0.98445030  0.26571614  1
  Ni  Ni70  1  0.28126585  0.70476150  0.76571614  1
  Ni  Ni71  1  0.71873415  0.29523850  0.23428386  1
  C  C72  1  0.61895458  0.63752984  0.43604065  1
  C  C73  1  0.38104542  0.36247016  0.56395935  1
  C  C74  1  0.88104542  0.81708608  0.51857527  1
  C  C75  1  0.29851081  0.86247016  0.98142473  1
  C  C76  1  0.63752984  0.43604065  0.61895458  1
  C  C77  1  0.11895458  0.18291392  0.48142473  1
  C  C78  1  0.70148919  0.13752984  0.01857527  1
  C  C79  1  0.36247016  0.56395935  0.38104542  1
  C  C80  1  0.20148919  0.68291392  0.06395935  1
  C  C81  1  0.81708608  0.51857527  0.88104542  1
  C  C82  1  0.79851081  0.31708608  0.93604065  1
  C  C83  1  0.18291392  0.48142473  0.11895458  1
  C  C84  1  0.86247016  0.98142473  0.29851081  1
  C  C85  1  0.13752984  0.01857527  0.70148919  1
  C  C86  1  0.68291392  0.06395935  0.20148919  1
  C  C87  1  0.31708608  0.93604065  0.79851081  1
  C  C88  1  0.43604065  0.61895458  0.63752984  1
  C  C89  1  0.56395935  0.38104542  0.36247016  1
  C  C90  1  0.98142473  0.29851081  0.86247016  1
  C  C91  1  0.01857527  0.70148919  0.13752984  1
  C  C92  1  0.06395935  0.20148919  0.68291392  1
  C  C93  1  0.93604065  0.79851081  0.31708608  1
  C  C94  1  0.51857527  0.88104542  0.81708608  1
  C  C95  1  0.48142473  0.11895458  0.18291392  1
  Cu  Cu96  1  0.88196659  0.59470476  0.57834233  1
  Cu  Cu97  1  0.11803341  0.40529524  0.42165767  1
  Cu  Cu98  1  0.61803341  0.69637575  0.21273817  1
  Cu  Cu99  1  0.48363758  0.90529524  0.28726183  1
  Cu  Cu100  1  0.59470476  0.57834233  0.88196659  1
  Cu  Cu101  1  0.38196659  0.30362425  0.78726183  1
  Cu  Cu102  1  0.51636242  0.09470476  0.71273817  1
  Cu  Cu103  1  0.40529524  0.42165767  0.11803341  1
  Cu  Cu104  1  0.01636242  0.80362425  0.92165767  1
  Cu  Cu105  1  0.69637575  0.21273817  0.61803341  1
  Cu  Cu106  1  0.98363758  0.19637575  0.07834233  1
  Cu  Cu107  1  0.30362425  0.78726183  0.38196659  1
  Cu  Cu108  1  0.90529524  0.28726183  0.48363758  1
  Cu  Cu109  1  0.09470476  0.71273817  0.51636242  1
  Cu  Cu110  1  0.80362425  0.92165767  0.01636242  1
  Cu  Cu111  1  0.19637575  0.07834233  0.98363758  1
  Cu  Cu112  1  0.57834233  0.88196659  0.59470476  1
  Cu  Cu113  1  0.42165767  0.11803341  0.40529524  1
  Cu  Cu114  1  0.28726183  0.48363758  0.90529524  1
  Cu  Cu115  1  0.71273817  0.51636242  0.09470476  1
  Cu  Cu116  1  0.92165767  0.01636242  0.80362425  1
  Cu  Cu117  1  0.07834233  0.98363758  0.19637575  1
  Cu  Cu118  1  0.21273817  0.61803341  0.69637575  1
  Cu  Cu119  1  0.78726183  0.38196659  0.30362425  1
