# generated using pymatgen
data_Cu2(NiC5)3
_symmetry_space_group_name_H-M   'P 1'
_cell_length_a   6.69067568
_cell_length_b   6.69067568
_cell_length_c   6.69067575
_cell_angle_alpha   62.56346673
_cell_angle_beta   62.56346673
_cell_angle_gamma   62.56346504
_symmetry_Int_Tables_number   1
_chemical_formula_structural   Cu2(NiC5)3
_chemical_formula_sum   'Cu2 Ni3 C15'
_cell_volume   223.87785507
_cell_formula_units_Z   1
loop_
 _symmetry_equiv_pos_site_id
 _symmetry_equiv_pos_as_xyz
  1  'x, y, z'
loop_
 _atom_site_type_symbol
 _atom_site_label
 _atom_site_symmetry_multiplicity
 _atom_site_fract_x
 _atom_site_fract_y
 _atom_site_fract_z
 _atom_site_occupancy
  C  C0  1  0.00000100  0.00000100  0.00000100  1
  Ni  Ni1  1  0.49999500  0.00000600  0.00000600  1
  Ni  Ni2  1  0.00000600  0.00000600  0.49999500  1
  Ni  Ni3  1  0.00000600  0.49999500  0.00000600  1
  Cu  Cu4  1  0.68191800  0.68191800  0.68191800  1
  Cu  Cu5  1  0.31798500  0.31798500  0.31798500  1
  C  C6  1  0.58692400  0.58692400  0.58692400  1
  C  C7  1  0.41320400  0.41320400  0.41320400  1
  C  C8  1  0.47679100  0.83870400  0.83870400  1
  C  C9  1  0.83870400  0.83870400  0.47679100  1
  C  C10  1  0.83870400  0.47679100  0.83870400  1
  C  C11  1  0.52322100  0.16131000  0.16131000  1
  C  C12  1  0.16131000  0.16131000  0.52322100  1
  C  C13  1  0.16131000  0.52322100  0.16131000  1
  C  C14  1  0.09510600  0.75874400  0.75874400  1
  C  C15  1  0.75874400  0.75874400  0.09510600  1
  C  C16  1  0.75874400  0.09510600  0.75874400  1
  C  C17  1  0.90489700  0.24126400  0.24126400  1
  C  C18  1  0.24126400  0.24126400  0.90489700  1
  C  C19  1  0.24126400  0.90489700  0.24126400  1
