# generated using pymatgen
data_Cu3NiC4
_symmetry_space_group_name_H-M   'P 1'
_cell_length_a   6.32981300
_cell_length_b   6.31966301
_cell_length_c   6.31966301
_cell_angle_alpha   120.00001056
_cell_angle_beta   90.00000000
_cell_angle_gamma   90.00000000
_symmetry_Int_Tables_number   1
_chemical_formula_structural   Cu3NiC4
_chemical_formula_sum   'Cu6 Ni2 C8'
_cell_volume   218.93203121
_cell_formula_units_Z   2
loop_
 _symmetry_equiv_pos_site_id
 _symmetry_equiv_pos_as_xyz
  1  'x, y, z'
loop_
 _atom_site_type_symbol
 _atom_site_label
 _atom_site_symmetry_multiplicity
 _atom_site_fract_x
 _atom_site_fract_y
 _atom_site_fract_z
 _atom_site_occupancy
  C  C0  1  0.50000000  0.00000000  0.00000000  1
  C  C1  1  0.00000000  0.00000000  0.00000000  1
  C  C2  1  0.75570400  0.80853700  0.30195600  1
  C  C3  1  0.75570400  0.49341900  0.19146300  1
  C  C4  1  0.24429600  0.50658100  0.69804400  1
  C  C5  1  0.75570400  0.69804400  0.50658100  1
  C  C6  1  0.24429600  0.30195600  0.80853700  1
  C  C7  1  0.24429600  0.19146300  0.49341900  1
  Ni  Ni8  1  0.72006000  0.66666700  0.33333300  1
  Ni  Ni9  1  0.27994000  0.33333300  0.66666700  1
  Cu  Cu10  1  0.76548300  0.75602400  0.75319600  1
  Cu  Cu11  1  0.76548300  0.99717200  0.24397600  1
  Cu  Cu12  1  0.23451600  0.00282800  0.24680400  1
  Cu  Cu13  1  0.76548300  0.24680400  0.00282800  1
  Cu  Cu14  1  0.23451600  0.75319600  0.75602400  1
  Cu  Cu15  1  0.23451600  0.24397600  0.99717200  1
