# generated using pymatgen
data_Cu3Ni8C11
_symmetry_space_group_name_H-M   'P 1'
_cell_length_a   20.69930500
_cell_length_b   7.20966900
_cell_length_c   7.89979807
_cell_angle_alpha   61.95298367
_cell_angle_beta   90.00000000
_cell_angle_gamma   90.00000000
_symmetry_Int_Tables_number   1
_chemical_formula_structural   Cu3Ni8C11
_chemical_formula_sum   'Cu12 Ni32 C44'
_cell_volume   1040.47663179
_cell_formula_units_Z   4
loop_
 _symmetry_equiv_pos_site_id
 _symmetry_equiv_pos_as_xyz
  1  'x, y, z'
loop_
 _atom_site_type_symbol
 _atom_site_label
 _atom_site_symmetry_multiplicity
 _atom_site_fract_x
 _atom_site_fract_y
 _atom_site_fract_z
 _atom_site_occupancy
  C  C0  1  0.35881200  0.33238200  0.98117400  1
  C  C1  1  0.14118800  0.33238200  0.48117400  1
  C  C2  1  0.64118800  0.66761800  0.01882600  1
  C  C3  1  0.85881200  0.66761800  0.51882600  1
  Ni  Ni4  1  0.30909500  0.07312400  0.29110000  1
  Ni  Ni5  1  0.19090500  0.07312400  0.79110000  1
  Ni  Ni6  1  0.69090500  0.92687600  0.70890000  1
  Ni  Ni7  1  0.80909500  0.92687600  0.20890000  1
  Ni  Ni8  1  0.26584700  0.06821000  0.12509500  1
  Ni  Ni9  1  0.23415300  0.06821000  0.62509500  1
  Ni  Ni10  1  0.73415300  0.93179000  0.87490500  1
  Ni  Ni11  1  0.76584700  0.93179000  0.37490500  1
  Ni  Ni12  1  0.43042200  0.01821100  0.09536500  1
  Ni  Ni13  1  0.06957800  0.01821100  0.59536500  1
  Ni  Ni14  1  0.56957800  0.98178900  0.90463500  1
  Ni  Ni15  1  0.93042200  0.98178900  0.40463500  1
  Ni  Ni16  1  0.47758000  0.21815400  0.01761200  1
  Ni  Ni17  1  0.02242000  0.21815400  0.51761200  1
  Ni  Ni18  1  0.52242000  0.78184600  0.98238800  1
  Ni  Ni19  1  0.97758000  0.78184600  0.48238800  1
  Ni  Ni20  1  0.45338000  0.53935000  0.77860900  1
  Ni  Ni21  1  0.04662000  0.53935000  0.27860900  1
  Ni  Ni22  1  0.54662000  0.46065000  0.22139100  1
  Ni  Ni23  1  0.95338000  0.46065000  0.72139100  1
  Ni  Ni24  1  0.40673700  0.69286500  0.81644100  1
  Ni  Ni25  1  0.09326300  0.69286500  0.31644100  1
  Ni  Ni26  1  0.59326300  0.30713500  0.18355900  1
  Ni  Ni27  1  0.90673700  0.30713500  0.68355900  1
  Ni  Ni28  1  0.28629100  0.65049300  0.80729100  1
  Ni  Ni29  1  0.21370900  0.65049300  0.30729100  1
  Ni  Ni30  1  0.71370900  0.34950700  0.19270900  1
  Ni  Ni31  1  0.78629100  0.34950700  0.69270900  1
  Ni  Ni32  1  0.24905800  0.48294800  0.99036700  1
  Ni  Ni33  1  0.25094200  0.48294800  0.49036700  1
  Ni  Ni34  1  0.75094200  0.51705200  0.00963300  1
  Ni  Ni35  1  0.74905800  0.51705200  0.50963300  1
  Cu  Cu36  1  0.40889400  0.51860500  0.28666800  1
  Cu  Cu37  1  0.09110600  0.51860500  0.78666800  1
  Cu  Cu38  1  0.59110600  0.48139500  0.71333200  1
  Cu  Cu39  1  0.90889400  0.48139500  0.21333200  1
  Cu  Cu40  1  0.44122700  0.23525100  0.52974900  1
  Cu  Cu41  1  0.05877300  0.23525100  0.02974900  1
  Cu  Cu42  1  0.55877300  0.76474900  0.47025100  1
  Cu  Cu43  1  0.94122700  0.76474900  0.97025100  1
  Cu  Cu44  1  0.35653300  0.09220900  0.68234100  1
  Cu  Cu45  1  0.14346700  0.09220900  0.18234100  1
  Cu  Cu46  1  0.64346700  0.90779100  0.31765900  1
  Cu  Cu47  1  0.85653300  0.90779100  0.81765900  1
  C  C48  1  0.31065400  0.08055300  0.16356600  1
  C  C49  1  0.18934600  0.08055300  0.66356600  1
  C  C50  1  0.68934600  0.91944700  0.83643400  1
  C  C51  1  0.81065400  0.91944700  0.33643400  1
  C  C52  1  0.43754400  0.15553000  0.08938800  1
  C  C53  1  0.06245600  0.15553000  0.58938800  1
  C  C54  1  0.56245600  0.84447000  0.91061200  1
  C  C55  1  0.93754400  0.84447000  0.41061200  1
  C  C56  1  0.40735200  0.57287300  0.78768700  1
  C  C57  1  0.09264800  0.57287300  0.28768700  1
  C  C58  1  0.59264800  0.42712700  0.21231300  1
  C  C59  1  0.90735200  0.42712700  0.71231300  1
  C  C60  1  0.27737900  0.50054000  0.88442300  1
  C  C61  1  0.22262100  0.50054000  0.38442300  1
  C  C62  1  0.72262100  0.49946000  0.11557700  1
  C  C63  1  0.77737900  0.49946000  0.61557700  1
  C  C64  1  0.35461800  0.45287700  0.20843500  1
  C  C65  1  0.14538200  0.45287700  0.70843500  1
  C  C66  1  0.64538200  0.54712300  0.79156500  1
  C  C67  1  0.85461800  0.54712300  0.29156500  1
  C  C68  1  0.46859400  0.56505800  0.16908200  1
  C  C69  1  0.03140600  0.56505800  0.66908200  1
  C  C70  1  0.53140600  0.43494200  0.83091800  1
  C  C71  1  0.96859400  0.43494200  0.33091800  1
  C  C72  1  0.39335400  0.67492200  0.34590300  1
  C  C73  1  0.10664600  0.67492200  0.84590300  1
  C  C74  1  0.60664600  0.32507800  0.65409700  1
  C  C75  1  0.89335400  0.32507800  0.15409700  1
  C  C76  1  0.32151900  0.24449500  0.72138700  1
  C  C77  1  0.17848100  0.24449500  0.22138700  1
  C  C78  1  0.67848100  0.75550500  0.27861300  1
  C  C79  1  0.82151900  0.75550500  0.77861300  1
  C  C80  1  0.31537900  0.01125400  0.57755700  1
  C  C81  1  0.18462100  0.01125400  0.07755700  1
  C  C82  1  0.68462100  0.98874600  0.42244300  1
  C  C83  1  0.81537900  0.98874600  0.92244300  1
  C  C84  1  0.38712400  0.92020600  0.85199000  1
  C  C85  1  0.11287600  0.92020600  0.35199000  1
  C  C86  1  0.61287600  0.07979400  0.14801000  1
  C  C87  1  0.88712400  0.07979400  0.64801000  1
