# generated using pymatgen
data_CuNi7C4
_symmetry_space_group_name_H-M   'P 1'
_cell_length_a   4.25402700
_cell_length_b   8.51896967
_cell_length_c   8.60314685
_cell_angle_alpha   89.78314253
_cell_angle_beta   89.98625404
_cell_angle_gamma   89.89368727
_symmetry_Int_Tables_number   1
_chemical_formula_structural   CuNi7C4
_chemical_formula_sum   'Cu1 Ni7 C4'
_cell_volume   311.77463539
_cell_formula_units_Z   1
loop_
 _symmetry_equiv_pos_site_id
 _symmetry_equiv_pos_as_xyz
  1  'x, y, z'
loop_
 _atom_site_type_symbol
 _atom_site_label
 _atom_site_symmetry_multiplicity
 _atom_site_fract_x
 _atom_site_fract_y
 _atom_site_fract_z
 _atom_site_occupancy
  C  C0  1  0.27538000  0.62702100  0.71790900  1
  C  C1  1  0.78055900  0.86675800  0.27902800  1
  C  C2  1  0.71878000  0.37880300  0.27874200  1
  C  C3  1  0.22317800  0.12684900  0.72385000  1
  Ni  Ni4  1  0.31955800  0.88186500  0.00222600  1
  Ni  Ni5  1  0.81895800  0.61822300  0.99728000  1
  Ni  Ni6  1  0.68100400  0.11752800  0.99887500  1
  Ni  Ni7  1  0.18150600  0.38232100  0.00253300  1
  Ni  Ni8  1  0.75752300  0.87449800  0.63444400  1
  Ni  Ni9  1  0.74247800  0.37508500  0.63439900  1
  Ni  Ni10  1  0.24188400  0.12522900  0.36500000  1
  Cu  Cu11  1  0.25919200  0.62582000  0.36571400  1
