# generated using pymatgen
data_Cu8Ni2C
_symmetry_space_group_name_H-M   'P 1'
_cell_length_a   13.78881307
_cell_length_b   13.78881307
_cell_length_c   13.78881307
_cell_angle_alpha   109.47122063
_cell_angle_beta   109.47122063
_cell_angle_gamma   109.47122063
_symmetry_Int_Tables_number   1
_chemical_formula_structural   Cu8Ni2C
_chemical_formula_sum   'Cu96 Ni24 C12'
_cell_volume   2018.17471990
_cell_formula_units_Z   12
loop_
 _symmetry_equiv_pos_site_id
 _symmetry_equiv_pos_as_xyz
  1  'x, y, z'
loop_
 _atom_site_type_symbol
 _atom_site_label
 _atom_site_symmetry_multiplicity
 _atom_site_fract_x
 _atom_site_fract_y
 _atom_site_fract_z
 _atom_site_occupancy
  C  C0  1  0.37500000  0.75000000  0.62500000  1
  C  C1  1  0.12500000  0.25000000  0.87500000  1
  C  C2  1  0.62500000  0.37500000  0.75000000  1
  C  C3  1  0.87500000  0.12500000  0.25000000  1
  C  C4  1  0.75000000  0.62500000  0.37500000  1
  C  C5  1  0.25000000  0.87500000  0.12500000  1
  C  C6  1  0.62500000  0.25000000  0.37500000  1
  C  C7  1  0.87500000  0.75000000  0.12500000  1
  C  C8  1  0.37500000  0.62500000  0.25000000  1
  C  C9  1  0.12500000  0.87500000  0.75000000  1
  C  C10  1  0.25000000  0.37500000  0.62500000  1
  C  C11  1  0.75000000  0.12500000  0.87500000  1
  Ni  Ni12  1  0.31499970  0.56499970  0.62999940  1
  Ni  Ni13  1  0.18500030  0.31499970  0.75000000  1
  Ni  Ni14  1  0.56499970  0.93500030  0.75000000  1
  Ni  Ni15  1  0.93500030  0.18500030  0.87000060  1
  Ni  Ni16  1  0.62999940  0.31499970  0.56499970  1
  Ni  Ni17  1  0.75000000  0.18500030  0.31499970  1
  Ni  Ni18  1  0.75000000  0.56499970  0.93500030  1
  Ni  Ni19  1  0.87000060  0.93500030  0.18500030  1
  Ni  Ni20  1  0.56499970  0.62999940  0.31499970  1
  Ni  Ni21  1  0.31499970  0.75000000  0.18500030  1
  Ni  Ni22  1  0.93500030  0.75000000  0.56499970  1
  Ni  Ni23  1  0.18500030  0.87000060  0.93500030  1
  Ni  Ni24  1  0.68500030  0.43500030  0.37000060  1
  Ni  Ni25  1  0.81499970  0.68500030  0.25000000  1
  Ni  Ni26  1  0.43500030  0.06499970  0.25000000  1
  Ni  Ni27  1  0.06499970  0.81499970  0.12999940  1
  Ni  Ni28  1  0.37000060  0.68500030  0.43500030  1
  Ni  Ni29  1  0.25000000  0.81499970  0.68500030  1
  Ni  Ni30  1  0.25000000  0.43500030  0.06499970  1
  Ni  Ni31  1  0.12999940  0.06499970  0.81499970  1
  Ni  Ni32  1  0.43500030  0.37000060  0.68500030  1
  Ni  Ni33  1  0.68500030  0.25000000  0.81499970  1
  Ni  Ni34  1  0.06499970  0.25000000  0.43500030  1
  Ni  Ni35  1  0.81499970  0.12999940  0.06499970  1
  Cu  Cu36  1  0.41748726  0.64853831  0.69531260  1
  Cu  Cu37  1  0.08251274  0.27782534  0.73105105  1
  Cu  Cu38  1  0.54677429  0.85146169  0.76894895  1
  Cu  Cu39  1  0.95322571  0.22217466  0.80468740  1
  Cu  Cu40  1  0.69531260  0.41748726  0.64853831  1
  Cu  Cu41  1  0.73105105  0.08251274  0.27782534  1
  Cu  Cu42  1  0.76894895  0.54677429  0.85146169  1
  Cu  Cu43  1  0.80468740  0.95322571  0.22217466  1
  Cu  Cu44  1  0.64853831  0.69531260  0.41748726  1
  Cu  Cu45  1  0.27782534  0.73105105  0.08251274  1
  Cu  Cu46  1  0.85146169  0.76894895  0.54677429  1
  Cu  Cu47  1  0.22217466  0.80468740  0.95322571  1
  Cu  Cu48  1  0.58251274  0.35146169  0.30468740  1
  Cu  Cu49  1  0.91748726  0.72217466  0.26894895  1
  Cu  Cu50  1  0.45322571  0.14853831  0.23105105  1
  Cu  Cu51  1  0.04677429  0.77782534  0.19531260  1
  Cu  Cu52  1  0.30468740  0.58251274  0.35146169  1
  Cu  Cu53  1  0.26894895  0.91748726  0.72217466  1
  Cu  Cu54  1  0.23105105  0.45322571  0.14853831  1
  Cu  Cu55  1  0.19531260  0.04677429  0.77782534  1
  Cu  Cu56  1  0.35146169  0.30468740  0.58251274  1
  Cu  Cu57  1  0.72217466  0.26894895  0.91748726  1
  Cu  Cu58  1  0.14853831  0.23105105  0.45322571  1
  Cu  Cu59  1  0.77782534  0.19531260  0.04677429  1
  Cu  Cu60  1  0.14853831  0.91748726  0.19531260  1
  Cu  Cu61  1  0.77782534  0.58251274  0.23105105  1
  Cu  Cu62  1  0.35146169  0.04677429  0.26894895  1
  Cu  Cu63  1  0.72217466  0.45322571  0.30468740  1
  Cu  Cu64  1  0.91748726  0.19531260  0.14853831  1
  Cu  Cu65  1  0.58251274  0.23105105  0.77782534  1
  Cu  Cu66  1  0.04677429  0.26894895  0.35146169  1
  Cu  Cu67  1  0.45322571  0.30468740  0.72217466  1
  Cu  Cu68  1  0.19531260  0.14853831  0.91748726  1
  Cu  Cu69  1  0.23105105  0.77782534  0.58251274  1
  Cu  Cu70  1  0.26894895  0.35146169  0.04677429  1
  Cu  Cu71  1  0.30468740  0.72217466  0.45322571  1
  Cu  Cu72  1  0.85146169  0.08251274  0.80468740  1
  Cu  Cu73  1  0.22217466  0.41748726  0.76894895  1
  Cu  Cu74  1  0.64853831  0.95322571  0.73105105  1
  Cu  Cu75  1  0.27782534  0.54677429  0.69531260  1
  Cu  Cu76  1  0.08251274  0.80468740  0.85146169  1
  Cu  Cu77  1  0.41748726  0.76894895  0.22217466  1
  Cu  Cu78  1  0.95322571  0.73105105  0.64853831  1
  Cu  Cu79  1  0.54677429  0.69531260  0.27782534  1
  Cu  Cu80  1  0.80468740  0.85146169  0.08251274  1
  Cu  Cu81  1  0.76894895  0.22217466  0.41748726  1
  Cu  Cu82  1  0.73105105  0.64853831  0.95322571  1
  Cu  Cu83  1  0.69531260  0.27782534  0.54677429  1
  Cu  Cu84  1  0.24565632  0.58225878  0.56498117  1
  Cu  Cu85  1  0.25434368  0.31932485  0.83660246  1
  Cu  Cu86  1  0.48272239  0.91774122  0.66339754  1
  Cu  Cu87  1  0.01727761  0.18067515  0.93501883  1
  Cu  Cu88  1  0.56498117  0.24565632  0.58225878  1
  Cu  Cu89  1  0.83660246  0.25434368  0.31932485  1
  Cu  Cu90  1  0.66339754  0.48272239  0.91774122  1
  Cu  Cu91  1  0.93501883  0.01727761  0.18067515  1
  Cu  Cu92  1  0.58225878  0.56498117  0.24565632  1
  Cu  Cu93  1  0.31932485  0.83660246  0.25434368  1
  Cu  Cu94  1  0.91774122  0.66339754  0.48272239  1
  Cu  Cu95  1  0.18067515  0.93501883  0.01727761  1
  Cu  Cu96  1  0.75434368  0.41774122  0.43501883  1
  Cu  Cu97  1  0.74565632  0.68067515  0.16339754  1
  Cu  Cu98  1  0.51727761  0.08225878  0.33660246  1
  Cu  Cu99  1  0.98272239  0.81932485  0.06498117  1
  Cu  Cu100  1  0.43501883  0.75434368  0.41774122  1
  Cu  Cu101  1  0.16339754  0.74565632  0.68067515  1
  Cu  Cu102  1  0.33660246  0.51727761  0.08225878  1
  Cu  Cu103  1  0.06498117  0.98272239  0.81932485  1
  Cu  Cu104  1  0.41774122  0.43501883  0.75434368  1
  Cu  Cu105  1  0.68067515  0.16339754  0.74565632  1
  Cu  Cu106  1  0.08225878  0.33660246  0.51727761  1
  Cu  Cu107  1  0.81932485  0.06498117  0.98272239  1
  Cu  Cu108  1  0.08225878  0.74565632  0.06498117  1
  Cu  Cu109  1  0.81932485  0.75434368  0.33660246  1
  Cu  Cu110  1  0.41774122  0.98272239  0.16339754  1
  Cu  Cu111  1  0.68067515  0.51727761  0.43501883  1
  Cu  Cu112  1  0.74565632  0.06498117  0.08225878  1
  Cu  Cu113  1  0.75434368  0.33660246  0.81932485  1
  Cu  Cu114  1  0.98272239  0.16339754  0.41774122  1
  Cu  Cu115  1  0.51727761  0.43501883  0.68067515  1
  Cu  Cu116  1  0.06498117  0.08225878  0.74565632  1
  Cu  Cu117  1  0.33660246  0.81932485  0.75434368  1
  Cu  Cu118  1  0.16339754  0.41774122  0.98272239  1
  Cu  Cu119  1  0.43501883  0.68067515  0.51727761  1
  Cu  Cu120  1  0.91774122  0.25434368  0.93501883  1
  Cu  Cu121  1  0.18067515  0.24565632  0.66339754  1
  Cu  Cu122  1  0.58225878  0.01727761  0.83660246  1
  Cu  Cu123  1  0.31932485  0.48272239  0.56498117  1
  Cu  Cu124  1  0.25434368  0.93501883  0.91774122  1
  Cu  Cu125  1  0.24565632  0.66339754  0.18067515  1
  Cu  Cu126  1  0.01727761  0.83660246  0.58225878  1
  Cu  Cu127  1  0.48272239  0.56498117  0.31932485  1
  Cu  Cu128  1  0.93501883  0.91774122  0.25434368  1
  Cu  Cu129  1  0.66339754  0.18067515  0.24565632  1
  Cu  Cu130  1  0.83660246  0.58225878  0.01727761  1
  Cu  Cu131  1  0.56498117  0.31932485  0.48272239  1
