# generated using pymatgen
data_CuNiC4
_symmetry_space_group_name_H-M   'P 1'
_cell_length_a   10.11205686
_cell_length_b   10.11205686
_cell_length_c   10.11205686
_cell_angle_alpha   60.00000000
_cell_angle_beta   60.00000000
_cell_angle_gamma   60.00000000
_symmetry_Int_Tables_number   1
_chemical_formula_structural   CuNiC4
_chemical_formula_sum   'Cu4 Ni4 C16'
_cell_volume   731.14499527
_cell_formula_units_Z   4
loop_
 _symmetry_equiv_pos_site_id
 _symmetry_equiv_pos_as_xyz
  1  'x, y, z'
loop_
 _atom_site_type_symbol
 _atom_site_label
 _atom_site_symmetry_multiplicity
 _atom_site_fract_x
 _atom_site_fract_y
 _atom_site_fract_z
 _atom_site_occupancy
  C  C0  1  0.65465529  0.65465529  0.65465529  1
  C  C1  1  0.03603413  0.65465529  0.65465529  1
  C  C2  1  0.65465529  0.03603413  0.65465529  1
  C  C3  1  0.65465529  0.65465529  0.03603413  1
  C  C4  1  0.81228285  0.81228285  0.18771715  1
  C  C5  1  0.18771715  0.18771715  0.81228285  1
  C  C6  1  0.81228285  0.18771715  0.81228285  1
  C  C7  1  0.18771715  0.81228285  0.18771715  1
  C  C8  1  0.18771715  0.81228285  0.81228285  1
  C  C9  1  0.81228285  0.18771715  0.18771715  1
  C  C10  1  0.43773354  0.43773354  0.06226646  1
  C  C11  1  0.06226646  0.06226646  0.43773354  1
  C  C12  1  0.43773354  0.06226646  0.43773354  1
  C  C13  1  0.06226646  0.43773354  0.06226646  1
  C  C14  1  0.06226646  0.43773354  0.43773354  1
  C  C15  1  0.43773354  0.06226646  0.06226646  1
  Ni  Ni16  1  0.42116995  0.42116995  0.42116995  1
  Ni  Ni17  1  0.73649016  0.42116995  0.42116995  1
  Ni  Ni18  1  0.42116995  0.73649016  0.42116995  1
  Ni  Ni19  1  0.42116995  0.42116995  0.73649016  1
  Cu  Cu20  1  0.85884203  0.85884203  0.85884203  1
  Cu  Cu21  1  0.42347392  0.85884203  0.85884203  1
  Cu  Cu22  1  0.85884203  0.42347392  0.85884203  1
  Cu  Cu23  1  0.85884203  0.85884203  0.42347392  1
