# generated using pymatgen
data_Cu3Ni2C
_symmetry_space_group_name_H-M   'P 1'
_cell_length_a   3.56405100
_cell_length_b   3.42648200
_cell_length_c   16.61979600
_cell_angle_alpha   90.00000000
_cell_angle_beta   90.00000000
_cell_angle_gamma   90.00000000
_symmetry_Int_Tables_number   1
_chemical_formula_structural   Cu3Ni2C
_chemical_formula_sum   'Cu12 Ni8 C4'
_cell_volume   202.96355139
_cell_formula_units_Z   4
loop_
 _symmetry_equiv_pos_site_id
 _symmetry_equiv_pos_as_xyz
  1  'x, y, z'
loop_
 _atom_site_type_symbol
 _atom_site_label
 _atom_site_symmetry_multiplicity
 _atom_site_fract_x
 _atom_site_fract_y
 _atom_site_fract_z
 _atom_site_occupancy
  C  C0  1  0.48981700  0.75000000  0.38622600  1
  C  C1  1  0.01018300  0.75000000  0.88622600  1
  C  C2  1  0.51018300  0.25000000  0.61377400  1
  C  C3  1  0.98981700  0.25000000  0.11377400  1
  Ni  Ni4  1  0.05115000  0.75000000  0.52232400  1
  Ni  Ni5  1  0.44885000  0.75000000  0.02232400  1
  Ni  Ni6  1  0.94885000  0.25000000  0.47767600  1
  Ni  Ni7  1  0.55115000  0.25000000  0.97767600  1
  Ni  Ni8  1  0.48158700  0.75000000  0.74918200  1
  Ni  Ni9  1  0.01841300  0.75000000  0.24918200  1
  Ni  Ni10  1  0.51841300  0.25000000  0.25081800  1
  Ni  Ni11  1  0.98158700  0.25000000  0.75081800  1
  Cu  Cu12  1  0.95790700  0.75000000  0.59490200  1
  Cu  Cu13  1  0.54209300  0.75000000  0.09490200  1
  Cu  Cu14  1  0.04209300  0.25000000  0.40509800  1
  Cu  Cu15  1  0.45790700  0.25000000  0.90509800  1
  Cu  Cu16  1  0.39515300  0.75000000  0.52983800  1
  Cu  Cu17  1  0.10484700  0.75000000  0.02983800  1
  Cu  Cu18  1  0.60484700  0.25000000  0.47016200  1
  Cu  Cu19  1  0.89515300  0.25000000  0.97016200  1
  Cu  Cu20  1  0.05196600  0.75000000  0.17695000  1
  Cu  Cu21  1  0.44803400  0.75000000  0.67695000  1
  Cu  Cu22  1  0.94803400  0.25000000  0.82305000  1
  Cu  Cu23  1  0.55196600  0.25000000  0.32305000  1
