# generated using pymatgen
data_Cu7(NiC)4
_symmetry_space_group_name_H-M   'P 1'
_cell_length_a   9.22762901
_cell_length_b   9.22762901
_cell_length_c   9.22762901
_cell_angle_alpha   94.22080954
_cell_angle_beta   94.22080954
_cell_angle_gamma   148.51744115
_symmetry_Int_Tables_number   1
_chemical_formula_structural   Cu7(NiC)4
_chemical_formula_sum   'Cu14 Ni8 C8'
_cell_volume   394.94702610
_cell_formula_units_Z   2
loop_
 _symmetry_equiv_pos_site_id
 _symmetry_equiv_pos_as_xyz
  1  'x, y, z'
loop_
 _atom_site_type_symbol
 _atom_site_label
 _atom_site_symmetry_multiplicity
 _atom_site_fract_x
 _atom_site_fract_y
 _atom_site_fract_z
 _atom_site_occupancy
  C  C0  1  0.13526200  0.13526200  0.27052400  1
  C  C1  1  0.86473800  0.86473800  0.72947600  1
  C  C2  1  0.86473800  0.13526200  0.00000000  1
  C  C3  1  0.13526200  0.86473800  0.00000000  1
  C  C4  1  0.50000000  0.69227000  0.19227000  1
  C  C5  1  0.50000000  0.30773000  0.80773000  1
  C  C6  1  0.30773000  0.50000000  0.80773000  1
  C  C7  1  0.69227000  0.50000000  0.19227000  1
  Ni  Ni8  1  0.39994200  0.89994200  0.79988500  1
  Ni  Ni9  1  0.10005800  0.60005800  0.20011500  1
  Ni  Ni10  1  0.10005800  0.89994200  0.50000000  1
  Ni  Ni11  1  0.39994200  0.60005800  0.50000000  1
  Ni  Ni12  1  0.60005800  0.39994200  0.50000000  1
  Ni  Ni13  1  0.89994200  0.10005800  0.50000000  1
  Ni  Ni14  1  0.89994200  0.39994200  0.79988500  1
  Ni  Ni15  1  0.60005800  0.10005800  0.20011500  1
  Cu  Cu16  1  0.29098200  0.29098200  0.58196400  1
  Cu  Cu17  1  0.70901800  0.70901800  0.41803600  1
  Cu  Cu18  1  0.70901800  0.29098200  0.00000000  1
  Cu  Cu19  1  0.29098200  0.70901800  0.00000000  1
  Cu  Cu20  1  0.00000000  0.29776200  0.29776200  1
  Cu  Cu21  1  0.00000000  0.70223800  0.70223800  1
  Cu  Cu22  1  0.70223800  0.00000000  0.70223800  1
  Cu  Cu23  1  0.29776200  0.00000000  0.29776200  1
  Cu  Cu24  1  0.50000000  0.90609300  0.40609300  1
  Cu  Cu25  1  0.50000000  0.09390700  0.59390700  1
  Cu  Cu26  1  0.09390700  0.50000000  0.59390700  1
  Cu  Cu27  1  0.90609300  0.50000000  0.40609300  1
  Cu  Cu28  1  0.75072700  0.75072700  0.00000000  1
  Cu  Cu29  1  0.24927300  0.24927300  0.00000000  1
