# generated using pymatgen
data_CuNi2C37
_symmetry_space_group_name_H-M   'P 1'
_cell_length_a   8.08135700
_cell_length_b   14.89772000
_cell_length_c   16.54121124
_cell_angle_alpha   90.00000000
_cell_angle_beta   110.74915955
_cell_angle_gamma   90.00000000
_symmetry_Int_Tables_number   1
_chemical_formula_structural   CuNi2C37
_chemical_formula_sum   'Cu4 Ni8 C148'
_cell_volume   1862.29394239
_cell_formula_units_Z   4
loop_
 _symmetry_equiv_pos_site_id
 _symmetry_equiv_pos_as_xyz
  1  'x, y, z'
loop_
 _atom_site_type_symbol
 _atom_site_label
 _atom_site_symmetry_multiplicity
 _atom_site_fract_x
 _atom_site_fract_y
 _atom_site_fract_z
 _atom_site_occupancy
  Ni  Ni0  1  0.35858000  0.31734300  0.70256000  1
  Ni  Ni1  1  0.35858000  0.18265700  0.20256000  1
  Ni  Ni2  1  0.64142000  0.68265700  0.29744000  1
  Ni  Ni3  1  0.64142000  0.81734300  0.79744000  1
  Ni  Ni4  1  0.34349400  0.06111000  0.69727600  1
  Ni  Ni5  1  0.34349400  0.43889000  0.19727600  1
  Ni  Ni6  1  0.65650600  0.93889000  0.30272400  1
  Ni  Ni7  1  0.65650600  0.56111000  0.80272400  1
  Cu  Cu8  1  0.88446300  0.18454700  0.78110900  1
  Cu  Cu9  1  0.88446300  0.31545300  0.28110900  1
  Cu  Cu10  1  0.11553700  0.81545300  0.21889100  1
  Cu  Cu11  1  0.11553700  0.68454700  0.71889100  1
  C  C12  1  0.61452800  0.43870100  0.57850600  1
  C  C13  1  0.61452800  0.06129900  0.07850600  1
  C  C14  1  0.38547200  0.56129900  0.42149400  1
  C  C15  1  0.38547200  0.93870100  0.92149400  1
  C  C16  1  0.61451300  0.18685100  0.57865400  1
  C  C17  1  0.61451300  0.31314900  0.07865400  1
  C  C18  1  0.38548700  0.81314900  0.42134600  1
  C  C19  1  0.38548700  0.68685100  0.92134600  1
  C  C20  1  0.38024500  0.06309700  0.42506600  1
  C  C21  1  0.38024500  0.43690300  0.92506600  1
  C  C22  1  0.61975500  0.93690300  0.57493400  1
  C  C23  1  0.61975500  0.56309700  0.07493400  1
  C  C24  1  0.37269800  0.31308300  0.43062600  1
  C  C25  1  0.37269800  0.18691700  0.93062600  1
  C  C26  1  0.62730200  0.68691700  0.56937400  1
  C  C27  1  0.62730200  0.81308300  0.06937400  1
  C  C28  1  0.95011200  0.35567000  0.69900000  1
  C  C29  1  0.95011200  0.14433000  0.19900000  1
  C  C30  1  0.04988800  0.64433000  0.30100000  1
  C  C31  1  0.04988800  0.85567000  0.80100000  1
  C  C32  1  0.06609400  0.36096600  0.79924000  1
  C  C33  1  0.06609400  0.13903400  0.29924000  1
  C  C34  1  0.93390600  0.63903400  0.20076000  1
  C  C35  1  0.93390600  0.86096600  0.70076000  1
  C  C36  1  0.95030000  0.01357100  0.69813800  1
  C  C37  1  0.95030000  0.48642900  0.19813800  1
  C  C38  1  0.04970000  0.98642900  0.30186200  1
  C  C39  1  0.04970000  0.51357100  0.80186200  1
  C  C40  1  0.06715000  0.00895200  0.79831600  1
  C  C41  1  0.06715000  0.49104800  0.29831600  1
  C  C42  1  0.93285000  0.99104800  0.20168400  1
  C  C43  1  0.93285000  0.50895200  0.70168400  1
  C  C44  1  0.78840000  0.02590500  0.88550500  1
  C  C45  1  0.78840000  0.47409500  0.38550500  1
  C  C46  1  0.21160000  0.97409500  0.11449500  1
  C  C47  1  0.21160000  0.52590500  0.61449500  1
  C  C48  1  0.64696100  0.10541300  0.86363400  1
  C  C49  1  0.64696100  0.39458700  0.36363400  1
  C  C50  1  0.35303900  0.89458700  0.13636600  1
  C  C51  1  0.35303900  0.60541300  0.63636600  1
  C  C52  1  0.77267600  0.34203800  0.87835800  1
  C  C53  1  0.77267600  0.15796200  0.37835800  1
  C  C54  1  0.22732400  0.65796200  0.12164200  1
  C  C55  1  0.22732400  0.84203800  0.62164200  1
  C  C56  1  0.63778600  0.25879200  0.85964400  1
  C  C57  1  0.63778600  0.24120800  0.35964400  1
  C  C58  1  0.36221400  0.74120800  0.14035600  1
  C  C59  1  0.36221400  0.75879200  0.64035600  1
  C  C60  1  0.02398500  0.19814900  0.58037100  1
  C  C61  1  0.02398500  0.30185100  0.08037100  1
  C  C62  1  0.97601500  0.80185100  0.41962900  1
  C  C63  1  0.97601500  0.69814900  0.91962900  1
  C  C64  1  0.13494800  0.21232800  0.51997300  1
  C  C65  1  0.13494800  0.28767200  0.01997300  1
  C  C66  1  0.86505200  0.78767200  0.48002700  1
  C  C67  1  0.86505200  0.71232800  0.98002700  1
  C  C68  1  0.01107400  0.42044700  0.56832000  1
  C  C69  1  0.01107400  0.07955300  0.06832000  1
  C  C70  1  0.98892600  0.57955300  0.43168000  1
  C  C71  1  0.98892600  0.92044700  0.93168000  1
  C  C72  1  0.13096200  0.40761800  0.51067700  1
  C  C73  1  0.13096200  0.09238200  0.01067700  1
  C  C74  1  0.86903800  0.59238200  0.48932300  1
  C  C75  1  0.86903800  0.90761800  0.98932300  1
  C  C76  1  0.01731200  0.93946500  0.57770900  1
  C  C77  1  0.01731200  0.56053500  0.07770900  1
  C  C78  1  0.98268800  0.06053500  0.42229100  1
  C  C79  1  0.98268800  0.43946500  0.92229100  1
  C  C80  1  0.12180500  0.94239100  0.51241600  1
  C  C81  1  0.12180500  0.55760900  0.01241600  1
  C  C82  1  0.87819500  0.05760900  0.48758400  1
  C  C83  1  0.87819500  0.44239100  0.98758400  1
  C  C84  1  0.41511400  0.43788100  0.46312900  1
  C  C85  1  0.41511400  0.06211900  0.96312900  1
  C  C86  1  0.58488600  0.56211900  0.53687100  1
  C  C87  1  0.58488600  0.93788100  0.03687100  1
  C  C88  1  0.55474400  0.31257300  0.54938100  1
  C  C89  1  0.55474400  0.18742700  0.04938100  1
  C  C90  1  0.44525600  0.68742700  0.45061900  1
  C  C91  1  0.44525600  0.81257300  0.95061900  1
  C  C92  1  0.84020700  0.43105100  0.61151200  1
  C  C93  1  0.84020700  0.06894900  0.11151200  1
  C  C94  1  0.15979300  0.56894900  0.38848800  1
  C  C95  1  0.15979300  0.93105100  0.88848800  1
  C  C96  1  0.56318600  0.44843800  0.66618300  1
  C  C97  1  0.56318600  0.05156200  0.16618300  1
  C  C98  1  0.43681400  0.55156200  0.33381700  1
  C  C99  1  0.43681400  0.94843800  0.83381700  1
  C  C100  1  0.41608000  0.18722700  0.46329400  1
  C  C101  1  0.41608000  0.31277300  0.96329400  1
  C  C102  1  0.58392000  0.81277300  0.53670600  1
  C  C103  1  0.58392000  0.68722700  0.03670600  1
  C  C104  1  0.83408000  0.19077200  0.60475800  1
  C  C105  1  0.83408000  0.30922800  0.10475800  1
  C  C106  1  0.16592000  0.80922800  0.39524200  1
  C  C107  1  0.16592000  0.69077200  0.89524200  1
  C  C108  1  0.57359200  0.06236200  0.54210300  1
  C  C109  1  0.57359200  0.43763800  0.04210300  1
  C  C110  1  0.42640800  0.93763800  0.45789700  1
  C  C111  1  0.42640800  0.56236200  0.95789700  1
  C  C112  1  0.58573100  0.18158900  0.67474700  1
  C  C113  1  0.58573100  0.31841100  0.17474700  1
  C  C114  1  0.41426900  0.81841100  0.32525300  1
  C  C115  1  0.41426900  0.68158900  0.82525300  1
  C  C116  1  0.43651500  0.06637000  0.33852500  1
  C  C117  1  0.43651500  0.43363000  0.83852500  1
  C  C118  1  0.56348500  0.93363000  0.66147500  1
  C  C119  1  0.56348500  0.56637000  0.16147500  1
  C  C120  1  0.15274700  0.05975000  0.38949500  1
  C  C121  1  0.15274700  0.44025000  0.88949500  1
  C  C122  1  0.84725300  0.94025000  0.61050500  1
  C  C123  1  0.84725300  0.55975000  0.11050500  1
  C  C124  1  0.15058300  0.31356500  0.40404200  1
  C  C125  1  0.15058300  0.18643500  0.90404200  1
  C  C126  1  0.84941700  0.68643500  0.59595800  1
  C  C127  1  0.84941700  0.81356500  0.09595800  1
  C  C128  1  0.43300800  0.31339800  0.34279100  1
  C  C129  1  0.43300800  0.18660200  0.84279100  1
  C  C130  1  0.56699200  0.68660200  0.65720900  1
  C  C131  1  0.56699200  0.81339800  0.15720900  1
  C  C132  1  0.01964400  0.31882500  0.74988900  1
  C  C133  1  0.01964400  0.18117500  0.24988900  1
  C  C134  1  0.98035600  0.68117500  0.25011100  1
  C  C135  1  0.98035600  0.81882500  0.75011100  1
  C  C136  1  0.01904500  0.05098500  0.74879200  1
  C  C137  1  0.01904500  0.44901500  0.24879200  1
  C  C138  1  0.98095500  0.94901500  0.25120800  1
  C  C139  1  0.98095500  0.55098500  0.75120800  1
  C  C140  1  0.75620400  0.08539700  0.85636800  1
  C  C141  1  0.75620400  0.41460300  0.35636800  1
  C  C142  1  0.24379600  0.91460300  0.14363200  1
  C  C143  1  0.24379600  0.58539700  0.64363200  1
  C  C144  1  0.73729600  0.28438200  0.84627900  1
  C  C145  1  0.73729600  0.21561800  0.34627900  1
  C  C146  1  0.26270400  0.71561800  0.15372100  1
  C  C147  1  0.26270400  0.78438200  0.65372100  1
  C  C148  1  0.14486100  0.19325200  0.57789500  1
  C  C149  1  0.14486100  0.30674800  0.07789500  1
  C  C150  1  0.85513900  0.80674800  0.42210500  1
  C  C151  1  0.85513900  0.69325200  0.92210500  1
  C  C152  1  0.13436500  0.42310000  0.56867500  1
  C  C153  1  0.13436500  0.07690000  0.06867500  1
  C  C154  1  0.86563500  0.57690000  0.43132500  1
  C  C155  1  0.86563500  0.92310000  0.93132500  1
  C  C156  1  0.13856100  0.94217500  0.57363500  1
  C  C157  1  0.13856100  0.55782500  0.07363500  1
  C  C158  1  0.86143900  0.05782500  0.42636500  1
  C  C159  1  0.86143900  0.44217500  0.92636500  1
