# generated using pymatgen
data_Cu6Ni2C3
_symmetry_space_group_name_H-M   'P 1'
_cell_length_a   12.66432900
_cell_length_b   5.96689300
_cell_length_c   8.93457634
_cell_angle_alpha   57.93184326
_cell_angle_beta   90.00000000
_cell_angle_gamma   90.00000000
_symmetry_Int_Tables_number   1
_chemical_formula_structural   Cu6Ni2C3
_chemical_formula_sum   'Cu12 Ni4 C6'
_cell_volume   572.13910824
_cell_formula_units_Z   2
loop_
 _symmetry_equiv_pos_site_id
 _symmetry_equiv_pos_as_xyz
  1  'x, y, z'
loop_
 _atom_site_type_symbol
 _atom_site_label
 _atom_site_symmetry_multiplicity
 _atom_site_fract_x
 _atom_site_fract_y
 _atom_site_fract_z
 _atom_site_occupancy
  C  C0  1  0.68099900  0.69065200  0.03331000  1
  C  C1  1  0.31900100  0.30934800  0.96669000  1
  C  C2  1  0.18099900  0.30934800  0.46669000  1
  C  C3  1  0.81900100  0.69065200  0.53331000  1
  C  C4  1  0.00000000  0.00000000  0.00000000  1
  C  C5  1  0.50000000  0.00000000  0.50000000  1
  Ni  Ni6  1  0.96404100  0.34488300  0.12610900  1
  Ni  Ni7  1  0.03595900  0.65511700  0.87389100  1
  Ni  Ni8  1  0.46404100  0.65511700  0.37389100  1
  Ni  Ni9  1  0.53595900  0.34488300  0.62610900  1
  Cu  Cu10  1  0.93414400  0.55808200  0.23841400  1
  Cu  Cu11  1  0.06585600  0.44191800  0.76158600  1
  Cu  Cu12  1  0.43414400  0.44191800  0.26158600  1
  Cu  Cu13  1  0.56585600  0.55808200  0.73841400  1
  Cu  Cu14  1  0.57251200  0.95144700  0.26071500  1
  Cu  Cu15  1  0.42748800  0.04855300  0.73928500  1
  Cu  Cu16  1  0.07251200  0.04855300  0.23928500  1
  Cu  Cu17  1  0.92748800  0.95144700  0.76071500  1
  Cu  Cu18  1  0.84126700  0.20118000  0.05380000  1
  Cu  Cu19  1  0.15873300  0.79882000  0.94620000  1
  Cu  Cu20  1  0.34126700  0.79882000  0.44620000  1
  Cu  Cu21  1  0.65873300  0.20118000  0.55380000  1
