# generated using pymatgen
data_Cu2Ni4C17
_symmetry_space_group_name_H-M   'P 1'
_cell_length_a   9.26696871
_cell_length_b   9.26696871
_cell_length_c   10.04319332
_cell_angle_alpha   60.16257305
_cell_angle_beta   60.16257305
_cell_angle_gamma   48.40387832
_symmetry_Int_Tables_number   1
_chemical_formula_structural   Cu2Ni4C17
_chemical_formula_sum   'Cu4 Ni8 C34'
_cell_volume   540.58502999
_cell_formula_units_Z   2
loop_
 _symmetry_equiv_pos_site_id
 _symmetry_equiv_pos_as_xyz
  1  'x, y, z'
loop_
 _atom_site_type_symbol
 _atom_site_label
 _atom_site_symmetry_multiplicity
 _atom_site_fract_x
 _atom_site_fract_y
 _atom_site_fract_z
 _atom_site_occupancy
  C  C0  1  0.22618400  0.16489000  0.54186400  1
  C  C1  1  0.83511000  0.77381600  0.95813600  1
  C  C2  1  0.16489000  0.22618400  0.04186400  1
  C  C3  1  0.65686400  0.34313600  0.25000000  1
  C  C4  1  0.77381600  0.83511000  0.45813600  1
  C  C5  1  0.34313600  0.65686400  0.75000000  1
  Ni  Ni6  1  0.11437400  0.53544300  0.65630700  1
  Ni  Ni7  1  0.53544300  0.11437400  0.15630700  1
  Ni  Ni8  1  0.20917900  0.54065300  0.14747300  1
  Ni  Ni9  1  0.54065300  0.20917900  0.64747300  1
  Ni  Ni10  1  0.46455700  0.88562600  0.84369300  1
  Ni  Ni11  1  0.79082100  0.45934700  0.85252700  1
  Ni  Ni12  1  0.45934700  0.79082100  0.35252700  1
  Ni  Ni13  1  0.88562600  0.46455700  0.34369300  1
  Cu  Cu14  1  0.21383400  0.78616600  0.25000000  1
  Cu  Cu15  1  0.78616600  0.21383400  0.75000000  1
  Cu  Cu16  1  0.00000000  0.00000000  0.00000000  1
  Cu  Cu17  1  0.00000000  0.00000000  0.50000000  1
  C  C18  1  0.28567300  0.88252700  0.50312200  1
  C  C19  1  0.89590800  0.97570200  0.71587200  1
  C  C20  1  0.64944900  0.45328300  0.80927500  1
  C  C21  1  0.97570200  0.89590800  0.21587200  1
  C  C22  1  0.94187800  0.25968600  0.48420500  1
  C  C23  1  0.50823800  0.04785100  0.81864600  1
  C  C24  1  0.45328300  0.64944900  0.30927500  1
  C  C25  1  0.74031400  0.05812200  0.01579500  1
  C  C26  1  0.49176200  0.95214900  0.18135400  1
  C  C27  1  0.66894400  0.65872100  0.40872400  1
  C  C28  1  0.10409200  0.02429800  0.28412800  1
  C  C29  1  0.05812200  0.74031400  0.51579500  1
  C  C30  1  0.95214900  0.49176200  0.68135400  1
  C  C31  1  0.88252700  0.28567300  0.00312200  1
  C  C32  1  0.65872100  0.66894400  0.90872400  1
  C  C33  1  0.25968600  0.94187800  0.98420500  1
  C  C34  1  0.46960000  0.89241600  0.67856300  1
  C  C35  1  0.33105600  0.34127900  0.59127600  1
  C  C36  1  0.10758400  0.53040000  0.82143700  1
  C  C37  1  0.34127900  0.33105600  0.09127600  1
  C  C38  1  0.04785100  0.50823800  0.31864600  1
  C  C39  1  0.02429800  0.10409200  0.78412800  1
  C  C40  1  0.89241600  0.46960000  0.17856300  1
  C  C41  1  0.35055100  0.54671700  0.19072500  1
  C  C42  1  0.53040000  0.10758400  0.32143700  1
  C  C43  1  0.54671700  0.35055100  0.69072500  1
  C  C44  1  0.11747300  0.71432700  0.99687800  1
  C  C45  1  0.71432700  0.11747300  0.49687800  1
