# generated using pymatgen
data_Cu13Ni2C5
_symmetry_space_group_name_H-M   'P 1'
_cell_length_a   6.48603989
_cell_length_b   6.43857497
_cell_length_c   6.42147412
_cell_angle_alpha   83.24273300
_cell_angle_beta   83.31143544
_cell_angle_gamma   82.82851659
_symmetry_Int_Tables_number   1
_chemical_formula_structural   Cu13Ni2C5
_chemical_formula_sum   'Cu13 Ni2 C5'
_cell_volume   262.80652291
_cell_formula_units_Z   1
loop_
 _symmetry_equiv_pos_site_id
 _symmetry_equiv_pos_as_xyz
  1  'x, y, z'
loop_
 _atom_site_type_symbol
 _atom_site_label
 _atom_site_symmetry_multiplicity
 _atom_site_fract_x
 _atom_site_fract_y
 _atom_site_fract_z
 _atom_site_occupancy
  C  C0  1  0.65497900  0.65509900  0.63993700  1
  C  C1  1  0.34502100  0.34490100  0.36006300  1
  Ni  Ni2  1  0.00000000  0.00000000  0.50000000  1
  Ni  Ni3  1  0.00000000  0.50000000  0.00000000  1
  C  C4  1  0.89490400  0.89864400  0.89732200  1
  C  C5  1  0.10509600  0.10135600  0.10267800  1
  Cu  Cu6  1  0.34312200  0.34359800  0.85151900  1
  Cu  Cu7  1  0.34042600  0.85171300  0.34475700  1
  Cu  Cu8  1  0.85436400  0.34040600  0.34487200  1
  Cu  Cu9  1  0.65687800  0.65640200  0.14848100  1
  Cu  Cu10  1  0.65957400  0.14828700  0.65524300  1
  Cu  Cu11  1  0.14563600  0.65959400  0.65512800  1
  Cu  Cu12  1  0.28328600  0.71323200  0.99925800  1
  Cu  Cu13  1  0.72156000  0.00261100  0.28229400  1
  Cu  Cu14  1  0.99751700  0.28365000  0.71409200  1
  Cu  Cu15  1  0.27844000  0.99738900  0.71770600  1
  Cu  Cu16  1  0.00248300  0.71635000  0.28590800  1
  Cu  Cu17  1  0.71671400  0.28676800  0.00074200  1
  Cu  Cu18  1  0.50000000  0.00000000  0.00000000  1
  C  C19  1  0.50000000  0.50000000  0.00000000  1
