# generated using pymatgen
data_Cu4Ni12C49
_symmetry_space_group_name_H-M   'P 1'
_cell_length_a   10.61940176
_cell_length_b   10.61940176
_cell_length_c   10.61940176
_cell_angle_alpha   60.00000000
_cell_angle_beta   60.00000000
_cell_angle_gamma   60.00000000
_symmetry_Int_Tables_number   1
_chemical_formula_structural   Cu4Ni12C49
_chemical_formula_sum   'Cu4 Ni12 C49'
_cell_volume   846.80840041
_cell_formula_units_Z   1
loop_
 _symmetry_equiv_pos_site_id
 _symmetry_equiv_pos_as_xyz
  1  'x, y, z'
loop_
 _atom_site_type_symbol
 _atom_site_label
 _atom_site_symmetry_multiplicity
 _atom_site_fract_x
 _atom_site_fract_y
 _atom_site_fract_z
 _atom_site_occupancy
  C  C0  1  0.46880800  0.03119200  0.03119200  1
  C  C1  1  0.03119200  0.46880800  0.46880800  1
  C  C2  1  0.03119200  0.46880800  0.03119200  1
  C  C3  1  0.46880800  0.03119200  0.46880800  1
  C  C4  1  0.03119200  0.03119200  0.46880800  1
  C  C5  1  0.46880800  0.46880800  0.03119200  1
  C  C6  1  0.86368300  0.86368300  0.86368300  1
  C  C7  1  0.86368300  0.86368300  0.40895000  1
  C  C8  1  0.86368300  0.40895000  0.86368300  1
  C  C9  1  0.40895000  0.86368300  0.86368300  1
  C  C10  1  0.63650600  0.63650600  0.63650600  1
  C  C11  1  0.63650600  0.63650600  0.09048200  1
  C  C12  1  0.63650600  0.09048200  0.63650600  1
  C  C13  1  0.09048200  0.63650600  0.63650600  1
  Ni  Ni14  1  0.75000000  0.75000000  0.75000000  1
  Ni  Ni15  1  0.38782800  0.38782800  0.38782800  1
  Ni  Ni16  1  0.38782800  0.38782800  0.83651600  1
  Ni  Ni17  1  0.38782800  0.83651600  0.38782800  1
  Ni  Ni18  1  0.83651600  0.38782800  0.38782800  1
  Ni  Ni19  1  0.74406100  0.25593900  0.25593900  1
  Ni  Ni20  1  0.25593900  0.74406100  0.74406100  1
  Ni  Ni21  1  0.25593900  0.74406100  0.25593900  1
  Ni  Ni22  1  0.74406100  0.25593900  0.74406100  1
  Ni  Ni23  1  0.25593900  0.25593900  0.74406100  1
  Ni  Ni24  1  0.74406100  0.74406100  0.25593900  1
  Ni  Ni25  1  0.25000000  0.25000000  0.25000000  1
  Cu  Cu26  1  0.07771600  0.07771600  0.07771600  1
  Cu  Cu27  1  0.07771600  0.07771600  0.76685100  1
  Cu  Cu28  1  0.07771600  0.76685100  0.07771600  1
  Cu  Cu29  1  0.76685100  0.07771600  0.07771600  1
  C  C30  1  0.87963300  0.62036700  0.62036700  1
  C  C31  1  0.62036700  0.87963300  0.87963300  1
  C  C32  1  0.62036700  0.87963300  0.62036700  1
  C  C33  1  0.87963300  0.62036700  0.87963300  1
  C  C34  1  0.62036700  0.62036700  0.87963300  1
  C  C35  1  0.87963300  0.87963300  0.62036700  1
  C  C36  1  0.31833400  0.31833400  0.31833400  1
  C  C37  1  0.31833400  0.31833400  0.04499700  1
  C  C38  1  0.31833400  0.04499700  0.31833400  1
  C  C39  1  0.04499700  0.31833400  0.31833400  1
  C  C40  1  0.29365500  0.90897700  0.09526300  1
  C  C41  1  0.90897700  0.29365500  0.70210400  1
  C  C42  1  0.09526300  0.70210400  0.29365500  1
  C  C43  1  0.09526300  0.29365500  0.90897700  1
  C  C44  1  0.70210400  0.09526300  0.90897700  1
  C  C45  1  0.70210400  0.90897700  0.29365500  1
  C  C46  1  0.29365500  0.09526300  0.70210400  1
  C  C47  1  0.90897700  0.70210400  0.09526300  1
  C  C48  1  0.90897700  0.09526300  0.29365500  1
  C  C49  1  0.70210400  0.29365500  0.09526300  1
  C  C50  1  0.09526300  0.90897700  0.70210400  1
  C  C51  1  0.29365500  0.70210400  0.90897700  1
  C  C52  1  0.41431900  0.23909400  0.78235500  1
  C  C53  1  0.23909400  0.41431900  0.56423100  1
  C  C54  1  0.78235500  0.56423100  0.41431900  1
  C  C55  1  0.78235500  0.41431900  0.23909400  1
  C  C56  1  0.56423100  0.78235500  0.23909400  1
  C  C57  1  0.56423100  0.23909400  0.41431900  1
  C  C58  1  0.41431900  0.78235500  0.56423100  1
  C  C59  1  0.23909400  0.56423100  0.78235500  1
  C  C60  1  0.23909400  0.78235500  0.41431900  1
  C  C61  1  0.56423100  0.41431900  0.78235500  1
  C  C62  1  0.78235500  0.23909400  0.56423100  1
  C  C63  1  0.41431900  0.56423100  0.23909400  1
  C  C64  1  0.00000000  0.00000000  0.00000000  1
