# generated using pymatgen
data_Cu15(NiC)2
_symmetry_space_group_name_H-M   'P 1'
_cell_length_a   6.41626441
_cell_length_b   6.41626441
_cell_length_c   6.41626394
_cell_angle_alpha   82.41835686
_cell_angle_beta   82.41835686
_cell_angle_gamma   82.41835561
_symmetry_Int_Tables_number   1
_chemical_formula_structural   Cu15(NiC)2
_chemical_formula_sum   'Cu15 Ni2 C2'
_cell_volume   257.78021202
_cell_formula_units_Z   1
loop_
 _symmetry_equiv_pos_site_id
 _symmetry_equiv_pos_as_xyz
  1  'x, y, z'
loop_
 _atom_site_type_symbol
 _atom_site_label
 _atom_site_symmetry_multiplicity
 _atom_site_fract_x
 _atom_site_fract_y
 _atom_site_fract_z
 _atom_site_occupancy
  C  C0  1  0.65274700  0.65274700  0.65274700  1
  C  C1  1  0.34725300  0.34725300  0.34725300  1
  Ni  Ni2  1  0.89716500  0.89716500  0.89716500  1
  Ni  Ni3  1  0.10283500  0.10283500  0.10283500  1
  Cu  Cu4  1  0.00000000  0.00000000  0.50000000  1
  Cu  Cu5  1  0.00000000  0.50000000  0.00000000  1
  Cu  Cu6  1  0.50000000  0.00000000  0.00000000  1
  Cu  Cu7  1  0.29936600  0.70063400  0.00000000  1
  Cu  Cu8  1  0.70063400  0.00000000  0.29936600  1
  Cu  Cu9  1  0.00000000  0.29936600  0.70063400  1
  Cu  Cu10  1  0.29936600  0.00000000  0.70063400  1
  Cu  Cu11  1  0.00000000  0.70063400  0.29936600  1
  Cu  Cu12  1  0.70063400  0.29936600  0.00000000  1
  Cu  Cu13  1  0.34168700  0.34168700  0.84037600  1
  Cu  Cu14  1  0.34168700  0.84037600  0.34168700  1
  Cu  Cu15  1  0.84037600  0.34168700  0.34168700  1
  Cu  Cu16  1  0.65831300  0.65831300  0.15962400  1
  Cu  Cu17  1  0.65831300  0.15962400  0.65831300  1
  Cu  Cu18  1  0.15962400  0.65831300  0.65831300  1
