# generated using pymatgen
data_Cu10Ni4C13
_symmetry_space_group_name_H-M   'P 1'
_cell_length_a   13.62444701
_cell_length_b   13.62444701
_cell_length_c   13.62444701
_cell_angle_alpha   90.00000000
_cell_angle_beta   90.00000000
_cell_angle_gamma   90.00000000
_symmetry_Int_Tables_number   1
_chemical_formula_structural   Cu10Ni4C13
_chemical_formula_sum   'Cu80 Ni32 C104'
_cell_volume   2529.04555590
_cell_formula_units_Z   8
loop_
 _symmetry_equiv_pos_site_id
 _symmetry_equiv_pos_as_xyz
  1  'x, y, z'
loop_
 _atom_site_type_symbol
 _atom_site_label
 _atom_site_symmetry_multiplicity
 _atom_site_fract_x
 _atom_site_fract_y
 _atom_site_fract_z
 _atom_site_occupancy
  C  C0  1  0.50000000  0.50000000  0.50000000  1
  C  C1  1  0.50000000  -0.00000000  -0.00000000  1
  C  C2  1  0.00000000  0.50000000  -0.00000000  1
  C  C3  1  0.00000000  -0.00000000  0.50000000  1
  C  C4  1  0.28677870  0.20616849  0.60149706  1
  C  C5  1  0.71322130  0.70616849  0.89850294  1
  C  C6  1  0.21322130  0.79383151  0.10149706  1
  C  C7  1  0.78677870  0.29383151  0.39850294  1
  C  C8  1  0.60149706  0.28677870  0.20616849  1
  C  C9  1  0.89850294  0.71322130  0.70616849  1
  C  C10  1  0.10149706  0.21322130  0.79383151  1
  C  C11  1  0.39850294  0.78677870  0.29383151  1
  C  C12  1  0.20616849  0.60149706  0.28677870  1
  C  C13  1  0.70616849  0.89850294  0.71322130  1
  C  C14  1  0.79383151  0.10149706  0.21322130  1
  C  C15  1  0.29383151  0.39850294  0.78677870  1
  C  C16  1  0.71322130  0.79383151  0.39850294  1
  C  C17  1  0.28677870  0.29383151  0.10149706  1
  C  C18  1  0.78677870  0.20616849  0.89850294  1
  C  C19  1  0.21322130  0.70616849  0.60149706  1
  C  C20  1  0.39850294  0.71322130  0.79383151  1
  C  C21  1  0.10149706  0.28677870  0.29383151  1
  C  C22  1  0.89850294  0.78677870  0.20616849  1
  C  C23  1  0.60149706  0.21322130  0.70616849  1
  C  C24  1  0.79383151  0.39850294  0.71322130  1
  C  C25  1  0.29383151  0.10149706  0.28677870  1
  C  C26  1  0.20616849  0.89850294  0.78677870  1
  C  C27  1  0.70616849  0.60149706  0.21322130  1
  C  C28  1  0.17312836  0.15421995  0.64420311  1
  C  C29  1  0.82687164  0.65421995  0.85579689  1
  C  C30  1  0.32687164  0.84578005  0.14420311  1
  C  C31  1  0.67312836  0.34578005  0.35579689  1
  C  C32  1  0.64420311  0.17312836  0.15421995  1
  C  C33  1  0.85579689  0.82687164  0.65421995  1
  C  C34  1  0.14420311  0.32687164  0.84578005  1
  C  C35  1  0.35579689  0.67312836  0.34578005  1
  C  C36  1  0.15421995  0.64420311  0.17312836  1
  C  C37  1  0.65421995  0.85579689  0.82687164  1
  C  C38  1  0.84578005  0.14420311  0.32687164  1
  C  C39  1  0.34578005  0.35579689  0.67312836  1
  C  C40  1  0.82687164  0.84578005  0.35579689  1
  C  C41  1  0.17312836  0.34578005  0.14420311  1
  C  C42  1  0.67312836  0.15421995  0.85579689  1
  C  C43  1  0.32687164  0.65421995  0.64420311  1
  C  C44  1  0.35579689  0.82687164  0.84578005  1
  C  C45  1  0.14420311  0.17312836  0.34578005  1
  C  C46  1  0.85579689  0.67312836  0.15421995  1
  C  C47  1  0.64420311  0.32687164  0.65421995  1
  C  C48  1  0.84578005  0.35579689  0.82687164  1
  C  C49  1  0.34578005  0.14420311  0.17312836  1
  C  C50  1  0.15421995  0.85579689  0.67312836  1
  C  C51  1  0.65421995  0.64420311  0.32687164  1
  C  C52  1  0.17316051  0.27241235  0.58473126  1
  C  C53  1  0.82683949  0.77241235  0.91526874  1
  C  C54  1  0.32683949  0.72758765  0.08473126  1
  C  C55  1  0.67316051  0.22758765  0.41526874  1
  C  C56  1  0.58473126  0.17316051  0.27241235  1
  C  C57  1  0.91526874  0.82683949  0.77241235  1
  C  C58  1  0.08473126  0.32683949  0.72758765  1
  C  C59  1  0.41526874  0.67316051  0.22758765  1
  C  C60  1  0.27241235  0.58473126  0.17316051  1
  C  C61  1  0.77241235  0.91526874  0.82683949  1
  C  C62  1  0.72758765  0.08473126  0.32683949  1
  C  C63  1  0.22758765  0.41526874  0.67316051  1
  C  C64  1  0.82683949  0.72758765  0.41526874  1
  C  C65  1  0.17316051  0.22758765  0.08473126  1
  C  C66  1  0.67316051  0.27241235  0.91526874  1
  C  C67  1  0.32683949  0.77241235  0.58473126  1
  C  C68  1  0.41526874  0.82683949  0.72758765  1
  C  C69  1  0.08473126  0.17316051  0.22758765  1
  C  C70  1  0.91526874  0.67316051  0.27241235  1
  C  C71  1  0.58473126  0.32683949  0.77241235  1
  C  C72  1  0.72758765  0.41526874  0.82683949  1
  C  C73  1  0.22758765  0.08473126  0.17316051  1
  C  C74  1  0.27241235  0.91526874  0.67316051  1
  C  C75  1  0.77241235  0.58473126  0.32683949  1
  C  C76  1  0.29790462  0.24287293  0.86398436  1
  C  C77  1  0.70209538  0.74287293  0.63601564  1
  C  C78  1  0.20209538  0.75712707  0.36398436  1
  C  C79  1  0.79790462  0.25712707  0.13601564  1
  C  C80  1  0.86398436  0.29790462  0.24287293  1
  C  C81  1  0.63601564  0.70209538  0.74287293  1
  C  C82  1  0.36398436  0.20209538  0.75712707  1
  C  C83  1  0.13601564  0.79790462  0.25712707  1
  C  C84  1  0.24287293  0.86398436  0.29790462  1
  C  C85  1  0.74287293  0.63601564  0.70209538  1
  C  C86  1  0.75712707  0.36398436  0.20209538  1
  C  C87  1  0.25712707  0.13601564  0.79790462  1
  C  C88  1  0.70209538  0.75712707  0.13601564  1
  C  C89  1  0.29790462  0.25712707  0.36398436  1
  C  C90  1  0.79790462  0.24287293  0.63601564  1
  C  C91  1  0.20209538  0.74287293  0.86398436  1
  C  C92  1  0.13601564  0.70209538  0.75712707  1
  C  C93  1  0.36398436  0.29790462  0.25712707  1
  C  C94  1  0.63601564  0.79790462  0.24287293  1
  C  C95  1  0.86398436  0.20209538  0.74287293  1
  C  C96  1  0.75712707  0.13601564  0.70209538  1
  C  C97  1  0.25712707  0.36398436  0.29790462  1
  C  C98  1  0.24287293  0.63601564  0.79790462  1
  C  C99  1  0.74287293  0.86398436  0.20209538  1
  C  C100  1  0.50000000  -0.00000000  0.50000000  1
  C  C101  1  0.50000000  0.50000000  -0.00000000  1
  C  C102  1  0.00000000  -0.00000000  -0.00000000  1
  C  C103  1  0.00000000  0.50000000  0.50000000  1
  Ni  Ni104  1  0.29201712  0.20798288  0.79201712  1
  Ni  Ni105  1  0.70798288  0.70798288  0.70798288  1
  Ni  Ni106  1  0.20798288  0.79201712  0.29201712  1
  Ni  Ni107  1  0.79201712  0.29201712  0.20798288  1
  Ni  Ni108  1  0.70798288  0.79201712  0.20798288  1
  Ni  Ni109  1  0.29201712  0.29201712  0.29201712  1
  Ni  Ni110  1  0.79201712  0.20798288  0.70798288  1
  Ni  Ni111  1  0.20798288  0.70798288  0.79201712  1
  Ni  Ni112  1  0.21429032  0.22209668  0.63198515  1
  Ni  Ni113  1  0.78570968  0.72209668  0.86801485  1
  Ni  Ni114  1  0.28570968  0.77790332  0.13198515  1
  Ni  Ni115  1  0.71429032  0.27790332  0.36801485  1
  Ni  Ni116  1  0.63198515  0.21429032  0.22209668  1
  Ni  Ni117  1  0.86801485  0.78570968  0.72209668  1
  Ni  Ni118  1  0.13198515  0.28570968  0.77790332  1
  Ni  Ni119  1  0.36801485  0.71429032  0.27790332  1
  Ni  Ni120  1  0.22209668  0.63198515  0.21429032  1
  Ni  Ni121  1  0.72209668  0.86801485  0.78570968  1
  Ni  Ni122  1  0.77790332  0.13198515  0.28570968  1
  Ni  Ni123  1  0.27790332  0.36801485  0.71429032  1
  Ni  Ni124  1  0.78570968  0.77790332  0.36801485  1
  Ni  Ni125  1  0.21429032  0.27790332  0.13198515  1
  Ni  Ni126  1  0.71429032  0.22209668  0.86801485  1
  Ni  Ni127  1  0.28570968  0.72209668  0.63198515  1
  Ni  Ni128  1  0.36801485  0.78570968  0.77790332  1
  Ni  Ni129  1  0.13198515  0.21429032  0.27790332  1
  Ni  Ni130  1  0.86801485  0.71429032  0.22209668  1
  Ni  Ni131  1  0.63198515  0.28570968  0.72209668  1
  Ni  Ni132  1  0.77790332  0.36801485  0.78570968  1
  Ni  Ni133  1  0.27790332  0.13198515  0.21429032  1
  Ni  Ni134  1  0.22209668  0.86801485  0.71429032  1
  Ni  Ni135  1  0.72209668  0.63198515  0.28570968  1
  Cu  Cu136  1  0.46855436  0.21777532  0.48341080  1
  Cu  Cu137  1  0.53144564  0.71777532  0.01658920  1
  Cu  Cu138  1  0.03144564  0.78222468  0.98341080  1
  Cu  Cu139  1  0.96855436  0.28222468  0.51658920  1
  Cu  Cu140  1  0.48341080  0.46855436  0.21777532  1
  Cu  Cu141  1  0.01658920  0.53144564  0.71777532  1
  Cu  Cu142  1  0.98341080  0.03144564  0.78222468  1
  Cu  Cu143  1  0.51658920  0.96855436  0.28222468  1
  Cu  Cu144  1  0.21777532  0.48341080  0.46855436  1
  Cu  Cu145  1  0.71777532  0.01658920  0.53144564  1
  Cu  Cu146  1  0.78222468  0.98341080  0.03144564  1
  Cu  Cu147  1  0.28222468  0.51658920  0.96855436  1
  Cu  Cu148  1  0.53144564  0.78222468  0.51658920  1
  Cu  Cu149  1  0.46855436  0.28222468  0.98341080  1
  Cu  Cu150  1  0.96855436  0.21777532  0.01658920  1
  Cu  Cu151  1  0.03144564  0.71777532  0.48341080  1
  Cu  Cu152  1  0.51658920  0.53144564  0.78222468  1
  Cu  Cu153  1  0.98341080  0.46855436  0.28222468  1
  Cu  Cu154  1  0.01658920  0.96855436  0.21777532  1
  Cu  Cu155  1  0.48341080  0.03144564  0.71777532  1
  Cu  Cu156  1  0.78222468  0.51658920  0.53144564  1
  Cu  Cu157  1  0.28222468  0.98341080  0.46855436  1
  Cu  Cu158  1  0.21777532  0.01658920  0.96855436  1
  Cu  Cu159  1  0.71777532  0.48341080  0.03144564  1
  Cu  Cu160  1  0.46041298  0.13776229  0.44754444  1
  Cu  Cu161  1  0.53958702  0.63776229  0.05245556  1
  Cu  Cu162  1  0.03958702  0.86223771  0.94754444  1
  Cu  Cu163  1  0.96041298  0.36223771  0.55245556  1
  Cu  Cu164  1  0.44754444  0.46041298  0.13776229  1
  Cu  Cu165  1  0.05245556  0.53958702  0.63776229  1
  Cu  Cu166  1  0.94754444  0.03958702  0.86223771  1
  Cu  Cu167  1  0.55245556  0.96041298  0.36223771  1
  Cu  Cu168  1  0.13776229  0.44754444  0.46041298  1
  Cu  Cu169  1  0.63776229  0.05245556  0.53958702  1
  Cu  Cu170  1  0.86223771  0.94754444  0.03958702  1
  Cu  Cu171  1  0.36223771  0.55245556  0.96041298  1
  Cu  Cu172  1  0.53958702  0.86223771  0.55245556  1
  Cu  Cu173  1  0.46041298  0.36223771  0.94754444  1
  Cu  Cu174  1  0.96041298  0.13776229  0.05245556  1
  Cu  Cu175  1  0.03958702  0.63776229  0.44754444  1
  Cu  Cu176  1  0.55245556  0.53958702  0.86223771  1
  Cu  Cu177  1  0.94754444  0.46041298  0.36223771  1
  Cu  Cu178  1  0.05245556  0.96041298  0.13776229  1
  Cu  Cu179  1  0.44754444  0.03958702  0.63776229  1
  Cu  Cu180  1  0.86223771  0.55245556  0.53958702  1
  Cu  Cu181  1  0.36223771  0.94754444  0.46041298  1
  Cu  Cu182  1  0.13776229  0.05245556  0.96041298  1
  Cu  Cu183  1  0.63776229  0.44754444  0.03958702  1
  Cu  Cu184  1  0.47249717  0.29934309  0.51183401  1
  Cu  Cu185  1  0.52750283  0.79934309  0.98816599  1
  Cu  Cu186  1  0.02750283  0.70065691  0.01183401  1
  Cu  Cu187  1  0.97249717  0.20065691  0.48816599  1
  Cu  Cu188  1  0.51183401  0.47249717  0.29934309  1
  Cu  Cu189  1  0.98816599  0.52750283  0.79934309  1
  Cu  Cu190  1  0.01183401  0.02750283  0.70065691  1
  Cu  Cu191  1  0.48816599  0.97249717  0.20065691  1
  Cu  Cu192  1  0.29934309  0.51183401  0.47249717  1
  Cu  Cu193  1  0.79934309  0.98816599  0.52750283  1
  Cu  Cu194  1  0.70065691  0.01183401  0.02750283  1
  Cu  Cu195  1  0.20065691  0.48816599  0.97249717  1
  Cu  Cu196  1  0.52750283  0.70065691  0.48816599  1
  Cu  Cu197  1  0.47249717  0.20065691  0.01183401  1
  Cu  Cu198  1  0.97249717  0.29934309  0.98816599  1
  Cu  Cu199  1  0.02750283  0.79934309  0.51183401  1
  Cu  Cu200  1  0.48816599  0.52750283  0.70065691  1
  Cu  Cu201  1  0.01183401  0.47249717  0.20065691  1
  Cu  Cu202  1  0.98816599  0.97249717  0.29934309  1
  Cu  Cu203  1  0.51183401  0.02750283  0.79934309  1
  Cu  Cu204  1  0.70065691  0.48816599  0.52750283  1
  Cu  Cu205  1  0.20065691  0.01183401  0.47249717  1
  Cu  Cu206  1  0.29934309  0.98816599  0.97249717  1
  Cu  Cu207  1  0.79934309  0.51183401  0.02750283  1
  Cu  Cu208  1  0.22886935  0.27113065  0.72886935  1
  Cu  Cu209  1  0.77113065  0.77113065  0.77113065  1
  Cu  Cu210  1  0.27113065  0.72886935  0.22886935  1
  Cu  Cu211  1  0.72886935  0.22886935  0.27113065  1
  Cu  Cu212  1  0.77113065  0.72886935  0.27113065  1
  Cu  Cu213  1  0.22886935  0.22886935  0.22886935  1
  Cu  Cu214  1  0.72886935  0.27113065  0.77113065  1
  Cu  Cu215  1  0.27113065  0.77113065  0.72886935  1
