# generated using pymatgen
data_Cu7Ni5C2
_symmetry_space_group_name_H-M   'P 1'
_cell_length_a   9.84526436
_cell_length_b   9.84526436
_cell_length_c   7.35443974
_cell_angle_alpha   73.61041163
_cell_angle_beta   73.61041163
_cell_angle_gamma   74.83073137
_symmetry_Int_Tables_number   1
_chemical_formula_structural   Cu7Ni5C2
_chemical_formula_sum   'Cu14 Ni10 C4'
_cell_volume   643.14019278
_cell_formula_units_Z   2
loop_
 _symmetry_equiv_pos_site_id
 _symmetry_equiv_pos_as_xyz
  1  'x, y, z'
loop_
 _atom_site_type_symbol
 _atom_site_label
 _atom_site_symmetry_multiplicity
 _atom_site_fract_x
 _atom_site_fract_y
 _atom_site_fract_z
 _atom_site_occupancy
  C  C0  1  0.67556400  0.67556400  0.55897600  1
  C  C1  1  0.32443600  0.32443600  0.44102400  1
  C  C2  1  0.63728300  0.36271700  0.00000000  1
  C  C3  1  0.36271700  0.63728300  0.00000000  1
  Ni  Ni4  1  0.95780000  0.31885100  0.63131300  1
  Ni  Ni5  1  0.31885100  0.95780000  0.63131300  1
  Ni  Ni6  1  0.04220000  0.68114900  0.36868700  1
  Ni  Ni7  1  0.68114900  0.04220000  0.36868700  1
  Ni  Ni8  1  0.17812400  0.50213800  0.86658200  1
  Ni  Ni9  1  0.50213800  0.17812400  0.86658200  1
  Ni  Ni10  1  0.82187600  0.49786200  0.13341800  1
  Ni  Ni11  1  0.49786200  0.82187600  0.13341800  1
  Ni  Ni12  1  0.87998000  0.87998000  0.76250500  1
  Ni  Ni13  1  0.12002000  0.12002000  0.23749500  1
  Cu  Cu14  1  0.83456800  0.42869800  0.76144300  1
  Cu  Cu15  1  0.42869800  0.83456800  0.76144300  1
  Cu  Cu16  1  0.16543200  0.57130200  0.23855700  1
  Cu  Cu17  1  0.57130200  0.16543200  0.23855700  1
  Cu  Cu18  1  0.25358900  0.47152500  0.65600200  1
  Cu  Cu19  1  0.47152500  0.25358900  0.65600200  1
  Cu  Cu20  1  0.74641100  0.52847500  0.34399800  1
  Cu  Cu21  1  0.52847500  0.74641100  0.34399800  1
  Cu  Cu22  1  0.81281300  0.81281300  0.65463200  1
  Cu  Cu23  1  0.18718700  0.18718700  0.34536800  1
  Cu  Cu24  1  0.16013300  0.16013300  0.02066000  1
  Cu  Cu25  1  0.83986700  0.83986700  0.97934000  1
  Cu  Cu26  1  0.54581600  0.54581600  0.79349700  1
  Cu  Cu27  1  0.45418400  0.45418400  0.20650300  1
