# generated using pymatgen
data_Cu3Ni3C22
_symmetry_space_group_name_H-M   'P 1'
_cell_length_a   8.39513657
_cell_length_b   8.39513657
_cell_length_c   10.35821491
_cell_angle_alpha   61.40144420
_cell_angle_beta   61.40144420
_cell_angle_gamma   39.38354871
_symmetry_Int_Tables_number   1
_chemical_formula_structural   Cu3Ni3C22
_chemical_formula_sum   'Cu3 Ni3 C22'
_cell_volume   398.87947863
_cell_formula_units_Z   1
loop_
 _symmetry_equiv_pos_site_id
 _symmetry_equiv_pos_as_xyz
  1  'x, y, z'
loop_
 _atom_site_type_symbol
 _atom_site_label
 _atom_site_symmetry_multiplicity
 _atom_site_fract_x
 _atom_site_fract_y
 _atom_site_fract_z
 _atom_site_occupancy
  C  C0  1  0.26248700  0.26248700  0.70859200  1
  C  C1  1  0.59841800  0.59841800  0.70444400  1
  C  C2  1  0.93201800  0.93201800  0.70781400  1
  C  C3  1  0.40158200  0.40158200  0.29555600  1
  C  C4  1  0.73751300  0.73751300  0.29140800  1
  C  C5  1  0.06798200  0.06798200  0.29218600  1
  Ni  Ni6  1  0.68162800  0.68162800  0.00008100  1
  Ni  Ni7  1  0.00000000  0.00000000  0.00000000  1
  Ni  Ni8  1  0.31837200  0.31837200  0.99991900  1
  Cu  Cu9  1  0.50000000  0.50000000  0.50000000  1
  Cu  Cu10  1  0.83335900  0.83335900  0.50094900  1
  Cu  Cu11  1  0.16664100  0.16664100  0.49905100  1
  C  C12  1  0.41202100  0.41202100  0.76688700  1
  C  C13  1  0.74346500  0.74346500  0.76687500  1
  C  C14  1  0.07820400  0.07820400  0.76509700  1
  C  C15  1  0.58797900  0.58797900  0.23311300  1
  C  C16  1  0.92179600  0.92179600  0.23490300  1
  C  C17  1  0.25653500  0.25653500  0.23312500  1
  C  C18  1  0.16702900  0.66538400  0.50078300  1
  C  C19  1  0.50000000  0.00000000  0.50000000  1
  C  C20  1  0.83297100  0.33461600  0.49921700  1
  C  C21  1  0.66538400  0.16702900  0.50078300  1
  C  C22  1  0.00000000  0.50000000  0.50000000  1
  C  C23  1  0.33461600  0.83297100  0.49921700  1
  C  C24  1  0.16918600  0.16918600  0.00030800  1
  C  C25  1  0.83081400  0.83081400  0.99969200  1
  C  C26  1  0.62012300  0.37987700  0.00000000  1
  C  C27  1  0.37987700  0.62012300  0.00000000  1
