# generated using pymatgen
data_CuNiC11
_symmetry_space_group_name_H-M   'P 1'
_cell_length_a   5.72087944
_cell_length_b   6.94597101
_cell_length_c   9.50959886
_cell_angle_alpha   109.49884743
_cell_angle_beta   101.68869569
_cell_angle_gamma   98.64513495
_symmetry_Int_Tables_number   1
_chemical_formula_structural   CuNiC11
_chemical_formula_sum   'Cu2 Ni2 C22'
_cell_volume   338.96328965
_cell_formula_units_Z   2
loop_
 _symmetry_equiv_pos_site_id
 _symmetry_equiv_pos_as_xyz
  1  'x, y, z'
loop_
 _atom_site_type_symbol
 _atom_site_label
 _atom_site_symmetry_multiplicity
 _atom_site_fract_x
 _atom_site_fract_y
 _atom_site_fract_z
 _atom_site_occupancy
  Ni  Ni0  1  0.26502600  0.80824000  0.05887500  1
  Ni  Ni1  1  0.73497400  0.19176000  0.94112500  1
  Cu  Cu2  1  0.99786700  0.41578800  0.65967000  1
  Cu  Cu3  1  0.00213300  0.58421200  0.34033000  1
  C  C4  1  0.64487200  0.85090800  0.56176600  1
  C  C5  1  0.35512800  0.14909200  0.43823400  1
  C  C6  1  0.39395200  0.41771800  0.22572600  1
  C  C7  1  0.60604800  0.58228200  0.77427400  1
  C  C8  1  0.83949600  0.03434800  0.29897100  1
  C  C9  1  0.16050400  0.96565200  0.70102900  1
  C  C10  1  0.84033100  0.55906800  0.87886500  1
  C  C11  1  0.62162700  0.45213800  0.16630300  1
  C  C12  1  0.65244600  0.80044600  0.76094400  1
  C  C13  1  0.95811700  0.09675400  0.69075000  1
  C  C14  1  0.37837300  0.54786200  0.83369700  1
  C  C15  1  0.01799900  0.73223600  0.59830900  1
  C  C16  1  0.98200100  0.26776400  0.40169100  1
  C  C17  1  0.27104800  0.00074900  0.87027300  1
  C  C18  1  0.34755400  0.19955400  0.23905600  1
  C  C19  1  0.72895200  0.99925100  0.12972700  1
  C  C20  1  0.15966900  0.44093200  0.12113500  1
  C  C21  1  0.42686400  0.59055500  0.38908800  1
  C  C22  1  0.57313600  0.40944500  0.61091200  1
  C  C23  1  0.63559600  0.96743500  0.37350300  1
  C  C24  1  0.04188300  0.90324600  0.30925000  1
  C  C25  1  0.36440400  0.03256500  0.62649700  1
