# generated using pymatgen
data_Cu12Ni3C2
_symmetry_space_group_name_H-M   'P 1'
_cell_length_a   9.29575800
_cell_length_b   9.53141700
_cell_length_c   12.97773700
_cell_angle_alpha   90.00000000
_cell_angle_beta   90.00000000
_cell_angle_gamma   90.00000000
_symmetry_Int_Tables_number   1
_chemical_formula_structural   Cu12Ni3C2
_chemical_formula_sum   'Cu48 Ni12 C8'
_cell_volume   1149.85015511
_cell_formula_units_Z   4
loop_
 _symmetry_equiv_pos_site_id
 _symmetry_equiv_pos_as_xyz
  1  'x, y, z'
loop_
 _atom_site_type_symbol
 _atom_site_label
 _atom_site_symmetry_multiplicity
 _atom_site_fract_x
 _atom_site_fract_y
 _atom_site_fract_z
 _atom_site_occupancy
  C  C0  1  0.25205600  0.46558200  0.11745200  1
  C  C1  1  0.74794400  0.53441800  0.88254800  1
  C  C2  1  0.24794400  0.96558200  0.38254800  1
  C  C3  1  0.25205600  0.03441800  0.88254800  1
  C  C4  1  0.75205600  0.03441800  0.61745200  1
  C  C5  1  0.74794400  0.96558200  0.11745200  1
  C  C6  1  0.24794400  0.53441800  0.61745200  1
  C  C7  1  0.75205600  0.46558200  0.38254800  1
  Ni  Ni8  1  0.52959500  0.25000000  0.00000000  1
  Ni  Ni9  1  0.47040500  0.75000000  0.00000000  1
  Ni  Ni10  1  0.97040500  0.75000000  0.50000000  1
  Ni  Ni11  1  0.02959500  0.25000000  0.50000000  1
  Ni  Ni12  1  0.10543300  0.11849700  0.14401000  1
  Ni  Ni13  1  0.89456700  0.88150300  0.85599000  1
  Ni  Ni14  1  0.39456700  0.61849700  0.35599000  1
  Ni  Ni15  1  0.10543300  0.38150300  0.85599000  1
  Ni  Ni16  1  0.60543300  0.38150300  0.64401000  1
  Ni  Ni17  1  0.89456700  0.61849700  0.14401000  1
  Ni  Ni18  1  0.39456700  0.88150300  0.64401000  1
  Ni  Ni19  1  0.60543300  0.11849700  0.35599000  1
  Cu  Cu20  1  0.16737500  0.08045500  0.04292500  1
  Cu  Cu21  1  0.83262500  0.91954500  0.95707500  1
  Cu  Cu22  1  0.33262500  0.58045500  0.45707500  1
  Cu  Cu23  1  0.16737500  0.41954500  0.95707500  1
  Cu  Cu24  1  0.66737500  0.41954500  0.54292500  1
  Cu  Cu25  1  0.83262500  0.58045500  0.04292500  1
  Cu  Cu26  1  0.33262500  0.91954500  0.54292500  1
  Cu  Cu27  1  0.66737500  0.08045500  0.45707500  1
  Cu  Cu28  1  0.16996900  0.02758400  0.22472300  1
  Cu  Cu29  1  0.83003100  0.97241600  0.77527700  1
  Cu  Cu30  1  0.33003100  0.52758400  0.27527700  1
  Cu  Cu31  1  0.16996900  0.47241600  0.77527700  1
  Cu  Cu32  1  0.66996900  0.47241600  0.72472300  1
  Cu  Cu33  1  0.83003100  0.52758400  0.22472300  1
  Cu  Cu34  1  0.33003100  0.97241600  0.72472300  1
  Cu  Cu35  1  0.66996900  0.02758400  0.27527700  1
  Cu  Cu36  1  0.12212800  0.14691400  0.44641400  1
  Cu  Cu37  1  0.87787200  0.85308600  0.55358600  1
  Cu  Cu38  1  0.37787200  0.64691400  0.05358600  1
  Cu  Cu39  1  0.12212800  0.35308600  0.55358600  1
  Cu  Cu40  1  0.62212800  0.35308600  0.94641400  1
  Cu  Cu41  1  0.87787200  0.64691400  0.44641400  1
  Cu  Cu42  1  0.37787200  0.85308600  0.94641400  1
  Cu  Cu43  1  0.62212800  0.14691400  0.05358600  1
  Cu  Cu44  1  0.13657800  0.26756200  0.16813800  1
  Cu  Cu45  1  0.86342200  0.73243800  0.83186200  1
  Cu  Cu46  1  0.36342200  0.76756200  0.33186200  1
  Cu  Cu47  1  0.13657800  0.23243800  0.83186200  1
  Cu  Cu48  1  0.63657800  0.23243800  0.66813800  1
  Cu  Cu49  1  0.86342200  0.76756200  0.16813800  1
  Cu  Cu50  1  0.36342200  0.73243800  0.66813800  1
  Cu  Cu51  1  0.63657800  0.26756200  0.33186200  1
  Cu  Cu52  1  0.43801900  0.32174600  0.07725000  1
  Cu  Cu53  1  0.56198100  0.67825400  0.92275000  1
  Cu  Cu54  1  0.06198100  0.82174600  0.42275000  1
  Cu  Cu55  1  0.43801900  0.17825400  0.92275000  1
  Cu  Cu56  1  0.93801900  0.17825400  0.57725000  1
  Cu  Cu57  1  0.56198100  0.82174600  0.07725000  1
  Cu  Cu58  1  0.06198100  0.67825400  0.57725000  1
  Cu  Cu59  1  0.93801900  0.32174600  0.42275000  1
  Cu  Cu60  1  0.44741000  0.09796500  0.35766800  1
  Cu  Cu61  1  0.55259000  0.90203500  0.64233200  1
  Cu  Cu62  1  0.05259000  0.59796500  0.14233200  1
  Cu  Cu63  1  0.44741000  0.40203500  0.64233200  1
  Cu  Cu64  1  0.94741000  0.40203500  0.85766800  1
  Cu  Cu65  1  0.55259000  0.59796500  0.35766800  1
  Cu  Cu66  1  0.05259000  0.90203500  0.85766800  1
  Cu  Cu67  1  0.94741000  0.09796500  0.14233200  1
