# generated using pymatgen
data_Cu(Ni3C5)4
_symmetry_space_group_name_H-M   'P 1'
_cell_length_a   5.53646053
_cell_length_b   7.90846105
_cell_length_c   13.69439119
_cell_angle_alpha   89.99999255
_cell_angle_beta   90.00000329
_cell_angle_gamma   89.91529554
_symmetry_Int_Tables_number   1
_chemical_formula_structural   Cu(Ni3C5)4
_chemical_formula_sum   'Cu1 Ni12 C20'
_cell_volume   599.60665246
_cell_formula_units_Z   1
loop_
 _symmetry_equiv_pos_site_id
 _symmetry_equiv_pos_as_xyz
  1  'x, y, z'
loop_
 _atom_site_type_symbol
 _atom_site_label
 _atom_site_symmetry_multiplicity
 _atom_site_fract_x
 _atom_site_fract_y
 _atom_site_fract_z
 _atom_site_occupancy
  C  C0  1  0.50000000  0.99999600  0.33453600  1
  C  C1  1  0.50000000  0.49999100  0.83254800  1
  C  C2  1  0.50000000  0.49999100  0.16745200  1
  C  C3  1  0.50000000  0.99999600  0.66546400  1
  C  C4  1  0.00000300  0.50000800  0.16484600  1
  C  C5  1  0.99999800  0.00000200  0.66723700  1
  C  C6  1  0.99999800  0.00000200  0.33276300  1
  C  C7  1  0.00000300  0.50000800  0.83515400  1
  C  C8  1  0.75583200  0.24766500  0.00000000  1
  C  C9  1  0.75059400  0.75114700  0.50000000  1
  C  C10  1  0.74954700  0.37523200  0.37423800  1
  C  C11  1  0.75564900  0.87557300  0.87540800  1
  C  C12  1  0.75564900  0.87557300  0.12459200  1
  C  C13  1  0.74954700  0.37523200  0.62576200  1
  C  C14  1  0.24416200  0.75233600  0.00000000  1
  C  C15  1  0.24940200  0.24885500  0.50000000  1
  C  C16  1  0.24435300  0.12442900  0.12459300  1
  C  C17  1  0.25045100  0.62476700  0.62576000  1
  C  C18  1  0.25045100  0.62476700  0.37424000  1
  C  C19  1  0.24435300  0.12442900  0.87540700  1
  Ni  Ni20  1  0.74785000  0.60668600  0.00000000  1
  Ni  Ni21  1  0.75246900  0.10979000  0.50000000  1
  Ni  Ni22  1  0.75087800  0.19742000  0.19728100  1
  Ni  Ni23  1  0.74990800  0.69584300  0.69551800  1
  Ni  Ni24  1  0.74990800  0.69584300  0.30448200  1
  Ni  Ni25  1  0.75087800  0.19742000  0.80271900  1
  Ni  Ni26  1  0.25214200  0.39331700  0.00000000  1
  Ni  Ni27  1  0.24752500  0.89021000  0.50000000  1
  Ni  Ni28  1  0.25009800  0.30415700  0.30448200  1
  Ni  Ni29  1  0.24912800  0.80257800  0.80272100  1
  Ni  Ni30  1  0.24912800  0.80257800  0.19727900  1
  Ni  Ni31  1  0.25009800  0.30415700  0.69551800  1
  Cu  Cu32  1  0.99999900  0.00000200  0.00000000  1
