# generated using pymatgen
data_Cu5NiC
_symmetry_space_group_name_H-M   'P 1'
_cell_length_a   5.19860316
_cell_length_b   5.19860316
_cell_length_c   7.62094673
_cell_angle_alpha   105.40536928
_cell_angle_beta   105.40536928
_cell_angle_gamma   96.51426103
_symmetry_Int_Tables_number   1
_chemical_formula_structural   Cu5NiC
_chemical_formula_sum   'Cu10 Ni2 C2'
_cell_volume   187.63606461
_cell_formula_units_Z   2
loop_
 _symmetry_equiv_pos_site_id
 _symmetry_equiv_pos_as_xyz
  1  'x, y, z'
loop_
 _atom_site_type_symbol
 _atom_site_label
 _atom_site_symmetry_multiplicity
 _atom_site_fract_x
 _atom_site_fract_y
 _atom_site_fract_z
 _atom_site_occupancy
  C  C0  1  0.00000000  0.00000000  0.50000000  1
  C  C1  1  0.50000000  0.50000000  0.00000000  1
  Ni  Ni2  1  0.09129400  0.40870600  0.25000000  1
  Ni  Ni3  1  0.90870600  0.59129400  0.75000000  1
  Cu  Cu4  1  0.23071300  0.32858700  0.10490300  1
  Cu  Cu5  1  0.17141300  0.26928700  0.39509700  1
  Cu  Cu6  1  0.76928700  0.67141300  0.89509700  1
  Cu  Cu7  1  0.82858700  0.73071300  0.60490300  1
  Cu  Cu8  1  0.17141600  0.71050400  0.34438500  1
  Cu  Cu9  1  0.78949600  0.32858400  0.15561500  1
  Cu  Cu10  1  0.82858400  0.28949600  0.65561500  1
  Cu  Cu11  1  0.21050400  0.67141600  0.84438500  1
  Cu  Cu12  1  0.64875700  0.85124300  0.25000000  1
  Cu  Cu13  1  0.35124300  0.14875700  0.75000000  1
