# generated using pymatgen
data_Cu5Ni3C2
_symmetry_space_group_name_H-M   'P 1'
_cell_length_a   7.83331688
_cell_length_b   7.83331688
_cell_length_c   5.48079649
_cell_angle_alpha   70.83233422
_cell_angle_beta   70.83233422
_cell_angle_gamma   93.37413732
_symmetry_Int_Tables_number   1
_chemical_formula_structural   Cu5Ni3C2
_chemical_formula_sum   'Cu10 Ni6 C4'
_cell_volume   294.77023724
_cell_formula_units_Z   2
loop_
 _symmetry_equiv_pos_site_id
 _symmetry_equiv_pos_as_xyz
  1  'x, y, z'
loop_
 _atom_site_type_symbol
 _atom_site_label
 _atom_site_symmetry_multiplicity
 _atom_site_fract_x
 _atom_site_fract_y
 _atom_site_fract_z
 _atom_site_occupancy
  C  C0  1  0.86924700  0.59784700  0.76374600  1
  C  C1  1  0.40215300  0.13075300  0.73625400  1
  C  C2  1  0.13075300  0.40215300  0.23625400  1
  C  C3  1  0.59784700  0.86924700  0.26374600  1
  Ni  Ni4  1  0.53851100  0.26220900  0.12601200  1
  Ni  Ni5  1  0.99649900  0.00350100  0.25000000  1
  Ni  Ni6  1  0.26220900  0.53851100  0.62601200  1
  Ni  Ni7  1  0.46148900  0.73779100  0.87398800  1
  Ni  Ni8  1  0.73779100  0.46148900  0.37398800  1
  Ni  Ni9  1  0.00350100  0.99649900  0.75000000  1
  Cu  Cu10  1  0.77031300  0.22968700  0.75000000  1
  Cu  Cu11  1  0.22968700  0.77031300  0.25000000  1
  Cu  Cu12  1  0.51110000  0.48890000  0.75000000  1
  Cu  Cu13  1  0.48890000  0.51110000  0.25000000  1
  Cu  Cu14  1  0.21477500  0.78522500  0.75000000  1
  Cu  Cu15  1  0.78522500  0.21477500  0.25000000  1
  Cu  Cu16  1  0.06303400  0.26226400  0.83535600  1
  Cu  Cu17  1  0.26226400  0.06303400  0.33535600  1
  Cu  Cu18  1  0.93696600  0.73773600  0.16464400  1
  Cu  Cu19  1  0.73773600  0.93696600  0.66464400  1
