# generated using pymatgen
data_CuNiC5
_symmetry_space_group_name_H-M   'P 1'
_cell_length_a   3.43111100
_cell_length_b   11.09417400
_cell_length_c   12.38931900
_cell_angle_alpha   90.00000000
_cell_angle_beta   90.00000000
_cell_angle_gamma   90.00000000
_symmetry_Int_Tables_number   1
_chemical_formula_structural   CuNiC5
_chemical_formula_sum   'Cu4 Ni4 C20'
_cell_volume   471.60367042
_cell_formula_units_Z   4
loop_
 _symmetry_equiv_pos_site_id
 _symmetry_equiv_pos_as_xyz
  1  'x, y, z'
loop_
 _atom_site_type_symbol
 _atom_site_label
 _atom_site_symmetry_multiplicity
 _atom_site_fract_x
 _atom_site_fract_y
 _atom_site_fract_z
 _atom_site_occupancy
  Ni  Ni0  1  0.00000000  0.04712600  0.63175400  1
  Ni  Ni1  1  0.00000000  0.54712600  0.36824600  1
  Ni  Ni2  1  0.00000000  0.09336300  0.16949700  1
  Ni  Ni3  1  0.00000000  0.59336300  0.83050300  1
  Cu  Cu4  1  0.50000000  0.94966100  0.86945200  1
  Cu  Cu5  1  0.50000000  0.44966100  0.13054800  1
  Cu  Cu6  1  0.50000000  0.91115300  0.33242800  1
  Cu  Cu7  1  0.50000000  0.41115300  0.66757200  1
  C  C8  1  0.50000000  0.72485800  0.08651100  1
  C  C9  1  0.00000000  0.26243200  0.42576500  1
  C  C10  1  0.00000000  0.76243200  0.57423500  1
  C  C11  1  0.50000000  0.22485800  0.91348900  1
  C  C12  1  0.00000000  0.93557700  0.46048300  1
  C  C13  1  0.50000000  0.06455200  0.03717800  1
  C  C14  1  0.50000000  0.56455200  0.96282200  1
  C  C15  1  0.00000000  0.43557700  0.53951700  1
  C  C16  1  0.50000000  0.89988600  0.68442600  1
  C  C17  1  0.00000000  0.09755600  0.81936000  1
  C  C18  1  0.00000000  0.59755600  0.18064000  1
  C  C19  1  0.50000000  0.39988600  0.31557400  1
  C  C20  1  0.00000000  0.88102300  0.19761500  1
  C  C21  1  0.50000000  0.12434600  0.30930500  1
  C  C22  1  0.50000000  0.62434600  0.69069500  1
  C  C23  1  0.00000000  0.38102300  0.80238500  1
  C  C24  1  0.00000000  0.81190400  0.91504500  1
  C  C25  1  0.50000000  0.19656200  0.59061600  1
  C  C26  1  0.50000000  0.69656200  0.40938400  1
  C  C27  1  0.00000000  0.31190400  0.08495500  1
