# generated using pymatgen
data_Cu4Ni2C
_symmetry_space_group_name_H-M   'P 1'
_cell_length_a   5.72584900
_cell_length_b   7.95208800
_cell_length_c   13.71286436
_cell_angle_alpha   71.81256710
_cell_angle_beta   90.00000000
_cell_angle_gamma   90.00000000
_symmetry_Int_Tables_number   1
_chemical_formula_structural   Cu4Ni2C
_chemical_formula_sum   'Cu16 Ni8 C4'
_cell_volume   593.18667160
_cell_formula_units_Z   4
loop_
 _symmetry_equiv_pos_site_id
 _symmetry_equiv_pos_as_xyz
  1  'x, y, z'
loop_
 _atom_site_type_symbol
 _atom_site_label
 _atom_site_symmetry_multiplicity
 _atom_site_fract_x
 _atom_site_fract_y
 _atom_site_fract_z
 _atom_site_occupancy
  C  C0  1  0.16955700  0.00000000  0.25000000  1
  C  C1  1  0.83044300  0.00000000  0.75000000  1
  C  C2  1  0.00000000  0.50000000  0.00000000  1
  C  C3  1  0.00000000  0.50000000  0.50000000  1
  Ni  Ni4  1  0.96318200  0.78052800  0.08190600  1
  Ni  Ni5  1  0.03681800  0.21947200  0.91809400  1
  Ni  Ni6  1  0.96318200  0.21947200  0.41809400  1
  Ni  Ni7  1  0.03681800  0.78052800  0.58190600  1
  Ni  Ni8  1  0.79527000  0.68560000  0.62070900  1
  Ni  Ni9  1  0.20473000  0.31440000  0.37929100  1
  Ni  Ni10  1  0.79527000  0.31440000  0.87929100  1
  Ni  Ni11  1  0.20473000  0.68560000  0.12070900  1
  Cu  Cu12  1  0.33188900  0.73835500  0.17692900  1
  Cu  Cu13  1  0.66811100  0.26164500  0.82307100  1
  Cu  Cu14  1  0.33188900  0.26164500  0.32307100  1
  Cu  Cu15  1  0.66811100  0.73835500  0.67692900  1
  Cu  Cu16  1  0.89380500  0.90189400  0.11196400  1
  Cu  Cu17  1  0.10619500  0.09810600  0.88803600  1
  Cu  Cu18  1  0.89380500  0.09810600  0.38803600  1
  Cu  Cu19  1  0.10619500  0.90189400  0.61196400  1
  Cu  Cu20  1  0.76050500  0.55205100  0.58598400  1
  Cu  Cu21  1  0.23949500  0.44794900  0.41401600  1
  Cu  Cu22  1  0.76050500  0.44794900  0.91401600  1
  Cu  Cu23  1  0.23949500  0.55205100  0.08598400  1
  Cu  Cu24  1  0.86003200  0.71183900  0.01809800  1
  Cu  Cu25  1  0.13996800  0.28816100  0.98190200  1
  Cu  Cu26  1  0.86003200  0.28816100  0.48190200  1
  Cu  Cu27  1  0.13996800  0.71183900  0.51809800  1
