# generated using pymatgen
data_CuNi2C11
_symmetry_space_group_name_H-M   'P 1'
_cell_length_a   6.98811466
_cell_length_b   7.49812084
_cell_length_c   6.98603056
_cell_angle_alpha   62.15229743
_cell_angle_beta   60.08652369
_cell_angle_gamma   62.14661037
_symmetry_Int_Tables_number   1
_chemical_formula_structural   CuNi2C11
_chemical_formula_sum   'Cu1 Ni2 C11'
_cell_volume   267.11541945
_cell_formula_units_Z   1
loop_
 _symmetry_equiv_pos_site_id
 _symmetry_equiv_pos_as_xyz
  1  'x, y, z'
loop_
 _atom_site_type_symbol
 _atom_site_label
 _atom_site_symmetry_multiplicity
 _atom_site_fract_x
 _atom_site_fract_y
 _atom_site_fract_z
 _atom_site_occupancy
  Ni  Ni0  1  0.85779800  0.92557400  0.85782300  1
  Ni  Ni1  1  0.10549300  0.18460700  0.10488000  1
  Cu  Cu2  1  0.52370100  0.93011200  0.52306700  1
  C  C3  1  0.46592800  0.50733400  0.46606300  1
  C  C4  1  0.46587200  0.50769500  0.06059900  1
  C  C5  1  0.06030100  0.50723200  0.46631400  1
  C  C6  1  0.76231800  0.70625400  0.76261200  1
  C  C7  1  0.27848900  0.23775100  0.70642700  1
  C  C8  1  0.23912200  0.78065300  0.23967500  1
  C  C9  1  0.70676900  0.23819700  0.27810000  1
  C  C10  1  0.72650300  0.32081200  0.72680900  1
  C  C11  1  0.26895100  0.70759300  0.76124200  1
  C  C12  1  0.27749700  0.23886400  0.27748500  1
  C  C13  1  0.76126400  0.70731800  0.26890600  1
