# generated using pymatgen
data_Cu7(Ni4C17)2
_symmetry_space_group_name_H-M   'P 1'
_cell_length_a   11.37051402
_cell_length_b   11.37051402
_cell_length_c   13.58310883
_cell_angle_alpha   114.74329413
_cell_angle_beta   114.74329413
_cell_angle_gamma   90.00000000
_symmetry_Int_Tables_number   1
_chemical_formula_structural   Cu7(Ni4C17)2
_chemical_formula_sum   'Cu7 Ni8 C34'
_cell_volume   1415.43876029
_cell_formula_units_Z   1
loop_
 _symmetry_equiv_pos_site_id
 _symmetry_equiv_pos_as_xyz
  1  'x, y, z'
loop_
 _atom_site_type_symbol
 _atom_site_label
 _atom_site_symmetry_multiplicity
 _atom_site_fract_x
 _atom_site_fract_y
 _atom_site_fract_z
 _atom_site_occupancy
  Ni  Ni0  1  0.52418950  0.70326304  0.68240279  1
  Ni  Ni1  1  0.15821329  0.97913975  0.68240279  1
  Ni  Ni2  1  0.70326304  0.15821329  0.68240279  1
  Ni  Ni3  1  0.97913975  0.52418950  0.68240279  1
  Ni  Ni4  1  0.47581050  0.29673696  0.31759721  1
  Ni  Ni5  1  0.84178671  0.02086025  0.31759721  1
  Ni  Ni6  1  0.29673696  0.84178671  0.31759721  1
  Ni  Ni7  1  0.02086025  0.47581050  0.31759721  1
  Cu  Cu8  1  -0.00000000  -0.00000000  -0.00000000  1
  Cu  Cu9  1  0.68844727  0.68844727  0.37689455  1
  Cu  Cu10  1  0.31155273  0.31155273  0.62310545  1
  Cu  Cu11  1  0.60831026  0.18004119  -0.00000000  1
  Cu  Cu12  1  0.39168974  0.81995881  -0.00000000  1
  Cu  Cu13  1  0.18004119  0.39168974  -0.00000000  1
  Cu  Cu14  1  0.81995881  0.60831026  -0.00000000  1
  C  C15  1  0.42299399  0.92299399  0.84598797  1
  C  C16  1  0.92299399  0.42299399  0.84598797  1
  C  C17  1  0.57700601  0.07700601  0.15401203  1
  C  C18  1  0.07700601  0.57700601  0.15401203  1
  C  C19  1  0.72253914  0.00404743  0.84809427  1
  C  C20  1  0.12555513  0.84404684  0.84809427  1
  C  C21  1  0.00404743  0.12555513  0.84809427  1
  C  C22  1  0.84404684  0.72253914  0.84809427  1
  C  C23  1  0.27746086  0.99595257  0.15190573  1
  C  C24  1  0.87444487  0.15595316  0.15190573  1
  C  C25  1  0.99595257  0.87444487  0.15190573  1
  C  C26  1  0.15595316  0.27746086  0.15190573  1
  C  C27  1  0.25000000  0.75000000  0.50000000  1
  C  C28  1  0.75000000  0.25000000  0.50000000  1
  C  C29  1  0.56629620  0.85153108  0.52206414  1
  C  C30  1  0.95576794  0.67053306  0.52206414  1
  C  C31  1  0.85153108  0.95576794  0.52206414  1
  C  C32  1  0.67053306  0.56629620  0.52206414  1
  C  C33  1  0.43370380  0.14846892  0.47793586  1
  C  C34  1  0.04423206  0.32946694  0.47793586  1
  C  C35  1  0.14846892  0.04423206  0.47793586  1
  C  C36  1  0.32946694  0.43370380  0.47793586  1
  C  C37  1  0.40956238  0.54783532  0.24096615  1
  C  C38  1  0.83140377  0.69313082  0.24096615  1
  C  C39  1  0.54783532  0.83140377  0.24096615  1
  C  C40  1  0.69313082  0.40956238  0.24096615  1
  C  C41  1  0.59043762  0.45216468  0.75903385  1
  C  C42  1  0.16859623  0.30686918  0.75903385  1
  C  C43  1  0.45216468  0.16859623  0.75903385  1
  C  C44  1  0.30686918  0.59043762  0.75903385  1
  C  C45  1  0.77331099  0.36148937  -0.00000000  1
  C  C46  1  0.22668901  0.63851063  -0.00000000  1
  C  C47  1  0.36148937  0.22668901  -0.00000000  1
  C  C48  1  0.63851063  0.77331099  -0.00000000  1
