# generated using pymatgen
data_Cu10Ni4C
_symmetry_space_group_name_H-M   'P 1'
_cell_length_a   9.66360700
_cell_length_b   10.51209000
_cell_length_c   16.22166900
_cell_angle_alpha   90.00000000
_cell_angle_beta   90.00000000
_cell_angle_gamma   90.00000000
_symmetry_Int_Tables_number   1
_chemical_formula_structural   Cu10Ni4C
_chemical_formula_sum   'Cu80 Ni32 C8'
_cell_volume   1647.87348445
_cell_formula_units_Z   8
loop_
 _symmetry_equiv_pos_site_id
 _symmetry_equiv_pos_as_xyz
  1  'x, y, z'
loop_
 _atom_site_type_symbol
 _atom_site_label
 _atom_site_symmetry_multiplicity
 _atom_site_fract_x
 _atom_site_fract_y
 _atom_site_fract_z
 _atom_site_occupancy
  C  C0  1  0.13400500  0.93389300  0.03557400  1
  C  C1  1  0.86599500  0.43389300  0.96442600  1
  C  C2  1  0.36599500  0.43389300  0.03557400  1
  C  C3  1  0.63400500  0.93389300  0.96442600  1
  C  C4  1  0.85554300  0.75925300  0.46393200  1
  C  C5  1  0.14445700  0.25925300  0.53606800  1
  C  C6  1  0.64445700  0.25925300  0.46393200  1
  C  C7  1  0.35554300  0.75925300  0.53606800  1
  Ni  Ni8  1  0.72424400  0.74050700  0.21022400  1
  Ni  Ni9  1  0.27575600  0.24050700  0.78977600  1
  Ni  Ni10  1  0.77575600  0.24050700  0.21022400  1
  Ni  Ni11  1  0.22424400  0.74050700  0.78977600  1
  Ni  Ni12  1  0.69298600  0.59069100  0.70404300  1
  Ni  Ni13  1  0.30701400  0.09069100  0.29595700  1
  Ni  Ni14  1  0.80701400  0.09069100  0.70404300  1
  Ni  Ni15  1  0.19298600  0.59069100  0.29595700  1
  Ni  Ni16  1  0.91185500  0.95191700  0.88771300  1
  Ni  Ni17  1  0.08814500  0.45191700  0.11228700  1
  Ni  Ni18  1  0.58814500  0.45191700  0.88771300  1
  Ni  Ni19  1  0.41185500  0.95191700  0.11228700  1
  Ni  Ni20  1  0.24600900  0.69391200  0.99093600  1
  Ni  Ni21  1  0.75399100  0.19391200  0.00906400  1
  Ni  Ni22  1  0.25399100  0.19391200  0.99093600  1
  Ni  Ni23  1  0.74600900  0.69391200  0.00906400  1
  Ni  Ni24  1  0.93850100  0.93973100  0.15744000  1
  Ni  Ni25  1  0.06149900  0.43973100  0.84256000  1
  Ni  Ni26  1  0.56149900  0.43973100  0.15744000  1
  Ni  Ni27  1  0.43850100  0.93973100  0.84256000  1
  Ni  Ni28  1  0.07196900  0.75983900  0.61331200  1
  Ni  Ni29  1  0.92803100  0.25983900  0.38668800  1
  Ni  Ni30  1  0.42803100  0.25983900  0.61331200  1
  Ni  Ni31  1  0.57196900  0.75983900  0.38668800  1
  Ni  Ni32  1  0.73746600  0.02489300  0.52017400  1
  Ni  Ni33  1  0.26253400  0.52489300  0.47982600  1
  Ni  Ni34  1  0.76253400  0.52489300  0.52017400  1
  Ni  Ni35  1  0.23746600  0.02489300  0.47982600  1
  Ni  Ni36  1  0.03935900  0.84427100  0.34680100  1
  Ni  Ni37  1  0.96064100  0.34427100  0.65319900  1
  Ni  Ni38  1  0.46064100  0.34427100  0.34680100  1
  Ni  Ni39  1  0.53935900  0.84427100  0.65319900  1
  Cu  Cu40  1  0.93099200  0.93797200  0.96608300  1
  Cu  Cu41  1  0.06900800  0.43797200  0.03391700  1
  Cu  Cu42  1  0.56900800  0.43797200  0.96608300  1
  Cu  Cu43  1  0.43099200  0.93797200  0.03391700  1
  Cu  Cu44  1  0.28571600  0.95194900  0.13691200  1
  Cu  Cu45  1  0.71428400  0.45194900  0.86308800  1
  Cu  Cu46  1  0.21428400  0.45194900  0.13691200  1
  Cu  Cu47  1  0.78571600  0.95194900  0.86308800  1
  Cu  Cu48  1  0.00853200  0.96514300  0.83888100  1
  Cu  Cu49  1  0.99146800  0.46514300  0.16111900  1
  Cu  Cu50  1  0.49146800  0.46514300  0.83888100  1
  Cu  Cu51  1  0.50853200  0.96514300  0.16111900  1
  Cu  Cu52  1  0.19612200  0.78157100  0.94431100  1
  Cu  Cu53  1  0.80387800  0.28157100  0.05568900  1
  Cu  Cu54  1  0.30387800  0.28157100  0.94431100  1
  Cu  Cu55  1  0.69612200  0.78157100  0.05568900  1
  Cu  Cu56  1  0.19710700  0.09826500  0.95737400  1
  Cu  Cu57  1  0.80289300  0.59826500  0.04262600  1
  Cu  Cu58  1  0.30289300  0.59826500  0.95737400  1
  Cu  Cu59  1  0.69710700  0.09826500  0.04262600  1
  Cu  Cu60  1  0.23738700  0.70610100  0.06716200  1
  Cu  Cu61  1  0.76261300  0.20610100  0.93283800  1
  Cu  Cu62  1  0.26261300  0.20610100  0.06716200  1
  Cu  Cu63  1  0.73738700  0.70610100  0.93283800  1
  Cu  Cu64  1  0.98683300  0.83814500  0.12584100  1
  Cu  Cu65  1  0.01316700  0.33814500  0.87415900  1
  Cu  Cu66  1  0.51316700  0.33814500  0.12584100  1
  Cu  Cu67  1  0.48683300  0.83814500  0.87415900  1
  Cu  Cu68  1  0.98791200  0.04562100  0.13454000  1
  Cu  Cu69  1  0.01208800  0.54562100  0.86546000  1
  Cu  Cu70  1  0.51208800  0.54562100  0.13454000  1
  Cu  Cu71  1  0.48791200  0.04562100  0.86546000  1
  Cu  Cu72  1  0.84333400  0.93458400  0.21063600  1
  Cu  Cu73  1  0.15666600  0.43458400  0.78936400  1
  Cu  Cu74  1  0.65666600  0.43458400  0.21063600  1
  Cu  Cu75  1  0.34333400  0.93458400  0.78936400  1
  Cu  Cu76  1  0.05301400  0.74881900  0.53500900  1
  Cu  Cu77  1  0.94698600  0.24881900  0.46499100  1
  Cu  Cu78  1  0.44698600  0.24881900  0.53500900  1
  Cu  Cu79  1  0.55301400  0.74881900  0.46499100  1
  Cu  Cu80  1  0.69985800  0.76533000  0.36338500  1
  Cu  Cu81  1  0.30014200  0.26533000  0.63661500  1
  Cu  Cu82  1  0.80014200  0.26533000  0.36338500  1
  Cu  Cu83  1  0.19985800  0.76533000  0.63661500  1
  Cu  Cu84  1  0.97724700  0.76495900  0.66343200  1
  Cu  Cu85  1  0.02275300  0.26495900  0.33656800  1
  Cu  Cu86  1  0.52275300  0.26495900  0.66343200  1
  Cu  Cu87  1  0.47724700  0.76495900  0.33656800  1
  Cu  Cu88  1  0.79187300  0.92251000  0.54325200  1
  Cu  Cu89  1  0.20812700  0.42251000  0.45674800  1
  Cu  Cu90  1  0.70812700  0.42251000  0.54325200  1
  Cu  Cu91  1  0.29187300  0.92251000  0.45674800  1
  Cu  Cu92  1  0.76675100  0.62071000  0.56912100  1
  Cu  Cu93  1  0.23324900  0.12071000  0.43087900  1
  Cu  Cu94  1  0.73324900  0.12071000  0.56912100  1
  Cu  Cu95  1  0.26675100  0.62071000  0.43087900  1
  Cu  Cu96  1  0.81466700  0.54007200  0.44947600  1
  Cu  Cu97  1  0.18533300  0.04007200  0.55052400  1
  Cu  Cu98  1  0.68533300  0.04007200  0.44947600  1
  Cu  Cu99  1  0.31466700  0.54007200  0.55052400  1
  Cu  Cu100  1  0.97869100  0.91902000  0.39657500  1
  Cu  Cu101  1  0.02130900  0.41902000  0.60342500  1
  Cu  Cu102  1  0.52130900  0.41902000  0.39657500  1
  Cu  Cu103  1  0.47869100  0.91902000  0.60342500  1
  Cu  Cu104  1  0.00428200  0.72499700  0.35166500  1
  Cu  Cu105  1  0.99571800  0.22499700  0.64833500  1
  Cu  Cu106  1  0.49571800  0.22499700  0.35166500  1
  Cu  Cu107  1  0.50428200  0.72499700  0.64833500  1
  Cu  Cu108  1  0.12734200  0.87970200  0.29651000  1
  Cu  Cu109  1  0.87265700  0.37970200  0.70349000  1
  Cu  Cu110  1  0.37265700  0.37970200  0.29651000  1
  Cu  Cu111  1  0.62734300  0.87970200  0.70349000  1
  Cu  Cu112  1  0.70338900  0.15789900  0.20881900  1
  Cu  Cu113  1  0.29661100  0.65789900  0.79118100  1
  Cu  Cu114  1  0.79661100  0.65789900  0.20881900  1
  Cu  Cu115  1  0.20338900  0.15789900  0.79118100  1
  Cu  Cu116  1  0.75646600  0.65639400  0.74274700  1
  Cu  Cu117  1  0.24353400  0.15639400  0.25725300  1
  Cu  Cu118  1  0.74353400  0.15639400  0.74274700  1
  Cu  Cu119  1  0.25646600  0.65639400  0.25725300  1
