# generated using pymatgen
data_Cu11Ni9C11
_symmetry_space_group_name_H-M   'P 1'
_cell_length_a   4.90846587
_cell_length_b   4.90381966
_cell_length_c   15.30078886
_cell_angle_alpha   90.23304729
_cell_angle_beta   89.94678861
_cell_angle_gamma   95.60159064
_symmetry_Int_Tables_number   1
_chemical_formula_structural   Cu11Ni9C11
_chemical_formula_sum   'Cu11 Ni9 C11'
_cell_volume   366.53172917
_cell_formula_units_Z   1
loop_
 _symmetry_equiv_pos_site_id
 _symmetry_equiv_pos_as_xyz
  1  'x, y, z'
loop_
 _atom_site_type_symbol
 _atom_site_label
 _atom_site_symmetry_multiplicity
 _atom_site_fract_x
 _atom_site_fract_y
 _atom_site_fract_z
 _atom_site_occupancy
  C  C0  1  0.49348988  0.99645382  0.29034605  1
  C  C1  1  0.99134549  0.99030089  0.99717787  1
  C  C2  1  0.99538047  0.99745375  0.18618116  1
  C  C3  1  0.99493316  0.99046807  0.41011796  1
  C  C4  1  0.03085476  0.01784559  0.60526174  1
  C  C5  1  0.04029567  0.01267615  0.79134346  1
  C  C6  1  0.49347203  0.49667373  0.10081849  1
  C  C7  1  0.49405984  0.48335462  0.49251225  1
  C  C8  1  0.49976595  0.49693684  0.29827739  1
  C  C9  1  0.44689083  0.52953578  0.69991155  1
  C  C10  1  0.50520928  0.46812017  0.90732565  1
  Ni  Ni11  1  0.20169759  0.80781287  0.70379430  1
  Ni  Ni12  1  0.30221372  0.28078038  0.00095016  1
  Ni  Ni13  1  0.34024139  0.25179992  0.19882812  1
  Ni  Ni14  1  0.33213576  0.24099740  0.39719122  1
  Ni  Ni15  1  0.33040182  0.32234788  0.59589903  1
  Ni  Ni16  1  0.31838337  0.31942809  0.80297502  1
  Ni  Ni17  1  0.68713950  0.69919125  0.99767178  1
  Ni  Ni18  1  0.65009184  0.74263928  0.19834178  1
  Ni  Ni19  1  0.66199074  0.74290995  0.39993118  1
  Cu  Cu20  1  0.17482656  0.76564348  0.08899232  1
  Cu  Cu21  1  0.14616223  0.77291744  0.30466790  1
  Cu  Cu22  1  0.17792233  0.76741970  0.49653583  1
  Cu  Cu23  1  0.17853503  0.81231622  0.89694009  1
  Cu  Cu24  1  0.69650485  0.72081107  0.59715457  1
  Cu  Cu25  1  0.70377878  0.71145592  0.79973543  1
  Cu  Cu26  1  0.81249303  0.22204030  0.08825680  1
  Cu  Cu27  1  0.82616104  0.23119552  0.49686393  1
  Cu  Cu28  1  0.84486436  0.21239223  0.30604083  1
  Cu  Cu29  1  0.81389823  0.19056139  0.89695632  1
  Cu  Cu30  1  0.81486244  0.20551733  0.70716682  1
