# generated using pymatgen
data_CuNiC16
_symmetry_space_group_name_H-M   'P 1'
_cell_length_a   8.14353900
_cell_length_b   9.22823500
_cell_length_c   9.24126651
_cell_angle_alpha   88.64018928
_cell_angle_beta   90.00000000
_cell_angle_gamma   90.00000000
_symmetry_Int_Tables_number   1
_chemical_formula_structural   CuNiC16
_chemical_formula_sum   'Cu2 Ni2 C32'
_cell_volume   694.29014155
_cell_formula_units_Z   2
loop_
 _symmetry_equiv_pos_site_id
 _symmetry_equiv_pos_as_xyz
  1  'x, y, z'
loop_
 _atom_site_type_symbol
 _atom_site_label
 _atom_site_symmetry_multiplicity
 _atom_site_fract_x
 _atom_site_fract_y
 _atom_site_fract_z
 _atom_site_occupancy
  Ni  Ni0  1  0.00000000  0.50000000  0.50000000  1
  Ni  Ni1  1  0.50000000  0.00000000  0.50000000  1
  Cu  Cu2  1  0.50000000  0.50000000  0.00000000  1
  Cu  Cu3  1  0.00000000  0.00000000  0.00000000  1
  C  C4  1  0.68651100  0.19184400  0.10653800  1
  C  C5  1  0.18651100  0.30815600  0.89346200  1
  C  C6  1  0.31348900  0.80815600  0.89346200  1
  C  C7  1  0.81348900  0.69184400  0.10653800  1
  C  C8  1  0.15954100  0.04615500  0.32470900  1
  C  C9  1  0.65954100  0.45384500  0.67529100  1
  C  C10  1  0.84045900  0.95384500  0.67529100  1
  C  C11  1  0.34045900  0.54615500  0.32470900  1
  C  C12  1  0.59151800  0.28628400  0.08423700  1
  C  C13  1  0.09151800  0.21371600  0.91576300  1
  C  C14  1  0.40848200  0.71371600  0.91576300  1
  C  C15  1  0.90848200  0.78628400  0.08423700  1
  C  C16  1  0.78945800  0.10153700  0.10372600  1
  C  C17  1  0.28945800  0.39846300  0.89627400  1
  C  C18  1  0.21054200  0.89846300  0.89627400  1
  C  C19  1  0.71054200  0.60153700  0.10372600  1
  C  C20  1  0.17113900  0.09042300  0.44243300  1
  C  C21  1  0.67113900  0.40957700  0.55756700  1
  C  C22  1  0.82886100  0.90957700  0.55756700  1
  C  C23  1  0.32886100  0.59042300  0.44243300  1
  C  C24  1  0.13871000  0.00323500  0.20690500  1
  C  C25  1  0.63871000  0.49676500  0.79309500  1
  C  C26  1  0.86129000  0.99676500  0.79309500  1
  C  C27  1  0.36129000  0.50323500  0.20690500  1
  C  C28  1  0.00540900  0.49537000  0.29587700  1
  C  C29  1  0.50540900  0.00463000  0.70412300  1
  C  C30  1  0.99459100  0.50463000  0.70412300  1
  C  C31  1  0.49459100  0.99537000  0.29587700  1
  C  C32  1  0.57511200  0.13139300  0.34303400  1
  C  C33  1  0.07511200  0.36860700  0.65696600  1
  C  C34  1  0.42488800  0.86860700  0.65696600  1
  C  C35  1  0.92488800  0.63139300  0.34303400  1
