# generated using pymatgen
data_CuNiC4
_symmetry_space_group_name_H-M   'P 1'
_cell_length_a   6.35275800
_cell_length_b   6.34810700
_cell_length_c   6.35851626
_cell_angle_alpha   89.15758823
_cell_angle_beta   90.00000000
_cell_angle_gamma   90.00000000
_symmetry_Int_Tables_number   1
_chemical_formula_structural   CuNiC4
_chemical_formula_sum   'Cu2 Ni2 C8'
_cell_volume   256.39844862
_cell_formula_units_Z   2
loop_
 _symmetry_equiv_pos_site_id
 _symmetry_equiv_pos_as_xyz
  1  'x, y, z'
loop_
 _atom_site_type_symbol
 _atom_site_label
 _atom_site_symmetry_multiplicity
 _atom_site_fract_x
 _atom_site_fract_y
 _atom_site_fract_z
 _atom_site_occupancy
  Ni  Ni0  1  0.00000000  0.50000000  0.50000000  1
  Ni  Ni1  1  0.50000000  0.00000000  0.50000000  1
  Cu  Cu2  1  0.00000000  0.00000000  0.00000000  1
  Cu  Cu3  1  0.50000000  0.50000000  0.00000000  1
  C  C4  1  0.63277200  0.13155100  0.13950700  1
  C  C5  1  0.13277200  0.36844900  0.86049300  1
  C  C6  1  0.36269100  0.63865800  0.37007100  1
  C  C7  1  0.86269100  0.86134200  0.62992900  1
  C  C8  1  0.36722800  0.86844900  0.86049300  1
  C  C9  1  0.86722800  0.63155100  0.13950700  1
  C  C10  1  0.63730900  0.36134200  0.62992900  1
  C  C11  1  0.13730900  0.13865800  0.37007100  1
