# generated using pymatgen
data_Cu(NiC15)4
_symmetry_space_group_name_H-M   'P 1'
_cell_length_a   3.92824267
_cell_length_b   11.84618144
_cell_length_c   19.24081414
_cell_angle_alpha   90.00000000
_cell_angle_beta   90.00000000
_cell_angle_gamma   90.00000000
_symmetry_Int_Tables_number   1
_chemical_formula_structural   Cu(NiC15)4
_chemical_formula_sum   'Cu1 Ni4 C60'
_cell_volume   895.36504061
_cell_formula_units_Z   1
loop_
 _symmetry_equiv_pos_site_id
 _symmetry_equiv_pos_as_xyz
  1  'x, y, z'
loop_
 _atom_site_type_symbol
 _atom_site_label
 _atom_site_symmetry_multiplicity
 _atom_site_fract_x
 _atom_site_fract_y
 _atom_site_fract_z
 _atom_site_occupancy
  C  C0  1  0.50000000  0.18012035  0.10003802  1
  C  C1  1  0.50000000  0.18014015  0.29994118  1
  C  C2  1  0.50000000  0.18014015  0.50005882  1
  C  C3  1  0.50000000  0.18012035  0.69996198  1
  C  C4  1  0.50000000  0.18046618  0.90000000  1
  C  C5  1  0.50000000  0.81987965  0.10003802  1
  C  C6  1  0.50000000  0.81985985  0.29994118  1
  C  C7  1  0.50000000  0.81985985  0.50005882  1
  C  C8  1  0.50000000  0.81987965  0.69996198  1
  C  C9  1  0.50000000  0.81953382  0.90000000  1
  Ni  Ni10  1  0.50000000  0.50000000  0.09977072  1
  Ni  Ni11  1  0.50000000  0.50000000  0.29994063  1
  Ni  Ni12  1  0.50000000  0.50000000  0.50005937  1
  Ni  Ni13  1  0.50000000  0.50000000  0.70022928  1
  Cu  Cu14  1  0.50000000  0.50000000  0.90000000  1
  C  C15  1  -0.00000000  0.35142869  0.99958603  1
  C  C16  1  -0.00000000  0.35079658  0.19994266  1
  C  C17  1  0.00000000  0.35076063  0.40000000  1
  C  C18  1  0.00000000  0.35079658  0.60005734  1
  C  C19  1  -0.00000000  0.35142869  0.80041397  1
  C  C20  1  0.00000000  0.64857131  0.99958603  1
  C  C21  1  0.00000000  0.64920342  0.19994266  1
  C  C22  1  0.00000000  0.64923937  0.40000000  1
  C  C23  1  0.00000000  0.64920342  0.60005734  1
  C  C24  1  -0.00000000  0.64857131  0.80041397  1
  C  C25  1  -0.00000000  -0.00000000  -0.00002099  1
  C  C26  1  0.00000000  -0.00000000  0.19997821  1
  C  C27  1  0.00000000  -0.00000000  0.40000000  1
  C  C28  1  -0.00000000  -0.00000000  0.60002179  1
  C  C29  1  0.00000000  -0.00000000  0.80002099  1
  C  C30  1  0.00000000  0.15848112  -0.00009257  1
  C  C31  1  0.00000000  0.15824546  0.19997953  1
  C  C32  1  -0.00000000  0.15829708  0.40000000  1
  C  C33  1  0.00000000  0.15824546  0.60002047  1
  C  C34  1  0.00000000  0.15848112  0.80009257  1
  C  C35  1  0.00000000  0.84151888  -0.00009257  1
  C  C36  1  -0.00000000  0.84175454  0.19997953  1
  C  C37  1  -0.00000000  0.84170292  0.40000000  1
  C  C38  1  -0.00000000  0.84175454  0.60002047  1
  C  C39  1  0.00000000  0.84151888  0.80009257  1
  C  C40  1  0.50000000  0.37741374  0.99883631  1
  C  C41  1  0.50000000  0.37614042  0.19989305  1
  C  C42  1  0.50000000  0.37612723  0.40000000  1
  C  C43  1  0.50000000  0.37614042  0.60010695  1
  C  C44  1  0.50000000  0.37741374  0.80116369  1
  C  C45  1  0.50000000  0.62258626  0.99883631  1
  C  C46  1  0.50000000  0.62385958  0.19989305  1
  C  C47  1  0.50000000  0.62387277  0.40000000  1
  C  C48  1  0.50000000  0.62385958  0.60010695  1
  C  C49  1  0.50000000  0.62258626  0.80116369  1
  C  C50  1  0.50000000  -0.00000000  0.00000486  1
  C  C51  1  0.50000000  -0.00000000  0.19993019  1
  C  C52  1  0.50000000  -0.00000000  0.40000000  1
  C  C53  1  0.50000000  -0.00000000  0.60006981  1
  C  C54  1  0.50000000  -0.00000000  0.79999514  1
  C  C55  1  0.00000000  0.37679713  0.09969960  1
  C  C56  1  0.00000000  0.37689256  0.29999123  1
  C  C57  1  -0.00000000  0.37689256  0.50000877  1
  C  C58  1  -0.00000000  0.37679713  0.70030040  1
  C  C59  1  -0.00000000  0.37984332  0.90000000  1
  C  C60  1  0.00000000  0.62320287  0.09969960  1
  C  C61  1  0.00000000  0.62310744  0.29999123  1
  C  C62  1  -0.00000000  0.62310744  0.50000877  1
  C  C63  1  0.00000000  0.62320287  0.70030040  1
  C  C64  1  -0.00000000  0.62015668  0.90000000  1
