# generated using pymatgen
data_Cu14Ni2C63
_symmetry_space_group_name_H-M   'P 1'
_cell_length_a   10.83523303
_cell_length_b   15.12117447
_cell_length_c   10.71740098
_cell_angle_alpha   90.00761982
_cell_angle_beta   90.48813469
_cell_angle_gamma   90.00188622
_symmetry_Int_Tables_number   1
_chemical_formula_structural   Cu14Ni2C63
_chemical_formula_sum   'Cu28 Ni4 C126'
_cell_volume   1755.89076444
_cell_formula_units_Z   2
loop_
 _symmetry_equiv_pos_site_id
 _symmetry_equiv_pos_as_xyz
  1  'x, y, z'
loop_
 _atom_site_type_symbol
 _atom_site_label
 _atom_site_symmetry_multiplicity
 _atom_site_fract_x
 _atom_site_fract_y
 _atom_site_fract_z
 _atom_site_occupancy
  Ni  Ni0  1  0.01415648  0.12463136  0.50025887  1
  Ni  Ni1  1  0.48573875  0.37588921  0.00266677  1
  Ni  Ni2  1  0.23926020  0.37675673  0.24963157  1
  Ni  Ni3  1  0.26130199  0.12482757  0.25167323  1
  Cu  Cu4  1  0.01953860  0.11988967  0.99155327  1
  Cu  Cu5  1  0.02384675  0.62548301  0.49472493  1
  Cu  Cu6  1  0.02313130  0.62542715  0.99677471  1
  Cu  Cu7  1  0.52454505  0.12861070  0.49701155  1
  Cu  Cu8  1  0.52549487  0.12541987  0.99541585  1
  Cu  Cu9  1  0.52294876  0.62476076  0.49511624  1
  Cu  Cu10  1  0.52139372  0.62511662  0.99755658  1
  Cu  Cu11  1  0.47775212  0.37505116  0.50458580  1
  Cu  Cu12  1  0.47624636  0.87400812  0.00211477  1
  Cu  Cu13  1  0.47988959  0.87017421  0.50649426  1
  Cu  Cu14  1  0.97471363  0.37930506  0.00154484  1
  Cu  Cu15  1  0.97828342  0.37546601  0.50339954  1
  Cu  Cu16  1  0.97746497  0.87457788  0.00596493  1
  Cu  Cu17  1  0.97479082  0.87483715  0.50325147  1
  Cu  Cu18  1  0.22717032  0.37572613  0.74576107  1
  Cu  Cu19  1  0.22796166  0.87495236  0.24628240  1
  Cu  Cu20  1  0.22873794  0.87500823  0.74847559  1
  Cu  Cu21  1  0.72929529  0.37323475  0.24581722  1
  Cu  Cu22  1  0.72819096  0.37462308  0.74557649  1
  Cu  Cu23  1  0.73117083  0.87342841  0.24587940  1
  Cu  Cu24  1  0.72713418  0.87558625  0.74434972  1
  Cu  Cu25  1  0.27152161  0.12506035  0.75109765  1
  Cu  Cu26  1  0.27326493  0.62576684  0.25383527  1
  Cu  Cu27  1  0.27286174  0.62561795  0.75460580  1
  Cu  Cu28  1  0.76734335  0.12168415  0.25453048  1
  Cu  Cu29  1  0.77249198  0.12506031  0.75518602  1
  Cu  Cu30  1  0.77224154  0.62505539  0.25440359  1
  Cu  Cu31  1  0.77222354  0.62516606  0.75491547  1
  C  C32  1  0.00122256  0.00083943  0.24930496  1
  C  C33  1  0.99739268  0.99735353  0.75321978  1
  C  C34  1  0.99954677  0.49944466  0.24974369  1
  C  C35  1  0.99982255  0.50062598  0.74909133  1
  C  C36  1  0.49834084  0.99956116  0.74793866  1
  C  C37  1  0.50252996  0.50243390  0.25069139  1
  C  C38  1  0.50018732  0.50061595  0.74783448  1
  C  C39  1  0.25088718  0.00133400  0.00118534  1
  C  C40  1  0.24856648  0.49947807  0.99847973  1
  C  C41  1  0.24993079  0.50140796  0.50225753  1
  C  C42  1  0.75107060  0.99843860  0.99637290  1
  C  C43  1  0.74530162  0.99912512  0.49813618  1
  C  C44  1  0.75129795  0.50176754  0.00053568  1
  C  C45  1  0.75042369  0.50018191  0.50052064  1
  C  C46  1  0.24990823  0.24843629  0.50069180  1
  C  C47  1  0.24967618  0.75010131  0.00021255  1
  C  C48  1  0.25090631  0.75227312  0.49936404  1
  C  C49  1  0.75454391  0.24903318  0.00192755  1
  C  C50  1  0.74739917  0.25057095  0.50286590  1
  C  C51  1  0.74990472  0.75033652  0.99956413  1
  C  C52  1  0.75030931  0.74951678  0.50042061  1
  C  C53  1  0.00180577  0.25014624  0.75435459  1
  C  C54  1  0.00012695  0.74992699  0.24969135  1
  C  C55  1  -0.00000848  0.75001743  0.74995937  1
  C  C56  1  0.49966709  0.24697759  0.24947860  1
  C  C57  1  0.50282792  0.24832975  0.74676206  1
  C  C58  1  0.49992005  0.75330973  0.25128010  1
  C  C59  1  0.50016073  0.74967464  0.75058880  1
  C  C60  1  0.51539275  0.99744253  0.22879054  1
  C  C61  1  0.23016435  0.99407531  0.51563510  1
  C  C62  1  0.27026227  0.24569234  0.98220601  1
  C  C63  1  0.98244940  0.25032318  0.26935178  1
  C  C64  1  0.10672788  0.26833942  0.60850557  1
  C  C65  1  0.10410551  0.77020409  0.10308467  1
  C  C66  1  0.10446020  0.77162863  0.60287471  1
  C  C67  1  0.61192307  0.26458724  0.10973841  1
  C  C68  1  0.60272695  0.26850089  0.60105693  1
  C  C69  1  0.60457242  0.77203762  0.10398199  1
  C  C70  1  0.60532792  0.76907918  0.60475994  1
  C  C71  1  0.39584704  0.23309602  0.39596317  1
  C  C72  1  0.40084222  0.22868032  0.88645220  1
  C  C73  1  0.39643917  0.73098561  0.39740825  1
  C  C74  1  0.39602377  0.73000670  0.89701472  1
  C  C75  1  0.88312058  0.23384304  0.39703842  1
  C  C76  1  0.89750036  0.23108265  0.89916722  1
  C  C77  1  0.89558363  0.72983379  0.39677086  1
  C  C78  1  0.89581684  0.72894743  0.89667321  1
  C  C79  1  0.13568133  0.23778790  0.35594319  1
  C  C80  1  0.14129376  0.23201001  0.86443121  1
  C  C81  1  0.14653597  0.73037455  0.35291760  1
  C  C82  1  0.14638252  0.72983123  0.85278898  1
  C  C83  1  0.64434453  0.22910882  0.35468917  1
  C  C84  1  0.64802757  0.23043306  0.85339062  1
  C  C85  1  0.64597436  0.73066672  0.35400988  1
  C  C86  1  0.64543998  0.72906072  0.85377986  1
  C  C87  1  0.35616732  0.26241710  0.13567122  1
  C  C88  1  0.35295707  0.26783394  0.64742178  1
  C  C89  1  0.35385844  0.77079899  0.14723008  1
  C  C90  1  0.35472043  0.77122759  0.64713747  1
  C  C91  1  0.86987222  0.27063708  0.13863126  1
  C  C92  1  0.85497367  0.27019387  0.64775816  1
  C  C93  1  0.85411060  0.77053031  0.14630936  1
  C  C94  1  0.85456795  0.77114559  0.64679670  1
  C  C95  1  0.35808487  0.48736731  0.14217214  1
  C  C96  1  0.35337356  0.48139645  0.64785944  1
  C  C97  1  0.35987719  0.98194817  0.14905710  1
  C  C98  1  0.35844593  0.98034098  0.63540965  1
  C  C99  1  0.85385902  0.47983799  0.14636476  1
  C  C100  1  0.85393510  0.47933046  0.64688519  1
  C  C101  1  0.85538281  0.98000377  0.14499451  1
  C  C102  1  0.85270958  0.98021929  0.64592880  1
  C  C103  1  0.14416409  0.01183940  0.36215180  1
  C  C104  1  0.14644447  0.01870695  0.85360823  1
  C  C105  1  0.14426977  0.52150610  0.35545374  1
  C  C106  1  0.14562884  0.52067732  0.85187295  1
  C  C107  1  0.63040551  0.02004374  0.36001895  1
  C  C108  1  0.64567076  0.02080687  0.85074253  1
  C  C109  1  0.64604858  0.52149820  0.35478895  1
  C  C110  1  0.64467637  0.52049533  0.85450740  1
  C  C111  1  0.39556366  0.02086810  0.89497566  1
  C  C112  1  0.39469072  0.51951113  0.39606290  1
  C  C113  1  0.39340362  0.51954238  0.89374112  1
  C  C114  1  0.88691990  0.01779097  0.38883156  1
  C  C115  1  0.89508909  0.01786799  0.89668786  1
  C  C116  1  0.89621954  0.51891097  0.39715504  1
  C  C117  1  0.89641832  0.51957145  0.89755906  1
  C  C118  1  0.10168458  0.48260454  0.10178854  1
  C  C119  1  0.10337778  0.48024750  0.60393796  1
  C  C120  1  0.10604641  0.98160324  0.10487328  1
  C  C121  1  0.09995738  0.97838381  0.61282201  1
  C  C122  1  0.61031457  0.48464733  0.10919990  1
  C  C123  1  0.60415805  0.48123841  0.60219062  1
  C  C124  1  0.61072679  0.97897408  0.09699507  1
  C  C125  1  0.60230429  0.97888078  0.60171101  1
  C  C126  1  0.00750194  0.37271182  0.27705578  1
  C  C127  1  0.00956721  0.37575754  0.78919461  1
  C  C128  1  0.00906459  0.87466236  0.28799863  1
  C  C129  1  0.00965499  0.87367573  0.79259640  1
  C  C130  1  0.50750477  0.37495354  0.28517696  1
  C  C131  1  0.51074877  0.37490330  0.77909538  1
  C  C132  1  0.50680882  0.88022136  0.28833247  1
  C  C133  1  0.50997630  0.87486410  0.78880463  1
  C  C134  1  0.49231701  0.11975178  0.22262728  1
  C  C135  1  0.49123511  0.12405657  0.70810003  1
  C  C136  1  0.49133336  0.62762776  0.21290308  1
  C  C137  1  0.48967226  0.62532988  0.70984657  1
  C  C138  1  0.99671190  0.13043734  0.21454316  1
  C  C139  1  0.99018554  0.12460145  0.72263443  1
  C  C140  1  0.98901422  0.62493536  0.21124040  1
  C  C141  1  0.98893140  0.62516022  0.70966119  1
  C  C142  1  0.23701179  0.12878988  0.02775752  1
  C  C143  1  0.25735846  0.11856193  0.52450121  1
  C  C144  1  0.23944335  0.62547528  0.03817295  1
  C  C145  1  0.24086323  0.62645878  0.53976165  1
  C  C146  1  0.74252111  0.12418726  0.03868950  1
  C  C147  1  0.74086705  0.12471070  0.54037950  1
  C  C148  1  0.74069534  0.62616886  0.03935004  1
  C  C149  1  0.74081044  0.62524111  0.53985517  1
  C  C150  1  0.26011342  0.37539428  0.47247770  1
  C  C151  1  0.24222478  0.36977888  0.97361615  1
  C  C152  1  0.26328848  0.87876144  0.46266169  1
  C  C153  1  0.25999241  0.87578964  0.96226561  1
  C  C154  1  0.75822183  0.37594275  0.46177187  1
  C  C155  1  0.75621722  0.37567256  0.96211370  1
  C  C156  1  0.75822062  0.87453735  0.46040162  1
  C  C157  1  0.76207295  0.87419789  0.95777805  1
