# generated using pymatgen
data_CuNi2C5
_symmetry_space_group_name_H-M   'P 1'
_cell_length_a   7.66505900
_cell_length_b   8.18955000
_cell_length_c   12.18436300
_cell_angle_alpha   90.00000000
_cell_angle_beta   90.00000000
_cell_angle_gamma   90.00000000
_symmetry_Int_Tables_number   1
_chemical_formula_structural   CuNi2C5
_chemical_formula_sum   'Cu4 Ni8 C20'
_cell_volume   764.85369658
_cell_formula_units_Z   4
loop_
 _symmetry_equiv_pos_site_id
 _symmetry_equiv_pos_as_xyz
  1  'x, y, z'
loop_
 _atom_site_type_symbol
 _atom_site_label
 _atom_site_symmetry_multiplicity
 _atom_site_fract_x
 _atom_site_fract_y
 _atom_site_fract_z
 _atom_site_occupancy
  Ni  Ni0  1  0.97480600  0.00321300  0.17854000  1
  Ni  Ni1  1  0.52519400  0.49678700  0.67854000  1
  Ni  Ni2  1  0.02519400  0.50321300  0.82146000  1
  Ni  Ni3  1  0.47480600  0.99678700  0.32146000  1
  Ni  Ni4  1  0.02519400  0.99678700  0.82146000  1
  Ni  Ni5  1  0.47480600  0.50321300  0.32146000  1
  Ni  Ni6  1  0.97480600  0.49678700  0.17854000  1
  Ni  Ni7  1  0.52519400  0.00321300  0.67854000  1
  Cu  Cu8  1  0.42314400  0.75000000  0.00642100  1
  Cu  Cu9  1  0.07685600  0.75000000  0.50642100  1
  Cu  Cu10  1  0.57685600  0.25000000  0.99357900  1
  Cu  Cu11  1  0.92314400  0.25000000  0.49357900  1
  C  C12  1  0.83660800  0.96276700  0.40763500  1
  C  C13  1  0.66339200  0.53723300  0.90763500  1
  C  C14  1  0.16339200  0.46276700  0.59236500  1
  C  C15  1  0.33660800  0.03723300  0.09236500  1
  C  C16  1  0.16339200  0.03723300  0.59236500  1
  C  C17  1  0.33660800  0.46276700  0.09236500  1
  C  C18  1  0.83660800  0.53723300  0.40763500  1
  C  C19  1  0.66339200  0.96276700  0.90763500  1
  C  C20  1  0.66734500  0.75000000  0.18214700  1
  C  C21  1  0.83265500  0.75000000  0.68214700  1
  C  C22  1  0.33265500  0.25000000  0.81785300  1
  C  C23  1  0.16734500  0.25000000  0.31785300  1
  C  C24  1  0.44800100  0.75000000  0.50321000  1
  C  C25  1  0.05199900  0.75000000  0.00321000  1
  C  C26  1  0.55199900  0.25000000  0.49679000  1
  C  C27  1  0.94800100  0.25000000  0.99679000  1
  C  C28  1  0.18692200  0.75000000  0.29161000  1
  C  C29  1  0.31307800  0.75000000  0.79161000  1
  C  C30  1  0.81307800  0.25000000  0.70839000  1
  C  C31  1  0.68692200  0.25000000  0.20839000  1
