# generated using pymatgen
data_Cu2NiC10
_symmetry_space_group_name_H-M   'P 1'
_cell_length_a   12.37321396
_cell_length_b   6.91874600
_cell_length_c   14.85183951
_cell_angle_alpha   90.00000000
_cell_angle_beta   80.67651917
_cell_angle_gamma   90.00000000
_symmetry_Int_Tables_number   1
_chemical_formula_structural   Cu2NiC10
_chemical_formula_sum   'Cu8 Ni4 C40'
_cell_volume   1254.62701806
_cell_formula_units_Z   4
loop_
 _symmetry_equiv_pos_site_id
 _symmetry_equiv_pos_as_xyz
  1  'x, y, z'
loop_
 _atom_site_type_symbol
 _atom_site_label
 _atom_site_symmetry_multiplicity
 _atom_site_fract_x
 _atom_site_fract_y
 _atom_site_fract_z
 _atom_site_occupancy
  Ni  Ni0  1  0.17732900  0.39807400  0.48284900  1
  Ni  Ni1  1  0.82267100  0.89807400  0.01715100  1
  Ni  Ni2  1  0.82267100  0.60192600  0.51715100  1
  Ni  Ni3  1  0.17732900  0.10192600  0.98284900  1
  Cu  Cu4  1  0.31512600  0.73043000  0.54645900  1
  Cu  Cu5  1  0.68487400  0.23043000  0.95354100  1
  Cu  Cu6  1  0.68487400  0.26957000  0.45354100  1
  Cu  Cu7  1  0.31512600  0.76957000  0.04645900  1
  Cu  Cu8  1  0.31296100  0.56069400  0.72881800  1
  Cu  Cu9  1  0.68703900  0.06069400  0.77118200  1
  Cu  Cu10  1  0.68703900  0.43930600  0.27118200  1
  Cu  Cu11  1  0.31296100  0.93930600  0.22881800  1
  C  C12  1  0.42764400  0.66788600  0.76961100  1
  C  C13  1  0.57235600  0.16788600  0.73038900  1
  C  C14  1  0.57235600  0.33211400  0.23038900  1
  C  C15  1  0.42764400  0.83211400  0.26961100  1
  C  C16  1  0.55119000  0.97465200  0.76876000  1
  C  C17  1  0.44881000  0.47465200  0.73124000  1
  C  C18  1  0.44881000  0.02534800  0.23124000  1
  C  C19  1  0.55119000  0.52534800  0.26876000  1
  C  C20  1  0.48372600  0.82749100  0.77520300  1
  C  C21  1  0.51627400  0.32749100  0.72479700  1
  C  C22  1  0.51627400  0.17250900  0.22479700  1
  C  C23  1  0.48372600  0.67250900  0.27520300  1
  C  C24  1  0.21444800  0.44557100  0.81060500  1
  C  C25  1  0.78555200  0.94557100  0.68939500  1
  C  C26  1  0.78555200  0.55442900  0.18939500  1
  C  C27  1  0.21444800  0.05442900  0.31060500  1
  C  C28  1  0.10049500  0.43487900  0.84808900  1
  C  C29  1  0.89950500  0.93487900  0.65191100  1
  C  C30  1  0.89950500  0.56512100  0.15191100  1
  C  C31  1  0.10049500  0.06512100  0.34808900  1
  C  C32  1  0.18220800  0.30889700  0.87384200  1
  C  C33  1  0.81779200  0.80889700  0.62615800  1
  C  C34  1  0.81779200  0.69110300  0.12615800  1
  C  C35  1  0.18220800  0.19110300  0.37384200  1
  C  C36  1  0.27623500  0.63222300  0.46000800  1
  C  C37  1  0.72376500  0.13222300  0.03999200  1
  C  C38  1  0.72376500  0.36777700  0.53999200  1
  C  C39  1  0.27623500  0.86777700  0.96000800  1
  C  C40  1  0.26379800  0.60961200  0.64023100  1
  C  C41  1  0.73620200  0.10961200  0.85976900  1
  C  C42  1  0.73620200  0.39038800  0.35976900  1
  C  C43  1  0.26379800  0.89038800  0.14023100  1
  C  C44  1  0.06787800  0.56231500  0.37866400  1
  C  C45  1  0.93212200  0.06231500  0.12133600  1
  C  C46  1  0.93212200  0.43768500  0.62133600  1
  C  C47  1  0.06787800  0.93768500  0.87866400  1
  C  C48  1  0.34157800  0.21352300  0.51360400  1
  C  C49  1  0.65842200  0.71352300  0.98639600  1
  C  C50  1  0.65842200  0.78647700  0.48639600  1
  C  C51  1  0.34157800  0.28647700  0.01360400  1
