# generated using pymatgen
data_Cu2NiC7
_symmetry_space_group_name_H-M   'P 1'
_cell_length_a   8.42070400
_cell_length_b   10.86227200
_cell_length_c   13.83018200
_cell_angle_alpha   90.00000000
_cell_angle_beta   90.00000000
_cell_angle_gamma   90.00000000
_symmetry_Int_Tables_number   1
_chemical_formula_structural   Cu2NiC7
_chemical_formula_sum   'Cu16 Ni8 C56'
_cell_volume   1265.01877295
_cell_formula_units_Z   8
loop_
 _symmetry_equiv_pos_site_id
 _symmetry_equiv_pos_as_xyz
  1  'x, y, z'
loop_
 _atom_site_type_symbol
 _atom_site_label
 _atom_site_symmetry_multiplicity
 _atom_site_fract_x
 _atom_site_fract_y
 _atom_site_fract_z
 _atom_site_occupancy
  C  C0  1  0.12157200  0.76548400  0.14521300  1
  C  C1  1  0.37842800  0.26548400  0.85478700  1
  C  C2  1  0.62157200  0.23451600  0.35478700  1
  C  C3  1  0.87842800  0.73451600  0.64521300  1
  C  C4  1  0.87842800  0.23451600  0.85478700  1
  C  C5  1  0.62157200  0.73451600  0.14521300  1
  C  C6  1  0.37842800  0.76548400  0.64521300  1
  C  C7  1  0.12157200  0.26548400  0.35478700  1
  Ni  Ni8  1  0.70526500  0.99722700  0.01297700  1
  Ni  Ni9  1  0.79473500  0.49722700  0.98702300  1
  Ni  Ni10  1  0.20526500  0.00277300  0.48702300  1
  Ni  Ni11  1  0.29473500  0.50277300  0.51297700  1
  Ni  Ni12  1  0.29473500  0.00277300  0.98702300  1
  Ni  Ni13  1  0.20526500  0.50277300  0.01297700  1
  Ni  Ni14  1  0.79473500  0.99722700  0.51297700  1
  Ni  Ni15  1  0.70526500  0.49722700  0.48702300  1
  Cu  Cu16  1  0.84949200  0.98033100  0.24493500  1
  Cu  Cu17  1  0.65050800  0.48033100  0.75506500  1
  Cu  Cu18  1  0.34949200  0.01966900  0.25506500  1
  Cu  Cu19  1  0.15050800  0.51966900  0.74493500  1
  Cu  Cu20  1  0.15050800  0.01966900  0.75506500  1
  Cu  Cu21  1  0.34949200  0.51966900  0.24493500  1
  Cu  Cu22  1  0.65050800  0.98033100  0.74493500  1
  Cu  Cu23  1  0.84949200  0.48033100  0.25506500  1
  Cu  Cu24  1  0.96933900  0.78085900  0.91987900  1
  Cu  Cu25  1  0.53066100  0.28085900  0.08012100  1
  Cu  Cu26  1  0.46933900  0.21914100  0.58012100  1
  Cu  Cu27  1  0.03066100  0.71914100  0.41987900  1
  Cu  Cu28  1  0.03066100  0.21914100  0.08012100  1
  Cu  Cu29  1  0.46933900  0.71914100  0.91987900  1
  Cu  Cu30  1  0.53066100  0.78085900  0.41987900  1
  Cu  Cu31  1  0.96933900  0.28085900  0.58012100  1
  C  C32  1  0.66048400  0.95693700  0.16819200  1
  C  C33  1  0.83951600  0.45693700  0.83180800  1
  C  C34  1  0.16048400  0.04306300  0.33180800  1
  C  C35  1  0.33951600  0.54306300  0.66819200  1
  C  C36  1  0.33951600  0.04306300  0.83180800  1
  C  C37  1  0.16048400  0.54306300  0.16819200  1
  C  C38  1  0.83951600  0.95693700  0.66819200  1
  C  C39  1  0.66048400  0.45693700  0.33180800  1
  C  C40  1  0.73746300  0.02413800  0.36103000  1
  C  C41  1  0.76253700  0.52413800  0.63897000  1
  C  C42  1  0.23746300  0.97586200  0.13897000  1
  C  C43  1  0.26253700  0.47586200  0.86103000  1
  C  C44  1  0.26253700  0.97586200  0.63897000  1
  C  C45  1  0.23746300  0.47586200  0.36103000  1
  C  C46  1  0.76253700  0.02413800  0.86103000  1
  C  C47  1  0.73746300  0.52413800  0.13897000  1
  C  C48  1  0.89571300  0.81352100  0.26611300  1
  C  C49  1  0.60428700  0.31352100  0.73388700  1
  C  C50  1  0.39571300  0.18647900  0.23388700  1
  C  C51  1  0.10428700  0.68647900  0.76611300  1
  C  C52  1  0.10428700  0.18647900  0.73388700  1
  C  C53  1  0.39571300  0.68647900  0.26611300  1
  C  C54  1  0.60428700  0.81352100  0.76611300  1
  C  C55  1  0.89571300  0.31352100  0.23388700  1
  C  C56  1  0.89246100  0.86529200  0.03234700  1
  C  C57  1  0.60753900  0.36529200  0.96765300  1
  C  C58  1  0.39246100  0.13470800  0.46765300  1
  C  C59  1  0.10753900  0.63470800  0.53234700  1
  C  C60  1  0.10753900  0.13470800  0.96765300  1
  C  C61  1  0.39246100  0.63470800  0.03234700  1
  C  C62  1  0.60753900  0.86529200  0.53234700  1
  C  C63  1  0.89246100  0.36529200  0.46765300  1
  C  C64  1  0.00089100  0.62656900  0.98783300  1
  C  C65  1  0.49910900  0.12656900  0.01216700  1
  C  C66  1  0.50089100  0.37343100  0.51216700  1
  C  C67  1  0.99910900  0.87343100  0.48783300  1
  C  C68  1  0.99910900  0.37343100  0.01216700  1
  C  C69  1  0.50089100  0.87343100  0.98783300  1
  C  C70  1  0.49910900  0.62656900  0.48783300  1
  C  C71  1  0.00089100  0.12656900  0.51216700  1
  C  C72  1  0.18303300  0.83097800  0.94582700  1
  C  C73  1  0.31696700  0.33097800  0.05417300  1
  C  C74  1  0.68303300  0.16902200  0.55417300  1
  C  C75  1  0.81696700  0.66902200  0.44582700  1
  C  C76  1  0.81696700  0.16902200  0.05417300  1
  C  C77  1  0.68303300  0.66902200  0.94582700  1
  C  C78  1  0.31696700  0.83097800  0.44582700  1
  C  C79  1  0.18303300  0.33097800  0.55417300  1
