# generated using pymatgen
data_Cu5NiC2
_symmetry_space_group_name_H-M   'P 1'
_cell_length_a   8.70155400
_cell_length_b   3.41074700
_cell_length_c   12.54179063
_cell_angle_alpha   83.31158657
_cell_angle_beta   90.00000000
_cell_angle_gamma   90.00000000
_symmetry_Int_Tables_number   1
_chemical_formula_structural   Cu5NiC2
_chemical_formula_sum   'Cu20 Ni4 C8'
_cell_volume   369.69200344
_cell_formula_units_Z   4
loop_
 _symmetry_equiv_pos_site_id
 _symmetry_equiv_pos_as_xyz
  1  'x, y, z'
loop_
 _atom_site_type_symbol
 _atom_site_label
 _atom_site_symmetry_multiplicity
 _atom_site_fract_x
 _atom_site_fract_y
 _atom_site_fract_z
 _atom_site_occupancy
  C  C0  1  0.72110700  0.60247200  0.10693500  1
  C  C1  1  0.22110700  0.39752800  0.39306500  1
  C  C2  1  0.27889300  0.39752800  0.89306500  1
  C  C3  1  0.77889300  0.60247200  0.60693500  1
  C  C4  1  0.49423800  0.98743200  0.28344200  1
  C  C5  1  0.99423800  0.01256800  0.21655800  1
  C  C6  1  0.50576200  0.01256800  0.71655800  1
  C  C7  1  0.00576200  0.98743200  0.78344200  1
  Ni  Ni8  1  0.77516900  0.62975300  0.36317800  1
  Ni  Ni9  1  0.27516900  0.37024700  0.13682200  1
  Ni  Ni10  1  0.22483100  0.37024700  0.63682200  1
  Ni  Ni11  1  0.72483100  0.62975300  0.86317800  1
  Cu  Cu12  1  0.62405600  0.60699900  0.36256300  1
  Cu  Cu13  1  0.12405600  0.39300100  0.13743700  1
  Cu  Cu14  1  0.37594400  0.39300100  0.63743700  1
  Cu  Cu15  1  0.87594400  0.60699900  0.86256300  1
  Cu  Cu16  1  0.84472800  0.62333900  0.26925700  1
  Cu  Cu17  1  0.34472800  0.37666100  0.23074300  1
  Cu  Cu18  1  0.15527200  0.37666100  0.73074300  1
  Cu  Cu19  1  0.65527200  0.62333900  0.76925700  1
  Cu  Cu20  1  0.84743200  0.63051500  0.44932800  1
  Cu  Cu21  1  0.34743200  0.36948500  0.05067200  1
  Cu  Cu22  1  0.15256800  0.36948500  0.55067200  1
  Cu  Cu23  1  0.65256800  0.63051500  0.94932800  1
  Cu  Cu24  1  0.60938800  0.07756100  0.16180000  1
  Cu  Cu25  1  0.10938800  0.92243900  0.33820000  1
  Cu  Cu26  1  0.39061200  0.92243900  0.83820000  1
  Cu  Cu27  1  0.89061200  0.07756100  0.66180000  1
  Cu  Cu28  1  0.85758200  0.10710400  0.10355200  1
  Cu  Cu29  1  0.35758200  0.89289600  0.39644800  1
  Cu  Cu30  1  0.14241800  0.89289600  0.89644800  1
  Cu  Cu31  1  0.64241800  0.10710400  0.60355200  1
