# generated using pymatgen
data_CuNiC4
_symmetry_space_group_name_H-M   'P 1'
_cell_length_a   3.74148900
_cell_length_b   3.74148900
_cell_length_c   6.48657400
_cell_angle_alpha   90.00000000
_cell_angle_beta   90.00000000
_cell_angle_gamma   90.00000000
_symmetry_Int_Tables_number   1
_chemical_formula_structural   CuNiC4
_chemical_formula_sum   'Cu1 Ni1 C4'
_cell_volume   90.80386251
_cell_formula_units_Z   1
loop_
 _symmetry_equiv_pos_site_id
 _symmetry_equiv_pos_as_xyz
  1  'x, y, z'
loop_
 _atom_site_type_symbol
 _atom_site_label
 _atom_site_symmetry_multiplicity
 _atom_site_fract_x
 _atom_site_fract_y
 _atom_site_fract_z
 _atom_site_occupancy
  C  C0  1  0.50000000  0.00000000  0.01439600  1
  C  C1  1  0.00000000  0.50000000  0.01439600  1
  C  C2  1  0.50000000  0.50000000  0.64504900  1
  C  C3  1  0.00000000  0.00000000  0.32926800  1
  Ni  Ni4  1  0.00000000  0.00000000  0.73263000  1
  Cu  Cu5  1  0.50000000  0.50000000  0.26426100  1
