# generated using pymatgen
data_CuNi14C
_symmetry_space_group_name_H-M   'P 1'
_cell_length_a   6.21622903
_cell_length_b   6.29558060
_cell_length_c   10.17466176
_cell_angle_alpha   90.00000000
_cell_angle_beta   90.00000000
_cell_angle_gamma   120.42318151
_symmetry_Int_Tables_number   1
_chemical_formula_structural   CuNi14C
_chemical_formula_sum   'Cu1 Ni14 C1'
_cell_volume   343.35677791
_cell_formula_units_Z   1
loop_
 _symmetry_equiv_pos_site_id
 _symmetry_equiv_pos_as_xyz
  1  'x, y, z'
loop_
 _atom_site_type_symbol
 _atom_site_label
 _atom_site_symmetry_multiplicity
 _atom_site_fract_x
 _atom_site_fract_y
 _atom_site_fract_z
 _atom_site_occupancy
  Ni  Ni0  1  0.17241931  0.33620916  0.62500000  1
  Ni  Ni1  1  0.17016964  0.83508432  0.62500000  1
  Ni  Ni2  1  0.70524245  0.35763656  0.12500000  1
  Ni  Ni3  1  0.66299545  0.33355800  0.62500000  1
  Ni  Ni4  1  0.70524245  0.84760490  0.12500000  1
  Ni  Ni5  1  0.66299545  0.82943645  0.62500000  1
  Ni  Ni6  1  0.32412421  0.15309573  0.35444399  1
  Ni  Ni7  1  0.32412421  0.15309573  0.89555601  1
  Ni  Ni8  1  0.32412421  0.67102948  0.35444399  1
  Ni  Ni9  1  0.32412421  0.67102948  0.89555601  1
  Ni  Ni10  1  0.83165864  0.16582982  0.37924401  1
  Ni  Ni11  1  0.83165864  0.16582982  0.87075599  1
  Ni  Ni12  1  0.83658736  0.66829418  0.36994238  1
  Ni  Ni13  1  0.83658736  0.66829418  0.88005762  1
  Cu  Cu14  1  0.17564871  0.33782386  0.12500000  1
  C  C15  1  0.11229770  0.80614835  0.12500000  1
