# generated using pymatgen
data_CuNiC10
_symmetry_space_group_name_H-M   'P 1'
_cell_length_a   6.49037989
_cell_length_b   6.49037989
_cell_length_c   6.49037989
_cell_angle_alpha   130.05115253
_cell_angle_beta   130.05115253
_cell_angle_gamma   73.32500229
_symmetry_Int_Tables_number   1
_chemical_formula_structural   CuNiC10
_chemical_formula_sum   'Cu1 Ni1 C10'
_cell_volume   156.38657415
_cell_formula_units_Z   1
loop_
 _symmetry_equiv_pos_site_id
 _symmetry_equiv_pos_as_xyz
  1  'x, y, z'
loop_
 _atom_site_type_symbol
 _atom_site_label
 _atom_site_symmetry_multiplicity
 _atom_site_fract_x
 _atom_site_fract_y
 _atom_site_fract_z
 _atom_site_occupancy
  Ni  Ni0  1  0.50000000  0.50000000  0.00000000  1
  Cu  Cu1  1  0.00000000  0.00000000  0.00000000  1
  C  C2  1  0.75000000  0.25000000  0.50000000  1
  C  C3  1  0.25000000  0.75000000  0.50000000  1
  C  C4  1  0.43476700  0.29095200  0.47998800  1
  C  C5  1  0.81096400  0.95477900  0.52001200  1
  C  C6  1  0.29095200  0.81096400  0.85618500  1
  C  C7  1  0.18903600  0.70904800  0.14381500  1
  C  C8  1  0.95477900  0.43476700  0.14381500  1
  C  C9  1  0.56523300  0.04522100  0.85618500  1
  C  C10  1  0.04522100  0.18903600  0.47998800  1
  C  C11  1  0.70904800  0.56523300  0.52001200  1
