# generated using pymatgen
data_CuNiC2
_symmetry_space_group_name_H-M   'P 1'
_cell_length_a   9.97550675
_cell_length_b   9.97550675
_cell_length_c   9.97550675
_cell_angle_alpha   128.88111667
_cell_angle_beta   117.13578108
_cell_angle_gamma   85.19255727
_symmetry_Int_Tables_number   1
_chemical_formula_structural   CuNiC2
_chemical_formula_sum   'Cu1 Ni1 C2'
_cell_volume   657.65460819
_cell_formula_units_Z   1
loop_
 _symmetry_equiv_pos_site_id
 _symmetry_equiv_pos_as_xyz
  1  'x, y, z'
loop_
 _atom_site_type_symbol
 _atom_site_label
 _atom_site_symmetry_multiplicity
 _atom_site_fract_x
 _atom_site_fract_y
 _atom_site_fract_z
 _atom_site_occupancy
  C  C0  1  0.00000000  0.24472300  0.24472300  1
  C  C1  1  0.00000000  0.75527700  0.75527700  1
  Ni  Ni2  1  0.00000000  0.00000000  0.00000000  1
  Cu  Cu3  1  0.00000000  0.50000000  0.50000000  1
