# generated using pymatgen
data_Cu2NiC11
_symmetry_space_group_name_H-M   'P 1'
_cell_length_a   8.23529863
_cell_length_b   8.23529900
_cell_length_c   17.82336652
_cell_angle_alpha   76.64255572
_cell_angle_beta   76.64255537
_cell_angle_gamma   60.00000252
_symmetry_Int_Tables_number   1
_chemical_formula_structural   Cu2NiC11
_chemical_formula_sum   'Cu12 Ni6 C66'
_cell_volume   1008.90138224
_cell_formula_units_Z   6
loop_
 _symmetry_equiv_pos_site_id
 _symmetry_equiv_pos_as_xyz
  1  'x, y, z'
loop_
 _atom_site_type_symbol
 _atom_site_label
 _atom_site_symmetry_multiplicity
 _atom_site_fract_x
 _atom_site_fract_y
 _atom_site_fract_z
 _atom_site_occupancy
  C  C0  1  0.25000000  0.25000000  0.25000000  1
  C  C1  1  0.75000000  0.75000000  0.75000000  1
  C  C2  1  0.33335500  0.33335500  0.99993400  1
  C  C3  1  0.83335500  0.83335500  0.49993400  1
  C  C4  1  0.66664500  0.66664500  0.00006600  1
  C  C5  1  0.16664500  0.16664500  0.50006600  1
  Ni  Ni6  1  0.00000000  0.00000000  0.00000000  1
  Ni  Ni7  1  0.50000000  0.50000000  0.50000000  1
  Ni  Ni8  1  0.91234300  0.91234300  0.26297200  1
  Ni  Ni9  1  0.41234300  0.41234300  0.76297200  1
  Ni  Ni10  1  0.08765700  0.08765700  0.73702800  1
  Ni  Ni11  1  0.58765700  0.58765700  0.23702800  1
  Cu  Cu12  1  0.71593800  0.25296200  0.13861500  1
  Cu  Cu13  1  0.89248500  0.71593800  0.13861500  1
  Cu  Cu14  1  0.25296200  0.89248500  0.13861500  1
  Cu  Cu15  1  0.75296200  0.21593800  0.63861500  1
  Cu  Cu16  1  0.39248500  0.75296200  0.63861500  1
  Cu  Cu17  1  0.21593800  0.39248500  0.63861500  1
  Cu  Cu18  1  0.28406200  0.74703800  0.86138500  1
  Cu  Cu19  1  0.10751500  0.28406200  0.86138500  1
  Cu  Cu20  1  0.74703800  0.10751500  0.86138500  1
  Cu  Cu21  1  0.24703800  0.78406200  0.36138500  1
  Cu  Cu22  1  0.60751500  0.24703800  0.36138500  1
  Cu  Cu23  1  0.78406200  0.60751500  0.36138500  1
  C  C24  1  0.43740700  0.50015900  0.13560300  1
  C  C25  1  0.92683100  0.43740700  0.13560300  1
  C  C26  1  0.50015900  0.92683100  0.13560300  1
  C  C27  1  0.00015900  0.93740700  0.63560300  1
  C  C28  1  0.42683100  0.00015900  0.63560300  1
  C  C29  1  0.93740700  0.42683100  0.63560300  1
  C  C30  1  0.56259300  0.49984100  0.86439700  1
  C  C31  1  0.07316900  0.56259300  0.86439700  1
  C  C32  1  0.49984100  0.07316900  0.86439700  1
  C  C33  1  0.99984100  0.06259300  0.36439700  1
  C  C34  1  0.57316900  0.99984100  0.36439700  1
  C  C35  1  0.06259300  0.57316900  0.36439700  1
  C  C36  1  0.84414000  0.19876700  0.06251800  1
  C  C37  1  0.89457500  0.84414000  0.06251800  1
  C  C38  1  0.19876700  0.89457500  0.06251800  1
  C  C39  1  0.69876700  0.34414000  0.56251800  1
  C  C40  1  0.39457500  0.69876700  0.56251800  1
  C  C41  1  0.34414000  0.39457500  0.56251800  1
  C  C42  1  0.15586000  0.80123300  0.93748200  1
  C  C43  1  0.10542500  0.15586000  0.93748200  1
  C  C44  1  0.80123300  0.10542500  0.93748200  1
  C  C45  1  0.30123300  0.65586000  0.43748200  1
  C  C46  1  0.60542500  0.30123300  0.43748200  1
  C  C47  1  0.65586000  0.60542500  0.43748200  1
  C  C48  1  0.72117500  0.08820900  0.20082500  1
  C  C49  1  0.98979100  0.72117500  0.20082500  1
  C  C50  1  0.08820900  0.98979100  0.20082500  1
  C  C51  1  0.58820900  0.22117500  0.70082500  1
  C  C52  1  0.48979100  0.58820900  0.70082500  1
  C  C53  1  0.22117500  0.48979100  0.70082500  1
  C  C54  1  0.27882500  0.91179100  0.79917500  1
  C  C55  1  0.01020900  0.27882500  0.79917500  1
  C  C56  1  0.91179100  0.01020900  0.79917500  1
  C  C57  1  0.41179100  0.77882500  0.29917500  1
  C  C58  1  0.51020900  0.41179100  0.29917500  1
  C  C59  1  0.77882500  0.51020900  0.29917500  1
  C  C60  1  0.74892600  0.39811500  0.16734800  1
  C  C61  1  0.68561100  0.74892600  0.16734800  1
  C  C62  1  0.39811500  0.68561100  0.16734800  1
  C  C63  1  0.89811500  0.24892600  0.66734800  1
  C  C64  1  0.18561100  0.89811500  0.66734800  1
  C  C65  1  0.24892600  0.18561100  0.66734800  1
  C  C66  1  0.25107400  0.60188500  0.83265200  1
  C  C67  1  0.31438900  0.25107400  0.83265200  1
  C  C68  1  0.60188500  0.31438900  0.83265200  1
  C  C69  1  0.10188500  0.75107400  0.33265200  1
  C  C70  1  0.81438900  0.10188500  0.33265200  1
  C  C71  1  0.75107400  0.81438900  0.33265200  1
  C  C72  1  0.50007300  0.36935600  0.11907400  1
  C  C73  1  0.01149800  0.50007300  0.11907400  1
  C  C74  1  0.36935600  0.01149800  0.11907400  1
  C  C75  1  0.86935600  0.00007200  0.61907400  1
  C  C76  1  0.51149800  0.86935600  0.61907400  1
  C  C77  1  0.00007200  0.51149800  0.61907400  1
  C  C78  1  0.49992700  0.63064400  0.88092600  1
  C  C79  1  0.98850200  0.49992800  0.88092600  1
  C  C80  1  0.63064400  0.98850200  0.88092600  1
  C  C81  1  0.13064400  0.99992800  0.38092600  1
  C  C82  1  0.48850200  0.13064400  0.38092600  1
  C  C83  1  0.99992800  0.48850200  0.38092600  1
