# generated using pymatgen
data_Cu6NiC
_symmetry_space_group_name_H-M   'P 1'
_cell_length_a   9.52556300
_cell_length_b   9.94297200
_cell_length_c   11.19445900
_cell_angle_alpha   90.00000000
_cell_angle_beta   90.00000000
_cell_angle_gamma   90.00000000
_symmetry_Int_Tables_number   1
_chemical_formula_structural   Cu6NiC
_chemical_formula_sum   'Cu48 Ni8 C8'
_cell_volume   1060.25414792
_cell_formula_units_Z   8
loop_
 _symmetry_equiv_pos_site_id
 _symmetry_equiv_pos_as_xyz
  1  'x, y, z'
loop_
 _atom_site_type_symbol
 _atom_site_label
 _atom_site_symmetry_multiplicity
 _atom_site_fract_x
 _atom_site_fract_y
 _atom_site_fract_z
 _atom_site_occupancy
  C  C0  1  0.81536600  0.58849700  0.51617900  1
  C  C1  1  0.68463400  0.41150300  0.01617900  1
  C  C2  1  0.18463400  0.08849700  0.98382100  1
  C  C3  1  0.31536600  0.91150300  0.48382100  1
  C  C4  1  0.64298400  0.06781100  0.75861500  1
  C  C5  1  0.85701600  0.93218900  0.25861500  1
  C  C6  1  0.35701600  0.56781100  0.74138500  1
  C  C7  1  0.14298400  0.43218900  0.24138500  1
  Ni  Ni8  1  0.66986100  0.88623400  0.51349700  1
  Ni  Ni9  1  0.83013900  0.11376600  0.01349700  1
  Ni  Ni10  1  0.33013900  0.38623400  0.98650300  1
  Ni  Ni11  1  0.16986100  0.61376600  0.48650300  1
  Ni  Ni12  1  0.66706400  0.40284600  0.72464000  1
  Ni  Ni13  1  0.83293600  0.59715400  0.22464000  1
  Ni  Ni14  1  0.33293600  0.90284600  0.77536000  1
  Ni  Ni15  1  0.16706400  0.09715400  0.27536000  1
  Cu  Cu16  1  0.52061900  0.90341300  0.48025200  1
  Cu  Cu17  1  0.97938100  0.09658700  0.98025200  1
  Cu  Cu18  1  0.47938100  0.40341300  0.01974800  1
  Cu  Cu19  1  0.02061900  0.59658700  0.51974800  1
  Cu  Cu20  1  0.70565100  0.97584200  0.61424000  1
  Cu  Cu21  1  0.79434900  0.02415800  0.11424000  1
  Cu  Cu22  1  0.29434900  0.47584200  0.88576000  1
  Cu  Cu23  1  0.20565100  0.52415800  0.38576000  1
  Cu  Cu24  1  0.75941900  0.92196400  0.41063400  1
  Cu  Cu25  1  0.74058100  0.07803600  0.91063400  1
  Cu  Cu26  1  0.24058100  0.42196400  0.08936600  1
  Cu  Cu27  1  0.25941900  0.57803600  0.58936600  1
  Cu  Cu28  1  0.69608900  0.74500600  0.54956700  1
  Cu  Cu29  1  0.80391100  0.25499400  0.04956700  1
  Cu  Cu30  1  0.30391100  0.24500600  0.95043300  1
  Cu  Cu31  1  0.19608900  0.75499400  0.45043300  1
  Cu  Cu32  1  0.76909100  0.45201300  0.63508400  1
  Cu  Cu33  1  0.73090900  0.54798700  0.13508400  1
  Cu  Cu34  1  0.23090900  0.95201300  0.86491600  1
  Cu  Cu35  1  0.26909100  0.04798700  0.36491600  1
  Cu  Cu36  1  0.53220400  0.47406600  0.70834900  1
  Cu  Cu37  1  0.96779600  0.52593400  0.20834900  1
  Cu  Cu38  1  0.46779600  0.97406600  0.79165100  1
  Cu  Cu39  1  0.03220400  0.02593400  0.29165100  1
  Cu  Cu40  1  0.72411800  0.42993100  0.84539400  1
  Cu  Cu41  1  0.77588200  0.57006900  0.34539400  1
  Cu  Cu42  1  0.27588200  0.92993100  0.65460600  1
  Cu  Cu43  1  0.22411800  0.07006900  0.15460600  1
  Cu  Cu44  1  0.64581100  0.25680500  0.70730300  1
  Cu  Cu45  1  0.85418900  0.74319500  0.20730300  1
  Cu  Cu46  1  0.35418900  0.75680500  0.79269700  1
  Cu  Cu47  1  0.14581100  0.24319500  0.29269700  1
  Cu  Cu48  1  0.78382400  0.25733800  0.42219500  1
  Cu  Cu49  1  0.71617600  0.74266200  0.92219500  1
  Cu  Cu50  1  0.21617600  0.75733800  0.07780500  1
  Cu  Cu51  1  0.28382400  0.24266200  0.57780500  1
  Cu  Cu52  1  0.51181500  0.42776500  0.44245100  1
  Cu  Cu53  1  0.98818500  0.57223500  0.94245100  1
  Cu  Cu54  1  0.48818500  0.92776500  0.05754900  1
  Cu  Cu55  1  0.01181500  0.07223500  0.55754900  1
  Cu  Cu56  1  0.98984100  0.07775700  0.66576000  1
  Cu  Cu57  1  0.51015900  0.92224300  0.16576000  1
  Cu  Cu58  1  0.01015900  0.57775700  0.83424000  1
  Cu  Cu59  1  0.48984100  0.42224300  0.33424000  1
  Cu  Cu60  1  0.74345200  0.77944100  0.81971800  1
  Cu  Cu61  1  0.75654800  0.22055900  0.31971800  1
  Cu  Cu62  1  0.25654800  0.27944100  0.68028200  1
  Cu  Cu63  1  0.24345200  0.72055900  0.18028200  1
