# generated using pymatgen
data_Cu9(Ni3C5)2
_symmetry_space_group_name_H-M   'P 1'
_cell_length_a   21.20018300
_cell_length_b   9.16334300
_cell_length_c   9.18020665
_cell_angle_alpha   73.37674352
_cell_angle_beta   90.00000000
_cell_angle_gamma   90.00000000
_symmetry_Int_Tables_number   1
_chemical_formula_structural   Cu9(Ni3C5)2
_chemical_formula_sum   'Cu36 Ni24 C40'
_cell_volume   1708.85470580
_cell_formula_units_Z   4
loop_
 _symmetry_equiv_pos_site_id
 _symmetry_equiv_pos_as_xyz
  1  'x, y, z'
loop_
 _atom_site_type_symbol
 _atom_site_label
 _atom_site_symmetry_multiplicity
 _atom_site_fract_x
 _atom_site_fract_y
 _atom_site_fract_z
 _atom_site_occupancy
  C  C0  1  0.54910200  0.50284000  0.18645800  1
  C  C1  1  0.04910200  0.99716000  0.81354200  1
  C  C2  1  0.45089800  0.49716000  0.81354200  1
  C  C3  1  0.95089800  0.00284000  0.18645800  1
  Ni  Ni4  1  0.66089900  0.67279200  0.32220500  1
  Ni  Ni5  1  0.16089900  0.82720800  0.67779500  1
  Ni  Ni6  1  0.33910100  0.32720800  0.67779500  1
  Ni  Ni7  1  0.83910100  0.17279200  0.32220500  1
  Ni  Ni8  1  0.40870200  0.60574800  0.12665900  1
  Ni  Ni9  1  0.90870200  0.89425200  0.87334100  1
  Ni  Ni10  1  0.59129800  0.39425200  0.87334100  1
  Ni  Ni11  1  0.09129800  0.10574800  0.12665900  1
  Ni  Ni12  1  0.54071900  0.77329100  0.86175600  1
  Ni  Ni13  1  0.04071900  0.72670900  0.13824400  1
  Ni  Ni14  1  0.45928100  0.22670900  0.13824400  1
  Ni  Ni15  1  0.95928100  0.27329100  0.86175600  1
  Ni  Ni16  1  0.65523700  0.77494800  0.43190500  1
  Ni  Ni17  1  0.15523700  0.72505200  0.56809500  1
  Ni  Ni18  1  0.34476300  0.22505200  0.56809500  1
  Ni  Ni19  1  0.84476300  0.27494800  0.43190500  1
  Ni  Ni20  1  0.34420400  0.67176600  0.16081900  1
  Ni  Ni21  1  0.84420400  0.82823400  0.83918100  1
  Ni  Ni22  1  0.65579600  0.32823400  0.83918100  1
  Ni  Ni23  1  0.15579600  0.17176600  0.16081900  1
  Ni  Ni24  1  0.57080400  0.93321000  0.78943200  1
  Ni  Ni25  1  0.07080400  0.56679000  0.21056800  1
  Ni  Ni26  1  0.42919600  0.06679000  0.21056800  1
  Ni  Ni27  1  0.92919600  0.43321000  0.78943200  1
  Cu  Cu28  1  0.60967200  0.59487000  0.31883700  1
  Cu  Cu29  1  0.10967200  0.90513000  0.68116300  1
  Cu  Cu30  1  0.39032800  0.40513000  0.68116300  1
  Cu  Cu31  1  0.89032800  0.09487000  0.31883700  1
  Cu  Cu32  1  0.70859600  0.67550200  0.24680000  1
  Cu  Cu33  1  0.20859600  0.82449800  0.75320000  1
  Cu  Cu34  1  0.29140400  0.32449800  0.75320000  1
  Cu  Cu35  1  0.79140400  0.17550200  0.24680000  1
  Cu  Cu36  1  0.45291200  0.59501500  0.22077100  1
  Cu  Cu37  1  0.95291200  0.90498500  0.77922900  1
  Cu  Cu38  1  0.54708800  0.40498500  0.77922900  1
  Cu  Cu39  1  0.04708800  0.09501500  0.22077100  1
  Cu  Cu40  1  0.58782900  0.42945000  0.99662000  1
  Cu  Cu41  1  0.08782900  0.07055000  0.00338000  1
  Cu  Cu42  1  0.41217100  0.57055000  0.00338000  1
  Cu  Cu43  1  0.91217100  0.92945000  0.99662000  1
  Cu  Cu44  1  0.55231600  0.71728300  0.00199000  1
  Cu  Cu45  1  0.05231600  0.78271700  0.99801000  1
  Cu  Cu46  1  0.44768400  0.28271700  0.99801000  1
  Cu  Cu47  1  0.94768400  0.21728300  0.00199000  1
  Cu  Cu48  1  0.49206700  0.28482600  0.22178800  1
  Cu  Cu49  1  0.99206700  0.21517400  0.77821200  1
  Cu  Cu50  1  0.50793300  0.71517400  0.77821200  1
  Cu  Cu51  1  0.00793300  0.78482600  0.22178800  1
  Cu  Cu52  1  0.68615400  0.31935800  0.20951300  1
  Cu  Cu53  1  0.18615400  0.18064200  0.79048700  1
  Cu  Cu54  1  0.31384600  0.68064200  0.79048700  1
  Cu  Cu55  1  0.81384600  0.81935800  0.20951300  1
  Cu  Cu56  1  0.64023200  0.28881300  0.29647600  1
  Cu  Cu57  1  0.14023200  0.21118700  0.70352400  1
  Cu  Cu58  1  0.35976800  0.71118700  0.70352400  1
  Cu  Cu59  1  0.85976800  0.78881300  0.29647600  1
  Cu  Cu60  1  0.51279900  0.44703500  0.48232500  1
  Cu  Cu61  1  0.01279900  0.05296500  0.51767500  1
  Cu  Cu62  1  0.48720100  0.55296500  0.51767500  1
  Cu  Cu63  1  0.98720100  0.94703500  0.48232500  1
  C  C64  1  0.62903100  0.69810500  0.56883800  1
  C  C65  1  0.12903100  0.80189500  0.43116200  1
  C  C66  1  0.37096900  0.30189500  0.43116200  1
  C  C67  1  0.87096900  0.19810500  0.56883800  1
  C  C68  1  0.71150500  0.82971500  0.46072300  1
  C  C69  1  0.21150500  0.67028500  0.53927700  1
  C  C70  1  0.28849500  0.17028500  0.53927700  1
  C  C71  1  0.78849500  0.32971500  0.46072300  1
  C  C72  1  0.61678100  0.89582900  0.36670900  1
  C  C73  1  0.11678100  0.60417100  0.63329100  1
  C  C74  1  0.38321900  0.10417100  0.63329100  1
  C  C75  1  0.88321900  0.39582900  0.36670900  1
  C  C76  1  0.29574700  0.58048900  0.14651900  1
  C  C77  1  0.79574700  0.91951100  0.85348100  1
  C  C78  1  0.70425300  0.41951100  0.85348100  1
  C  C79  1  0.20425300  0.08048900  0.14651900  1
  C  C80  1  0.34269500  0.68784500  0.30262500  1
  C  C81  1  0.84269500  0.81215500  0.69737500  1
  C  C82  1  0.65730500  0.31215500  0.69737500  1
  C  C83  1  0.15730500  0.18784500  0.30262500  1
  C  C84  1  0.33565400  0.81057900  0.05857900  1
  C  C85  1  0.83565400  0.68942100  0.94142100  1
  C  C86  1  0.66434600  0.18942100  0.94142100  1
  C  C87  1  0.16434600  0.31057900  0.05857900  1
  C  C88  1  0.54838500  0.03168700  0.86410000  1
  C  C89  1  0.04838500  0.46831300  0.13590000  1
  C  C90  1  0.45161500  0.96831300  0.13590000  1
  C  C91  1  0.95161500  0.53168700  0.86410000  1
  C  C92  1  0.63441100  0.92543900  0.80557600  1
  C  C93  1  0.13441100  0.57456100  0.19442400  1
  C  C94  1  0.36558900  0.07456100  0.19442400  1
  C  C95  1  0.86558900  0.42543900  0.80557600  1
  C  C96  1  0.55700700  0.99026200  0.64048000  1
  C  C97  1  0.05700700  0.50973800  0.35952000  1
  C  C98  1  0.44299300  0.00973800  0.35952000  1
  C  C99  1  0.94299300  0.49026200  0.64048000  1
