# generated using pymatgen
data_Cu2NiC9
_symmetry_space_group_name_H-M   'P 1'
_cell_length_a   5.54714500
_cell_length_b   5.12076800
_cell_length_c   10.49727636
_cell_angle_alpha   61.10204329
_cell_angle_beta   90.00000000
_cell_angle_gamma   90.00000000
_symmetry_Int_Tables_number   1
_chemical_formula_structural   Cu2NiC9
_chemical_formula_sum   'Cu4 Ni2 C18'
_cell_volume   261.05279814
_cell_formula_units_Z   2
loop_
 _symmetry_equiv_pos_site_id
 _symmetry_equiv_pos_as_xyz
  1  'x, y, z'
loop_
 _atom_site_type_symbol
 _atom_site_label
 _atom_site_symmetry_multiplicity
 _atom_site_fract_x
 _atom_site_fract_y
 _atom_site_fract_z
 _atom_site_occupancy
  C  C0  1  0.65394300  0.50000000  0.25000000  1
  C  C1  1  0.34605700  0.50000000  0.75000000  1
  Ni  Ni2  1  0.35588400  0.00000000  0.25000000  1
  Ni  Ni3  1  0.64411600  0.00000000  0.75000000  1
  Cu  Cu4  1  0.16517200  0.75307600  0.99899800  1
  Cu  Cu5  1  0.16517200  0.24692400  0.50100200  1
  Cu  Cu6  1  0.83482800  0.24692400  0.00100200  1
  Cu  Cu7  1  0.83482800  0.75307600  0.49899800  1
  C  C8  1  0.38322800  0.23244100  0.36453800  1
  C  C9  1  0.38322800  0.76755900  0.13546200  1
  C  C10  1  0.61677200  0.76755900  0.63546200  1
  C  C11  1  0.61677200  0.23244100  0.86453800  1
  C  C12  1  0.88214800  0.70349700  0.88905400  1
  C  C13  1  0.88214800  0.29650300  0.61094600  1
  C  C14  1  0.11785200  0.29650300  0.11094600  1
  C  C15  1  0.11785200  0.70349700  0.38905400  1
  C  C16  1  0.62399800  0.70666600  0.35865500  1
  C  C17  1  0.62399800  0.29333400  0.14134500  1
  C  C18  1  0.37600200  0.29333400  0.64134500  1
  C  C19  1  0.37600200  0.70666600  0.85865500  1
  C  C20  1  0.87592600  0.20126700  0.38251700  1
  C  C21  1  0.12407400  0.79873300  0.61748300  1
  C  C22  1  0.87592600  0.79873300  0.11748300  1
  C  C23  1  0.12407400  0.20126700  0.88251700  1
