# generated using pymatgen
data_Cu8Ni2C3
_symmetry_space_group_name_H-M   'P 1'
_cell_length_a   7.64260700
_cell_length_b   7.25204700
_cell_length_c   8.84393641
_cell_angle_alpha   64.19501439
_cell_angle_beta   90.00000000
_cell_angle_gamma   90.00000000
_symmetry_Int_Tables_number   1
_chemical_formula_structural   Cu8Ni2C3
_chemical_formula_sum   'Cu16 Ni4 C6'
_cell_volume   441.29172508
_cell_formula_units_Z   2
loop_
 _symmetry_equiv_pos_site_id
 _symmetry_equiv_pos_as_xyz
  1  'x, y, z'
loop_
 _atom_site_type_symbol
 _atom_site_label
 _atom_site_symmetry_multiplicity
 _atom_site_fract_x
 _atom_site_fract_y
 _atom_site_fract_z
 _atom_site_occupancy
  C  C0  1  0.50000000  0.50000000  0.00000000  1
  C  C1  1  0.00000000  0.50000000  0.50000000  1
  C  C2  1  0.19905200  0.05675200  0.14245000  1
  C  C3  1  0.69905200  0.94324800  0.35755000  1
  C  C4  1  0.80094800  0.94324800  0.85755000  1
  C  C5  1  0.30094800  0.05675200  0.64245000  1
  Ni  Ni6  1  0.42605400  0.56899800  0.15888200  1
  Ni  Ni7  1  0.92605400  0.43100200  0.34111800  1
  Ni  Ni8  1  0.57394600  0.43100200  0.84111800  1
  Ni  Ni9  1  0.07394600  0.56899800  0.65888200  1
  Cu  Cu10  1  0.26455200  0.37491000  0.00215400  1
  Cu  Cu11  1  0.76455200  0.62509000  0.49784600  1
  Cu  Cu12  1  0.73544800  0.62509000  0.99784600  1
  Cu  Cu13  1  0.23544800  0.37491000  0.50215400  1
  Cu  Cu14  1  0.96210900  0.14694000  0.06110400  1
  Cu  Cu15  1  0.46210900  0.85306000  0.43889600  1
  Cu  Cu16  1  0.03789100  0.85306000  0.93889600  1
  Cu  Cu17  1  0.53789100  0.14694000  0.56110400  1
  Cu  Cu18  1  0.16563300  0.14298900  0.32185300  1
  Cu  Cu19  1  0.66563300  0.85701100  0.17814700  1
  Cu  Cu20  1  0.83436700  0.85701100  0.67814700  1
  Cu  Cu21  1  0.33436700  0.14298900  0.82185300  1
  Cu  Cu22  1  0.06214400  0.78949500  0.31952500  1
  Cu  Cu23  1  0.56214400  0.21050500  0.18047500  1
  Cu  Cu24  1  0.93785600  0.21050500  0.68047500  1
  Cu  Cu25  1  0.43785600  0.78949500  0.81952500  1
