# generated using pymatgen
data_CuNiC10
_symmetry_space_group_name_H-M   'P 1'
_cell_length_a   7.92470880
_cell_length_b   7.92470880
_cell_length_c   5.23242600
_cell_angle_alpha   90.00000000
_cell_angle_beta   90.00000000
_cell_angle_gamma   90.49286698
_symmetry_Int_Tables_number   1
_chemical_formula_structural   CuNiC10
_chemical_formula_sum   'Cu2 Ni2 C20'
_cell_volume   328.58947756
_cell_formula_units_Z   2
loop_
 _symmetry_equiv_pos_site_id
 _symmetry_equiv_pos_as_xyz
  1  'x, y, z'
loop_
 _atom_site_type_symbol
 _atom_site_label
 _atom_site_symmetry_multiplicity
 _atom_site_fract_x
 _atom_site_fract_y
 _atom_site_fract_z
 _atom_site_occupancy
  Ni  Ni0  1  0.16106700  0.83893300  0.48447900  1
  Ni  Ni1  1  0.83893300  0.16106700  0.48447900  1
  Cu  Cu2  1  0.66084600  0.66084600  0.51584000  1
  Cu  Cu3  1  0.33915400  0.33915400  0.51584000  1
  C  C4  1  0.50000000  0.00000000  0.99884200  1
  C  C5  1  0.00000000  0.50000000  0.99884200  1
  C  C6  1  0.35642100  0.64357900  0.03634700  1
  C  C7  1  0.85347500  0.85347500  0.96318700  1
  C  C8  1  0.64357900  0.35642100  0.03634700  1
  C  C9  1  0.14652500  0.14652500  0.96318700  1
  C  C10  1  0.41165700  0.83892100  0.21528100  1
  C  C11  1  0.89830600  0.65384600  0.78174200  1
  C  C12  1  0.58834300  0.16107900  0.21528100  1
  C  C13  1  0.10169400  0.34615400  0.78174200  1
  C  C14  1  0.34615400  0.10169400  0.78174200  1
  C  C15  1  0.83892100  0.41165700  0.21528100  1
  C  C16  1  0.65384600  0.89830600  0.78174200  1
  C  C17  1  0.16107900  0.58834300  0.21528100  1
  C  C18  1  0.37077400  0.62922600  0.68910400  1
  C  C19  1  0.84784800  0.84784800  0.30917300  1
  C  C20  1  0.62922600  0.37077400  0.68910400  1
  C  C21  1  0.15215200  0.15215200  0.30917300  1
  C  C22  1  0.00000000  0.00000000  0.79972000  1
  C  C23  1  0.50000000  0.50000000  0.21824300  1
