# generated using pymatgen
data_Cu8Ni4C11
_symmetry_space_group_name_H-M   'P 1'
_cell_length_a   4.12505853
_cell_length_b   8.84356200
_cell_length_c   17.92771823
_cell_angle_alpha   90.00000000
_cell_angle_beta   99.09901988
_cell_angle_gamma   90.00000000
_symmetry_Int_Tables_number   1
_chemical_formula_structural   Cu8Ni4C11
_chemical_formula_sum   'Cu16 Ni8 C22'
_cell_volume   645.77725302
_cell_formula_units_Z   2
loop_
 _symmetry_equiv_pos_site_id
 _symmetry_equiv_pos_as_xyz
  1  'x, y, z'
loop_
 _atom_site_type_symbol
 _atom_site_label
 _atom_site_symmetry_multiplicity
 _atom_site_fract_x
 _atom_site_fract_y
 _atom_site_fract_z
 _atom_site_occupancy
  C  C0  1  0.00000000  0.50000000  0.50000000  1
  C  C1  1  0.50000000  0.00000000  0.00000000  1
  C  C2  1  0.72515300  0.69502800  0.85022600  1
  C  C3  1  0.22515300  0.80497200  0.35022600  1
  C  C4  1  0.27484700  0.30497200  0.14977400  1
  C  C5  1  0.77484700  0.19502800  0.64977400  1
  C  C6  1  0.45946600  0.71703100  0.76500700  1
  C  C7  1  0.95946600  0.78296900  0.26500700  1
  C  C8  1  0.54053400  0.28296900  0.23499300  1
  C  C9  1  0.04053400  0.21703100  0.73499300  1
  C  C10  1  0.76799200  0.46163300  0.91013700  1
  C  C11  1  0.26799200  0.03836700  0.41013700  1
  C  C12  1  0.23200800  0.53836700  0.08986300  1
  C  C13  1  0.73200800  0.96163300  0.58986300  1
  C  C14  1  0.55863600  0.30443000  0.86726100  1
  C  C15  1  0.05863600  0.19557000  0.36726100  1
  C  C16  1  0.44136400  0.69557000  0.13273900  1
  C  C17  1  0.94136400  0.80443000  0.63273900  1
  Ni  Ni18  1  0.19058000  0.50696200  0.68687200  1
  Ni  Ni19  1  0.69058000  0.99303800  0.18687200  1
  Ni  Ni20  1  0.80942000  0.49303800  0.31312800  1
  Ni  Ni21  1  0.30942000  0.00696200  0.81312800  1
  Ni  Ni22  1  0.49982700  0.50131700  0.80567600  1
  Ni  Ni23  1  0.99982700  0.99868300  0.30567600  1
  Ni  Ni24  1  0.50017300  0.49868300  0.19432400  1
  Ni  Ni25  1  0.00017300  0.00131700  0.69432400  1
  C  C26  1  0.47354800  0.71938400  0.47313300  1
  C  C27  1  0.97354800  0.78061600  0.97313300  1
  C  C28  1  0.52645200  0.28061600  0.52686700  1
  C  C29  1  0.02645200  0.21938400  0.02686700  1
  Cu  Cu30  1  0.07616500  0.56075200  0.62805600  1
  Cu  Cu31  1  0.57616500  0.93924800  0.12805600  1
  Cu  Cu32  1  0.92383500  0.43924800  0.37194400  1
  Cu  Cu33  1  0.42383500  0.06075200  0.87194400  1
  Cu  Cu34  1  0.29229000  0.43568900  0.74906900  1
  Cu  Cu35  1  0.79229000  0.06431100  0.24906900  1
  Cu  Cu36  1  0.70771000  0.56431100  0.25093100  1
  Cu  Cu37  1  0.20771000  0.93568900  0.75093100  1
  Cu  Cu38  1  0.59312400  0.64612300  0.80302600  1
  Cu  Cu39  1  0.09312400  0.85387700  0.30302600  1
  Cu  Cu40  1  0.40687600  0.35387700  0.19697400  1
  Cu  Cu41  1  0.90687600  0.14612300  0.69697400  1
  Cu  Cu42  1  0.61589400  0.41647300  0.86569700  1
  Cu  Cu43  1  0.11589400  0.08352700  0.36569700  1
  Cu  Cu44  1  0.38410600  0.58352700  0.13430300  1
  Cu  Cu45  1  0.88410600  0.91647300  0.63430300  1
