# generated using pymatgen
data_CuNiC2
_symmetry_space_group_name_H-M   'P 1'
_cell_length_a   3.16859200
_cell_length_b   5.52082600
_cell_length_c   6.15044800
_cell_angle_alpha   90.00000000
_cell_angle_beta   90.00000000
_cell_angle_gamma   90.00000000
_symmetry_Int_Tables_number   1
_chemical_formula_structural   CuNiC2
_chemical_formula_sum   'Cu2 Ni2 C4'
_cell_volume   107.59129432
_cell_formula_units_Z   2
loop_
 _symmetry_equiv_pos_site_id
 _symmetry_equiv_pos_as_xyz
  1  'x, y, z'
loop_
 _atom_site_type_symbol
 _atom_site_label
 _atom_site_symmetry_multiplicity
 _atom_site_fract_x
 _atom_site_fract_y
 _atom_site_fract_z
 _atom_site_occupancy
  Ni  Ni0  1  0.50000000  0.48861100  0.06373600  1
  Ni  Ni1  1  0.50000000  0.98861100  0.93626400  1
  C  C2  1  0.50000000  0.32089700  0.70465300  1
  C  C3  1  0.50000000  0.82089700  0.29534700  1
  C  C4  1  0.00000000  0.68475500  0.83278900  1
  C  C5  1  0.00000000  0.18475500  0.16721100  1
  Cu  Cu6  1  0.00000000  0.50573800  0.44480100  1
  Cu  Cu7  1  0.00000000  0.00573800  0.55519900  1
