# generated using pymatgen
data_Cu11(NiC2)3
_symmetry_space_group_name_H-M   'P 1'
_cell_length_a   8.03701500
_cell_length_b   8.03701500
_cell_length_c   12.90088625
_cell_angle_alpha   71.85090109
_cell_angle_beta   71.85090109
_cell_angle_gamma   90.00000000
_symmetry_Int_Tables_number   1
_chemical_formula_structural   Cu11(NiC2)3
_chemical_formula_sum   'Cu22 Ni6 C12'
_cell_volume   748.10458934
_cell_formula_units_Z   2
loop_
 _symmetry_equiv_pos_site_id
 _symmetry_equiv_pos_as_xyz
  1  'x, y, z'
loop_
 _atom_site_type_symbol
 _atom_site_label
 _atom_site_symmetry_multiplicity
 _atom_site_fract_x
 _atom_site_fract_y
 _atom_site_fract_z
 _atom_site_occupancy
  C  C0  1  0.35131400  0.85131400  0.63081300  1
  C  C1  1  0.01787300  0.51787300  0.63081300  1
  C  C2  1  0.51787300  0.35131400  0.63081300  1
  C  C3  1  0.85131400  0.01787300  0.63081300  1
  C  C4  1  0.64065500  0.14065500  0.37975100  1
  C  C5  1  0.97959400  0.47959400  0.37975100  1
  C  C6  1  0.47959400  0.64065500  0.37975100  1
  C  C7  1  0.14065500  0.97959400  0.37975100  1
  C  C8  1  0.39496000  0.39496000  0.21008100  1
  C  C9  1  0.89496000  0.89496000  0.21008100  1
  C  C10  1  0.60494500  0.60494500  0.79011100  1
  C  C11  1  0.10494500  0.10494500  0.79011100  1
  Ni  Ni12  1  0.75011600  0.75011600  0.49976900  1
  Ni  Ni13  1  0.25011600  0.25011600  0.49976900  1
  Ni  Ni14  1  0.52512900  0.02512900  0.18905100  1
  Ni  Ni15  1  0.28582000  0.78582000  0.18905100  1
  Ni  Ni16  1  0.78582000  0.52512900  0.18905100  1
  Ni  Ni17  1  0.02512900  0.28582000  0.18905100  1
  Cu  Cu18  1  0.23875400  0.73875400  0.88025400  1
  Cu  Cu19  1  0.88099200  0.38099200  0.88025400  1
  Cu  Cu20  1  0.38099200  0.23875400  0.88025400  1
  Cu  Cu21  1  0.73875400  0.88099200  0.88025400  1
  Cu  Cu22  1  0.76748700  0.26748700  0.11464900  1
  Cu  Cu23  1  0.11786400  0.61786400  0.11464900  1
  Cu  Cu24  1  0.61786400  0.76748700  0.11464900  1
  Cu  Cu25  1  0.26748700  0.11786400  0.11464900  1
  Cu  Cu26  1  0.71031900  0.56939700  0.99869400  1
  Cu  Cu27  1  0.29098700  0.43190900  0.99869400  1
  Cu  Cu28  1  0.79098700  0.06939700  0.99869400  1
  Cu  Cu29  1  0.21031900  0.93190900  0.99869400  1
  Cu  Cu30  1  0.56939700  0.29098700  0.99869400  1
  Cu  Cu31  1  0.43190900  0.71031900  0.99869400  1
  Cu  Cu32  1  0.06939700  0.21031900  0.99869400  1
  Cu  Cu33  1  0.93190900  0.79098700  0.99869400  1
  Cu  Cu34  1  0.00129800  0.50129800  0.99740400  1
  Cu  Cu35  1  0.50129800  0.00129800  0.99740400  1
  Cu  Cu36  1  0.48210300  0.98210300  0.80941100  1
  Cu  Cu37  1  0.70848700  0.20848700  0.80941100  1
  Cu  Cu38  1  0.20848700  0.48210300  0.80941100  1
  Cu  Cu39  1  0.98210300  0.70848700  0.80941100  1
