# generated using pymatgen
data_Cu9Ni8C7
_symmetry_space_group_name_H-M   'P 1'
_cell_length_a   10.43995729
_cell_length_b   10.44030083
_cell_length_c   17.45678528
_cell_angle_alpha   89.99887262
_cell_angle_beta   89.99856574
_cell_angle_gamma   120.00309113
_symmetry_Int_Tables_number   1
_chemical_formula_structural   Cu9Ni8C7
_chemical_formula_sum   'Cu36 Ni32 C28'
_cell_volume   1647.75678265
_cell_formula_units_Z   4
loop_
 _symmetry_equiv_pos_site_id
 _symmetry_equiv_pos_as_xyz
  1  'x, y, z'
loop_
 _atom_site_type_symbol
 _atom_site_label
 _atom_site_symmetry_multiplicity
 _atom_site_fract_x
 _atom_site_fract_y
 _atom_site_fract_z
 _atom_site_occupancy
  C  C0  1  0.91786398  0.33360348  0.75003896  1
  C  C1  1  0.08186899  0.66620206  0.24994923  1
  C  C2  1  0.41576073  0.08212597  0.75004185  1
  C  C3  1  0.58432516  0.66620552  0.24994868  1
  C  C4  1  0.58431664  0.91813813  0.24994945  1
  C  C5  1  0.41573640  0.33359105  0.75003997  1
  C  C6  1  0.66627929  0.58423773  0.75003950  1
  C  C7  1  0.33384658  0.91815710  0.24994844  1
  C  C8  1  0.33378883  0.41564997  0.24994903  1
  C  C9  1  0.66631329  0.08209377  0.75004199  1
  C  C10  1  0.08186620  0.41563364  0.24994980  1
  C  C11  1  0.91794473  0.58425566  0.75003840  1
  C  C12  1  0.66665574  0.33332697  0.37656070  1
  C  C13  1  0.33335477  0.66668296  0.62370286  1
  C  C14  1  0.33335022  0.66667766  0.87634822  1
  C  C15  1  0.66665686  0.33332703  0.12339107  1
  C  C16  1  0.74862233  0.74857952  0.99989123  1
  C  C17  1  0.25141014  0.25135607  0.99988798  1
  C  C18  1  0.99996321  0.25135854  0.99989310  1
  C  C19  1  0.25143389  0.25137641  0.50011844  1
  C  C20  1  0.99995714  0.74858613  0.99988616  1
  C  C21  1  0.74860601  0.74855335  0.50011391  1
  C  C22  1  0.25142485  0.00009395  0.99988550  1
  C  C23  1  0.99994720  0.74855968  0.50011951  1
  C  C24  1  0.74865629  0.00007210  0.99989550  1
  C  C25  1  0.99995734  0.25137796  0.50011300  1
  C  C26  1  0.74863844  0.00007826  0.50011004  1
  C  C27  1  0.25144866  0.00009790  0.50012175  1
  Ni  Ni28  1  0.83305550  0.16704355  0.34394438  1
  Ni  Ni29  1  0.16707207  0.83286750  0.65626024  1
  Ni  Ni30  1  0.33398554  0.16705053  0.34394724  1
  Ni  Ni31  1  0.16705682  0.83287256  0.84376487  1
  Ni  Ni32  1  0.66577948  0.83285575  0.65626459  1
  Ni  Ni33  1  0.83307813  0.16702312  0.15603537  1
  Ni  Ni34  1  0.83303874  0.66608087  0.34394189  1
  Ni  Ni35  1  0.66579374  0.83285443  0.84376235  1
  Ni  Ni36  1  0.16704679  0.33408894  0.65623680  1
  Ni  Ni37  1  0.33394011  0.16702835  0.15602956  1
  Ni  Ni38  1  0.16703291  0.33406708  0.84378839  1
  Ni  Ni39  1  0.83305626  0.66611339  0.15603517  1
  Ni  Ni40  1  0.50012597  0.49987903  0.90573826  1
  Ni  Ni41  1  0.49985510  0.50002115  0.09407033  1
  Ni  Ni42  1  0.99976450  0.49988746  0.90574515  1
  Ni  Ni43  1  0.49989640  0.50000754  0.40593135  1
  Ni  Ni44  1  0.00015991  0.50002535  0.09406657  1
  Ni  Ni45  1  0.50010032  0.49989098  0.59425661  1
  Ni  Ni46  1  0.50014687  0.00031168  0.90572655  1
  Ni  Ni47  1  0.00011766  0.50001352  0.40593223  1
  Ni  Ni48  1  0.49990183  0.99980919  0.09407995  1
  Ni  Ni49  1  0.99978971  0.49989618  0.59425710  1
  Ni  Ni50  1  0.49993437  0.99986240  0.40592145  1
  Ni  Ni51  1  0.50011923  0.00026200  0.59427115  1
  Ni  Ni52  1  0.66657417  0.33320608  0.84657211  1
  Ni  Ni53  1  0.33336366  0.66671327  0.15327174  1
  Ni  Ni54  1  0.33334757  0.66669448  0.34670463  1
  Ni  Ni55  1  0.66658687  0.33322431  0.65345481  1
  Ni  Ni56  1  0.00005574  0.00007362  0.90290132  1
  Ni  Ni57  1  0.99999581  0.99999417  0.09709058  1
  Ni  Ni58  1  0.00000367  0.00000045  0.40284624  1
  Ni  Ni59  1  0.00003721  0.00005348  0.59715527  1
  Cu  Cu60  1  0.83265099  0.16736541  0.87516944  1
  Cu  Cu61  1  0.16722071  0.83282782  0.12473863  1
  Cu  Cu62  1  0.33473304  0.16737967  0.87516710  1
  Cu  Cu63  1  0.16719965  0.83282156  0.37524542  1
  Cu  Cu64  1  0.66561477  0.83282055  0.12473950  1
  Cu  Cu65  1  0.83266177  0.16737823  0.62484876  1
  Cu  Cu66  1  0.83267105  0.66533032  0.87517240  1
  Cu  Cu67  1  0.66562374  0.83281205  0.37524448  1
  Cu  Cu68  1  0.16720214  0.33438961  0.12473268  1
  Cu  Cu69  1  0.33473812  0.16738752  0.62485164  1
  Cu  Cu70  1  0.16718482  0.33437059  0.37525095  1
  Cu  Cu71  1  0.83267729  0.66533166  0.62484471  1
  Cu  Cu72  1  0.41638448  0.58365818  0.75001270  1
  Cu  Cu73  1  0.58361911  0.41635145  0.24999394  1
  Cu  Cu74  1  0.16726808  0.58364169  0.75001443  1
  Cu  Cu75  1  0.83272408  0.41634673  0.24999275  1
  Cu  Cu76  1  0.41634027  0.83267717  0.75001106  1
  Cu  Cu77  1  0.58365360  0.16729734  0.24999428  1
  Cu  Cu78  1  0.75035491  0.24963847  0.99858357  1
  Cu  Cu79  1  0.24967560  0.75033801  0.00128414  1
  Cu  Cu80  1  0.49928583  0.24963995  0.99858315  1
  Cu  Cu81  1  0.24968764  0.75032732  0.49873462  1
  Cu  Cu82  1  0.50066725  0.75033934  0.00128279  1
  Cu  Cu83  1  0.75035223  0.24964350  0.50139976  1
  Cu  Cu84  1  0.75035811  0.50071600  0.99858847  1
  Cu  Cu85  1  0.50064471  0.75032872  0.49873535  1
  Cu  Cu86  1  0.24968040  0.49936150  0.00127785  1
  Cu  Cu87  1  0.49929429  0.24964443  0.50140055  1
  Cu  Cu88  1  0.24969182  0.49938478  0.49874164  1
  Cu  Cu89  1  0.75035495  0.50070824  0.50139542  1
  Cu  Cu90  1  0.91662364  0.08340404  0.75001480  1
  Cu  Cu91  1  0.08333609  0.91664103  0.24998196  1
  Cu  Cu92  1  0.16677519  0.08339255  0.75001573  1
  Cu  Cu93  1  0.83329723  0.91663802  0.24998037  1
  Cu  Cu94  1  0.91659881  0.83319526  0.75001309  1
  Cu  Cu95  1  0.08334700  0.16669032  0.24998333  1
