# generated using pymatgen
data_Cu(NiC5)6
_symmetry_space_group_name_H-M   'P 1'
_cell_length_a   10.62297500
_cell_length_b   10.83719949
_cell_length_c   12.95954938
_cell_angle_alpha   111.76523516
_cell_angle_beta   81.36492323
_cell_angle_gamma   114.51878310
_symmetry_Int_Tables_number   1
_chemical_formula_structural   Cu(NiC5)6
_chemical_formula_sum   'Cu2 Ni12 C60'
_cell_volume   1260.62946716
_cell_formula_units_Z   2
loop_
 _symmetry_equiv_pos_site_id
 _symmetry_equiv_pos_as_xyz
  1  'x, y, z'
loop_
 _atom_site_type_symbol
 _atom_site_label
 _atom_site_symmetry_multiplicity
 _atom_site_fract_x
 _atom_site_fract_y
 _atom_site_fract_z
 _atom_site_occupancy
  C  C0  1  0.25407200  0.75556300  0.45632400  1
  C  C1  1  0.74592800  0.24443700  0.54367600  1
  C  C2  1  0.23059700  0.22028600  0.52350400  1
  C  C3  1  0.76940300  0.77971400  0.47649600  1
  C  C4  1  0.36081200  0.27885400  0.84402400  1
  C  C5  1  0.63918800  0.72114600  0.15597600  1
  C  C6  1  0.16105900  0.56218500  0.86304700  1
  C  C7  1  0.83894100  0.43781500  0.13695300  1
  Ni  Ni8  1  0.51348700  0.17662200  0.29866200  1
  Ni  Ni9  1  0.48651300  0.82337800  0.70133800  1
  Ni  Ni10  1  0.42554800  0.44437800  0.30283000  1
  Ni  Ni11  1  0.57445200  0.55562200  0.69717000  1
  Ni  Ni12  1  0.34556600  0.83714100  0.14382700  1
  Ni  Ni13  1  0.65443400  0.16285900  0.85617300  1
  Ni  Ni14  1  0.17619200  0.37975700  0.13915800  1
  Ni  Ni15  1  0.82380800  0.62024300  0.86084200  1
  Ni  Ni16  1  0.06153200  0.87923900  0.26816300  1
  Ni  Ni17  1  0.93846800  0.12076100  0.73183700  1
  Ni  Ni18  1  0.97442100  0.14607600  0.26264900  1
  Ni  Ni19  1  0.02557900  0.85392400  0.73735100  1
  Cu  Cu20  1  0.25985700  0.10180000  0.12798300  1
  Cu  Cu21  1  0.74014300  0.89820000  0.87201700  1
  C  C22  1  0.80532900  0.01074800  0.22806300  1
  C  C23  1  0.19467100  0.98925200  0.77193700  1
  C  C24  1  0.68733400  0.29089300  0.29127200  1
  C  C25  1  0.31266600  0.70910700  0.70872800  1
  C  C26  1  0.60201900  0.55391800  0.29977700  1
  C  C27  1  0.39798100  0.44608200  0.70022300  1
  C  C28  1  0.37739200  0.71931300  0.01844800  1
  C  C29  1  0.62260800  0.28068700  0.98155200  1
  C  C30  1  0.50093400  0.11521300  0.40775200  1
  C  C31  1  0.49906600  0.88478700  0.59224800  1
  C  C32  1  0.37732600  0.78471200  0.24577300  1
  C  C33  1  0.62267400  0.21528800  0.75422700  1
  C  C34  1  0.17237000  0.40055000  0.01250800  1
  C  C35  1  0.82763000  0.59945000  0.98749200  1
  C  C36  1  0.35394100  0.54960300  0.40785300  1
  C  C37  1  0.64605900  0.45039700  0.59214700  1
  C  C38  1  0.12873400  0.51323900  0.23774900  1
  C  C39  1  0.87126600  0.48676100  0.76225100  1
  C  C40  1  0.11366800  0.87095300  0.38601400  1
  C  C41  1  0.88633200  0.12904700  0.61398600  1
  C  C42  1  0.88863800  0.75655000  0.24624700  1
  C  C43  1  0.11136200  0.24345000  0.75375300  1
  C  C44  1  0.95618900  0.28418800  0.37732700  1
  C  C45  1  0.04381100  0.71581200  0.62267300  1
  C  C46  1  0.51287100  0.01200600  0.16848900  1
  C  C47  1  0.48712900  0.98799400  0.83151100  1
  C  C48  1  0.37375900  0.46243700  0.17053500  1
  C  C49  1  0.62624100  0.53756300  0.82946500  1
  C  C50  1  0.30395300  0.94969200  0.02744000  1
  C  C51  1  0.69604700  0.05030800  0.97256000  1
  C  C52  1  0.43355200  0.32188300  0.37831700  1
  C  C53  1  0.56644800  0.67811700  0.62168300  1
  C  C54  1  0.14362000  0.76322200  0.14626800  1
  C  C55  1  0.85638000  0.23677800  0.85373200  1
  C  C56  1  0.00092100  0.21812100  0.14093300  1
  C  C57  1  0.99907900  0.78187900  0.85906700  1
  C  C58  1  0.23702200  0.17840800  0.02706700  1
  C  C59  1  0.76297800  0.82159200  0.97293300  1
  C  C60  1  0.03557000  0.06020700  0.34614100  1
  C  C61  1  0.96443000  0.93979300  0.65385900  1
  C  C62  1  0.44456500  0.23908200  0.17265900  1
  C  C63  1  0.55543500  0.76091800  0.82734100  1
  C  C64  1  0.06808300  0.98588500  0.14338500  1
  C  C65  1  0.93191700  0.01411500  0.85661500  1
  C  C66  1  0.28571000  0.03145800  0.24635700  1
  C  C67  1  0.71429000  0.96854200  0.75364300  1
  C  C68  1  0.20878700  0.26199000  0.24482900  1
  C  C69  1  0.79121300  0.73801000  0.75517100  1
  C  C70  1  0.69630200  0.96164800  0.37009400  1
  C  C71  1  0.30369800  0.03835200  0.62990600  1
  C  C72  1  0.83032200  0.51588000  0.36743200  1
  C  C73  1  0.16967800  0.48412000  0.63256800  1
