# generated using pymatgen
data_Cu(Ni5C7)4
_symmetry_space_group_name_H-M   'P 1'
_cell_length_a   9.12761831
_cell_length_b   11.04449434
_cell_length_c   11.20532327
_cell_angle_alpha   66.05744370
_cell_angle_beta   72.82099414
_cell_angle_gamma   73.55824055
_symmetry_Int_Tables_number   1
_chemical_formula_structural   Cu(Ni5C7)4
_chemical_formula_sum   'Cu2 Ni40 C56'
_cell_volume   968.97257058
_cell_formula_units_Z   2
loop_
 _symmetry_equiv_pos_site_id
 _symmetry_equiv_pos_as_xyz
  1  'x, y, z'
loop_
 _atom_site_type_symbol
 _atom_site_label
 _atom_site_symmetry_multiplicity
 _atom_site_fract_x
 _atom_site_fract_y
 _atom_site_fract_z
 _atom_site_occupancy
  C  C0  1  0.28266000  0.22830300  0.28687200  1
  C  C1  1  0.71734000  0.77169700  0.71312800  1
  C  C2  1  0.83298200  0.98764400  0.98439800  1
  C  C3  1  0.16701800  0.01235600  0.01560200  1
  C  C4  1  0.11092000  0.72771700  0.04736200  1
  C  C5  1  0.88908000  0.27228300  0.95263800  1
  C  C6  1  0.14866400  0.95123900  0.76655200  1
  C  C7  1  0.85133600  0.04876100  0.23344800  1
  C  C8  1  0.12483400  0.78798100  0.29726100  1
  C  C9  1  0.87516600  0.21201900  0.70273900  1
  C  C10  1  0.80465300  0.76226500  0.26346600  1
  C  C11  1  0.19534700  0.23773500  0.73653400  1
  Ni  Ni12  1  0.45881000  0.34777300  0.06139400  1
  Ni  Ni13  1  0.54119000  0.65222700  0.93860600  1
  Ni  Ni14  1  0.53119100  0.35714000  0.17038900  1
  Ni  Ni15  1  0.46880900  0.64286000  0.82961100  1
  Ni  Ni16  1  0.16540200  0.47690800  0.31277400  1
  Ni  Ni17  1  0.83459800  0.52309200  0.68722600  1
  Ni  Ni18  1  0.11067400  0.36764700  0.45417000  1
  Ni  Ni19  1  0.88932600  0.63235300  0.54583000  1
  Ni  Ni20  1  0.52662600  0.15136500  0.41687100  1
  Ni  Ni21  1  0.47337400  0.84863500  0.58312900  1
  Ni  Ni22  1  0.37317500  0.12078600  0.53123000  1
  Ni  Ni23  1  0.62682500  0.87921400  0.46877000  1
  Ni  Ni24  1  0.51474800  0.02158900  0.22945200  1
  Ni  Ni25  1  0.48525200  0.97841100  0.77054800  1
  Ni  Ni26  1  0.36422000  0.00846100  0.19660500  1
  Ni  Ni27  1  0.63578000  0.99153900  0.80339500  1
  Ni  Ni28  1  0.11399400  0.24945700  0.10632400  1
  Ni  Ni29  1  0.88600600  0.75054300  0.89367600  1
  Ni  Ni30  1  0.19297300  0.37947200  0.04962600  1
  Ni  Ni31  1  0.80702700  0.62052800  0.95037400  1
  Ni  Ni32  1  0.07469500  0.09293700  0.50026400  1
  Ni  Ni33  1  0.92530500  0.90706300  0.49973600  1
  Ni  Ni34  1  0.08595800  0.05006100  0.37741300  1
  Ni  Ni35  1  0.91404200  0.94993900  0.62258700  1
  Ni  Ni36  1  0.57273700  0.73649100  0.08769600  1
  Ni  Ni37  1  0.42726300  0.26350900  0.91230400  1
  Ni  Ni38  1  0.43089400  0.66395400  0.13307100  1
  Ni  Ni39  1  0.56910600  0.33604600  0.86692900  1
  Ni  Ni40  1  0.43104400  0.53031700  0.37056200  1
  Ni  Ni41  1  0.56895600  0.46968300  0.62943800  1
  Ni  Ni42  1  0.54252300  0.61416100  0.52733300  1
  Ni  Ni43  1  0.45747700  0.38583900  0.47266700  1
  Ni  Ni44  1  0.15258500  0.64101800  0.63148300  1
  Ni  Ni45  1  0.84741500  0.35898200  0.36851700  1
  Ni  Ni46  1  0.13511200  0.49741400  0.76530500  1
  Ni  Ni47  1  0.86488800  0.50258600  0.23469500  1
  Ni  Ni48  1  0.68971400  0.44466400  0.30400400  1
  Ni  Ni49  1  0.31028600  0.55533600  0.69599600  1
  Ni  Ni50  1  0.84236900  0.36384800  0.21808500  1
  Ni  Ni51  1  0.15763100  0.63615200  0.78191500  1
  Cu  Cu52  1  0.81195600  0.41825900  0.28021300  1
  Cu  Cu53  1  0.18804400  0.58174100  0.71978700  1
  C  C54  1  0.98161900  0.85457200  0.90935600  1
  C  C55  1  0.01838100  0.14542800  0.09064400  1
  C  C56  1  0.71547300  0.87429300  0.09773300  1
  C  C57  1  0.28452700  0.12570700  0.90226700  1
  C  C58  1  0.23238400  0.87782900  0.93534500  1
  C  C59  1  0.76761600  0.12217100  0.06465500  1
  C  C60  1  0.74767100  0.07682400  0.84506100  1
  C  C61  1  0.25232900  0.92317600  0.15493900  1
  C  C62  1  0.98417400  0.90559000  0.11868200  1
  C  C63  1  0.01582600  0.09441000  0.88131800  1
  C  C64  1  0.19976300  0.61600900  0.97508400  1
  C  C65  1  0.80023700  0.38399100  0.02491600  1
  C  C66  1  0.21024900  0.68369900  0.18605200  1
  C  C67  1  0.78975100  0.31630100  0.81394800  1
  C  C68  1  0.93575200  0.66116900  0.15812800  1
  C  C69  1  0.06424800  0.33883100  0.84187200  1
  C  C70  1  0.99996000  0.05398200  0.66352900  1
  C  C71  1  0.00004000  0.94601800  0.33647100  1
  C  C72  1  0.24688400  0.84104100  0.69426200  1
  C  C73  1  0.75311600  0.15895900  0.30573800  1
  C  C74  1  0.72397400  0.92244500  0.30649300  1
  C  C75  1  0.27602600  0.07755500  0.69350700  1
  C  C76  1  0.95046300  0.70693000  0.37066200  1
  C  C77  1  0.04953700  0.29307000  0.62933800  1
  C  C78  1  0.22643700  0.71448700  0.41435900  1
  C  C79  1  0.77356300  0.28551300  0.58564100  1
  C  C80  1  0.67139700  0.67119800  0.35648000  1
  C  C81  1  0.32860300  0.32880200  0.64352000  1
  C  C82  1  0.43582000  0.35083800  0.15298100  1
  C  C83  1  0.56418000  0.64916200  0.84701900  1
  C  C84  1  0.14141300  0.38615200  0.35675200  1
  C  C85  1  0.85858700  0.61384800  0.64324800  1
  C  C86  1  0.41444700  0.15489800  0.43324700  1
  C  C87  1  0.58555300  0.84510200  0.56675300  1
  C  C88  1  0.40885100  0.06753200  0.21695700  1
  C  C89  1  0.59114900  0.93246800  0.78304300  1
  C  C90  1  0.15869000  0.30678900  0.13066300  1
  C  C91  1  0.84131000  0.69321100  0.86933700  1
  C  C92  1  0.11343600  0.11584400  0.40212400  1
  C  C93  1  0.88656400  0.88415600  0.59787600  1
  C  C94  1  0.45679900  0.34396800  0.90766200  1
  C  C95  1  0.54320100  0.65603200  0.09233800  1
  C  C96  1  0.49365700  0.44072900  0.37939000  1
  C  C97  1  0.50634300  0.55927100  0.62061000  1
