# generated using pymatgen
data_Cu5Ni2C25
_symmetry_space_group_name_H-M   'P 1'
_cell_length_a   5.78543700
_cell_length_b   5.17222800
_cell_length_c   9.70945303
_cell_angle_alpha   81.08331257
_cell_angle_beta   90.00000000
_cell_angle_gamma   90.00000000
_symmetry_Int_Tables_number   1
_chemical_formula_structural   Cu5Ni2C25
_chemical_formula_sum   'Cu5 Ni2 C25'
_cell_volume   287.03051539
_cell_formula_units_Z   1
loop_
 _symmetry_equiv_pos_site_id
 _symmetry_equiv_pos_as_xyz
  1  'x, y, z'
loop_
 _atom_site_type_symbol
 _atom_site_label
 _atom_site_symmetry_multiplicity
 _atom_site_fract_x
 _atom_site_fract_y
 _atom_site_fract_z
 _atom_site_occupancy
  C  C0  1  0.74662400  0.74597800  0.74455500  1
  C  C1  1  0.50500000  0.50000000  0.00000000  1
  C  C2  1  0.25126400  0.25148500  0.25466600  1
  C  C3  1  0.49744800  0.00000000  0.50000000  1
  C  C4  1  0.25126400  0.74851500  0.74533400  1
  C  C5  1  0.00030400  0.50000000  0.00000000  1
  C  C6  1  0.99639600  0.00000000  0.50000000  1
  C  C7  1  0.74662400  0.25402200  0.25544500  1
  C  C8  1  0.74653300  0.50000000  0.50000000  1
  Ni  Ni9  1  0.00197300  0.24857300  0.74651100  1
  Ni  Ni10  1  0.00197300  0.75142700  0.25348900  1
  Cu  Cu11  1  0.74760000  0.00000000  0.00000000  1
  Cu  Cu12  1  0.50492000  0.74566600  0.25811400  1
  Cu  Cu13  1  0.24851400  0.50000000  0.50000000  1
  Cu  Cu14  1  0.50492000  0.25433400  0.74188600  1
  Cu  Cu15  1  0.25649000  0.00000000  0.00000000  1
  C  C16  1  0.75308600  0.12753400  0.63902200  1
  C  C17  1  0.50050200  0.88259100  0.88313500  1
  C  C18  1  0.24880000  0.64795800  0.13309900  1
  C  C19  1  0.48024300  0.40186700  0.37878300  1
  C  C20  1  0.23644600  0.12175900  0.63560200  1
  C  C21  1  0.00133900  0.90512100  0.87428500  1
  C  C22  1  0.01134100  0.42016500  0.37072700  1
  C  C23  1  0.76431900  0.63927400  0.13196700  1
  C  C24  1  0.76431900  0.36072600  0.86803300  1
  C  C25  1  0.50050200  0.11740900  0.11686500  1
  C  C26  1  0.23644600  0.87824100  0.36439800  1
  C  C27  1  0.48024300  0.59813300  0.62121700  1
  C  C28  1  0.24880000  0.35204200  0.86690100  1
  C  C29  1  0.00133900  0.09487900  0.12571500  1
  C  C30  1  0.01134100  0.57983500  0.62927300  1
  C  C31  1  0.75308600  0.87246600  0.36097800  1
