# generated using pymatgen
data_Cu10Ni2C11
_symmetry_space_group_name_H-M   'P 1'
_cell_length_a   13.14130400
_cell_length_b   13.14130400
_cell_length_c   3.17554800
_cell_angle_alpha   90.00000000
_cell_angle_beta   90.00000000
_cell_angle_gamma   90.00000000
_symmetry_Int_Tables_number   1
_chemical_formula_structural   Cu10Ni2C11
_chemical_formula_sum   'Cu20 Ni4 C22'
_cell_volume   548.39767610
_cell_formula_units_Z   2
loop_
 _symmetry_equiv_pos_site_id
 _symmetry_equiv_pos_as_xyz
  1  'x, y, z'
loop_
 _atom_site_type_symbol
 _atom_site_label
 _atom_site_symmetry_multiplicity
 _atom_site_fract_x
 _atom_site_fract_y
 _atom_site_fract_z
 _atom_site_occupancy
  C  C0  1  0.50000000  0.50000000  0.50000000  1
  C  C1  1  0.00000000  0.00000000  0.00000000  1
  C  C2  1  0.98603700  0.79348400  0.50000000  1
  C  C3  1  0.01396300  0.20651600  0.50000000  1
  C  C4  1  0.51396300  0.29348400  0.00000000  1
  C  C5  1  0.48603700  0.70651600  0.00000000  1
  C  C6  1  0.79348400  0.98603700  0.50000000  1
  C  C7  1  0.20651600  0.01396300  0.50000000  1
  C  C8  1  0.29348400  0.51396300  0.00000000  1
  C  C9  1  0.70651600  0.48603700  0.00000000  1
  C  C10  1  0.66082300  0.66082300  0.50000000  1
  C  C11  1  0.33917700  0.33917700  0.50000000  1
  C  C12  1  0.83917700  0.16082300  0.00000000  1
  C  C13  1  0.16082300  0.83917700  0.00000000  1
  C  C14  1  0.38502300  0.90396000  0.50000000  1
  C  C15  1  0.61497700  0.09604000  0.50000000  1
  C  C16  1  0.11497700  0.40396000  0.00000000  1
  C  C17  1  0.88502300  0.59604000  0.00000000  1
  C  C18  1  0.90396000  0.38502300  0.50000000  1
  C  C19  1  0.09604000  0.61497700  0.50000000  1
  C  C20  1  0.40396000  0.11497700  0.00000000  1
  C  C21  1  0.59604000  0.88502300  0.00000000  1
  Ni  Ni22  1  0.30914100  0.69085900  0.50000000  1
  Ni  Ni23  1  0.69085900  0.30914100  0.50000000  1
  Ni  Ni24  1  0.19085900  0.19085900  0.00000000  1
  Ni  Ni25  1  0.80914100  0.80914100  0.00000000  1
  Cu  Cu26  1  0.08611200  0.91388800  0.50000000  1
  Cu  Cu27  1  0.91388800  0.08611200  0.50000000  1
  Cu  Cu28  1  0.41388800  0.41388800  0.00000000  1
  Cu  Cu29  1  0.58611200  0.58611200  0.00000000  1
  Cu  Cu30  1  0.48130300  0.18456100  0.50000000  1
  Cu  Cu31  1  0.51869700  0.81543900  0.50000000  1
  Cu  Cu32  1  0.01869700  0.68456100  0.00000000  1
  Cu  Cu33  1  0.98130300  0.31543900  0.00000000  1
  Cu  Cu34  1  0.18456100  0.48130300  0.50000000  1
  Cu  Cu35  1  0.81543900  0.51869700  0.50000000  1
  Cu  Cu36  1  0.68456100  0.01869700  0.00000000  1
  Cu  Cu37  1  0.31543900  0.98130300  0.00000000  1
  Cu  Cu38  1  0.24300900  0.75699100  0.50000000  1
  Cu  Cu39  1  0.75699100  0.24300900  0.50000000  1
  Cu  Cu40  1  0.25699100  0.25699100  0.00000000  1
  Cu  Cu41  1  0.74300900  0.74300900  0.00000000  1
  Cu  Cu42  1  0.37574300  0.62425700  0.50000000  1
  Cu  Cu43  1  0.62425700  0.37574300  0.50000000  1
  Cu  Cu44  1  0.12425700  0.12425700  0.00000000  1
  Cu  Cu45  1  0.87574300  0.87574300  0.00000000  1
