# generated using pymatgen
data_Cu3Ni2C35
_symmetry_space_group_name_H-M   'P 1'
_cell_length_a   8.58928000
_cell_length_b   8.67178212
_cell_length_c   8.69216645
_cell_angle_alpha   62.84918351
_cell_angle_beta   63.34249557
_cell_angle_gamma   63.38517803
_symmetry_Int_Tables_number   1
_chemical_formula_structural   Cu3Ni2C35
_chemical_formula_sum   'Cu3 Ni2 C35'
_cell_volume   490.17450799
_cell_formula_units_Z   1
loop_
 _symmetry_equiv_pos_site_id
 _symmetry_equiv_pos_as_xyz
  1  'x, y, z'
loop_
 _atom_site_type_symbol
 _atom_site_label
 _atom_site_symmetry_multiplicity
 _atom_site_fract_x
 _atom_site_fract_y
 _atom_site_fract_z
 _atom_site_occupancy
  C  C0  1  0.25428000  0.64936000  0.84809700  1
  C  C1  1  0.70793100  0.35571700  0.15155600  1
  C  C2  1  0.35769500  0.15074100  0.71235800  1
  C  C3  1  0.14984500  0.70645700  0.35843500  1
  Ni  Ni4  1  0.97976300  0.00039100  0.99411500  1
  Ni  Ni5  1  0.51450600  0.50101800  0.49620000  1
  Cu  Cu6  1  0.84946800  0.85232000  0.84903300  1
  Cu  Cu7  1  0.65173500  0.64950500  0.64474400  1
  Cu  Cu8  1  0.34789900  0.34363400  0.35138700  1
  C  C9  1  0.14848200  0.14816700  0.15398900  1
  C  C10  1  0.75379900  0.05022400  0.45059300  1
  C  C11  1  0.44169600  0.75067900  0.05098300  1
  C  C12  1  0.05788300  0.45075600  0.75604500  1
  C  C13  1  0.94708800  0.55746400  0.25328100  1
  C  C14  1  0.55556400  0.25573400  0.94548600  1
  C  C15  1  0.25485100  0.94464900  0.55851800  1
  C  C16  1  0.89365200  0.48998100  0.70573400  1
  C  C17  1  0.69218500  0.89913800  0.47762500  1
  C  C18  1  0.94875600  0.73413400  0.08694100  1
  C  C19  1  0.44811900  0.69724900  0.90247900  1
  C  C20  1  0.98895700  0.39296900  0.19248100  1
  C  C21  1  0.75788200  0.57180000  0.39745300  1
  C  C22  1  0.73933000  0.10322400  0.92267800  1
  C  C23  1  0.54665500  0.41584000  0.76526000  1
  C  C24  1  0.82863100  0.01419000  0.59495300  1
  C  C25  1  0.39930700  0.75307300  0.57450400  1
  C  C26  1  0.90466500  0.08063600  0.24838200  1
  C  C27  1  0.59983600  0.81418200  0.00318000  1
  C  C28  1  0.39395300  0.18597300  0.99035900  1
  C  C29  1  0.10331200  0.92301600  0.74623200  1
  C  C30  1  0.60363100  0.24438000  0.42610400  1
  C  C31  1  0.19089700  0.98520000  0.39748200  1
  C  C32  1  0.42558500  0.59748000  0.24358700  1
  C  C33  1  0.24384100  0.90482800  0.08773300  1
  C  C34  1  0.24778600  0.42128600  0.60206600  1
  C  C35  1  0.04460100  0.59395800  0.82091300  1
  C  C36  1  0.52751100  0.31703400  0.09945200  1
  C  C37  1  0.07975900  0.24957800  0.90907000  1
  C  C38  1  0.32128800  0.09664800  0.52792500  1
  C  C39  1  0.09737300  0.52438500  0.32559200  1
