# generated using pymatgen
data_Cu20Ni4C5
_symmetry_space_group_name_H-M   'P 1'
_cell_length_a   5.82330900
_cell_length_b   8.81549938
_cell_length_c   10.52503394
_cell_angle_alpha   113.79106135
_cell_angle_beta   92.75174712
_cell_angle_gamma   93.44664976
_symmetry_Int_Tables_number   1
_chemical_formula_structural   Cu20Ni4C5
_chemical_formula_sum   'Cu20 Ni4 C5'
_cell_volume   491.95162907
_cell_formula_units_Z   1
loop_
 _symmetry_equiv_pos_site_id
 _symmetry_equiv_pos_as_xyz
  1  'x, y, z'
loop_
 _atom_site_type_symbol
 _atom_site_label
 _atom_site_symmetry_multiplicity
 _atom_site_fract_x
 _atom_site_fract_y
 _atom_site_fract_z
 _atom_site_occupancy
  C  C0  1  0.74462900  0.36759700  0.25498400  1
  C  C1  1  0.74066900  0.11233200  0.74673300  1
  C  C2  1  0.25537100  0.63240300  0.74501600  1
  C  C3  1  0.25933100  0.88766800  0.25326700  1
  C  C4  1  0.50000000  0.00000000  0.00000000  1
  Ni  Ni5  1  0.74992900  0.13022200  0.14558800  1
  Ni  Ni6  1  0.71480500  0.97842200  0.85398300  1
  Ni  Ni7  1  0.25007100  0.86977800  0.85441200  1
  Ni  Ni8  1  0.28519500  0.02157800  0.14601700  1
  Cu  Cu9  1  0.58991100  0.32924700  0.39221300  1
  Cu  Cu10  1  0.89124100  0.94289700  0.61752400  1
  Cu  Cu11  1  0.41008900  0.67075300  0.60778700  1
  Cu  Cu12  1  0.10875900  0.05710300  0.38247600  1
  Cu  Cu13  1  0.91129400  0.41172100  0.12349000  1
  Cu  Cu14  1  0.58932500  0.28535700  0.87594400  1
  Cu  Cu15  1  0.08870600  0.58827900  0.87651000  1
  Cu  Cu16  1  0.41067500  0.71464300  0.12405600  1
  Cu  Cu17  1  0.46212500  0.37073100  0.16071900  1
  Cu  Cu18  1  0.02877500  0.20883000  0.84238300  1
  Cu  Cu19  1  0.53787500  0.62926900  0.83928100  1
  Cu  Cu20  1  0.97122500  0.79117000  0.15761700  1
  Cu  Cu21  1  0.02513300  0.36942000  0.34942800  1
  Cu  Cu22  1  0.45817600  0.01724800  0.64428600  1
  Cu  Cu23  1  0.97486700  0.63058000  0.65057200  1
  Cu  Cu24  1  0.54182400  0.98275200  0.35571400  1
  Cu  Cu25  1  0.73758500  0.59583600  0.35720400  1
  Cu  Cu26  1  0.77538500  0.24000300  0.64315100  1
  Cu  Cu27  1  0.26241500  0.40416400  0.64279600  1
  Cu  Cu28  1  0.22461500  0.75999700  0.35684900  1
