# generated using pymatgen
data_Cu(NiC8)3
_symmetry_space_group_name_H-M   'P 1'
_cell_length_a   6.07797028
_cell_length_b   6.07797028
_cell_length_c   10.50232572
_cell_angle_alpha   73.18016859
_cell_angle_beta   90.00000000
_cell_angle_gamma   120.00000000
_symmetry_Int_Tables_number   1
_chemical_formula_structural   Cu(NiC8)3
_chemical_formula_sum   'Cu1 Ni3 C24'
_cell_volume   316.68494973
_cell_formula_units_Z   1
loop_
 _symmetry_equiv_pos_site_id
 _symmetry_equiv_pos_as_xyz
  1  'x, y, z'
loop_
 _atom_site_type_symbol
 _atom_site_label
 _atom_site_symmetry_multiplicity
 _atom_site_fract_x
 _atom_site_fract_y
 _atom_site_fract_z
 _atom_site_occupancy
  Ni  Ni0  1  0.81257600  0.12515100  0.56227300  1
  Ni  Ni1  1  0.18758000  0.87516000  0.43726100  1
  Ni  Ni2  1  0.68708800  0.87417500  0.93873700  1
  Cu  Cu3  1  0.31270800  0.12541700  0.06187500  1
  C  C4  1  0.49991800  0.49983500  0.50024700  1
  C  C5  1  0.00012000  0.50023900  0.99964100  1
  C  C6  1  0.75024900  0.00049800  0.24872500  1
  C  C7  1  0.24916900  0.99833800  0.75151300  1
  C  C8  1  0.75024900  0.50102600  0.24872500  1
  C  C9  1  0.24916900  0.49931700  0.75151300  1
  C  C10  1  0.25077700  0.50102600  0.24872500  1
  C  C11  1  0.75014800  0.49931700  0.75151300  1
  C  C12  1  0.88138600  0.26277300  0.35584100  1
  C  C13  1  0.37987600  0.25975200  0.86037200  1
  C  C14  1  0.10863100  0.71726300  0.12756000  1
  C  C15  1  0.60718200  0.71436500  0.63155300  1
  C  C16  1  0.10863100  0.26380900  0.12756000  1
  C  C17  1  0.60718200  0.26126500  0.63155300  1
  C  C18  1  0.65517700  0.26380900  0.12756000  1
  C  C19  1  0.15408300  0.26126500  0.63155300  1
  C  C20  1  0.61899500  0.73799000  0.14301500  1
  C  C21  1  0.11909700  0.73819400  0.64271000  1
  C  C22  1  0.39275000  0.28550000  0.36884200  1
  C  C23  1  0.89420600  0.28841200  0.87115000  1
  C  C24  1  0.39275000  0.73840800  0.36884200  1
  C  C25  1  0.89420600  0.73464400  0.87115000  1
  C  C26  1  0.84565800  0.73840800  0.36884200  1
  C  C27  1  0.34043800  0.73464400  0.87115000  1
