# generated using pymatgen
data_Cu6NiC
_symmetry_space_group_name_H-M   'P 1'
_cell_length_a   5.17918800
_cell_length_b   6.45837700
_cell_length_c   11.17666900
_cell_angle_alpha   90.00000000
_cell_angle_beta   90.00000000
_cell_angle_gamma   90.00000000
_symmetry_Int_Tables_number   1
_chemical_formula_structural   Cu6NiC
_chemical_formula_sum   'Cu12 Ni2 C2'
_cell_volume   373.85006288
_cell_formula_units_Z   2
loop_
 _symmetry_equiv_pos_site_id
 _symmetry_equiv_pos_as_xyz
  1  'x, y, z'
loop_
 _atom_site_type_symbol
 _atom_site_label
 _atom_site_symmetry_multiplicity
 _atom_site_fract_x
 _atom_site_fract_y
 _atom_site_fract_z
 _atom_site_occupancy
  C  C0  1  0.00000000  0.50000000  0.33615600  1
  C  C1  1  0.00000000  0.00000000  0.83615600  1
  Ni  Ni2  1  0.50000000  0.50000000  0.15811700  1
  Ni  Ni3  1  0.50000000  0.00000000  0.65811700  1
  Cu  Cu4  1  0.00000000  0.25752900  0.08613000  1
  Cu  Cu5  1  0.00000000  0.74247100  0.08613000  1
  Cu  Cu6  1  0.00000000  0.50000000  0.83384300  1
  Cu  Cu7  1  0.50000000  0.25012600  0.91769900  1
  Cu  Cu8  1  0.50000000  0.74987400  0.91769900  1
  Cu  Cu9  1  0.50000000  0.50000000  0.66422600  1
  Cu  Cu10  1  0.00000000  0.75752900  0.58613000  1
  Cu  Cu11  1  0.00000000  0.24247100  0.58613000  1
  Cu  Cu12  1  0.00000000  0.00000000  0.33384300  1
  Cu  Cu13  1  0.50000000  0.75012600  0.41769900  1
  Cu  Cu14  1  0.50000000  0.24987400  0.41769900  1
  Cu  Cu15  1  0.50000000  0.00000000  0.16422600  1
