# generated using pymatgen
data_Cu24NiC16
_symmetry_space_group_name_H-M   'P 1'
_cell_length_a   10.39360305
_cell_length_b   10.39360305
_cell_length_c   7.75835500
_cell_angle_alpha   90.00000000
_cell_angle_beta   90.00000000
_cell_angle_gamma   119.99999393
_symmetry_Int_Tables_number   1
_chemical_formula_structural   Cu24NiC16
_chemical_formula_sum   'Cu24 Ni1 C16'
_cell_volume   725.82606234
_cell_formula_units_Z   1
loop_
 _symmetry_equiv_pos_site_id
 _symmetry_equiv_pos_as_xyz
  1  'x, y, z'
loop_
 _atom_site_type_symbol
 _atom_site_label
 _atom_site_symmetry_multiplicity
 _atom_site_fract_x
 _atom_site_fract_y
 _atom_site_fract_z
 _atom_site_occupancy
  C  C0  1  0.98579800  0.74137500  0.73889600  1
  C  C1  1  0.25862500  0.24442300  0.73889600  1
  C  C2  1  0.75557700  0.01420200  0.73889600  1
  C  C3  1  0.74137500  0.75557700  0.26110400  1
  C  C4  1  0.01420200  0.25862500  0.26110400  1
  C  C5  1  0.24442300  0.98579800  0.26110400  1
  C  C6  1  0.66666700  0.33333300  0.48018900  1
  C  C7  1  0.33333300  0.66666700  0.51981100  1
  C  C8  1  0.66666700  0.33333300  0.98091200  1
  C  C9  1  0.33333300  0.66666700  0.01908800  1
  C  C10  1  0.36889900  0.97020100  0.75188600  1
  C  C11  1  0.60130200  0.63110100  0.75188600  1
  C  C12  1  0.97020100  0.60130200  0.24811400  1
  C  C13  1  0.02979900  0.39869800  0.75188600  1
  C  C14  1  0.39869800  0.36889900  0.24811400  1
  C  C15  1  0.63110100  0.02979900  0.24811400  1
  Ni  Ni16  1  0.00000000  0.00000000  0.50000000  1
  Cu  Cu17  1  0.47703700  0.14118100  0.73734400  1
  Cu  Cu18  1  0.09480400  0.37621400  0.58057500  1
  Cu  Cu19  1  0.28141000  0.90519600  0.58057500  1
  Cu  Cu20  1  0.62378600  0.71859000  0.58057500  1
  Cu  Cu21  1  0.90519600  0.62378600  0.41942500  1
  Cu  Cu22  1  0.71859000  0.09480400  0.41942500  1
  Cu  Cu23  1  0.37621400  0.28141000  0.41942500  1
  Cu  Cu24  1  0.06246000  0.31664100  0.89911400  1
  Cu  Cu25  1  0.25418100  0.93754000  0.89911400  1
  Cu  Cu26  1  0.68335900  0.74581900  0.89911400  1
  Cu  Cu27  1  0.31664100  0.25418100  0.10088600  1
  Cu  Cu28  1  0.11122400  0.56988000  0.78693700  1
  Cu  Cu29  1  0.45865600  0.88877600  0.78693700  1
  Cu  Cu30  1  0.43012000  0.54134400  0.78693700  1
  Cu  Cu31  1  0.88877600  0.43012000  0.21306300  1
  Cu  Cu32  1  0.54134400  0.11122400  0.21306300  1
  Cu  Cu33  1  0.33585600  0.47703700  0.26265600  1
  Cu  Cu34  1  0.52296300  0.85881900  0.26265600  1
  Cu  Cu35  1  0.14118100  0.66414400  0.26265600  1
  Cu  Cu36  1  0.66414400  0.52296300  0.73734400  1
  Cu  Cu37  1  0.74581900  0.06246000  0.10088600  1
  Cu  Cu38  1  0.85881900  0.33585600  0.73734400  1
  Cu  Cu39  1  0.56988000  0.45865600  0.21306300  1
  Cu  Cu40  1  0.93754000  0.68335900  0.10088600  1
