# generated using pymatgen
data_Cu18NiC18
_symmetry_space_group_name_H-M   'P 1'
_cell_length_a   17.92267100
_cell_length_b   17.92267100
_cell_length_c   2.88834000
_cell_angle_alpha   90.00000000
_cell_angle_beta   90.00000000
_cell_angle_gamma   90.00000000
_symmetry_Int_Tables_number   1
_chemical_formula_structural   Cu18NiC18
_chemical_formula_sum   'Cu36 Ni2 C36'
_cell_volume   927.79874364
_cell_formula_units_Z   2
loop_
 _symmetry_equiv_pos_site_id
 _symmetry_equiv_pos_as_xyz
  1  'x, y, z'
loop_
 _atom_site_type_symbol
 _atom_site_label
 _atom_site_symmetry_multiplicity
 _atom_site_fract_x
 _atom_site_fract_y
 _atom_site_fract_z
 _atom_site_occupancy
  Ni  Ni0  1  0.00000000  0.00000000  0.00000000  1
  Ni  Ni1  1  0.50000000  0.50000000  0.00000000  1
  C  C2  1  0.55027000  0.05027000  0.00000000  1
  C  C3  1  0.44973000  0.94973000  0.00000000  1
  C  C4  1  0.05027000  0.44973000  0.00000000  1
  C  C5  1  0.94973000  0.55027000  0.00000000  1
  C  C6  1  0.03188000  0.18743000  0.00000000  1
  C  C7  1  0.96812000  0.81257000  0.00000000  1
  C  C8  1  0.18743000  0.96812000  0.00000000  1
  C  C9  1  0.53188000  0.31257000  0.00000000  1
  C  C10  1  0.81257000  0.03188000  0.00000000  1
  C  C11  1  0.46812000  0.68743000  0.00000000  1
  C  C12  1  0.68743000  0.53188000  0.00000000  1
  C  C13  1  0.31257000  0.46812000  0.00000000  1
  C  C14  1  0.20957300  0.70957300  0.00000000  1
  C  C15  1  0.79042700  0.29042700  0.00000000  1
  C  C16  1  0.70957300  0.79042700  0.00000000  1
  C  C17  1  0.29042700  0.20957300  0.00000000  1
  C  C18  1  0.66871200  0.16871200  0.00000000  1
  C  C19  1  0.33128800  0.83128800  0.00000000  1
  C  C20  1  0.16871200  0.33128800  0.00000000  1
  C  C21  1  0.83128800  0.66871200  0.00000000  1
  C  C22  1  0.33429800  0.03891200  0.00000000  1
  C  C23  1  0.66570200  0.96108800  0.00000000  1
  C  C24  1  0.03891200  0.66570200  0.00000000  1
  C  C25  1  0.83429800  0.46108800  0.00000000  1
  C  C26  1  0.96108800  0.33429800  0.00000000  1
  C  C27  1  0.16570200  0.53891200  0.00000000  1
  C  C28  1  0.53891200  0.83429800  0.00000000  1
  C  C29  1  0.46108800  0.16570200  0.00000000  1
  C  C30  1  0.16743000  0.12482200  0.00000000  1
  C  C31  1  0.83257000  0.87517800  0.00000000  1
  C  C32  1  0.12482200  0.83257000  0.00000000  1
  C  C33  1  0.66743000  0.37517800  0.00000000  1
  C  C34  1  0.87517800  0.16743000  0.00000000  1
  C  C35  1  0.33257000  0.62482200  0.00000000  1
  C  C36  1  0.62482200  0.66743000  0.00000000  1
  C  C37  1  0.37517800  0.33257000  0.00000000  1
  Cu  Cu38  1  0.25591400  0.08796800  0.50000000  1
  Cu  Cu39  1  0.74408600  0.91203200  0.50000000  1
  Cu  Cu40  1  0.08796800  0.74408600  0.50000000  1
  Cu  Cu41  1  0.75591400  0.41203200  0.50000000  1
  Cu  Cu42  1  0.91203200  0.25591400  0.50000000  1
  Cu  Cu43  1  0.24408600  0.58796800  0.50000000  1
  Cu  Cu44  1  0.58796800  0.75591400  0.50000000  1
  Cu  Cu45  1  0.41203200  0.24408600  0.50000000  1
  Cu  Cu46  1  0.04761900  0.32596000  0.50000000  1
  Cu  Cu47  1  0.95238100  0.67404000  0.50000000  1
  Cu  Cu48  1  0.32596000  0.95238100  0.50000000  1
  Cu  Cu49  1  0.54761900  0.17404000  0.50000000  1
  Cu  Cu50  1  0.67404000  0.04761900  0.50000000  1
  Cu  Cu51  1  0.45238100  0.82596000  0.50000000  1
  Cu  Cu52  1  0.82596000  0.54761900  0.50000000  1
  Cu  Cu53  1  0.17404000  0.45238100  0.50000000  1
  Cu  Cu54  1  0.16009500  0.21140400  0.50000000  1
  Cu  Cu55  1  0.83990500  0.78859600  0.50000000  1
  Cu  Cu56  1  0.21140400  0.83990500  0.50000000  1
  Cu  Cu57  1  0.66009500  0.28859600  0.50000000  1
  Cu  Cu58  1  0.78859600  0.16009500  0.50000000  1
  Cu  Cu59  1  0.33990500  0.71140400  0.50000000  1
  Cu  Cu60  1  0.71140400  0.66009500  0.50000000  1
  Cu  Cu61  1  0.28859600  0.33990500  0.50000000  1
  Cu  Cu62  1  0.09993300  0.06754900  0.50000000  1
  Cu  Cu63  1  0.90006700  0.93245100  0.50000000  1
  Cu  Cu64  1  0.06754900  0.90006700  0.50000000  1
  Cu  Cu65  1  0.59993300  0.43245100  0.50000000  1
  Cu  Cu66  1  0.93245100  0.09993300  0.50000000  1
  Cu  Cu67  1  0.40006700  0.56754900  0.50000000  1
  Cu  Cu68  1  0.56754900  0.59993300  0.50000000  1
  Cu  Cu69  1  0.43245100  0.40006700  0.50000000  1
  Cu  Cu70  1  0.08217600  0.58217600  0.50000000  1
  Cu  Cu71  1  0.91782400  0.41782400  0.50000000  1
  Cu  Cu72  1  0.58217600  0.91782400  0.50000000  1
  Cu  Cu73  1  0.41782400  0.08217600  0.50000000  1
