# generated using pymatgen
data_CuNiC4
_symmetry_space_group_name_H-M   'P 1'
_cell_length_a   5.27156147
_cell_length_b   5.27156147
_cell_length_c   13.87015400
_cell_angle_alpha   90.00000000
_cell_angle_beta   90.00000000
_cell_angle_gamma   119.99999337
_symmetry_Int_Tables_number   1
_chemical_formula_structural   CuNiC4
_chemical_formula_sum   'Cu4 Ni4 C16'
_cell_volume   333.80319883
_cell_formula_units_Z   4
loop_
 _symmetry_equiv_pos_site_id
 _symmetry_equiv_pos_as_xyz
  1  'x, y, z'
loop_
 _atom_site_type_symbol
 _atom_site_label
 _atom_site_symmetry_multiplicity
 _atom_site_fract_x
 _atom_site_fract_y
 _atom_site_fract_z
 _atom_site_occupancy
  C  C0  1  0.33333300  0.66666700  0.75000000  1
  C  C1  1  0.66666700  0.33333300  0.25000000  1
  Ni  Ni2  1  0.33333300  0.66666700  0.40264500  1
  Ni  Ni3  1  0.66666700  0.33333300  0.90264500  1
  Ni  Ni4  1  0.33333300  0.66666700  0.09735500  1
  Ni  Ni5  1  0.66666700  0.33333300  0.59735500  1
  Cu  Cu6  1  0.00000000  0.00000000  0.89097800  1
  Cu  Cu7  1  0.00000000  0.00000000  0.39097800  1
  Cu  Cu8  1  0.00000000  0.00000000  0.10902200  1
  Cu  Cu9  1  0.00000000  0.00000000  0.60902200  1
  C  C10  1  0.33333300  0.66666700  0.25000000  1
  C  C11  1  0.66666700  0.33333300  0.75000000  1
  C  C12  1  0.85742900  0.14257100  0.39133400  1
  C  C13  1  0.85742900  0.71485900  0.39133400  1
  C  C14  1  0.28514100  0.14257100  0.39133400  1
  C  C15  1  0.14257100  0.85742900  0.89133400  1
  C  C16  1  0.71485900  0.85742900  0.89133400  1
  C  C17  1  0.14257100  0.28514100  0.89133400  1
  C  C18  1  0.71485900  0.85742900  0.60866600  1
  C  C19  1  0.14257100  0.85742900  0.60866600  1
  C  C20  1  0.14257100  0.28514100  0.60866600  1
  C  C21  1  0.85742900  0.71485900  0.10866600  1
  C  C22  1  0.85742900  0.14257100  0.10866600  1
  C  C23  1  0.28514100  0.14257100  0.10866600  1
