# generated using pymatgen
data_CuNiC30
_symmetry_space_group_name_H-M   'P 1'
_cell_length_a   4.26162900
_cell_length_b   8.57034200
_cell_length_c   8.59163100
_cell_angle_alpha   90.00000000
_cell_angle_beta   90.00000000
_cell_angle_gamma   90.00000000
_symmetry_Int_Tables_number   1
_chemical_formula_structural   CuNiC30
_chemical_formula_sum   'Cu1 Ni1 C30'
_cell_volume   313.79744870
_cell_formula_units_Z   1
loop_
 _symmetry_equiv_pos_site_id
 _symmetry_equiv_pos_as_xyz
  1  'x, y, z'
loop_
 _atom_site_type_symbol
 _atom_site_label
 _atom_site_symmetry_multiplicity
 _atom_site_fract_x
 _atom_site_fract_y
 _atom_site_fract_z
 _atom_site_occupancy
  C  C0  1  0.00000000  0.50000000  0.00000000  1
  C  C1  1  0.00000000  0.50000000  0.50000000  1
  C  C2  1  0.50000000  0.00000000  0.25191400  1
  C  C3  1  0.50000000  0.00000000  0.74808600  1
  C  C4  1  0.50000000  0.50000000  0.25184000  1
  C  C5  1  0.50000000  0.50000000  0.74816000  1
  C  C6  1  0.50000000  0.25031400  0.00000000  1
  C  C7  1  0.50000000  0.25044300  0.50000000  1
  C  C8  1  0.50000000  0.74968600  0.00000000  1
  C  C9  1  0.50000000  0.74955700  0.50000000  1
  C  C10  1  0.00000000  0.25000800  0.25293600  1
  C  C11  1  0.00000000  0.25000800  0.74706400  1
  C  C12  1  0.00000000  0.74999200  0.25293600  1
  C  C13  1  0.00000000  0.74999200  0.74706400  1
  Ni  Ni14  1  0.00000000  0.00000000  0.00000000  1
  Cu  Cu15  1  0.00000000  0.00000000  0.50000000  1
  C  C16  1  0.00000000  0.23672000  0.00000000  1
  C  C17  1  0.00000000  0.26422700  0.50000000  1
  C  C18  1  0.00000000  0.76328000  0.00000000  1
  C  C19  1  0.00000000  0.73577300  0.50000000  1
  C  C20  1  0.50000000  0.24947200  0.24905400  1
  C  C21  1  0.50000000  0.24947200  0.75094600  1
  C  C22  1  0.50000000  0.75052800  0.24905400  1
  C  C23  1  0.50000000  0.75052800  0.75094600  1
  C  C24  1  0.50000000  0.00000000  0.00000000  1
  C  C25  1  0.50000000  0.00000000  0.50000000  1
  C  C26  1  0.50000000  0.50000000  0.00000000  1
  C  C27  1  0.50000000  0.50000000  0.50000000  1
  C  C28  1  0.00000000  0.00000000  0.21553400  1
  C  C29  1  0.00000000  0.00000000  0.78446600  1
  C  C30  1  0.00000000  0.50000000  0.24397200  1
  C  C31  1  0.00000000  0.50000000  0.75602800  1
