# generated using pymatgen
data_Cu(Ni2C)2
_symmetry_space_group_name_H-M   'P 1'
_cell_length_a   7.53421854
_cell_length_b   7.53421854
_cell_length_c   7.53421854
_cell_angle_alpha   120.78348604
_cell_angle_beta   120.78348604
_cell_angle_gamma   88.64823604
_symmetry_Int_Tables_number   1
_chemical_formula_structural   Cu(Ni2C)2
_chemical_formula_sum   'Cu2 Ni8 C4'
_cell_volume   298.74094589
_cell_formula_units_Z   2
loop_
 _symmetry_equiv_pos_site_id
 _symmetry_equiv_pos_as_xyz
  1  'x, y, z'
loop_
 _atom_site_type_symbol
 _atom_site_label
 _atom_site_symmetry_multiplicity
 _atom_site_fract_x
 _atom_site_fract_y
 _atom_site_fract_z
 _atom_site_occupancy
  C  C0  1  0.75000000  0.25000000  0.50000000  1
  C  C1  1  0.25000000  0.75000000  0.50000000  1
  C  C2  1  0.00000000  0.00000000  0.00000000  1
  C  C3  1  0.50000000  0.50000000  0.00000000  1
  Ni  Ni4  1  0.19038400  0.19038400  0.38076700  1
  Ni  Ni5  1  0.80961700  0.80961600  0.61923300  1
  Ni  Ni6  1  0.19038400  0.80961600  0.00000000  1
  Ni  Ni7  1  0.80961600  0.19038400  0.00000000  1
  Ni  Ni8  1  0.69061000  0.69061000  0.38122000  1
  Ni  Ni9  1  0.30939000  0.30939000  0.61878000  1
  Ni  Ni10  1  0.69061000  0.30939000  0.00000000  1
  Ni  Ni11  1  0.30939000  0.69061000  0.00000000  1
  Cu  Cu12  1  0.74323200  0.74323200  0.00000000  1
  Cu  Cu13  1  0.25676800  0.25676800  0.00000000  1
