# generated using pymatgen
data_CuNiC
_symmetry_space_group_name_H-M   'P 1'
_cell_length_a   4.89283800
_cell_length_b   8.32261100
_cell_length_c   9.63777800
_cell_angle_alpha   90.00000000
_cell_angle_beta   90.00000000
_cell_angle_gamma   90.00000000
_symmetry_Int_Tables_number   1
_chemical_formula_structural   CuNiC
_chemical_formula_sum   'Cu4 Ni4 C4'
_cell_volume   392.46176367
_cell_formula_units_Z   4
loop_
 _symmetry_equiv_pos_site_id
 _symmetry_equiv_pos_as_xyz
  1  'x, y, z'
loop_
 _atom_site_type_symbol
 _atom_site_label
 _atom_site_symmetry_multiplicity
 _atom_site_fract_x
 _atom_site_fract_y
 _atom_site_fract_z
 _atom_site_occupancy
  C  C0  1  0.25000000  0.26446600  0.12035800  1
  C  C1  1  0.75000000  0.73553400  0.87964200  1
  C  C2  1  0.25000000  0.76446600  0.37964200  1
  C  C3  1  0.75000000  0.23553400  0.62035800  1
  Ni  Ni4  1  0.25000000  0.02928700  0.83135400  1
  Ni  Ni5  1  0.75000000  0.97071300  0.16864600  1
  Ni  Ni6  1  0.25000000  0.52928700  0.66864600  1
  Ni  Ni7  1  0.75000000  0.47071300  0.33135400  1
  Cu  Cu8  1  0.25000000  0.14256500  0.43142100  1
  Cu  Cu9  1  0.75000000  0.85743500  0.56857900  1
  Cu  Cu10  1  0.25000000  0.64256500  0.06857900  1
  Cu  Cu11  1  0.75000000  0.35743500  0.93142100  1
