# generated using pymatgen
data_Cu3NiC
_symmetry_space_group_name_H-M   'P 1'
_cell_length_a   7.60752348
_cell_length_b   7.60752348
_cell_length_c   12.46689400
_cell_angle_alpha   90.00000000
_cell_angle_beta   90.00000000
_cell_angle_gamma   90.27005881
_symmetry_Int_Tables_number   1
_chemical_formula_structural   Cu3NiC
_chemical_formula_sum   'Cu24 Ni8 C8'
_cell_volume   721.50616316
_cell_formula_units_Z   8
loop_
 _symmetry_equiv_pos_site_id
 _symmetry_equiv_pos_as_xyz
  1  'x, y, z'
loop_
 _atom_site_type_symbol
 _atom_site_label
 _atom_site_symmetry_multiplicity
 _atom_site_fract_x
 _atom_site_fract_y
 _atom_site_fract_z
 _atom_site_occupancy
  C  C0  1  0.04042200  0.95957800  0.84301900  1
  C  C1  1  0.95957800  0.04042200  0.15698100  1
  C  C2  1  0.45957800  0.54042200  0.34301900  1
  C  C3  1  0.54042200  0.45957800  0.65698100  1
  C  C4  1  0.20966100  0.20966100  0.00000000  1
  C  C5  1  0.70966100  0.70966100  0.50000000  1
  C  C6  1  0.79033900  0.79033900  0.00000000  1
  C  C7  1  0.29033900  0.29033900  0.50000000  1
  Ni  Ni8  1  0.52572500  0.97427500  0.75000000  1
  Ni  Ni9  1  0.97427500  0.52572500  0.25000000  1
  Ni  Ni10  1  0.47427500  0.02572500  0.25000000  1
  Ni  Ni11  1  0.02572500  0.47427500  0.75000000  1
  Ni  Ni12  1  0.31470400  0.68529600  0.04221500  1
  Ni  Ni13  1  0.68529600  0.31470400  0.95778500  1
  Ni  Ni14  1  0.18529600  0.81470400  0.54221500  1
  Ni  Ni15  1  0.81470400  0.18529600  0.45778500  1
  Cu  Cu16  1  0.90871800  0.09128200  0.80283600  1
  Cu  Cu17  1  0.09128200  0.90871800  0.19716400  1
  Cu  Cu18  1  0.59128200  0.40871800  0.30283600  1
  Cu  Cu19  1  0.40871800  0.59128200  0.69716400  1
  Cu  Cu20  1  0.13216100  0.86783900  0.75212600  1
  Cu  Cu21  1  0.86783900  0.13216100  0.24787400  1
  Cu  Cu22  1  0.36783900  0.63216100  0.25212600  1
  Cu  Cu23  1  0.63216100  0.36783900  0.74787400  1
  Cu  Cu24  1  0.19513700  0.38140400  0.94044300  1
  Cu  Cu25  1  0.38140400  0.19513700  0.05955700  1
  Cu  Cu26  1  0.88140400  0.69513700  0.44044300  1
  Cu  Cu27  1  0.69513700  0.88140400  0.55955700  1
  Cu  Cu28  1  0.80486300  0.61859600  0.05955700  1
  Cu  Cu29  1  0.61859600  0.80486300  0.94044300  1
  Cu  Cu30  1  0.11859600  0.30486300  0.55955700  1
  Cu  Cu31  1  0.30486300  0.11859600  0.44044300  1
  Cu  Cu32  1  0.18697500  0.04410200  0.92061600  1
  Cu  Cu33  1  0.04410200  0.18697500  0.07938400  1
  Cu  Cu34  1  0.54410200  0.68697500  0.42061600  1
  Cu  Cu35  1  0.68697500  0.54410200  0.57938400  1
  Cu  Cu36  1  0.81302500  0.95589800  0.07938400  1
  Cu  Cu37  1  0.95589800  0.81302500  0.92061600  1
  Cu  Cu38  1  0.45589800  0.31302500  0.57938400  1
  Cu  Cu39  1  0.31302500  0.45589800  0.42061600  1
