# generated using pymatgen
data_Cu3NiC12
_symmetry_space_group_name_H-M   'P 1'
_cell_length_a   5.83027279
_cell_length_b   5.86530258
_cell_length_c   8.40610493
_cell_angle_alpha   89.40820528
_cell_angle_beta   90.11699336
_cell_angle_gamma   91.41040678
_symmetry_Int_Tables_number   1
_chemical_formula_structural   Cu3NiC12
_chemical_formula_sum   'Cu6 Ni2 C24'
_cell_volume   287.35492632
_cell_formula_units_Z   2
loop_
 _symmetry_equiv_pos_site_id
 _symmetry_equiv_pos_as_xyz
  1  'x, y, z'
loop_
 _atom_site_type_symbol
 _atom_site_label
 _atom_site_symmetry_multiplicity
 _atom_site_fract_x
 _atom_site_fract_y
 _atom_site_fract_z
 _atom_site_occupancy
  C  C0  1  0.99545100  0.00110100  0.49968000  1
  C  C1  1  0.50536800  0.49866600  0.00000000  1
  C  C2  1  0.24856300  0.75025700  0.75024500  1
  C  C3  1  0.75061900  0.25087000  0.25011300  1
  C  C4  1  0.25201900  0.24850900  0.25002300  1
  C  C5  1  0.74932700  0.75058200  0.74983000  1
  C  C6  1  0.00006800  0.49958400  0.00096900  1
  C  C7  1  0.50052900  0.00103600  0.49860000  1
  Ni  Ni8  1  0.99734900  0.00035400  0.00036100  1
  Ni  Ni9  1  0.50033400  0.50067000  0.50007200  1
  Cu  Cu10  1  0.75073200  0.24982400  0.74933000  1
  Cu  Cu11  1  0.74987500  0.75019000  0.25045300  1
  Cu  Cu12  1  0.50342400  0.99983300  0.99992400  1
  Cu  Cu13  1  0.24980500  0.75020200  0.24957600  1
  Cu  Cu14  1  0.25071700  0.24928300  0.75006600  1
  Cu  Cu15  1  0.99545400  0.49990000  0.50045700  1
  C  C16  1  0.98608300  0.51938600  0.27077600  1
  C  C17  1  0.50736600  0.01784000  0.76952900  1
  C  C18  1  0.51350700  0.98126600  0.23001600  1
  C  C19  1  0.99395800  0.48140000  0.73017800  1
  C  C20  1  0.26871900  0.25671800  0.49493000  1
  C  C21  1  0.77025400  0.75342000  0.00100400  1
  C  C22  1  0.23140200  0.24291300  0.00503900  1
  C  C23  1  0.72938300  0.74674900  0.49912200  1
  C  C24  1  0.24623500  0.72389100  0.50562700  1
  C  C25  1  0.74786400  0.22793100  0.00066100  1
  C  C26  1  0.25287100  0.77589100  0.99441000  1
  C  C27  1  0.75197900  0.27195200  0.49899000  1
  C  C28  1  0.98042000  0.01792900  0.76058800  1
  C  C29  1  0.51268000  0.51672200  0.26091800  1
  C  C30  1  0.52056500  0.48148900  0.73899700  1
  C  C31  1  0.98708000  0.98364100  0.23951700  1
