# generated using pymatgen
data_Cu2(Ni3C)3
_symmetry_space_group_name_H-M   'P 1'
_cell_length_a   9.33432624
_cell_length_b   9.33432624
_cell_length_c   10.85098441
_cell_angle_alpha   78.04066045
_cell_angle_beta   78.04066045
_cell_angle_gamma   69.27576957
_symmetry_Int_Tables_number   1
_chemical_formula_structural   Cu2(Ni3C)3
_chemical_formula_sum   'Cu4 Ni18 C6'
_cell_volume   855.76240428
_cell_formula_units_Z   2
loop_
 _symmetry_equiv_pos_site_id
 _symmetry_equiv_pos_as_xyz
  1  'x, y, z'
loop_
 _atom_site_type_symbol
 _atom_site_label
 _atom_site_symmetry_multiplicity
 _atom_site_fract_x
 _atom_site_fract_y
 _atom_site_fract_z
 _atom_site_occupancy
  C  C0  1  0.71046000  0.71046000  0.13242000  1
  C  C1  1  0.28954000  0.28954000  0.86758000  1
  C  C2  1  0.69706600  0.91539900  0.35966600  1
  C  C3  1  0.30293400  0.08460100  0.64033400  1
  C  C4  1  0.08460100  0.30293400  0.64033400  1
  C  C5  1  0.91539900  0.69706600  0.35966600  1
  Ni  Ni6  1  0.49730300  0.18249400  0.47652400  1
  Ni  Ni7  1  0.50269700  0.81750600  0.52347600  1
  Ni  Ni8  1  0.81750600  0.50269700  0.52347600  1
  Ni  Ni9  1  0.18249400  0.49730300  0.47652400  1
  Ni  Ni10  1  0.11831000  0.79286500  0.23126200  1
  Ni  Ni11  1  0.88169000  0.20713500  0.76873800  1
  Ni  Ni12  1  0.20713500  0.88169000  0.76873800  1
  Ni  Ni13  1  0.79286500  0.11831000  0.23126200  1
  Ni  Ni14  1  0.51501500  0.95962100  0.19626300  1
  Ni  Ni15  1  0.48498500  0.04037900  0.80373700  1
  Ni  Ni16  1  0.04037900  0.48498500  0.80373700  1
  Ni  Ni17  1  0.95962100  0.51501500  0.19626300  1
  Ni  Ni18  1  0.56677700  0.56677700  0.29868900  1
  Ni  Ni19  1  0.43322300  0.43322300  0.70131100  1
  Ni  Ni20  1  0.86588100  0.86588100  0.99799800  1
  Ni  Ni21  1  0.13411900  0.13411900  0.00200200  1
  Ni  Ni22  1  0.86889700  0.86889700  0.53070000  1
  Ni  Ni23  1  0.13110300  0.13110300  0.46930000  1
  Cu  Cu24  1  0.75278400  0.24721600  0.00000000  1
  Cu  Cu25  1  0.24721600  0.75278400  0.00000000  1
  Cu  Cu26  1  0.66060900  0.66060900  0.01007100  1
  Cu  Cu27  1  0.33939100  0.33939100  0.98992900  1
