# generated using pymatgen
data_CuNiC5
_symmetry_space_group_name_H-M   'P 1'
_cell_length_a   8.41138600
_cell_length_b   8.86212500
_cell_length_c   17.88266828
_cell_angle_alpha   60.49235444
_cell_angle_beta   90.00000000
_cell_angle_gamma   90.00000000
_symmetry_Int_Tables_number   1
_chemical_formula_structural   CuNiC5
_chemical_formula_sum   'Cu12 Ni12 C60'
_cell_volume   1160.11685899
_cell_formula_units_Z   12
loop_
 _symmetry_equiv_pos_site_id
 _symmetry_equiv_pos_as_xyz
  1  'x, y, z'
loop_
 _atom_site_type_symbol
 _atom_site_label
 _atom_site_symmetry_multiplicity
 _atom_site_fract_x
 _atom_site_fract_y
 _atom_site_fract_z
 _atom_site_occupancy
  C  C0  1  0.99806200  0.49934500  0.75084800  1
  C  C1  1  0.00193800  0.50065500  0.24915200  1
  C  C2  1  0.49806200  0.50065500  0.74915200  1
  C  C3  1  0.50193800  0.49934500  0.25084800  1
  C  C4  1  0.02943600  0.78899200  0.93596100  1
  C  C5  1  0.97056400  0.21100800  0.06403900  1
  C  C6  1  0.52943600  0.21100800  0.56403900  1
  C  C7  1  0.47056400  0.78899200  0.43596100  1
  C  C8  1  0.46791800  0.85907900  0.90949800  1
  C  C9  1  0.53208200  0.14092100  0.09050200  1
  C  C10  1  0.96791800  0.14092100  0.59050200  1
  C  C11  1  0.03208200  0.85907900  0.40949800  1
  Ni  Ni12  1  0.28432000  0.84811400  0.59253700  1
  Ni  Ni13  1  0.71568000  0.15188600  0.40746300  1
  Ni  Ni14  1  0.78432000  0.15188600  0.90746300  1
  Ni  Ni15  1  0.21568000  0.84811400  0.09253700  1
  Ni  Ni16  1  0.78534500  0.81470000  0.76519900  1
  Ni  Ni17  1  0.21465500  0.18530000  0.23480100  1
  Ni  Ni18  1  0.28534500  0.18530000  0.73480100  1
  Ni  Ni19  1  0.71465500  0.81470000  0.26519900  1
  Ni  Ni20  1  0.28687200  0.47009500  0.92205600  1
  Ni  Ni21  1  0.71312800  0.52990500  0.07794400  1
  Ni  Ni22  1  0.78687200  0.52990500  0.57794400  1
  Ni  Ni23  1  0.21312800  0.47009500  0.42205600  1
  Cu  Cu24  1  0.17075900  0.52730000  0.57692000  1
  Cu  Cu25  1  0.82924100  0.47270000  0.42308000  1
  Cu  Cu26  1  0.67075900  0.47270000  0.92308000  1
  Cu  Cu27  1  0.32924100  0.52730000  0.07692000  1
  Cu  Cu28  1  0.16958200  0.81643200  0.76548100  1
  Cu  Cu29  1  0.83041800  0.18356800  0.23451900  1
  Cu  Cu30  1  0.66958200  0.18356800  0.73451900  1
  Cu  Cu31  1  0.33041800  0.81643200  0.26548100  1
  Cu  Cu32  1  0.66989600  0.85042200  0.58985600  1
  Cu  Cu33  1  0.33010400  0.14957800  0.41014400  1
  Cu  Cu34  1  0.16989600  0.14957800  0.91014400  1
  Cu  Cu35  1  0.83010400  0.85042200  0.08985600  1
  C  C36  1  0.76579600  0.74944300  0.68146200  1
  C  C37  1  0.23420400  0.25055700  0.31853800  1
  C  C38  1  0.26579600  0.25055700  0.81853800  1
  C  C39  1  0.73420400  0.74944300  0.18146200  1
  C  C40  1  0.99219900  0.61484800  0.55252000  1
  C  C41  1  0.00780100  0.38515200  0.44748000  1
  C  C42  1  0.49219900  0.38515200  0.94748000  1
  C  C43  1  0.50780100  0.61484800  0.05252000  1
  C  C44  1  0.15521500  0.28061400  0.95098300  1
  C  C45  1  0.84478500  0.71938600  0.04901700  1
  C  C46  1  0.65521500  0.71938600  0.54901700  1
  C  C47  1  0.34478500  0.28061400  0.45098300  1
  C  C48  1  0.99074400  0.76761600  0.80874400  1
  C  C49  1  0.00925600  0.23238400  0.19125600  1
  C  C50  1  0.49074400  0.23238400  0.69125600  1
  C  C51  1  0.50925600  0.76761600  0.30874400  1
  C  C52  1  0.25390000  0.94872800  0.79291500  1
  C  C53  1  0.74610000  0.05127200  0.20708500  1
  C  C54  1  0.75390000  0.05127200  0.70708500  1
  C  C55  1  0.24610000  0.94872800  0.29291500  1
  C  C56  1  0.49085900  0.90165800  0.60777600  1
  C  C57  1  0.50914100  0.09834200  0.39222400  1
  C  C58  1  0.99085900  0.09834200  0.89222400  1
  C  C59  1  0.00914100  0.90165800  0.10777600  1
  C  C60  1  0.15582200  0.31563100  0.64112600  1
  C  C61  1  0.84417800  0.68436900  0.35887400  1
  C  C62  1  0.65582200  0.68436900  0.85887400  1
  C  C63  1  0.34417800  0.31563100  0.14112600  1
  C  C64  1  0.26731400  0.61429500  0.62625600  1
  C  C65  1  0.73268600  0.38570500  0.37374400  1
  C  C66  1  0.76731400  0.38570500  0.87374400  1
  C  C67  1  0.23268600  0.61429500  0.12625600  1
  C  C68  1  0.26391000  0.96789900  0.97607300  1
  C  C69  1  0.73609000  0.03210100  0.02392700  1
  C  C70  1  0.76391000  0.03210100  0.52392700  1
  C  C71  1  0.23609000  0.96789900  0.47607300  1
  C  C72  1  0.15486800  0.90222400  0.66015500  1
  C  C73  1  0.84513200  0.09777600  0.33984500  1
  C  C74  1  0.65486800  0.09777600  0.83984500  1
  C  C75  1  0.34513200  0.90222400  0.16015500  1
  C  C76  1  0.23555100  0.57458700  0.98688600  1
  C  C77  1  0.76444900  0.42541300  0.01311400  1
  C  C78  1  0.73555100  0.42541300  0.51311400  1
  C  C79  1  0.26444900  0.57458700  0.48688600  1
  C  C80  1  0.27069600  0.63366200  0.80651700  1
  C  C81  1  0.72930400  0.36633800  0.19348300  1
  C  C82  1  0.77069600  0.36633800  0.69348300  1
  C  C83  1  0.22930400  0.63366200  0.30651700  1
