# generated using pymatgen
data_CuNiC5
_symmetry_space_group_name_H-M   'P 1'
_cell_length_a   5.02643100
_cell_length_b   6.27943300
_cell_length_c   10.87351800
_cell_angle_alpha   90.00000000
_cell_angle_beta   90.00000000
_cell_angle_gamma   90.00000000
_symmetry_Int_Tables_number   1
_chemical_formula_structural   CuNiC5
_chemical_formula_sum   'Cu4 Ni4 C20'
_cell_volume   343.20233497
_cell_formula_units_Z   4
loop_
 _symmetry_equiv_pos_site_id
 _symmetry_equiv_pos_as_xyz
  1  'x, y, z'
loop_
 _atom_site_type_symbol
 _atom_site_label
 _atom_site_symmetry_multiplicity
 _atom_site_fract_x
 _atom_site_fract_y
 _atom_site_fract_z
 _atom_site_occupancy
  Ni  Ni0  1  0.49083300  0.75000000  0.22175600  1
  Ni  Ni1  1  0.00916700  0.75000000  0.72175600  1
  Ni  Ni2  1  0.50916700  0.25000000  0.77824400  1
  Ni  Ni3  1  0.99083300  0.25000000  0.27824400  1
  Cu  Cu4  1  0.50000000  0.00000000  0.50000000  1
  Cu  Cu5  1  0.00000000  0.50000000  0.00000000  1
  Cu  Cu6  1  0.50000000  0.50000000  0.50000000  1
  Cu  Cu7  1  0.00000000  0.00000000  0.00000000  1
  C  C8  1  0.93279700  0.75000000  0.40638200  1
  C  C9  1  0.56720300  0.75000000  0.90638200  1
  C  C10  1  0.06720300  0.25000000  0.59361800  1
  C  C11  1  0.43279700  0.25000000  0.09361800  1
  C  C12  1  0.77045800  0.97321900  0.33744900  1
  C  C13  1  0.72954200  0.52678100  0.83744900  1
  C  C14  1  0.22954200  0.47321900  0.66255100  1
  C  C15  1  0.27045800  0.02678100  0.16255100  1
  C  C16  1  0.22954200  0.02678100  0.66255100  1
  C  C17  1  0.27045800  0.47321900  0.16255100  1
  C  C18  1  0.77045800  0.52678100  0.33744900  1
  C  C19  1  0.72954200  0.97321900  0.83744900  1
  C  C20  1  0.28439700  0.75000000  0.40984000  1
  C  C21  1  0.21560300  0.75000000  0.90984000  1
  C  C22  1  0.71560300  0.25000000  0.59016000  1
  C  C23  1  0.78439700  0.25000000  0.09016000  1
  C  C24  1  0.73219900  0.75000000  0.05489100  1
  C  C25  1  0.76780100  0.75000000  0.55489100  1
  C  C26  1  0.26780100  0.25000000  0.94510900  1
  C  C27  1  0.23219900  0.25000000  0.44510900  1
