# generated using pymatgen
data_Cu3Ni6C5
_symmetry_space_group_name_H-M   'P 1'
_cell_length_a   7.82316100
_cell_length_b   11.33453100
_cell_length_c   11.71643762
_cell_angle_alpha   76.10551561
_cell_angle_beta   90.00000000
_cell_angle_gamma   90.00000000
_symmetry_Int_Tables_number   1
_chemical_formula_structural   Cu3Ni6C5
_chemical_formula_sum   'Cu12 Ni24 C20'
_cell_volume   1008.51916354
_cell_formula_units_Z   4
loop_
 _symmetry_equiv_pos_site_id
 _symmetry_equiv_pos_as_xyz
  1  'x, y, z'
loop_
 _atom_site_type_symbol
 _atom_site_label
 _atom_site_symmetry_multiplicity
 _atom_site_fract_x
 _atom_site_fract_y
 _atom_site_fract_z
 _atom_site_occupancy
  C  C0  1  0.25570900  0.57098000  0.86600000  1
  C  C1  1  0.75570900  0.42902000  0.13400000  1
  C  C2  1  0.99327700  0.14136200  0.51325000  1
  C  C3  1  0.49327700  0.85863800  0.48675000  1
  C  C4  1  0.74375900  0.45427900  0.64535100  1
  C  C5  1  0.24375900  0.54572100  0.35464900  1
  C  C6  1  0.96686900  0.13150100  0.92791200  1
  C  C7  1  0.46686900  0.86849900  0.07208800  1
  C  C8  1  0.75611700  0.71702000  0.82838400  1
  C  C9  1  0.25611700  0.28298000  0.17161600  1
  C  C10  1  0.55053000  0.11300200  0.70549900  1
  C  C11  1  0.05053000  0.88699800  0.29450100  1
  C  C12  1  0.19327900  0.38704600  0.65882800  1
  C  C13  1  0.69327900  0.61295400  0.34117200  1
  C  C14  1  0.46013200  0.24586500  0.93777700  1
  C  C15  1  0.96013200  0.75413500  0.06222300  1
  C  C16  1  0.99060400  0.74537600  0.56706300  1
  C  C17  1  0.49060400  0.25462400  0.43293700  1
  C  C18  1  0.21182700  0.92009400  0.77183300  1
  C  C19  1  0.71182700  0.07990600  0.22816700  1
  Ni  Ni20  1  0.34660900  0.42370600  0.64572100  1
  Ni  Ni21  1  0.84660900  0.57629400  0.35427900  1
  Ni  Ni22  1  0.98300700  0.66819600  0.66599000  1
  Ni  Ni23  1  0.48300700  0.33180400  0.33401000  1
  Ni  Ni24  1  0.12254000  0.36653800  0.75922700  1
  Ni  Ni25  1  0.62254000  0.63346200  0.24077300  1
  Ni  Ni26  1  0.36077100  0.15689500  0.96185000  1
  Ni  Ni27  1  0.86077100  0.84310500  0.03815000  1
  Ni  Ni28  1  0.94481400  0.66689300  0.00993300  1
  Ni  Ni29  1  0.44481400  0.33310700  0.99006700  1
  Ni  Ni30  1  0.57806300  0.25343700  0.86203200  1
  Ni  Ni31  1  0.07806300  0.74656300  0.13796800  1
  Ni  Ni32  1  0.10842900  0.37225400  0.57026600  1
  Ni  Ni33  1  0.60842900  0.62774600  0.42973400  1
  Ni  Ni34  1  0.10773000  0.73307900  0.49450400  1
  Ni  Ni35  1  0.60773000  0.26692100  0.50549600  1
  Ni  Ni36  1  0.88591200  0.83132200  0.54055800  1
  Ni  Ni37  1  0.38591200  0.16867800  0.45944200  1
  Ni  Ni38  1  0.30260500  0.89293600  0.69198100  1
  Ni  Ni39  1  0.80260500  0.10706400  0.30801900  1
  Ni  Ni40  1  0.14885900  0.02654700  0.75519300  1
  Ni  Ni41  1  0.64885900  0.97345300  0.24480700  1
  Ni  Ni42  1  0.18639900  0.84264900  0.86790200  1
  Ni  Ni43  1  0.68639900  0.15735100  0.13209800  1
  Cu  Cu44  1  0.58561000  0.67356000  0.71766200  1
  Cu  Cu45  1  0.08561000  0.32644000  0.28233800  1
  Cu  Cu46  1  0.57008500  0.67909000  0.94639900  1
  Cu  Cu47  1  0.07008500  0.32091000  0.05360100  1
  Cu  Cu48  1  0.80987400  0.54208400  0.86722500  1
  Cu  Cu49  1  0.30987400  0.45791600  0.13277500  1
  Cu  Cu50  1  0.66088200  0.00607500  0.61716500  1
  Cu  Cu51  1  0.16088200  0.99392500  0.38283500  1
  Cu  Cu52  1  0.61333400  0.98498500  0.84806700  1
  Cu  Cu53  1  0.11333400  0.01501500  0.15193300  1
  Cu  Cu54  1  0.78247500  0.18296400  0.70885000  1
  Cu  Cu55  1  0.28247500  0.81703600  0.29115000  1
