# generated using pymatgen
data_Cu16Ni2C37
_symmetry_space_group_name_H-M   'P 1'
_cell_length_a   7.58282706
_cell_length_b   8.18975221
_cell_length_c   10.27835178
_cell_angle_alpha   108.51580232
_cell_angle_beta   104.07415218
_cell_angle_gamma   104.60071971
_symmetry_Int_Tables_number   1
_chemical_formula_structural   Cu16Ni2C37
_chemical_formula_sum   'Cu16 Ni2 C37'
_cell_volume   548.17271161
_cell_formula_units_Z   1
loop_
 _symmetry_equiv_pos_site_id
 _symmetry_equiv_pos_as_xyz
  1  'x, y, z'
loop_
 _atom_site_type_symbol
 _atom_site_label
 _atom_site_symmetry_multiplicity
 _atom_site_fract_x
 _atom_site_fract_y
 _atom_site_fract_z
 _atom_site_occupancy
  C  C0  1  0.50000000  0.50000000  0.00000000  1
  C  C1  1  0.63152700  0.91974200  0.93811000  1
  C  C2  1  0.36847300  0.08025800  0.06189000  1
  C  C3  1  0.45397000  0.11362200  0.76395700  1
  C  C4  1  0.54603000  0.88637800  0.23604300  1
  C  C5  1  0.89668000  0.72750300  0.86503900  1
  C  C6  1  0.10332000  0.27249700  0.13496100  1
  C  C7  1  0.77459600  0.55295300  0.23095200  1
  C  C8  1  0.22540400  0.44704700  0.76904800  1
  C  C9  1  0.76216200  0.37013600  0.09914400  1
  C  C10  1  0.23783800  0.62986400  0.90085600  1
  C  C11  1  0.03074700  0.78322300  0.44572100  1
  C  C12  1  0.96925300  0.21677700  0.55427900  1
  C  C13  1  0.83999500  0.82281800  0.38942800  1
  C  C14  1  0.16000500  0.17718200  0.61057200  1
  C  C15  1  0.69703800  0.44398600  0.78411300  1
  C  C16  1  0.30296200  0.55601400  0.21588700  1
  C  C17  1  0.79248600  0.16375700  0.79086400  1
  C  C18  1  0.20751400  0.83624300  0.20913600  1
  C  C19  1  0.63743200  0.02832700  0.60308100  1
  C  C20  1  0.36256800  0.97167300  0.39691900  1
  C  C21  1  0.85458800  0.78755800  0.64158100  1
  C  C22  1  0.14541200  0.21244200  0.35841900  1
  C  C23  1  0.96706000  0.99335300  0.80642900  1
  C  C24  1  0.03294000  0.00664700  0.19357100  1
  C  C25  1  0.51771100  0.69929300  0.52040600  1
  C  C26  1  0.48228900  0.30070700  0.47959400  1
  C  C27  1  0.50065500  0.59661400  0.64939700  1
  C  C28  1  0.49934500  0.40338600  0.35060300  1
  C  C29  1  0.36033500  0.73661300  0.62287700  1
  C  C30  1  0.63966500  0.26338700  0.37712300  1
  C  C31  1  0.65504900  0.05062000  0.71766600  1
  C  C32  1  0.34495100  0.94938000  0.28233400  1
  C  C33  1  0.85111900  0.85687500  0.75144900  1
  C  C34  1  0.14888100  0.14312500  0.24855100  1
  C  C35  1  0.49890800  0.71770400  0.62633200  1
  C  C36  1  0.50109200  0.28229600  0.37366800  1
  Ni  Ni37  1  0.66175200  0.88253700  0.74155400  1
  Ni  Ni38  1  0.33824800  0.11746300  0.25844600  1
  Cu  Cu39  1  0.44290100  0.04021800  0.88634100  1
  Cu  Cu40  1  0.55709900  0.95978200  0.11365900  1
  Cu  Cu41  1  0.68514000  0.44520500  0.13527900  1
  Cu  Cu42  1  0.31486000  0.55479500  0.86472100  1
  Cu  Cu43  1  0.89067600  0.72200100  0.39187900  1
  Cu  Cu44  1  0.10932400  0.27799900  0.60812100  1
  Cu  Cu45  1  0.26876800  0.02392000  0.63133600  1
  Cu  Cu46  1  0.73123200  0.97608000  0.36866400  1
  Cu  Cu47  1  0.52932300  0.32801500  0.82907100  1
  Cu  Cu48  1  0.47067700  0.67198500  0.17092900  1
  Cu  Cu49  1  0.78143500  0.76619100  0.96920800  1
  Cu  Cu50  1  0.21856500  0.23380900  0.03079200  1
  Cu  Cu51  1  0.11338900  0.78096900  0.93790300  1
  Cu  Cu52  1  0.88661100  0.21903100  0.06209700  1
  Cu  Cu53  1  0.80283500  0.51456100  0.75768500  1
  Cu  Cu54  1  0.19716500  0.48543900  0.24231500  1
