# generated using pymatgen
data_Cu3(Ni2C3)2
_symmetry_space_group_name_H-M   'P 1'
_cell_length_a   6.09595311
_cell_length_b   6.09595311
_cell_length_c   10.12712800
_cell_angle_alpha   90.00000000
_cell_angle_beta   90.00000000
_cell_angle_gamma   119.99999037
_symmetry_Int_Tables_number   1
_chemical_formula_structural   Cu3(Ni2C3)2
_chemical_formula_sum   'Cu6 Ni8 C12'
_cell_volume   325.91189312
_cell_formula_units_Z   2
loop_
 _symmetry_equiv_pos_site_id
 _symmetry_equiv_pos_as_xyz
  1  'x, y, z'
loop_
 _atom_site_type_symbol
 _atom_site_label
 _atom_site_symmetry_multiplicity
 _atom_site_fract_x
 _atom_site_fract_y
 _atom_site_fract_z
 _atom_site_occupancy
  C  C0  1  0.66666700  0.33333300  0.55761300  1
  C  C1  1  0.33333300  0.66666700  0.05761300  1
  C  C2  1  0.66666700  0.33333300  0.93701700  1
  C  C3  1  0.33333300  0.66666700  0.43701700  1
  C  C4  1  0.16533900  0.33067800  0.73810700  1
  C  C5  1  0.16533900  0.83466100  0.73810700  1
  C  C6  1  0.83466100  0.66932200  0.23810700  1
  C  C7  1  0.66932200  0.83466100  0.73810700  1
  C  C8  1  0.83466100  0.16533900  0.23810700  1
  C  C9  1  0.33067800  0.16533900  0.23810700  1
  C  C10  1  0.00000000  0.00000000  0.00038300  1
  C  C11  1  0.00000000  0.00000000  0.50038300  1
  Ni  Ni12  1  0.00000000  0.00000000  0.81940700  1
  Ni  Ni13  1  0.00000000  0.00000000  0.31940700  1
  Ni  Ni14  1  0.15455700  0.30911400  0.55688600  1
  Ni  Ni15  1  0.15455700  0.84544300  0.55688600  1
  Ni  Ni16  1  0.84544300  0.69088600  0.05688600  1
  Ni  Ni17  1  0.69088600  0.84544300  0.55688600  1
  Ni  Ni18  1  0.84544300  0.15455700  0.05688600  1
  Ni  Ni19  1  0.30911400  0.15455700  0.05688600  1
  Cu  Cu20  1  0.49049400  0.98098800  0.79302400  1
  Cu  Cu21  1  0.49049400  0.50950600  0.79302400  1
  Cu  Cu22  1  0.50950600  0.01901200  0.29302400  1
  Cu  Cu23  1  0.01901200  0.50950600  0.79302400  1
  Cu  Cu24  1  0.50950600  0.49049400  0.29302400  1
  Cu  Cu25  1  0.98098800  0.49049400  0.29302400  1
