# generated using pymatgen
data_Cu4(Ni4C3)3
_symmetry_space_group_name_H-M   'P 1'
_cell_length_a   8.41141318
_cell_length_b   8.41141318
_cell_length_c   8.41141306
_cell_angle_alpha   60.01488094
_cell_angle_beta   60.01488094
_cell_angle_gamma   60.01488845
_symmetry_Int_Tables_number   1
_chemical_formula_structural   Cu4(Ni4C3)3
_chemical_formula_sum   'Cu4 Ni12 C9'
_cell_volume   420.95765126
_cell_formula_units_Z   1
loop_
 _symmetry_equiv_pos_site_id
 _symmetry_equiv_pos_as_xyz
  1  'x, y, z'
loop_
 _atom_site_type_symbol
 _atom_site_label
 _atom_site_symmetry_multiplicity
 _atom_site_fract_x
 _atom_site_fract_y
 _atom_site_fract_z
 _atom_site_occupancy
  Ni  Ni0  1  0.43281700  0.43281700  0.81941700  1
  Ni  Ni1  1  0.81941700  0.43281700  0.43281700  1
  Ni  Ni2  1  0.43281700  0.81941700  0.43281700  1
  Ni  Ni3  1  0.81859300  0.81859300  0.42930300  1
  Ni  Ni4  1  0.42930300  0.81859300  0.81859300  1
  Ni  Ni5  1  0.81859300  0.42930300  0.81859300  1
  Ni  Ni6  1  0.56718300  0.56718300  0.18058300  1
  Ni  Ni7  1  0.18058300  0.56718300  0.56718300  1
  Ni  Ni8  1  0.56718300  0.18058300  0.56718300  1
  Ni  Ni9  1  0.18140700  0.18140700  0.57069700  1
  Ni  Ni10  1  0.57069700  0.18140700  0.18140700  1
  Ni  Ni11  1  0.18140700  0.57069700  0.18140700  1
  Cu  Cu12  1  0.00000000  0.00000000  0.00000000  1
  Cu  Cu13  1  0.00000000  0.50000000  0.00000000  1
  Cu  Cu14  1  0.50000000  0.00000000  0.00000000  1
  Cu  Cu15  1  0.00000000  0.00000000  0.50000000  1
  C  C16  1  0.79058700  0.79058700  0.79058700  1
  C  C17  1  0.79641000  0.11034000  0.79641000  1
  C  C18  1  0.11034000  0.79641000  0.79641000  1
  C  C19  1  0.79641000  0.79641000  0.11034000  1
  C  C20  1  0.20941300  0.20941300  0.20941300  1
  C  C21  1  0.20359000  0.88966000  0.20359000  1
  C  C22  1  0.88966000  0.20359000  0.20359000  1
  C  C23  1  0.20359000  0.20359000  0.88966000  1
  C  C24  1  0.50000000  0.50000000  0.50000000  1
