# generated using pymatgen
data_CuNiC2
_symmetry_space_group_name_H-M   'P 1'
_cell_length_a   5.11182000
_cell_length_b   10.19310700
_cell_length_c   13.15097500
_cell_angle_alpha   90.00000000
_cell_angle_beta   90.00000000
_cell_angle_gamma   90.00000000
_symmetry_Int_Tables_number   1
_chemical_formula_structural   CuNiC2
_chemical_formula_sum   'Cu16 Ni16 C32'
_cell_volume   685.23586885
_cell_formula_units_Z   16
loop_
 _symmetry_equiv_pos_site_id
 _symmetry_equiv_pos_as_xyz
  1  'x, y, z'
loop_
 _atom_site_type_symbol
 _atom_site_label
 _atom_site_symmetry_multiplicity
 _atom_site_fract_x
 _atom_site_fract_y
 _atom_site_fract_z
 _atom_site_occupancy
  Ni  Ni0  1  0.68955600  0.96272700  0.43439100  1
  Ni  Ni1  1  0.18955600  0.53727300  0.56560900  1
  Ni  Ni2  1  0.31044400  0.46272700  0.06560900  1
  Ni  Ni3  1  0.81044400  0.03727300  0.93439100  1
  Ni  Ni4  1  0.31044400  0.03727300  0.56560900  1
  Ni  Ni5  1  0.81044400  0.46272700  0.43439100  1
  Ni  Ni6  1  0.68955600  0.53727300  0.93439100  1
  Ni  Ni7  1  0.18955600  0.96272700  0.06560900  1
  Ni  Ni8  1  0.79021900  0.28009700  0.31237800  1
  Ni  Ni9  1  0.29021800  0.21990300  0.68762200  1
  Ni  Ni10  1  0.20978200  0.78009700  0.18762200  1
  Ni  Ni11  1  0.70978100  0.71990300  0.81237800  1
  Ni  Ni12  1  0.20978200  0.71990300  0.68762200  1
  Ni  Ni13  1  0.70978100  0.78009700  0.31237800  1
  Ni  Ni14  1  0.79021900  0.21990300  0.81237800  1
  Ni  Ni15  1  0.29021800  0.28009700  0.18762200  1
  Cu  Cu16  1  0.66104100  0.03780800  0.18630800  1
  Cu  Cu17  1  0.16104100  0.46219200  0.81369200  1
  Cu  Cu18  1  0.33895900  0.53780800  0.31369200  1
  Cu  Cu19  1  0.83895900  0.96219200  0.68630800  1
  Cu  Cu20  1  0.33895900  0.96219200  0.81369200  1
  Cu  Cu21  1  0.83895900  0.53780800  0.18630800  1
  Cu  Cu22  1  0.66104100  0.46219200  0.68630800  1
  Cu  Cu23  1  0.16104100  0.03780800  0.31369200  1
  Cu  Cu24  1  0.78684800  0.28910900  0.06155800  1
  Cu  Cu25  1  0.28684800  0.21089100  0.93844200  1
  Cu  Cu26  1  0.21315200  0.78910900  0.43844200  1
  Cu  Cu27  1  0.71315200  0.71089100  0.56155800  1
  Cu  Cu28  1  0.21315200  0.71089100  0.93844200  1
  Cu  Cu29  1  0.71315200  0.78910900  0.06155800  1
  Cu  Cu30  1  0.78684800  0.21089100  0.56155800  1
  Cu  Cu31  1  0.28684800  0.28910900  0.43844200  1
  C  C32  1  0.66485200  0.49151300  0.29496800  1
  C  C33  1  0.16485200  0.00848700  0.70503200  1
  C  C34  1  0.33514800  0.99151300  0.20503200  1
  C  C35  1  0.83514800  0.50848700  0.79496800  1
  C  C36  1  0.33514800  0.50848700  0.70503200  1
  C  C37  1  0.83514800  0.99151300  0.29496800  1
  C  C38  1  0.66485200  0.00848700  0.79496800  1
  C  C39  1  0.16485200  0.49151300  0.20503200  1
  C  C40  1  0.62653900  0.27062100  0.45356400  1
  C  C41  1  0.12653900  0.22937900  0.54643600  1
  C  C42  1  0.37346100  0.77062100  0.04643600  1
  C  C43  1  0.87346100  0.72937900  0.95356400  1
  C  C44  1  0.37346100  0.72937900  0.54643600  1
  C  C45  1  0.87346100  0.77062100  0.45356400  1
  C  C46  1  0.62653900  0.22937900  0.95356400  1
  C  C47  1  0.12653900  0.27062100  0.04643600  1
  C  C48  1  0.71945200  0.45689700  0.07818300  1
  C  C49  1  0.21945200  0.04310300  0.92181700  1
  C  C50  1  0.28054800  0.95689700  0.42181700  1
  C  C51  1  0.78054800  0.54310300  0.57818300  1
  C  C52  1  0.28054800  0.54310300  0.92181700  1
  C  C53  1  0.78054800  0.95689700  0.07818300  1
  C  C54  1  0.71945200  0.04310300  0.57818300  1
  C  C55  1  0.21945200  0.45689700  0.42181700  1
  C  C56  1  0.67393500  0.20864100  0.17093100  1
  C  C57  1  0.17393500  0.29135900  0.82906900  1
  C  C58  1  0.32606500  0.70864100  0.32906900  1
  C  C59  1  0.82606500  0.79135900  0.67093100  1
  C  C60  1  0.32606500  0.79135900  0.82906900  1
  C  C61  1  0.82606500  0.70864100  0.17093100  1
  C  C62  1  0.67393500  0.29135900  0.67093100  1
  C  C63  1  0.17393500  0.20864100  0.32906900  1
