# generated using pymatgen
data_CuNiC11
_symmetry_space_group_name_H-M   'P 1'
_cell_length_a   7.47971500
_cell_length_b   5.76042100
_cell_length_c   10.16954923
_cell_angle_alpha   88.76869562
_cell_angle_beta   90.00000000
_cell_angle_gamma   90.00000000
_symmetry_Int_Tables_number   1
_chemical_formula_structural   CuNiC11
_chemical_formula_sum   'Cu2 Ni2 C22'
_cell_volume   438.06714728
_cell_formula_units_Z   2
loop_
 _symmetry_equiv_pos_site_id
 _symmetry_equiv_pos_as_xyz
  1  'x, y, z'
loop_
 _atom_site_type_symbol
 _atom_site_label
 _atom_site_symmetry_multiplicity
 _atom_site_fract_x
 _atom_site_fract_y
 _atom_site_fract_z
 _atom_site_occupancy
  C  C0  1  0.25000000  0.76170100  0.91819100  1
  C  C1  1  0.00028200  0.25131500  0.74181200  1
  C  C2  1  0.49971800  0.25131500  0.74181200  1
  C  C3  1  0.50028200  0.74868500  0.25818800  1
  C  C4  1  0.99971800  0.74868500  0.25818800  1
  C  C5  1  0.75000000  0.23829900  0.08180900  1
  C  C6  1  0.75000000  0.76887300  0.62953800  1
  C  C7  1  0.25000000  0.23112700  0.37046200  1
  Ni  Ni8  1  0.25000000  0.70557000  0.58860600  1
  Ni  Ni9  1  0.75000000  0.29443000  0.41139400  1
  Cu  Cu10  1  0.75000000  0.73878600  0.93490700  1
  Cu  Cu11  1  0.25000000  0.26121400  0.06509300  1
  C  C12  1  0.25000000  0.27296600  0.93732500  1
  C  C13  1  0.75000000  0.94122600  0.87422900  1
  C  C14  1  0.75000000  0.54792200  0.86741400  1
  C  C15  1  0.08447600  0.78359100  0.67125400  1
  C  C16  1  0.41552400  0.78359100  0.67125400  1
  C  C17  1  0.25000000  0.43419200  0.58128000  1
  C  C18  1  0.75000000  0.19077400  0.55375600  1
  C  C19  1  0.25000000  0.80922600  0.44624400  1
  C  C20  1  0.75000000  0.56580800  0.41872000  1
  C  C21  1  0.58447600  0.21640900  0.32874600  1
  C  C22  1  0.91552400  0.21640900  0.32874600  1
  C  C23  1  0.25000000  0.45207800  0.13258600  1
  C  C24  1  0.25000000  0.05877400  0.12577100  1
  C  C25  1  0.75000000  0.72703400  0.06267500  1
