# generated using pymatgen
data_CuNiC4
_symmetry_space_group_name_H-M   'P 1'
_cell_length_a   3.39799900
_cell_length_b   3.39804042
_cell_length_c   39.18178200
_cell_angle_alpha   89.99945161
_cell_angle_beta   90.00000000
_cell_angle_gamma   119.99960647
_symmetry_Int_Tables_number   1
_chemical_formula_structural   CuNiC4
_chemical_formula_sum   'Cu2 Ni2 C8'
_cell_volume   391.80351296
_cell_formula_units_Z   2
loop_
 _symmetry_equiv_pos_site_id
 _symmetry_equiv_pos_as_xyz
  1  'x, y, z'
loop_
 _atom_site_type_symbol
 _atom_site_label
 _atom_site_symmetry_multiplicity
 _atom_site_fract_x
 _atom_site_fract_y
 _atom_site_fract_z
 _atom_site_occupancy
  C  C0  1  0.33333300  0.66666600  0.33034800  1
  C  C1  1  0.66666600  0.33333000  0.04557200  1
  C  C2  1  0.66667100  0.33334100  0.14122100  1
  C  C3  1  0.33333800  0.66667800  0.23419900  1
  Ni  Ni4  1  0.33331700  0.66663400  0.09337500  1
  Ni  Ni5  1  0.33330400  0.66660900  0.46964700  1
  Cu  Cu6  1  0.66668900  0.33337800  0.28231500  1
  Cu  Cu7  1  0.66668500  0.33337000  0.65757000  1
  C  C8  1  0.33333400  0.66666900  0.69980800  1
  C  C9  1  0.33333000  0.66666000  0.61536500  1
  C  C10  1  0.66667000  0.33333900  0.43131400  1
  C  C11  1  0.66666400  0.33332800  0.50801400  1
