# generated using pymatgen
data_Cu3Ni2C
_symmetry_space_group_name_H-M   'P 1'
_cell_length_a   8.94031800
_cell_length_b   8.94031756
_cell_length_c   3.84128900
_cell_angle_alpha   90.00000000
_cell_angle_beta   90.00000000
_cell_angle_gamma   120.00000162
_symmetry_Int_Tables_number   1
_chemical_formula_structural   Cu3Ni2C
_chemical_formula_sum   'Cu9 Ni6 C3'
_cell_volume   265.89705001
_cell_formula_units_Z   3
loop_
 _symmetry_equiv_pos_site_id
 _symmetry_equiv_pos_as_xyz
  1  'x, y, z'
loop_
 _atom_site_type_symbol
 _atom_site_label
 _atom_site_symmetry_multiplicity
 _atom_site_fract_x
 _atom_site_fract_y
 _atom_site_fract_z
 _atom_site_occupancy
  C  C0  1  0.00000000  0.00000000  0.00000000  1
  C  C1  1  0.66666700  0.33333300  0.50000000  1
  C  C2  1  0.33333300  0.66666700  0.50000000  1
  Ni  Ni3  1  0.68556100  0.68556100  0.50000000  1
  Ni  Ni4  1  0.31443900  0.00000000  0.50000000  1
  Ni  Ni5  1  0.00000000  0.31443900  0.50000000  1
  Ni  Ni6  1  0.31443900  0.31443900  0.50000000  1
  Ni  Ni7  1  0.68556100  0.00000000  0.50000000  1
  Ni  Ni8  1  0.00000000  0.68556100  0.50000000  1
  Cu  Cu9  1  0.50000000  0.50000000  0.00000000  1
  Cu  Cu10  1  0.50000000  0.00000000  0.00000000  1
  Cu  Cu11  1  0.00000000  0.50000000  0.00000000  1
  Cu  Cu12  1  0.81680100  0.18319900  0.00000000  1
  Cu  Cu13  1  0.81680100  0.63360300  0.00000000  1
  Cu  Cu14  1  0.36639700  0.18319900  0.00000000  1
  Cu  Cu15  1  0.18319900  0.81680100  0.00000000  1
  Cu  Cu16  1  0.63360300  0.81680100  0.00000000  1
  Cu  Cu17  1  0.18319900  0.36639700  0.00000000  1
