# generated using pymatgen
data_Cu22(Ni2C7)3
_symmetry_space_group_name_H-M   'P 1'
_cell_length_a   12.45805636
_cell_length_b   12.45805636
_cell_length_c   12.45805636
_cell_angle_alpha   107.76541635
_cell_angle_beta   107.76541635
_cell_angle_gamma   112.93949887
_symmetry_Int_Tables_number   1
_chemical_formula_structural   Cu22(Ni2C7)3
_chemical_formula_sum   'Cu22 Ni6 C21'
_cell_volume   1484.31496735
_cell_formula_units_Z   1
loop_
 _symmetry_equiv_pos_site_id
 _symmetry_equiv_pos_as_xyz
  1  'x, y, z'
loop_
 _atom_site_type_symbol
 _atom_site_label
 _atom_site_symmetry_multiplicity
 _atom_site_fract_x
 _atom_site_fract_y
 _atom_site_fract_z
 _atom_site_occupancy
  C  C0  1  0.54059200  0.78238700  0.49235000  1
  C  C1  1  0.29003700  0.04824200  0.50765000  1
  C  C2  1  0.70996300  0.21761300  0.75820500  1
  C  C3  1  0.45940800  0.95175800  0.24179500  1
  C  C4  1  0.95175800  0.45940800  0.24179500  1
  C  C5  1  0.21761300  0.70996300  0.75820500  1
  C  C6  1  0.78238700  0.54059200  0.49235000  1
  C  C7  1  0.04824200  0.29003700  0.50765000  1
  C  C8  1  0.84190300  0.84190300  0.33475800  1
  C  C9  1  0.50714500  0.50714500  0.66524200  1
  C  C10  1  0.49285500  0.15809700  0.00000000  1
  C  C11  1  0.15809700  0.49285500  0.00000000  1
  C  C12  1  0.00000000  0.00000000  0.00000000  1
  Ni  Ni13  1  0.31510100  0.31510100  0.83079500  1
  Ni  Ni14  1  0.48430600  0.48430600  0.16920500  1
  Ni  Ni15  1  0.51569400  0.68489900  0.00000000  1
  Ni  Ni16  1  0.68489900  0.51569400  0.00000000  1
  Ni  Ni17  1  0.75000000  0.25000000  0.50000000  1
  Ni  Ni18  1  0.25000000  0.75000000  0.50000000  1
  C  C19  1  0.93837700  0.11664300  0.72339200  1
  C  C20  1  0.39325100  0.21498500  0.27660800  1
  C  C21  1  0.60674900  0.88335600  0.82173300  1
  C  C22  1  0.06162300  0.78501500  0.17826700  1
  C  C23  1  0.78501500  0.06162300  0.17826700  1
  C  C24  1  0.88335700  0.60674900  0.82173300  1
  C  C25  1  0.11664400  0.93837700  0.72339200  1
  C  C26  1  0.21498500  0.39325100  0.27660800  1
  Cu  Cu27  1  0.74803700  0.05364800  0.48983300  1
  Cu  Cu28  1  0.56381500  0.25820400  0.51016700  1
  Cu  Cu29  1  0.43618500  0.94635200  0.69438900  1
  Cu  Cu30  1  0.25196300  0.74179600  0.30561100  1
  Cu  Cu31  1  0.74179600  0.25196300  0.30561100  1
  Cu  Cu32  1  0.94635200  0.43618500  0.69438900  1
  Cu  Cu33  1  0.05364800  0.74803700  0.48983300  1
  Cu  Cu34  1  0.25820400  0.56381500  0.51016700  1
  Cu  Cu35  1  0.68612100  0.50000000  0.18612100  1
  Cu  Cu36  1  0.31387900  0.50000000  0.81387900  1
  Cu  Cu37  1  0.50000000  0.31387900  0.81387900  1
  Cu  Cu38  1  0.50000000  0.68612100  0.18612100  1
  Cu  Cu39  1  0.12258000  0.12258000  0.64238000  1
  Cu  Cu40  1  0.48020000  0.48020000  0.35762000  1
  Cu  Cu41  1  0.51980000  0.87742000  0.00000000  1
  Cu  Cu42  1  0.87742000  0.51980000  0.00000000  1
  Cu  Cu43  1  0.85525100  0.85525100  0.66195000  1
  Cu  Cu44  1  0.19330100  0.19330100  0.33805000  1
  Cu  Cu45  1  0.80669900  0.14474900  0.00000000  1
  Cu  Cu46  1  0.14474900  0.80669900  0.00000000  1
  Cu  Cu47  1  0.71737800  0.71737800  0.00000000  1
  Cu  Cu48  1  0.28262200  0.28262200  0.00000000  1
