# generated using pymatgen
data_CuNi2C11
_symmetry_space_group_name_H-M   'P 1'
_cell_length_a   3.85364215
_cell_length_b   3.85364215
_cell_length_c   11.52667000
_cell_angle_alpha   90.00000000
_cell_angle_beta   90.00000000
_cell_angle_gamma   90.16987287
_symmetry_Int_Tables_number   1
_chemical_formula_structural   CuNi2C11
_chemical_formula_sum   'Cu1 Ni2 C11'
_cell_volume   171.17672666
_cell_formula_units_Z   1
loop_
 _symmetry_equiv_pos_site_id
 _symmetry_equiv_pos_as_xyz
  1  'x, y, z'
loop_
 _atom_site_type_symbol
 _atom_site_label
 _atom_site_symmetry_multiplicity
 _atom_site_fract_x
 _atom_site_fract_y
 _atom_site_fract_z
 _atom_site_occupancy
  Ni  Ni0  1  0.50924600  0.49075400  0.66561900  1
  Ni  Ni1  1  0.50924600  0.49075400  0.33438100  1
  Cu  Cu2  1  0.50088700  0.49911300  0.00000000  1
  C  C3  1  0.01068800  0.98931200  0.50000000  1
  C  C4  1  0.00201600  0.99798400  0.84358900  1
  C  C5  1  0.00201600  0.99798400  0.15641100  1
  C  C6  1  0.00055200  0.49780500  0.87312600  1
  C  C7  1  0.50219500  0.99944800  0.87312600  1
  C  C8  1  0.00055200  0.49780500  0.12687400  1
  C  C9  1  0.50219500  0.99944800  0.12687400  1
  C  C10  1  0.00648100  0.99351900  0.66645800  1
  C  C11  1  0.00648100  0.99351900  0.33354200  1
  C  C12  1  0.01325400  0.49058400  0.50000000  1
  C  C13  1  0.50941600  0.98674600  0.50000000  1
