# generated using pymatgen
data_Cu3Ni4
_symmetry_space_group_name_H-M   'P 1'
_cell_length_a   5.28305700
_cell_length_b   7.70150037
_cell_length_c   7.79866704
_cell_angle_alpha   63.41613361
_cell_angle_beta   73.18151717
_cell_angle_gamma   70.68381409
_symmetry_Int_Tables_number   1
_chemical_formula_structural   Cu3Ni4
_chemical_formula_sum   'Cu6 Ni8'
_cell_volume   264.00779616
_cell_formula_units_Z   2
loop_
 _symmetry_equiv_pos_site_id
 _symmetry_equiv_pos_as_xyz
  1  'x, y, z'
loop_
 _atom_site_type_symbol
 _atom_site_label
 _atom_site_symmetry_multiplicity
 _atom_site_fract_x
 _atom_site_fract_y
 _atom_site_fract_z
 _atom_site_occupancy
  Ni  Ni0  1  0.47798900  0.24627400  0.20525500  1
  Ni  Ni1  1  0.00866900  0.03248800  0.04143300  1
  Ni  Ni2  1  0.84511600  0.46174200  0.71692900  1
  Ni  Ni3  1  0.37215400  0.70068000  0.91802000  1
  Ni  Ni4  1  0.94717700  0.45919800  0.06797500  1
  Ni  Ni5  1  0.80424900  0.91941000  0.78659200  1
  Ni  Ni6  1  0.64007900  0.35336400  0.47650100  1
  Ni  Ni7  1  0.53286700  0.80602100  0.21644700  1
  Cu  Cu8  1  0.25435800  0.66547900  0.59954000  1
  Cu  Cu9  1  0.59547300  0.89367800  0.51185400  1
  Cu  Cu10  1  0.41878200  0.25914300  0.86362800  1
  Cu  Cu11  1  0.11817300  0.54258900  0.33653500  1
  Cu  Cu12  1  0.20891000  0.13739700  0.60817500  1
  Cu  Cu13  1  0.02603300  0.02260700  0.40096500  1
