# generated using pymatgen
data_CuNiC2
_symmetry_space_group_name_H-M   'P 1'
_cell_length_a   9.62645046
_cell_length_b   9.62645046
_cell_length_c   9.62645046
_cell_angle_alpha   100.37271713
_cell_angle_beta   100.37271713
_cell_angle_gamma   129.78424807
_symmetry_Int_Tables_number   1
_chemical_formula_structural   CuNiC2
_chemical_formula_sum   'Cu10 Ni10 C20'
_cell_volume   620.74465943
_cell_formula_units_Z   10
loop_
 _symmetry_equiv_pos_site_id
 _symmetry_equiv_pos_as_xyz
  1  'x, y, z'
loop_
 _atom_site_type_symbol
 _atom_site_label
 _atom_site_symmetry_multiplicity
 _atom_site_fract_x
 _atom_site_fract_y
 _atom_site_fract_z
 _atom_site_occupancy
  Ni  Ni0  1  0.12363900  0.40646700  0.28282800  1
  Ni  Ni1  1  0.12363900  0.84081100  0.71717200  1
  Ni  Ni2  1  0.40646700  0.12363900  0.28282800  1
  Ni  Ni3  1  0.84081100  0.12363900  0.71717200  1
  Ni  Ni4  1  0.83601700  0.43358900  0.00000000  1
  Ni  Ni5  1  0.43358900  0.83601700  0.00000000  1
  Ni  Ni6  1  0.83601700  0.83601700  0.40242800  1
  Ni  Ni7  1  0.43358900  0.43358900  0.59757200  1
  Ni  Ni8  1  0.05417000  0.05417000  0.00000000  1
  Ni  Ni9  1  0.51241900  0.51241900  0.00000000  1
  C  C10  1  0.52654300  0.73799800  0.49292900  1
  C  C11  1  0.24506900  0.03361400  0.50707100  1
  C  C12  1  0.52654300  0.03361400  0.78854600  1
  C  C13  1  0.24506900  0.73799800  0.21145400  1
  C  C14  1  0.73799800  0.52654300  0.49292900  1
  C  C15  1  0.03361400  0.24506900  0.50707100  1
  C  C16  1  0.03361400  0.52654300  0.78854600  1
  C  C17  1  0.73799800  0.24506900  0.21145400  1
  C  C18  1  0.79641100  0.95811900  0.16170900  1
  C  C19  1  0.79641100  0.63470200  0.83829100  1
  C  C20  1  0.95811900  0.79641100  0.16170900  1
  C  C21  1  0.63470200  0.79641100  0.83829100  1
  C  C22  1  0.64768900  0.03035400  0.38266500  1
  C  C23  1  0.64768900  0.26502400  0.61733500  1
  C  C24  1  0.03035400  0.64768900  0.38266500  1
  C  C25  1  0.26502400  0.64768900  0.61733500  1
  C  C26  1  0.42201800  0.15602100  0.00000000  1
  C  C27  1  0.15602100  0.42201800  0.00000000  1
  C  C28  1  0.42201800  0.42201800  0.26599700  1
  C  C29  1  0.15602100  0.15602100  0.73400300  1
  Cu  Cu30  1  0.48411600  0.70041700  0.21630100  1
  Cu  Cu31  1  0.48411600  0.26781600  0.78369900  1
  Cu  Cu32  1  0.70041700  0.48411600  0.21630100  1
  Cu  Cu33  1  0.26781600  0.48411600  0.78369900  1
  Cu  Cu34  1  0.14058700  0.81648000  0.00000000  1
  Cu  Cu35  1  0.81648000  0.14058700  0.00000000  1
  Cu  Cu36  1  0.14058700  0.14058700  0.32410700  1
  Cu  Cu37  1  0.81648000  0.81648000  0.67589300  1
  Cu  Cu38  1  0.89706100  0.39706100  0.50000000  1
  Cu  Cu39  1  0.39706100  0.89706100  0.50000000  1
