# generated using pymatgen
data_Cu2Ni12C35
_symmetry_space_group_name_H-M   'P 1'
_cell_length_a   15.06518399
_cell_length_b   15.65613803
_cell_length_c   17.00166388
_cell_angle_alpha   90.00000000
_cell_angle_beta   90.00000000
_cell_angle_gamma   90.00000000
_symmetry_Int_Tables_number   1
_chemical_formula_structural   Cu2Ni12C35
_chemical_formula_sum   'Cu16 Ni96 C280'
_cell_volume   4010.05664697
_cell_formula_units_Z   8
loop_
 _symmetry_equiv_pos_site_id
 _symmetry_equiv_pos_as_xyz
  1  'x, y, z'
loop_
 _atom_site_type_symbol
 _atom_site_label
 _atom_site_symmetry_multiplicity
 _atom_site_fract_x
 _atom_site_fract_y
 _atom_site_fract_z
 _atom_site_occupancy
  C  C0  1  0.99584653  0.37277763  0.01441111  1
  C  C1  1  0.50415347  0.87277763  0.98558889  1
  C  C2  1  0.49584653  0.62722237  0.48558889  1
  C  C3  1  0.00415347  0.12722237  0.51441111  1
  C  C4  1  0.00415347  0.62722237  0.98558889  1
  C  C5  1  0.49584653  0.12722237  0.01441111  1
  C  C6  1  0.50415347  0.37277763  0.51441111  1
  C  C7  1  0.99584653  0.87277763  0.48558889  1
  C  C8  1  0.10158077  0.50565239  0.07322573  1
  C  C9  1  0.39841923  0.00565239  0.92677427  1
  C  C10  1  0.60158077  0.49434761  0.42677427  1
  C  C11  1  0.89841923  0.99434761  0.57322573  1
  C  C12  1  0.89841923  0.49434761  0.92677427  1
  C  C13  1  0.60158077  0.99434761  0.07322573  1
  C  C14  1  0.39841923  0.50565239  0.57322573  1
  C  C15  1  0.10158077  0.00565239  0.42677427  1
  C  C16  1  0.92551125  0.39868470  0.84786419  1
  C  C17  1  0.57448875  0.89868470  0.15213581  1
  C  C18  1  0.42551125  0.60131530  0.65213581  1
  C  C19  1  0.07448875  0.10131530  0.34786419  1
  C  C20  1  0.07448875  0.60131530  0.15213581  1
  C  C21  1  0.42551125  0.10131530  0.84786419  1
  C  C22  1  0.57448875  0.39868470  0.34786419  1
  C  C23  1  0.92551125  0.89868470  0.65213581  1
  C  C24  1  0.03281365  0.37261918  0.81781341  1
  C  C25  1  0.46718635  0.87261918  0.18218659  1
  C  C26  1  0.53281365  0.62738082  0.68218659  1
  C  C27  1  0.96718635  0.12738082  0.31781341  1
  C  C28  1  0.96718635  0.62738082  0.18218659  1
  C  C29  1  0.53281365  0.12738082  0.81781341  1
  C  C30  1  0.46718635  0.37261918  0.31781341  1
  C  C31  1  0.03281365  0.87261918  0.68218659  1
  C  C32  1  0.98967628  0.32454276  0.90187051  1
  C  C33  1  0.51032372  0.82454276  0.09812949  1
  C  C34  1  0.48967628  0.67545724  0.59812949  1
  C  C35  1  0.01032372  0.17545724  0.40187051  1
  C  C36  1  0.01032372  0.67545724  0.09812949  1
  C  C37  1  0.48967628  0.17545724  0.90187051  1
  C  C38  1  0.51032372  0.32454276  0.40187051  1
  C  C39  1  0.98967628  0.82454276  0.59812949  1
  C  C40  1  0.05114832  0.62644021  0.82811934  1
  C  C41  1  0.44885168  0.12644021  0.17188066  1
  C  C42  1  0.55114832  0.37355979  0.67188066  1
  C  C43  1  0.94885168  0.87355979  0.32811934  1
  C  C44  1  0.94885168  0.37355979  0.17188066  1
  C  C45  1  0.55114832  0.87355979  0.82811934  1
  C  C46  1  0.44885168  0.62644021  0.32811934  1
  C  C47  1  0.05114832  0.12644021  0.67188066  1
  C  C48  1  0.98466989  0.54223426  0.79151053  1
  C  C49  1  0.51533011  0.04223426  0.20848947  1
  C  C50  1  0.48466989  0.45776574  0.70848947  1
  C  C51  1  0.01533011  0.95776574  0.29151053  1
  C  C52  1  0.01533011  0.45776574  0.20848947  1
  C  C53  1  0.48466989  0.95776574  0.79151053  1
  C  C54  1  0.51533011  0.54223426  0.29151053  1
  C  C55  1  0.98466989  0.04223426  0.70848947  1
  C  C56  1  0.94313515  0.61156211  0.86375974  1
  C  C57  1  0.55686485  0.11156211  0.13624026  1
  C  C58  1  0.44313515  0.38843789  0.63624026  1
  C  C59  1  0.05686485  0.88843789  0.36375974  1
  C  C60  1  0.05686485  0.38843789  0.13624026  1
  C  C61  1  0.44313515  0.88843789  0.86375974  1
  C  C62  1  0.55686485  0.61156211  0.36375974  1
  C  C63  1  0.94313515  0.11156211  0.63624026  1
  C  C64  1  0.16391138  0.60976325  0.01884135  1
  C  C65  1  0.33608862  0.10976325  0.98115865  1
  C  C66  1  0.66391138  0.39023675  0.48115865  1
  C  C67  1  0.83608862  0.89023675  0.51884135  1
  C  C68  1  0.83608862  0.39023675  0.98115865  1
  C  C69  1  0.66391138  0.89023675  0.01884135  1
  C  C70  1  0.33608862  0.60976325  0.51884135  1
  C  C71  1  0.16391138  0.10976325  0.48115865  1
  C  C72  1  0.22627474  0.56221124  0.94356982  1
  C  C73  1  0.27372526  0.06221124  0.05643018  1
  C  C74  1  0.72627474  0.43778876  0.55643018  1
  C  C75  1  0.77372526  0.93778876  0.44356982  1
  C  C76  1  0.77372526  0.43778876  0.05643018  1
  C  C77  1  0.72627474  0.93778876  0.94356982  1
  C  C78  1  0.27372526  0.56221124  0.44356982  1
  C  C79  1  0.22627474  0.06221124  0.55643018  1
  C  C80  1  0.15088928  0.64488373  0.92137890  1
  C  C81  1  0.34911072  0.14488373  0.07862110  1
  C  C82  1  0.65088928  0.35511627  0.57862110  1
  C  C83  1  0.84911072  0.85511627  0.42137890  1
  C  C84  1  0.84911072  0.35511627  0.07862110  1
  C  C85  1  0.65088928  0.85511627  0.92137890  1
  C  C86  1  0.34911072  0.64488373  0.42137890  1
  C  C87  1  0.15088928  0.14488373  0.57862110  1
  C  C88  1  0.16268060  0.39427629  0.04509896  1
  C  C89  1  0.33731940  0.89427629  0.95490104  1
  C  C90  1  0.66268060  0.60572371  0.45490104  1
  C  C91  1  0.83731940  0.10572371  0.54509896  1
  C  C92  1  0.83731940  0.60572371  0.95490104  1
  C  C93  1  0.66268060  0.10572371  0.04509896  1
  C  C94  1  0.33731940  0.39427629  0.54509896  1
  C  C95  1  0.16268060  0.89427629  0.45490104  1
  C  C96  1  0.13043238  0.32932468  0.96545761  1
  C  C97  1  0.36956762  0.82932468  0.03454239  1
  C  C98  1  0.63043238  0.67067532  0.53454239  1
  C  C99  1  0.86956762  0.17067532  0.46545761  1
  C  C100  1  0.86956762  0.67067532  0.03454239  1
  C  C101  1  0.63043238  0.17067532  0.96545761  1
  C  C102  1  0.36956762  0.32932468  0.46545761  1
  C  C103  1  0.13043238  0.82932468  0.53454239  1
  C  C104  1  0.21630618  0.40433725  0.95482349  1
  C  C105  1  0.28369382  0.90433725  0.04517651  1
  C  C106  1  0.71630618  0.59566275  0.54517651  1
  C  C107  1  0.78369382  0.09566275  0.45482349  1
  C  C108  1  0.78369382  0.59566275  0.04517651  1
  C  C109  1  0.71630618  0.09566275  0.95482349  1
  C  C110  1  0.28369382  0.40433725  0.45482349  1
  C  C111  1  0.21630618  0.90433725  0.54517651  1
  C  C112  1  0.12759025  0.21898081  0.04081142  1
  C  C113  1  0.37240975  0.71898081  0.95918858  1
  C  C114  1  0.62759025  0.78101919  0.45918858  1
  C  C115  1  0.87240975  0.28101919  0.54081142  1
  C  C116  1  0.87240975  0.78101919  0.95918858  1
  C  C117  1  0.62759025  0.28101919  0.04081142  1
  C  C118  1  0.37240975  0.21898081  0.54081142  1
  C  C119  1  0.12759025  0.71898081  0.45918858  1
  C  C120  1  0.07474363  0.12135982  0.01819799  1
  C  C121  1  0.42525637  0.62135982  0.98180201  1
  C  C122  1  0.57474363  0.87864018  0.48180201  1
  C  C123  1  0.92525637  0.37864018  0.51819799  1
  C  C124  1  0.92525637  0.87864018  0.98180201  1
  C  C125  1  0.57474363  0.37864018  0.01819799  1
  C  C126  1  0.42525637  0.12135982  0.51819799  1
  C  C127  1  0.07474363  0.62135982  0.48180201  1
  C  C128  1  0.12393543  0.12504090  0.15745195  1
  C  C129  1  0.37606457  0.62504090  0.84254805  1
  C  C130  1  0.62393543  0.87495910  0.34254805  1
  C  C131  1  0.87606457  0.37495910  0.65745195  1
  C  C132  1  0.87606457  0.87495910  0.84254805  1
  C  C133  1  0.62393543  0.37495910  0.15745195  1
  C  C134  1  0.37606457  0.12504090  0.65745195  1
  C  C135  1  0.12393543  0.62504090  0.34254805  1
  C  C136  1  0.05832481  0.21779566  0.17566090  1
  C  C137  1  0.44167519  0.71779566  0.82433910  1
  C  C138  1  0.55832481  0.78220434  0.32433910  1
  C  C139  1  0.94167519  0.28220434  0.67566090  1
  C  C140  1  0.94167519  0.78220434  0.82433910  1
  C  C141  1  0.55832481  0.28220434  0.17566090  1
  C  C142  1  0.44167519  0.21779566  0.67566090  1
  C  C143  1  0.05832481  0.71779566  0.32433910  1
  C  C144  1  0.00652810  0.11808634  0.15527088  1
  C  C145  1  0.49347190  0.61808634  0.84472912  1
  C  C146  1  0.50652810  0.88191366  0.34472912  1
  C  C147  1  0.99347190  0.38191366  0.65527088  1
  C  C148  1  0.99347190  0.88191366  0.84472912  1
  C  C149  1  0.50652810  0.38191366  0.15527088  1
  C  C150  1  0.49347190  0.11808634  0.65527088  1
  C  C151  1  0.00652810  0.61808634  0.34472912  1
  C  C152  1  0.86610431  0.22482861  0.98741839  1
  C  C153  1  0.63389569  0.72482861  0.01258161  1
  C  C154  1  0.36610431  0.77517139  0.51258161  1
  C  C155  1  0.13389569  0.27517139  0.48741839  1
  C  C156  1  0.13389569  0.77517139  0.01258161  1
  C  C157  1  0.36610431  0.27517139  0.98741839  1
  C  C158  1  0.63389569  0.22482861  0.48741839  1
  C  C159  1  0.86610431  0.72482861  0.51258161  1
  C  C160  1  0.89444462  0.14190166  0.05367482  1
  C  C161  1  0.60555538  0.64190166  0.94632518  1
  C  C162  1  0.39444462  0.85809834  0.44632518  1
  C  C163  1  0.10555538  0.35809834  0.55367482  1
  C  C164  1  0.10555538  0.85809834  0.94632518  1
  C  C165  1  0.39444462  0.35809834  0.05367482  1
  C  C166  1  0.60555538  0.14190166  0.55367482  1
  C  C167  1  0.89444462  0.64190166  0.44632518  1
  C  C168  1  0.87198805  0.08714240  0.91728069  1
  C  C169  1  0.62801195  0.58714240  0.08271931  1
  C  C170  1  0.37198805  0.91285760  0.58271931  1
  C  C171  1  0.12801195  0.41285760  0.41728069  1
  C  C172  1  0.12801195  0.91285760  0.08271931  1
  C  C173  1  0.37198805  0.41285760  0.91728069  1
  C  C174  1  0.62801195  0.08714240  0.41728069  1
  C  C175  1  0.87198805  0.58714240  0.58271931  1
  C  C176  1  0.95778125  0.15510069  0.88098857  1
  C  C177  1  0.54221875  0.65510069  0.11901143  1
  C  C178  1  0.45778125  0.84489931  0.61901143  1
  C  C179  1  0.04221875  0.34489931  0.38098857  1
  C  C180  1  0.04221875  0.84489931  0.11901143  1
  C  C181  1  0.45778125  0.34489931  0.88098857  1
  C  C182  1  0.54221875  0.15510069  0.38098857  1
  C  C183  1  0.95778125  0.65510069  0.61901143  1
  C  C184  1  0.98318797  0.06863410  0.94509859  1
  C  C185  1  0.51681203  0.56863410  0.05490141  1
  C  C186  1  0.48318797  0.93136590  0.55490141  1
  C  C187  1  0.01681203  0.43136590  0.44509859  1
  C  C188  1  0.01681203  0.93136590  0.05490141  1
  C  C189  1  0.48318797  0.43136590  0.94509859  1
  C  C190  1  0.51681203  0.06863410  0.44509859  1
  C  C191  1  0.98318797  0.56863410  0.55490141  1
  C  C192  1  0.36211327  0.51778380  0.16984657  1
  C  C193  1  0.13788673  0.01778380  0.83015343  1
  C  C194  1  0.86211327  0.48221620  0.33015343  1
  C  C195  1  0.63788673  0.98221620  0.66984657  1
  C  C196  1  0.63788673  0.48221620  0.83015343  1
  C  C197  1  0.86211327  0.98221620  0.16984657  1
  C  C198  1  0.13788673  0.51778380  0.66984657  1
  C  C199  1  0.36211327  0.01778380  0.33015343  1
  C  C200  1  0.31417580  0.54999334  0.07892294  1
  C  C201  1  0.18582420  0.04999334  0.92107706  1
  C  C202  1  0.81417580  0.45000666  0.42107706  1
  C  C203  1  0.68582420  0.95000666  0.57892294  1
  C  C204  1  0.68582420  0.45000666  0.92107706  1
  C  C205  1  0.81417580  0.95000666  0.07892294  1
  C  C206  1  0.18582420  0.54999334  0.57892294  1
  C  C207  1  0.31417580  0.04999334  0.42107706  1
  C  C208  1  0.36698701  0.67637357  0.15694421  1
  C  C209  1  0.13301299  0.17637357  0.84305579  1
  C  C210  1  0.86698701  0.32362643  0.34305579  1
  C  C211  1  0.63301299  0.82362643  0.65694421  1
  C  C212  1  0.63301299  0.32362643  0.84305579  1
  C  C213  1  0.86698701  0.82362643  0.15694421  1
  C  C214  1  0.13301299  0.67637357  0.65694421  1
  C  C215  1  0.36698701  0.17637357  0.34305579  1
  C  C216  1  0.24960213  0.67989914  0.14346690  1
  C  C217  1  0.25039787  0.17989914  0.85653310  1
  C  C218  1  0.74960213  0.32010086  0.35653310  1
  C  C219  1  0.75039787  0.82010086  0.64346690  1
  C  C220  1  0.75039787  0.32010086  0.85653310  1
  C  C221  1  0.74960213  0.82010086  0.14346690  1
  C  C222  1  0.25039787  0.67989914  0.64346690  1
  C  C223  1  0.24960213  0.17989914  0.35653310  1
  C  C224  1  0.29541276  0.64867872  0.23568441  1
  C  C225  1  0.20458724  0.14867872  0.76431559  1
  C  C226  1  0.79541276  0.35132128  0.26431559  1
  C  C227  1  0.70458724  0.85132128  0.73568441  1
  C  C228  1  0.70458724  0.35132128  0.76431559  1
  C  C229  1  0.79541276  0.85132128  0.23568441  1
  C  C230  1  0.20458724  0.64867872  0.73568441  1
  C  C231  1  0.29541276  0.14867872  0.26431559  1
  C  C232  1  0.26926726  0.50503276  0.27673658  1
  C  C233  1  0.23073274  0.00503276  0.72326342  1
  C  C234  1  0.76926726  0.49496724  0.22326342  1
  C  C235  1  0.73073274  0.99496724  0.77673658  1
  C  C236  1  0.73073274  0.49496724  0.72326342  1
  C  C237  1  0.76926726  0.99496724  0.27673658  1
  C  C238  1  0.23073274  0.50503276  0.77673658  1
  C  C239  1  0.26926726  0.00503276  0.22326342  1
  C  C240  1  0.15863165  0.46956288  0.25994666  1
  C  C241  1  0.34136835  0.96956288  0.74005334  1
  C  C242  1  0.65863165  0.53043712  0.24005334  1
  C  C243  1  0.84136835  0.03043712  0.75994666  1
  C  C244  1  0.84136835  0.53043712  0.74005334  1
  C  C245  1  0.65863165  0.03043712  0.25994666  1
  C  C246  1  0.34136835  0.46956288  0.75994666  1
  C  C247  1  0.15863165  0.96956288  0.24005334  1
  C  C248  1  0.25979347  0.34755526  0.29208549  1
  C  C249  1  0.24020653  0.84755526  0.70791451  1
  C  C250  1  0.75979347  0.65244474  0.20791451  1
  C  C251  1  0.74020653  0.15244474  0.79208549  1
  C  C252  1  0.74020653  0.65244474  0.70791451  1
  C  C253  1  0.75979347  0.15244474  0.29208549  1
  C  C254  1  0.24020653  0.34755526  0.79208549  1
  C  C255  1  0.25979347  0.84755526  0.20791451  1
  C  C256  1  0.21623480  0.33681311  0.19485327  1
  C  C257  1  0.28376520  0.83681311  0.80514673  1
  C  C258  1  0.71623480  0.66318689  0.30514673  1
  C  C259  1  0.78376520  0.16318689  0.69485327  1
  C  C260  1  0.78376520  0.66318689  0.80514673  1
  C  C261  1  0.71623480  0.16318689  0.19485327  1
  C  C262  1  0.28376520  0.33681311  0.69485327  1
  C  C263  1  0.21623480  0.83681311  0.30514673  1
  C  C264  1  0.32766226  0.37151553  0.21007471  1
  C  C265  1  0.17233774  0.87151553  0.78992529  1
  C  C266  1  0.82766226  0.62848447  0.28992529  1
  C  C267  1  0.67233774  0.12848447  0.71007471  1
  C  C268  1  0.67233774  0.62848447  0.78992529  1
  C  C269  1  0.82766226  0.12848447  0.21007471  1
  C  C270  1  0.17233774  0.37151553  0.71007471  1
  C  C271  1  0.32766226  0.87151553  0.28992529  1
  C  C272  1  0.06885975  0.48819044  0.92239334  1
  C  C273  1  0.43114025  0.98819044  0.07760666  1
  C  C274  1  0.56885975  0.51180956  0.57760666  1
  C  C275  1  0.93114025  0.01180956  0.42239334  1
  C  C276  1  0.93114025  0.51180956  0.07760666  1
  C  C277  1  0.56885975  0.01180956  0.92239334  1
  C  C278  1  0.43114025  0.48819044  0.42239334  1
  C  C279  1  0.06885975  0.98819044  0.57760666  1
  Ni  Ni280  1  0.06845347  0.18017309  0.05320272  1
  Ni  Ni281  1  0.43154653  0.68017309  0.94679728  1
  Ni  Ni282  1  0.56845347  0.81982691  0.44679728  1
  Ni  Ni283  1  0.93154653  0.31982691  0.55320272  1
  Ni  Ni284  1  0.93154653  0.81982691  0.94679728  1
  Ni  Ni285  1  0.56845347  0.31982691  0.05320272  1
  Ni  Ni286  1  0.43154653  0.18017309  0.55320272  1
  Ni  Ni287  1  0.06845347  0.68017309  0.44679728  1
  Ni  Ni288  1  0.06298578  0.15946688  0.14032849  1
  Ni  Ni289  1  0.43701422  0.65946688  0.85967151  1
  Ni  Ni290  1  0.56298578  0.84053312  0.35967151  1
  Ni  Ni291  1  0.93701422  0.34053312  0.64032849  1
  Ni  Ni292  1  0.93701422  0.84053312  0.85967151  1
  Ni  Ni293  1  0.56298578  0.34053312  0.14032849  1
  Ni  Ni294  1  0.43701422  0.15946688  0.64032849  1
  Ni  Ni295  1  0.06298578  0.65946688  0.35967151  1
  Ni  Ni296  1  0.91813891  0.17834362  0.00228881  1
  Ni  Ni297  1  0.58186109  0.67834362  0.99771119  1
  Ni  Ni298  1  0.41813891  0.82165638  0.49771119  1
  Ni  Ni299  1  0.08186109  0.32165638  0.50228881  1
  Ni  Ni300  1  0.08186109  0.82165638  0.99771119  1
  Ni  Ni301  1  0.41813891  0.32165638  0.00228881  1
  Ni  Ni302  1  0.58186109  0.17834362  0.50228881  1
  Ni  Ni303  1  0.91813891  0.67834362  0.49771119  1
  Ni  Ni304  1  0.93458554  0.11925298  0.93248501  1
  Ni  Ni305  1  0.56541446  0.61925298  0.06751499  1
  Ni  Ni306  1  0.43458554  0.88074702  0.56751499  1
  Ni  Ni307  1  0.06541446  0.38074702  0.43248501  1
  Ni  Ni308  1  0.06541446  0.88074702  0.06751499  1
  Ni  Ni309  1  0.43458554  0.38074702  0.93248501  1
  Ni  Ni310  1  0.56541446  0.11925298  0.43248501  1
  Ni  Ni311  1  0.93458554  0.61925298  0.56751499  1
  Ni  Ni312  1  0.30591074  0.55252398  0.14302962  1
  Ni  Ni313  1  0.19408926  0.05252398  0.85697038  1
  Ni  Ni314  1  0.80591074  0.44747602  0.35697038  1
  Ni  Ni315  1  0.69408926  0.94747602  0.64302962  1
  Ni  Ni316  1  0.69408926  0.44747602  0.85697038  1
  Ni  Ni317  1  0.80591074  0.94747602  0.14302962  1
  Ni  Ni318  1  0.19408926  0.55252398  0.64302962  1
  Ni  Ni319  1  0.30591074  0.05252398  0.35697038  1
  Ni  Ni320  1  0.30404326  0.64460621  0.17166051  1
  Ni  Ni321  1  0.19595674  0.14460621  0.82833949  1
  Ni  Ni322  1  0.80404326  0.35539379  0.32833949  1
  Ni  Ni323  1  0.69595674  0.85539379  0.67166051  1
  Ni  Ni324  1  0.69595674  0.35539379  0.82833949  1
  Ni  Ni325  1  0.80404326  0.85539379  0.17166051  1
  Ni  Ni326  1  0.19595674  0.64460621  0.67166051  1
  Ni  Ni327  1  0.30404326  0.14460621  0.32833949  1
  Ni  Ni328  1  0.22664610  0.46722968  0.23697276  1
  Ni  Ni329  1  0.27335390  0.96722968  0.76302724  1
  Ni  Ni330  1  0.72664610  0.53277032  0.26302724  1
  Ni  Ni331  1  0.77335390  0.03277032  0.73697276  1
  Ni  Ni332  1  0.77335390  0.53277032  0.76302724  1
  Ni  Ni333  1  0.72664610  0.03277032  0.23697276  1
  Ni  Ni334  1  0.27335390  0.46722968  0.73697276  1
  Ni  Ni335  1  0.22664610  0.96722968  0.26302724  1
  Ni  Ni336  1  0.25950808  0.37550414  0.23277554  1
  Ni  Ni337  1  0.24049192  0.87550414  0.76722446  1
  Ni  Ni338  1  0.75950808  0.62449586  0.26722446  1
  Ni  Ni339  1  0.74049192  0.12449586  0.73277554  1
  Ni  Ni340  1  0.74049192  0.62449586  0.76722446  1
  Ni  Ni341  1  0.75950808  0.12449586  0.23277554  1
  Ni  Ni342  1  0.24049192  0.37550414  0.73277554  1
  Ni  Ni343  1  0.25950808  0.87550414  0.26722446  1
  Ni  Ni344  1  0.99329281  0.38675312  0.87092268  1
  Ni  Ni345  1  0.50670719  0.88675312  0.12907732  1
  Ni  Ni346  1  0.49329281  0.61324688  0.62907732  1
  Ni  Ni347  1  0.00670719  0.11324688  0.37092268  1
  Ni  Ni348  1  0.00670719  0.61324688  0.12907732  1
  Ni  Ni349  1  0.49329281  0.11324688  0.87092268  1
  Ni  Ni350  1  0.50670719  0.38675312  0.37092268  1
  Ni  Ni351  1  0.99329281  0.88675312  0.62907732  1
  Ni  Ni352  1  0.00397543  0.57607738  0.84577656  1
  Ni  Ni353  1  0.49602457  0.07607738  0.15422344  1
  Ni  Ni354  1  0.50397543  0.42392262  0.65422344  1
  Ni  Ni355  1  0.99602457  0.92392262  0.34577656  1
  Ni  Ni356  1  0.99602457  0.42392262  0.15422344  1
  Ni  Ni357  1  0.50397543  0.92392262  0.84577656  1
  Ni  Ni358  1  0.49602457  0.57607738  0.34577656  1
  Ni  Ni359  1  0.00397543  0.07607738  0.65422344  1
  Ni  Ni360  1  0.15918173  0.58641530  0.95709674  1
  Ni  Ni361  1  0.34081827  0.08641530  0.04290326  1
  Ni  Ni362  1  0.65918173  0.41358470  0.54290326  1
  Ni  Ni363  1  0.84081827  0.91358470  0.45709674  1
  Ni  Ni364  1  0.84081827  0.41358470  0.04290326  1
  Ni  Ni365  1  0.65918173  0.91358470  0.95709674  1
  Ni  Ni366  1  0.34081827  0.58641530  0.45709674  1
  Ni  Ni367  1  0.15918173  0.08641530  0.54290326  1
  Ni  Ni368  1  0.14987984  0.39533430  0.98072343  1
  Ni  Ni369  1  0.35012016  0.89533430  0.01927657  1
  Ni  Ni370  1  0.64987984  0.60466570  0.51927657  1
  Ni  Ni371  1  0.85012016  0.10466570  0.48072343  1
  Ni  Ni372  1  0.85012016  0.60466570  0.01927657  1
  Ni  Ni373  1  0.64987984  0.10466570  0.98072343  1
  Ni  Ni374  1  0.35012016  0.39533430  0.48072343  1
  Ni  Ni375  1  0.14987984  0.89533430  0.51927657  1
  Cu  Cu376  1  0.99418682  0.22963699  0.02409978  1
  Cu  Cu377  1  0.50581318  0.72963699  0.97590022  1
  Cu  Cu378  1  0.49418682  0.77036301  0.47590022  1
  Cu  Cu379  1  0.00581318  0.27036301  0.52409978  1
  Cu  Cu380  1  0.00581318  0.77036301  0.97590022  1
  Cu  Cu381  1  0.49418682  0.27036301  0.02409978  1
  Cu  Cu382  1  0.50581318  0.22963699  0.52409978  1
  Cu  Cu383  1  0.99418682  0.72963699  0.47590022  1
  Cu  Cu384  1  0.22437473  0.50757833  0.16025619  1
  Cu  Cu385  1  0.27562527  0.00757833  0.83974381  1
  Cu  Cu386  1  0.72437473  0.49242167  0.33974381  1
  Cu  Cu387  1  0.77562527  0.99242167  0.66025619  1
  Cu  Cu388  1  0.77562527  0.49242167  0.83974381  1
  Cu  Cu389  1  0.72437473  0.99242167  0.16025619  1
  Cu  Cu390  1  0.27562527  0.50757833  0.66025619  1
  Cu  Cu391  1  0.22437473  0.00757833  0.33974381  1
