# generated using pymatgen
data_Cu5Ni5C3
_symmetry_space_group_name_H-M   'P 1'
_cell_length_a   4.52804200
_cell_length_b   14.53622600
_cell_length_c   18.43276600
_cell_angle_alpha   90.00000000
_cell_angle_beta   90.00000000
_cell_angle_gamma   90.00000000
_symmetry_Int_Tables_number   1
_chemical_formula_structural   Cu5Ni5C3
_chemical_formula_sum   'Cu20 Ni20 C12'
_cell_volume   1213.25648918
_cell_formula_units_Z   4
loop_
 _symmetry_equiv_pos_site_id
 _symmetry_equiv_pos_as_xyz
  1  'x, y, z'
loop_
 _atom_site_type_symbol
 _atom_site_label
 _atom_site_symmetry_multiplicity
 _atom_site_fract_x
 _atom_site_fract_y
 _atom_site_fract_z
 _atom_site_occupancy
  C  C0  1  0.25000000  0.41226300  0.65363700  1
  C  C1  1  0.25000000  0.91226300  0.84636300  1
  C  C2  1  0.75000000  0.58773700  0.34636300  1
  C  C3  1  0.75000000  0.08773700  0.15363700  1
  C  C4  1  0.25000000  0.20840800  0.48736100  1
  C  C5  1  0.25000000  0.70840800  0.01263900  1
  C  C6  1  0.75000000  0.79159200  0.51263900  1
  C  C7  1  0.75000000  0.29159200  0.98736100  1
  C  C8  1  0.25000000  0.13581400  0.69200600  1
  C  C9  1  0.25000000  0.63581400  0.80799400  1
  C  C10  1  0.75000000  0.86418600  0.30799400  1
  C  C11  1  0.75000000  0.36418600  0.19200600  1
  Ni  Ni12  1  0.25000000  0.44709900  0.45651800  1
  Ni  Ni13  1  0.25000000  0.94709900  0.04348200  1
  Ni  Ni14  1  0.75000000  0.55290100  0.54348200  1
  Ni  Ni15  1  0.75000000  0.05290100  0.95651800  1
  Ni  Ni16  1  0.25000000  0.16458700  0.87106000  1
  Ni  Ni17  1  0.25000000  0.66458700  0.62894000  1
  Ni  Ni18  1  0.75000000  0.83541300  0.12894000  1
  Ni  Ni19  1  0.75000000  0.33541300  0.37106000  1
  Ni  Ni20  1  0.25000000  0.97688100  0.56151000  1
  Ni  Ni21  1  0.25000000  0.47688100  0.93849000  1
  Ni  Ni22  1  0.75000000  0.02311900  0.43849000  1
  Ni  Ni23  1  0.75000000  0.52311900  0.06151000  1
  Ni  Ni24  1  0.25000000  0.03706000  0.31055900  1
  Ni  Ni25  1  0.25000000  0.53706000  0.18944100  1
  Ni  Ni26  1  0.75000000  0.96294000  0.68944100  1
  Ni  Ni27  1  0.75000000  0.46294000  0.81055900  1
  Ni  Ni28  1  0.25000000  0.23404200  0.27411000  1
  Ni  Ni29  1  0.25000000  0.73404200  0.22589000  1
  Ni  Ni30  1  0.75000000  0.76595800  0.72589000  1
  Ni  Ni31  1  0.75000000  0.26595800  0.77411000  1
  Cu  Cu32  1  0.25000000  0.13201400  0.01607700  1
  Cu  Cu33  1  0.25000000  0.63201400  0.48392300  1
  Cu  Cu34  1  0.75000000  0.86798600  0.98392300  1
  Cu  Cu35  1  0.75000000  0.36798600  0.51607700  1
  Cu  Cu36  1  0.25000000  0.35031300  0.82568400  1
  Cu  Cu37  1  0.25000000  0.85031300  0.67431600  1
  Cu  Cu38  1  0.75000000  0.64968700  0.17431600  1
  Cu  Cu39  1  0.75000000  0.14968700  0.32568400  1
  Cu  Cu40  1  0.25000000  0.74362300  0.37886500  1
  Cu  Cu41  1  0.25000000  0.24362300  0.12113500  1
  Cu  Cu42  1  0.75000000  0.25637700  0.62113500  1
  Cu  Cu43  1  0.75000000  0.75637700  0.87886500  1
  Cu  Cu44  1  0.25000000  0.42144700  0.30944800  1
  Cu  Cu45  1  0.25000000  0.92144700  0.19055200  1
  Cu  Cu46  1  0.75000000  0.57855300  0.69055200  1
  Cu  Cu47  1  0.75000000  0.07855300  0.80944800  1
  Cu  Cu48  1  0.25000000  0.91296600  0.42466100  1
  Cu  Cu49  1  0.25000000  0.41296600  0.07533900  1
  Cu  Cu50  1  0.75000000  0.08703400  0.57533900  1
  Cu  Cu51  1  0.75000000  0.58703400  0.92466100  1
