# generated using pymatgen
data_Cu14NiC16
_symmetry_space_group_name_H-M   'P 1'
_cell_length_a   8.70670826
_cell_length_b   8.89137651
_cell_length_c   4.43136810
_cell_angle_alpha   90.00000000
_cell_angle_beta   90.00000000
_cell_angle_gamma   90.00000000
_symmetry_Int_Tables_number   1
_chemical_formula_structural   Cu14NiC16
_chemical_formula_sum   'Cu14 Ni1 C16'
_cell_volume   343.05268331
_cell_formula_units_Z   1
loop_
 _symmetry_equiv_pos_site_id
 _symmetry_equiv_pos_as_xyz
  1  'x, y, z'
loop_
 _atom_site_type_symbol
 _atom_site_label
 _atom_site_symmetry_multiplicity
 _atom_site_fract_x
 _atom_site_fract_y
 _atom_site_fract_z
 _atom_site_occupancy
  C  C0  1  0.04576371  0.00000000  -0.00000000  1
  Ni  Ni1  1  0.50637282  0.50000000  -0.00000000  1
  Cu  Cu2  1  0.99277936  0.50000000  -0.00000000  1
  Cu  Cu3  1  0.49362993  0.00000000  -0.00000000  1
  Cu  Cu4  1  0.99394525  0.25106291  0.50000000  1
  Cu  Cu5  1  0.99394525  0.74893709  0.50000000  1
  Cu  Cu6  1  0.50213723  0.24081726  0.50000000  1
  Cu  Cu7  1  0.50213723  0.75918274  0.50000000  1
  Cu  Cu8  1  0.26620557  0.00000000  0.50000000  1
  Cu  Cu9  1  0.23827958  0.50000000  0.50000000  1
  Cu  Cu10  1  0.74707263  0.00000000  0.50000000  1
  Cu  Cu11  1  0.75917355  0.50000000  0.50000000  1
  Cu  Cu12  1  0.24672229  0.26204623  -0.00000000  1
  Cu  Cu13  1  0.24672229  0.73795377  -0.00000000  1
  Cu  Cu14  1  0.75774672  0.23607317  -0.00000000  1
  Cu  Cu15  1  0.75774672  0.76392683  0.00000000  1
  C  C16  1  0.25628807  0.50000000  -0.00000000  1
  C  C17  1  0.72459685  0.00000000  -0.00000000  1
  C  C18  1  0.74747034  0.50000000  -0.00000000  1
  C  C19  1  0.24895665  0.25484963  0.50000000  1
  C  C20  1  0.24895665  0.74515037  0.50000000  1
  C  C21  1  0.74624832  0.25437762  0.50000000  1
  C  C22  1  0.74624832  0.74562238  0.50000000  1
  C  C23  1  0.97284396  0.00000000  0.50000000  1
  C  C24  1  0.99860234  0.50000000  0.50000000  1
  C  C25  1  0.50476999  0.00000000  0.50000000  1
  C  C26  1  0.50191749  0.50000000  0.50000000  1
  C  C27  1  0.99743909  0.27904729  -0.00000000  1
  C  C28  1  0.99743909  0.72095271  0.00000000  1
  C  C29  1  0.50392136  0.26000343  -0.00000000  1
  C  C30  1  0.50392136  0.73999657  0.00000000  1
