# generated using pymatgen
data_Cu10Ni2C7
_symmetry_space_group_name_H-M   'P 1'
_cell_length_a   4.75474720
_cell_length_b   4.75474720
_cell_length_c   11.43746238
_cell_angle_alpha   95.72401871
_cell_angle_beta   95.72401871
_cell_angle_gamma   93.03056346
_symmetry_Int_Tables_number   1
_chemical_formula_structural   Cu10Ni2C7
_chemical_formula_sum   'Cu10 Ni2 C7'
_cell_volume   255.48587152
_cell_formula_units_Z   1
loop_
 _symmetry_equiv_pos_site_id
 _symmetry_equiv_pos_as_xyz
  1  'x, y, z'
loop_
 _atom_site_type_symbol
 _atom_site_label
 _atom_site_symmetry_multiplicity
 _atom_site_fract_x
 _atom_site_fract_y
 _atom_site_fract_z
 _atom_site_occupancy
  C  C0  1  0.66970500  0.66970500  0.13600800  1
  C  C1  1  0.01573400  0.01573400  0.92723600  1
  C  C2  1  0.01777700  0.01777700  0.40562500  1
  C  C3  1  0.04458100  0.04458100  0.66418100  1
  C  C4  1  0.20750500  0.20750500  0.20511700  1
  C  C5  1  0.58269800  0.58269800  0.80308900  1
  C  C6  1  0.50250300  0.50250300  0.50348700  1
  Ni  Ni7  1  0.29184700  0.29184700  0.36757700  1
  Ni  Ni8  1  0.74240300  0.74240300  0.95385700  1
  Cu  Cu9  1  0.20057100  0.77841200  0.17238100  1
  Cu  Cu10  1  0.26067200  0.86834000  0.80288400  1
  Cu  Cu11  1  0.22633000  0.81716600  0.52765700  1
  Cu  Cu12  1  0.27886900  0.27886900  0.04190400  1
  Cu  Cu13  1  0.35049500  0.35049500  0.66444800  1
  Cu  Cu14  1  0.73556800  0.73556800  0.65118700  1
  Cu  Cu15  1  0.72826700  0.72826700  0.34186900  1
  Cu  Cu16  1  0.77841200  0.20057100  0.17238100  1
  Cu  Cu17  1  0.86834000  0.26067200  0.80288400  1
  Cu  Cu18  1  0.81716600  0.22633000  0.52765700  1
