# generated using pymatgen
data_Cu3NiC5
_symmetry_space_group_name_H-M   'P 1'
_cell_length_a   6.25034800
_cell_length_b   6.25363000
_cell_length_c   6.25763600
_cell_angle_alpha   89.99981682
_cell_angle_beta   90.00020155
_cell_angle_gamma   89.99994501
_symmetry_Int_Tables_number   1
_chemical_formula_structural   Cu3NiC5
_chemical_formula_sum   'Cu3 Ni1 C5'
_cell_volume   244.59449463
_cell_formula_units_Z   1
loop_
 _symmetry_equiv_pos_site_id
 _symmetry_equiv_pos_as_xyz
  1  'x, y, z'
loop_
 _atom_site_type_symbol
 _atom_site_label
 _atom_site_symmetry_multiplicity
 _atom_site_fract_x
 _atom_site_fract_y
 _atom_site_fract_z
 _atom_site_occupancy
  C  C0  1  0.49999800  0.50000200  0.50000100  1
  Ni  Ni1  1  0.00000100  0.99999900  0.00000000  1
  Cu  Cu2  1  0.00000000  0.50000100  0.00000000  1
  Cu  Cu3  1  0.00000000  0.00000000  0.49999800  1
  Cu  Cu4  1  0.50000000  0.00000000  0.00000000  1
  C  C5  1  0.21251200  0.21258700  0.21265500  1
  C  C6  1  0.78748900  0.78741200  0.21265500  1
  C  C7  1  0.21251200  0.78741200  0.78734600  1
  C  C8  1  0.78748900  0.21258800  0.78734600  1
