# generated using pymatgen
data_CuNiC8
_symmetry_space_group_name_H-M   'P 1'
_cell_length_a   10.10558000
_cell_length_b   5.67138000
_cell_length_c   9.70025430
_cell_angle_alpha   87.17250215
_cell_angle_beta   90.00000000
_cell_angle_gamma   90.00000000
_symmetry_Int_Tables_number   1
_chemical_formula_structural   CuNiC8
_chemical_formula_sum   'Cu4 Ni4 C32'
_cell_volume   555.26982080
_cell_formula_units_Z   4
loop_
 _symmetry_equiv_pos_site_id
 _symmetry_equiv_pos_as_xyz
  1  'x, y, z'
loop_
 _atom_site_type_symbol
 _atom_site_label
 _atom_site_symmetry_multiplicity
 _atom_site_fract_x
 _atom_site_fract_y
 _atom_site_fract_z
 _atom_site_occupancy
  C  C0  1  0.31830200  0.73847500  0.49854100  1
  C  C1  1  0.81830200  0.26152500  0.00145900  1
  C  C2  1  0.68169800  0.26152500  0.50145900  1
  C  C3  1  0.18169800  0.73847500  0.99854100  1
  Ni  Ni4  1  0.61182300  0.80512400  0.81072500  1
  Ni  Ni5  1  0.38817700  0.19487600  0.18927500  1
  Ni  Ni6  1  0.88817700  0.80512400  0.31072500  1
  Ni  Ni7  1  0.11182300  0.19487600  0.68927500  1
  Cu  Cu8  1  0.39946000  0.30350300  0.81070400  1
  Cu  Cu9  1  0.89946000  0.69649700  0.68929600  1
  Cu  Cu10  1  0.10054000  0.30350300  0.31070400  1
  Cu  Cu11  1  0.60054000  0.69649700  0.18929600  1
  C  C12  1  0.44229100  0.88764400  0.12060500  1
  C  C13  1  0.05354600  0.63581200  0.37159000  1
  C  C14  1  0.70798700  0.52094700  0.75360600  1
  C  C15  1  0.29201300  0.47905300  0.24639400  1
  C  C16  1  0.45911000  0.11027000  0.36768500  1
  C  C17  1  0.80778800  0.74118000  0.49769100  1
  C  C18  1  0.77911100  0.97870700  0.75074400  1
  C  C19  1  0.95911000  0.88973000  0.13231500  1
  C  C20  1  0.44645400  0.63581200  0.87159000  1
  C  C21  1  0.20798700  0.47905300  0.74639400  1
  C  C22  1  0.05770900  0.88764400  0.62060500  1
  C  C23  1  0.55770900  0.11235600  0.87939500  1
  C  C24  1  0.27911100  0.02129300  0.74925600  1
  C  C25  1  0.95823900  0.61146400  0.87592400  1
  C  C26  1  0.54089000  0.88973000  0.63231500  1
  C  C27  1  0.04089000  0.11027000  0.86768500  1
  C  C28  1  0.22088900  0.02129300  0.24925600  1
  C  C29  1  0.94229100  0.11235600  0.37939500  1
  C  C30  1  0.45823900  0.38853600  0.62407600  1
  C  C31  1  0.94645400  0.36418800  0.62841000  1
  C  C32  1  0.04176100  0.38853600  0.12407600  1
  C  C33  1  0.72088900  0.97870700  0.25074400  1
  C  C34  1  0.54176100  0.61146400  0.37592400  1
  C  C35  1  0.30778800  0.25882000  0.00230900  1
  C  C36  1  0.19221200  0.25882000  0.50230900  1
  C  C37  1  0.69221200  0.74118000  0.99769100  1
  C  C38  1  0.55354600  0.36418800  0.12841000  1
  C  C39  1  0.79201300  0.52094700  0.25360600  1
