# generated using pymatgen
data_Cu10Ni2C7
_symmetry_space_group_name_H-M   'P 1'
_cell_length_a   4.88601676
_cell_length_b   5.15028054
_cell_length_c   9.62484316
_cell_angle_alpha   89.17802336
_cell_angle_beta   89.68941356
_cell_angle_gamma   93.98965077
_symmetry_Int_Tables_number   1
_chemical_formula_structural   Cu10Ni2C7
_chemical_formula_sum   'Cu10 Ni2 C7'
_cell_volume   241.58617746
_cell_formula_units_Z   1
loop_
 _symmetry_equiv_pos_site_id
 _symmetry_equiv_pos_as_xyz
  1  'x, y, z'
loop_
 _atom_site_type_symbol
 _atom_site_label
 _atom_site_symmetry_multiplicity
 _atom_site_fract_x
 _atom_site_fract_y
 _atom_site_fract_z
 _atom_site_occupancy
  C  C0  1  0.54842800  0.03515100  0.00915300  1
  C  C1  1  0.03414800  0.58983600  0.01214000  1
  C  C2  1  0.03660100  0.07313200  0.34086000  1
  C  C3  1  0.97988700  0.02696500  0.65638600  1
  C  C4  1  0.55177500  0.51953300  0.19984600  1
  C  C5  1  0.49072000  0.50569800  0.81175800  1
  C  C6  1  0.48022900  0.53474000  0.48908400  1
  Ni  Ni7  1  0.31486600  0.35402300  0.33079300  1
  Ni  Ni8  1  0.64879200  0.62113300  0.00088900  1
  Cu  Cu9  1  0.20912500  0.83288700  0.15163500  1
  Cu  Cu10  1  0.20543700  0.79671000  0.84083300  1
  Cu  Cu11  1  0.20285300  0.85355300  0.50619400  1
  Cu  Cu12  1  0.21482300  0.28712300  0.95096900  1
  Cu  Cu13  1  0.27459100  0.33571200  0.65612200  1
  Cu  Cu14  1  0.69779600  0.70769500  0.65634000  1
  Cu  Cu15  1  0.72676400  0.77095200  0.33513600  1
  Cu  Cu16  1  0.83063400  0.23959100  0.16609700  1
  Cu  Cu17  1  0.73581300  0.18908100  0.80717200  1
  Cu  Cu18  1  0.80282800  0.22648500  0.50002400  1
