# generated using pymatgen
data_Cu4NiC15
_symmetry_space_group_name_H-M   'P 1'
_cell_length_a   5.64659100
_cell_length_b   7.02922933
_cell_length_c   7.65468921
_cell_angle_alpha   89.54942890
_cell_angle_beta   76.61551303
_cell_angle_gamma   89.19062833
_symmetry_Int_Tables_number   1
_chemical_formula_structural   Cu4NiC15
_chemical_formula_sum   'Cu4 Ni1 C15'
_cell_volume   295.53860500
_cell_formula_units_Z   1
loop_
 _symmetry_equiv_pos_site_id
 _symmetry_equiv_pos_as_xyz
  1  'x, y, z'
loop_
 _atom_site_type_symbol
 _atom_site_label
 _atom_site_symmetry_multiplicity
 _atom_site_fract_x
 _atom_site_fract_y
 _atom_site_fract_z
 _atom_site_occupancy
  Ni  Ni0  1  0.00000000  0.00000000  0.00000000  1
  Cu  Cu1  1  0.55361300  0.30585000  0.81965300  1
  Cu  Cu2  1  0.44638700  0.69415000  0.18034700  1
  Cu  Cu3  1  0.86642200  0.34313900  0.39122600  1
  Cu  Cu4  1  0.13357800  0.65686100  0.60877400  1
  C  C5  1  0.78225900  0.17841100  0.89528100  1
  C  C6  1  0.21774100  0.82158900  0.10471900  1
  C  C7  1  0.29776800  0.16296600  0.89018300  1
  C  C8  1  0.70223200  0.83703400  0.10981700  1
  C  C9  1  0.50000000  0.50000000  0.00000000  1
  C  C10  1  0.64368500  0.20684300  0.56869300  1
  C  C11  1  0.35631500  0.79315700  0.43130700  1
  C  C12  1  0.84402400  0.49668800  0.64713300  1
  C  C13  1  0.15597600  0.50331200  0.35286700  1
  C  C14  1  0.33201400  0.50000600  0.69546500  1
  C  C15  1  0.66798600  0.49999400  0.30453500  1
  C  C16  1  0.95473600  0.17078500  0.21823600  1
  C  C17  1  0.04526400  0.82921500  0.78176400  1
  C  C18  1  0.13458300  0.18402000  0.49083500  1
  C  C19  1  0.86541700  0.81598000  0.50916500  1
