# generated using pymatgen
data_Cu3Ni2C
_symmetry_space_group_name_H-M   'P 1'
_cell_length_a   5.45066600
_cell_length_b   14.10904300
_cell_length_c   13.96386400
_cell_angle_alpha   90.00000000
_cell_angle_beta   90.00000000
_cell_angle_gamma   90.00000000
_symmetry_Int_Tables_number   1
_chemical_formula_structural   Cu3Ni2C
_chemical_formula_sum   'Cu24 Ni16 C8'
_cell_volume   1073.87254220
_cell_formula_units_Z   8
loop_
 _symmetry_equiv_pos_site_id
 _symmetry_equiv_pos_as_xyz
  1  'x, y, z'
loop_
 _atom_site_type_symbol
 _atom_site_label
 _atom_site_symmetry_multiplicity
 _atom_site_fract_x
 _atom_site_fract_y
 _atom_site_fract_z
 _atom_site_occupancy
  C  C0  1  0.50000000  0.00000000  0.00000000  1
  C  C1  1  0.50000000  0.50000000  0.50000000  1
  C  C2  1  0.50000000  0.50000000  0.00000000  1
  C  C3  1  0.50000000  0.00000000  0.50000000  1
  C  C4  1  0.00000000  0.70004000  0.19475600  1
  C  C5  1  0.00000000  0.29996000  0.80524400  1
  C  C6  1  0.00000000  0.20004000  0.30524400  1
  C  C7  1  0.00000000  0.79996000  0.69475600  1
  Ni  Ni8  1  0.00000000  0.92887000  0.11615100  1
  Ni  Ni9  1  0.00000000  0.07113000  0.88384900  1
  Ni  Ni10  1  0.00000000  0.42887000  0.38384900  1
  Ni  Ni11  1  0.00000000  0.57113000  0.61615100  1
  Ni  Ni12  1  0.00000000  0.64395600  0.04318400  1
  Ni  Ni13  1  0.00000000  0.35604400  0.95681600  1
  Ni  Ni14  1  0.00000000  0.14395600  0.45681600  1
  Ni  Ni15  1  0.00000000  0.85604400  0.54318400  1
  Ni  Ni16  1  0.25734000  0.75809500  0.31813700  1
  Ni  Ni17  1  0.25734000  0.24190500  0.68186300  1
  Ni  Ni18  1  0.74266000  0.25809500  0.18186300  1
  Ni  Ni19  1  0.74266000  0.74190500  0.81813700  1
  Ni  Ni20  1  0.74266000  0.24190500  0.68186300  1
  Ni  Ni21  1  0.74266000  0.75809500  0.31813700  1
  Ni  Ni22  1  0.25734000  0.74190500  0.81813700  1
  Ni  Ni23  1  0.25734000  0.25809500  0.18186300  1
  Cu  Cu24  1  0.50000000  0.94548100  0.89159600  1
  Cu  Cu25  1  0.50000000  0.05451900  0.10840400  1
  Cu  Cu26  1  0.50000000  0.44548100  0.60840400  1
  Cu  Cu27  1  0.50000000  0.55451900  0.39159600  1
  Cu  Cu28  1  0.24974000  0.90502600  0.04102600  1
  Cu  Cu29  1  0.24974000  0.09497400  0.95897400  1
  Cu  Cu30  1  0.75026000  0.40502600  0.45897400  1
  Cu  Cu31  1  0.75026000  0.59497400  0.54102600  1
  Cu  Cu32  1  0.75026000  0.09497400  0.95897400  1
  Cu  Cu33  1  0.75026000  0.90502600  0.04102600  1
  Cu  Cu34  1  0.24974000  0.59497400  0.54102600  1
  Cu  Cu35  1  0.24974000  0.40502600  0.45897400  1
  Cu  Cu36  1  0.50000000  0.37385800  0.95302900  1
  Cu  Cu37  1  0.50000000  0.62614200  0.04697100  1
  Cu  Cu38  1  0.50000000  0.87385800  0.54697100  1
  Cu  Cu39  1  0.50000000  0.12614200  0.45302900  1
  Cu  Cu40  1  0.30838400  0.51380900  0.88834400  1
  Cu  Cu41  1  0.30838400  0.48619100  0.11165600  1
  Cu  Cu42  1  0.69161600  0.01380900  0.61165600  1
  Cu  Cu43  1  0.69161600  0.98619100  0.38834400  1
  Cu  Cu44  1  0.69161600  0.48619100  0.11165600  1
  Cu  Cu45  1  0.69161600  0.51380900  0.88834400  1
  Cu  Cu46  1  0.30838400  0.98619100  0.38834400  1
  Cu  Cu47  1  0.30838400  0.01380900  0.61165600  1
