# generated using pymatgen
data_Cu2NiC4
_symmetry_space_group_name_H-M   'P 1'
_cell_length_a   8.76286551
_cell_length_b   8.76286551
_cell_length_c   2.83163600
_cell_angle_alpha   90.00000000
_cell_angle_beta   90.00000000
_cell_angle_gamma   119.99999630
_symmetry_Int_Tables_number   1
_chemical_formula_structural   Cu2NiC4
_chemical_formula_sum   'Cu6 Ni3 C12'
_cell_volume   188.30435558
_cell_formula_units_Z   3
loop_
 _symmetry_equiv_pos_site_id
 _symmetry_equiv_pos_as_xyz
  1  'x, y, z'
loop_
 _atom_site_type_symbol
 _atom_site_label
 _atom_site_symmetry_multiplicity
 _atom_site_fract_x
 _atom_site_fract_y
 _atom_site_fract_z
 _atom_site_occupancy
  Ni  Ni0  1  0.33333300  0.66666700  0.00000000  1
  Ni  Ni1  1  0.00000000  0.00000000  0.50000000  1
  Ni  Ni2  1  0.66666700  0.33333300  0.00000000  1
  Cu  Cu3  1  0.02019000  0.34358400  0.00000000  1
  Cu  Cu4  1  0.32339400  0.97981000  0.00000000  1
  Cu  Cu5  1  0.65641600  0.67660600  0.00000000  1
  Cu  Cu6  1  0.31448700  0.32329300  0.50000000  1
  Cu  Cu7  1  0.00880600  0.68551300  0.50000000  1
  Cu  Cu8  1  0.67670700  0.99119400  0.50000000  1
  C  C9  1  0.13489500  0.20270500  0.00000000  1
  C  C10  1  0.06781000  0.86510500  0.00000000  1
  C  C11  1  0.79729500  0.93219000  0.00000000  1
  C  C12  1  0.19867000  0.46408600  0.50000000  1
  C  C13  1  0.26541600  0.80133000  0.50000000  1
  C  C14  1  0.53591400  0.73458400  0.50000000  1
  C  C15  1  0.56358400  0.03860900  0.00000000  1
  C  C16  1  0.47502500  0.43641600  0.00000000  1
  C  C17  1  0.96139100  0.52497500  0.00000000  1
  C  C18  1  0.76951500  0.62753900  0.50000000  1
  C  C19  1  0.85802500  0.23048500  0.50000000  1
  C  C20  1  0.37246100  0.14197500  0.50000000  1
