# generated using pymatgen
data_CuNiC19
_symmetry_space_group_name_H-M   'P 1'
_cell_length_a   6.75763400
_cell_length_b   7.40964541
_cell_length_c   10.47250838
_cell_angle_alpha   87.32834775
_cell_angle_beta   105.28101223
_cell_angle_gamma   102.22358604
_symmetry_Int_Tables_number   1
_chemical_formula_structural   CuNiC19
_chemical_formula_sum   'Cu2 Ni2 C38'
_cell_volume   494.34519363
_cell_formula_units_Z   2
loop_
 _symmetry_equiv_pos_site_id
 _symmetry_equiv_pos_as_xyz
  1  'x, y, z'
loop_
 _atom_site_type_symbol
 _atom_site_label
 _atom_site_symmetry_multiplicity
 _atom_site_fract_x
 _atom_site_fract_y
 _atom_site_fract_z
 _atom_site_occupancy
  Ni  Ni0  1  0.83638800  0.51308300  0.64074100  1
  Ni  Ni1  1  0.16361200  0.48691700  0.35925900  1
  Cu  Cu2  1  0.71847200  0.75693400  0.94257600  1
  Cu  Cu3  1  0.28152800  0.24306600  0.05742400  1
  C  C4  1  0.22317700  0.74755400  0.95282300  1
  C  C5  1  0.77682300  0.25244600  0.04717700  1
  C  C6  1  0.44180800  0.65055900  0.17568100  1
  C  C7  1  0.55819200  0.34944100  0.82431900  1
  C  C8  1  0.18784300  0.85050100  0.17250000  1
  C  C9  1  0.81215700  0.14949900  0.82750000  1
  C  C10  1  0.85031100  0.74878700  0.25577600  1
  C  C11  1  0.14968900  0.25121300  0.74422400  1
  C  C12  1  0.88739500  0.96513300  0.66071900  1
  C  C13  1  0.11260500  0.03486700  0.33928100  1
  C  C14  1  0.34704300  0.54164400  0.66483800  1
  C  C15  1  0.65295700  0.45835600  0.33516200  1
  C  C16  1  0.78412200  0.96836500  0.76062900  1
  C  C17  1  0.21587800  0.03163500  0.23937100  1
  C  C18  1  0.21506500  0.90131500  0.03862300  1
  C  C19  1  0.78493500  0.09868500  0.96137700  1
  C  C20  1  0.83932000  0.57096900  0.32892600  1
  C  C21  1  0.16068000  0.42903100  0.67107400  1
  C  C22  1  0.31705400  0.59907000  0.03673800  1
  C  C23  1  0.68294600  0.40093000  0.96326200  1
  C  C24  1  0.97155300  0.74585300  0.15667800  1
  C  C25  1  0.02844700  0.25414700  0.84332200  1
  C  C26  1  0.01593500  0.67532100  0.87242800  1
  C  C27  1  0.98406500  0.32467900  0.12757200  1
  C  C28  1  0.33076000  0.73977500  0.24462100  1
  C  C29  1  0.66924000  0.26022500  0.75537900  1
  C  C30  1  0.64295600  0.76300800  0.16867700  1
  C  C31  1  0.35704400  0.23699200  0.83132300  1
  C  C32  1  0.53569300  0.53285900  0.75869500  1
  C  C33  1  0.46430700  0.46714100  0.24130500  1
  C  C34  1  0.94751400  0.90015200  0.35037400  1
  C  C35  1  0.05248600  0.09984800  0.64962600  1
  C  C36  1  0.35997300  0.80980800  0.86880600  1
  C  C37  1  0.64002700  0.19019200  0.13119400  1
  C  C38  1  0.34462300  0.65475500  0.55911400  1
  C  C39  1  0.65537700  0.34524500  0.44088600  1
  C  C40  1  0.80858900  0.81462400  0.57739300  1
  C  C41  1  0.19141100  0.18537600  0.42260700  1
