# generated using pymatgen
data_Cu4NiC3
_symmetry_space_group_name_H-M   'P 1'
_cell_length_a   6.45386800
_cell_length_b   8.07961400
_cell_length_c   13.81110600
_cell_angle_alpha   90.00000000
_cell_angle_beta   90.00000000
_cell_angle_gamma   90.00000000
_symmetry_Int_Tables_number   1
_chemical_formula_structural   Cu4NiC3
_chemical_formula_sum   'Cu16 Ni4 C12'
_cell_volume   720.17683874
_cell_formula_units_Z   4
loop_
 _symmetry_equiv_pos_site_id
 _symmetry_equiv_pos_as_xyz
  1  'x, y, z'
loop_
 _atom_site_type_symbol
 _atom_site_label
 _atom_site_symmetry_multiplicity
 _atom_site_fract_x
 _atom_site_fract_y
 _atom_site_fract_z
 _atom_site_occupancy
  C  C0  1  0.64568200  0.50042700  0.33523400  1
  C  C1  1  0.14568200  0.49957300  0.66476600  1
  C  C2  1  0.14568200  0.00042700  0.16476600  1
  C  C3  1  0.64568200  0.99957300  0.83523400  1
  C  C4  1  0.64339000  0.25512400  0.57952500  1
  C  C5  1  0.14339000  0.74487600  0.42047500  1
  C  C6  1  0.14339000  0.75512400  0.92047500  1
  C  C7  1  0.64339000  0.24487600  0.07952500  1
  C  C8  1  0.13404400  0.49359400  0.16584400  1
  C  C9  1  0.63404400  0.50640600  0.83415600  1
  C  C10  1  0.63404400  0.99359400  0.33415600  1
  C  C11  1  0.13404400  0.00640600  0.66584400  1
  Ni  Ni12  1  0.13517600  0.24410800  0.41363400  1
  Ni  Ni13  1  0.63517600  0.75589200  0.58636600  1
  Ni  Ni14  1  0.63517600  0.74410800  0.08636600  1
  Ni  Ni15  1  0.13517600  0.25589200  0.91363400  1
  Cu  Cu16  1  0.25741000  0.24829500  0.58008000  1
  Cu  Cu17  1  0.75741000  0.75170500  0.41992000  1
  Cu  Cu18  1  0.75741000  0.74829500  0.91992000  1
  Cu  Cu19  1  0.25741000  0.25170500  0.08008000  1
  Cu  Cu20  1  0.75739600  0.24267300  0.41011400  1
  Cu  Cu21  1  0.25739600  0.75732700  0.58988600  1
  Cu  Cu22  1  0.25739600  0.74267300  0.08988600  1
  Cu  Cu23  1  0.75739600  0.25732700  0.91011400  1
  Cu  Cu24  1  0.26133900  0.99721500  0.33326700  1
  Cu  Cu25  1  0.76133900  0.00278500  0.66673300  1
  Cu  Cu26  1  0.76133900  0.49721500  0.16673300  1
  Cu  Cu27  1  0.26133900  0.50278500  0.83326700  1
  Cu  Cu28  1  0.25762200  0.49163500  0.33084200  1
  Cu  Cu29  1  0.75762200  0.50836500  0.66915800  1
  Cu  Cu30  1  0.75762200  0.99163500  0.16915800  1
  Cu  Cu31  1  0.25762200  0.00836500  0.83084200  1
